data_PCOD8085868
_publ_section_title
;
Structure prediction by ZEFSAII (Michael W. Deem and Ramdas Pophale) SiO2 
 PCOD8085868
Probable space group: C 2/M
;
_chemical_formula_sum "Si O2"
_cell_formula_units_Z 64
_cell_length_a 20.902319
_cell_length_b 8.813476
_cell_length_c 19.870684
_cell_angle_alpha 90.000000
_cell_angle_beta 76.343436
_cell_angle_gamma 90.000000
_cell_volume 3557.127277
_symmetry_space_group_name_H-M "C 2/M"
_symmetry_group_IT_number 12
_symmetry_cell_setting 'monoclinic'
loop_
_space_group_symop_operation_xyz
x,y,z
-x,y,-z
-x,-y,-z
x,-y,z
1/2+x,1/2+y,z
1/2-x,1/2+y,-z
1/2-x,1/2-y,-z
1/2+x,1/2-y,z
loop_
_atom_site_type_symbol
_atom_site_label
_atom_site_fract_x
_atom_site_fract_y
_atom_site_fract_z
Si Si1 0.179922 0.180679 0.791329
Si Si2 0.793576 0.324576 0.577736
Si Si3 0.448038 0.320228 0.917600
Si Si4 0.423094 0.321254 0.294893
Si Si5 0.409829 0.679517 0.070360
Si Si6 0.341145 0.824634 0.422991
Si Si7 0.939445 0.679869 0.780353
Si Si8 0.321981 0.821726 0.718351
O O1 0.131619 0.237414 0.744266
O O2 0.151861 0.239568 0.870383
O O3 0.252754 0.248822 0.761916
O O4 0.181991 0.000000 0.788963
O O5 0.770119 0.500000 0.583824
O O6 0.729100 0.221979 0.589687
O O7 0.842072 0.292564 0.503038
O O8 0.831852 0.283752 0.636900
O O9 0.444408 0.500000 0.906062
O O10 0.522709 0.264530 0.911800
O O11 0.420235 0.233513 0.859920
O O12 0.404863 0.269161 0.993577
O O13 0.432516 0.500000 0.289093
O O14 0.399783 0.271581 0.375029
O O15 0.491910 0.246115 0.260691
O O16 0.412758 0.500000 0.070838
O O17 0.353413 0.000000 0.404009
O O18 0.943050 0.500000 0.776902
O O19 0.882935 0.745808 0.744904
O O20 0.319389 0.000000 0.730934
#
# Coordination Sequence:
#
# PCOD8085868 Si02
#       8
#     8   8   8   8   8   8   8   8
#     4   9  15  28  54  79  94 124 178 220 241 285
#     4   9  17  33  54  76 104 142 179 206 248 313
#     4   9  16  30  51  75 102 132 171 211 255 308
#     4  11  20  34  57  77 100 136 178 215 254 311
#     4   8  14  26  50  79  99 124 173 222 246 292
#     4  10  19  30  51  83 111 129 163 223 271 298
#     4  11  22  34  50  75 108 137 169 216 264 306
#     4   9  18  33  52  74 102 140 179 209 247 309
#
# _framework density 17.992046999999999
#
# number of rings (size 3 to 8) (size 9 to 14) (size 15 to 20)
#    0.000    2.500    2.500    1.875    0.000    0.500 
#    0.000    3.750    0.000    3.750    0.000    0.000 
#    0.000    0.000    0.000    0.000    0.000    0.000 
#
# Total GULP energy -396670.142398 kJ/mol
# GULP energy per Si atom -12395.941950 kJ/mol
# Density = 1.795110 g / cm^3
# Si number density = 17.992047 Si / 1000 Ang^3
#
#
#
# Elastic Constant Matrix: (Units=GPa)
#
#
# Indices 1 2 3 4 5 6 
#
# 1 111.8780 28.3628 75.4426 0.0000 5.6236 0.0000
# 2 28.3628 38.7708 32.5014 0.0000 1.9817 0.0000
# 3 75.4426 32.5014 165.3995 0.0000 0.5075 0.0000
# 4 0.0000 0.0000 0.0000 26.9917 0.0000 -0.5873
# 5 5.6236 1.9817 0.5075 0.0000 29.6371 0.0000
# 6 0.0000 0.0000 0.0000 -0.5873 0.0000 18.6115
#
#
#
# Elastic Compliance Matrix: (Units=1/GPa)
#
#
# Indices 1 2 3 4 5 6 
#
# 1 0.014067 -0.005753 -0.005279 0.000000 -0.002194 0.000000
# 2 -0.005753 0.033347 -0.003925 0.000000 -0.001071 0.000000
# 3 -0.005279 -0.003925 0.009222 0.000000 0.001106 0.000000
# 4 0.000000 0.000000 0.000000 0.037074 0.000000 0.001170
# 5 -0.002194 -0.001071 0.001106 0.000000 0.034210 0.000000
# 6 0.000000 0.000000 0.000000 0.001170 0.000000 0.053767
#
#
# Mechanical properties :
#
#
# Convention : Reuss Voigt Hill
#
# Bulk Modulus (GPa) = 37.42449 65.40688 51.41569
# Shear Modulus (GPa) = 22.67487 27.03083 24.85285
#
# Velocity S-wave (km/s) = 3.55388 3.88025 3.72065
# Velocity P-wave (km/s) = 6.13888 7.51713 6.86269
#
# Compressibility (1/GPa) = 0.02672047
#
# Stress axis : x y z
#
# Youngs Moduli (GPa) = 71.08893 29.98805 108.43897
#
# Poissons Ratio (x) = 0.17253 0.57245
# Poissons Ratio (y) = 0.40898 0.42565
# Poissons Ratio (z) = 0.37528 0.11771
#
# Static dielectric constant tensor:
#      x y z
#    x 3.285830 0.000000 -0.102610 
#    y 0.000000 3.011160 0.000000 
#    z -0.102610 0.000000 3.788480 
# 
# 
# High freq. dielectric constant tensor:
#      x y z
#    x 1.667740 0.000000 -0.009250 
#    y 0.000000 1.663400 0.000000 
#    z -0.009250 0.000000 1.717440 
# 
# From -- ./inp_files/319142.got.cif
#   From: 2010.06.25/outbox.cif.g09.slc.cpg/sg12_160_cif.got.tgz:319142.got - 2010.06.28 00:19:55.
