data_PCOD8085734
_publ_section_title
;
Structure prediction by ZEFSAII (Michael W. Deem and Ramdas Pophale) SiO2 
 PCOD8085734
Probable space group: C 2/M
;
_chemical_formula_sum "Si O2"
_cell_formula_units_Z 64
_cell_length_a 20.329341
_cell_length_b 8.992522
_cell_length_c 31.300276
_cell_angle_alpha 90.000000
_cell_angle_beta 142.335687
_cell_angle_gamma 90.000000
_cell_volume 3496.378386
_symmetry_space_group_name_H-M "C 2/M"
_symmetry_group_IT_number 12
_symmetry_cell_setting 'monoclinic'
loop_
_space_group_symop_operation_xyz
x,y,z
-x,y,-z
-x,-y,-z
x,-y,z
1/2+x,1/2+y,z
1/2-x,1/2+y,-z
1/2-x,1/2-y,-z
1/2+x,1/2-y,z
loop_
_atom_site_type_symbol
_atom_site_label
_atom_site_fract_x
_atom_site_fract_y
_atom_site_fract_z
Si Si1 0.057416 0.674282 0.788352
Si Si2 0.438470 0.328704 0.652830
Si Si3 0.585118 0.174879 0.204073
Si Si4 0.795775 0.328763 0.437144
Si Si5 0.590397 0.332201 0.935926
Si Si6 0.763260 0.832381 0.072383
Si Si7 0.204177 0.327244 0.662435
Si Si8 0.510549 0.672754 0.418680
O O1 0.077990 0.500000 0.798028
O O2 0.171580 0.751951 0.856333
O O3 0.014778 0.727617 0.720922
O O4 0.970702 0.718327 0.779857
O O5 0.457666 0.500000 0.675355
O O6 0.314096 0.286334 0.595404
O O7 0.468033 0.294291 0.619623
O O8 0.519330 0.245108 0.130907
O O9 0.704802 0.239969 0.264651
O O10 0.589684 0.000000 0.199467
O O11 0.828774 0.500000 0.462459
O O12 0.779652 0.297116 0.379118
O O13 0.886662 0.220048 0.501156
O O14 0.562150 0.500000 0.934900
O O15 0.666632 0.329878 0.934190
O O16 0.650962 0.252529 0.006407
O O17 0.737272 0.000000 0.073286
O O18 0.214100 0.500000 0.678595
O O19 0.089005 0.269836 0.617563
O O20 0.487253 0.500000 0.415264
#
# Coordination Sequence:
#
# PCOD8085734 Si02
#       8
#     8   8   8   8   8   8   8   8
#     4  10  19  30  49  76 104 136 175 220 264 312
#     4  10  21  38  56  77 106 141 177 217 266 319
#     4  10  19  31  49  75 105 136 175 219 265 314
#     4  10  21  38  59  79 102 136 178 219 266 321
#     4   9  16  26  42  67 101 138 175 214 260 311
#     4   9  16  26  42  66 101 140 174 213 261 311
#     4  11  22  37  57  78 105 141 178 218 266 318
#     4  11  24  38  55  79 108 138 174 221 269 317
#
# _framework density 18.304653999999999
#
# number of rings (size 3 to 8) (size 9 to 14) (size 15 to 20)
#    0.000    2.000    1.250    3.000    0.000    8.000 
#    0.000    0.000    0.000    0.000    0.000    0.875 
#    0.000    7.000    0.000    0.000    0.000    0.000 
#
# Total GULP energy -396928.370309 kJ/mol
# GULP energy per Si atom -12404.011572 kJ/mol
# Density = 1.826299 g / cm^3
# Si number density = 18.304654 Si / 1000 Ang^3
#
#
#
# Elastic Constant Matrix: (Units=GPa)
#
#
# Indices 1 2 3 4 5 6 
#
# 1 121.9158 36.1499 85.3447 0.0000 67.1030 -0.0002
# 2 36.1499 107.7831 72.6806 0.0000 12.5496 -0.0005
# 3 85.3447 72.6806 195.4202 0.0000 66.4457 -0.0001
# 4 0.0000 0.0000 0.0000 44.1745 0.0001 1.3944
# 5 67.1030 12.5496 66.4457 0.0001 50.1387 -0.0002
# 6 -0.0002 -0.0005 -0.0001 1.3944 -0.0002 20.0111
#
#
#
# Elastic Compliance Matrix: (Units=1/GPa)
#
#
# Indices 1 2 3 4 5 6 
#
# 1 0.038442 -0.010824 0.006933 0.000000 -0.057927 0.000000
# 2 -0.010824 0.016313 -0.008878 0.000000 0.022167 0.000000
# 3 0.006933 -0.008878 0.014180 0.000000 -0.025849 0.000000
# 4 0.000000 0.000000 0.000000 0.022687 0.000000 -0.001581
# 5 -0.057927 0.022167 -0.025849 0.000000 0.126179 0.000001
# 6 0.000000 0.000000 0.000000 -0.001581 0.000001 0.050082
#
#
# Mechanical properties :
#
#
# Convention : Reuss Voigt Hill
#
# Bulk Modulus (GPa) = 23.04195 90.38550 56.71372
# Shear Modulus (GPa) = 16.23978 38.26115 27.25046
#
# Velocity S-wave (km/s) = 2.98181 4.57688 3.86258
# Velocity P-wave (km/s) = 4.94675 8.79864 7.13745
#
# Compressibility (1/GPa) = 0.04339911
#
# Stress axis : x y z
#
# Youngs Moduli (GPa) = 26.01339 61.29939 70.52196
#
# Poissons Ratio (x) = 0.66348 -0.48894
# Poissons Ratio (y) = 0.28156 0.62606
# Poissons Ratio (z) = -0.18036 0.54419
#
# Static dielectric constant tensor:
#      x y z
#    x 3.012470 0.000000 0.035840 
#    y 0.000000 3.474180 0.000000 
#    z 0.035840 0.000000 3.460820 
# 
# 
# High freq. dielectric constant tensor:
#      x y z
#    x 1.661960 0.000000 0.004110 
#    y 0.000000 1.723550 0.000000 
#    z 0.004110 0.000000 1.725010 
# 
# From -- ./inp_files/346187.got.cif
#   From: 2010.06.25/outbox.cif.g09.slc.cpg/sg12_174_cif.got.tgz:346187.got - 2010.06.28 00:19:55.
