data_PCOD8085500
_publ_section_title
;
Structure prediction by ZEFSAII (Michael W. Deem and Ramdas Pophale) SiO2 
 PCOD8085500
Probable space group: C 2/M
;
_chemical_formula_sum "Si O2"
_cell_formula_units_Z 64
_cell_length_a 18.751059
_cell_length_b 9.385828
_cell_length_c 22.504406
_cell_angle_alpha 90.000000
_cell_angle_beta 66.049856
_cell_angle_gamma 90.000000
_cell_volume 3619.629877
_symmetry_space_group_name_H-M "C 2/M"
_symmetry_group_IT_number 12
_symmetry_cell_setting 'monoclinic'
loop_
_space_group_symop_operation_xyz
x,y,z
-x,y,-z
-x,-y,-z
x,-y,z
1/2+x,1/2+y,z
1/2-x,1/2+y,-z
1/2-x,1/2-y,-z
1/2+x,1/2-y,z
loop_
_atom_site_type_symbol
_atom_site_label
_atom_site_fract_x
_atom_site_fract_y
_atom_site_fract_z
Si Si1 0.361569 0.332841 0.135360
Si Si2 0.640055 0.333618 0.379873
Si Si3 0.021370 0.166517 0.624545
Si Si4 0.011090 0.332298 0.126755
Si Si5 0.418093 0.657077 0.994143
Si Si6 0.544031 0.164307 0.250319
Si Si7 0.794249 0.665281 0.745580
Si Si8 0.674998 0.667811 0.502299
O O1 0.380179 0.500000 0.138902
O O2 0.428532 0.240167 0.142877
O O3 0.281222 0.285609 0.192516
O O4 0.355262 0.300516 0.066432
O O5 0.654220 0.500000 0.365941
O O6 0.551135 0.291803 0.393513
O O7 0.701149 0.251725 0.317316
O O8 0.656750 0.286319 0.441238
O O9 0.100830 0.214845 0.566265
O O10 0.015971 0.246306 0.689311
O O11 0.021380 0.000000 0.637946
O O12 0.004674 0.500000 0.117793
O O13 0.078666 0.270429 0.060481
O O14 0.034992 0.293205 0.185197
O O15 0.399375 0.500000 0.974278
O O16 0.500000 0.654161 0.000000
O O17 0.632218 0.201592 0.238140
O O18 0.524165 0.000000 0.267888
O O19 0.790413 0.500000 0.730218
O O20 0.690275 0.500000 0.502030
O O21 0.750000 0.750000 0.500000
#
# Coordination Sequence:
#
# PCOD8085500 Si02
#       8
#     8   8   8   8   8   8   8   8
#     4   9  18  32  50  70  93 125 162 199 237 279
#     4   9  18  34  54  73  95 125 161 199 237 278
#     4   9  18  34  55  73  91 125 168 199 229 278
#     4  10  19  30  47  71  98 126 156 195 242 287
#     4   8  15  29  47  67  92 124 162 197 232 279
#     4   9  19  34  50  71  99 128 157 194 241 285
#     4   9  18  34  53  71  95 127 162 197 234 282
#     4  10  21  35  51  74 103 129 155 195 242 283
#
# _framework density 17.681366000000001
#
# number of rings (size 3 to 8) (size 9 to 14) (size 15 to 20)
#    0.000    2.875    0.000    1.500    0.000    7.250 
#    0.000    5.625    0.000    3.750    0.000    0.000 
#    0.000    0.000    0.000    0.000    0.000    0.000 
#
# Total GULP energy -396765.140510 kJ/mol
# GULP energy per Si atom -12398.910641 kJ/mol
# Density = 1.764112 g / cm^3
# Si number density = 17.681366 Si / 1000 Ang^3
#
#
#
# Elastic Constant Matrix: (Units=GPa)
#
#
# Indices 1 2 3 4 5 6 
#
# 1 58.9884 36.4603 52.1277 0.0000 0.8352 0.0000
# 2 36.4603 61.3157 61.1228 -0.0001 4.4591 -0.0002
# 3 52.1277 61.1228 146.3837 0.0000 -1.3438 0.0000
# 4 0.0000 -0.0001 0.0000 35.7386 0.0000 1.5929
# 5 0.8352 4.4591 -1.3438 0.0000 32.3191 0.0000
# 6 0.0000 -0.0002 0.0000 1.5929 0.0000 24.4191
#
#
#
# Elastic Compliance Matrix: (Units=1/GPa)
#
#
# Indices 1 2 3 4 5 6 
#
# 1 0.029090 -0.012039 -0.005326 0.000000 0.000688 0.000000
# 2 -0.012039 0.033542 -0.009762 0.000000 -0.004723 0.000000
# 3 -0.005326 -0.009762 0.012823 0.000000 0.002018 0.000000
# 4 0.000000 0.000000 0.000000 0.028063 0.000000 -0.001831
# 5 0.000688 -0.004723 0.002018 0.000000 0.031659 0.000000
# 6 0.000000 0.000000 0.000000 -0.001831 0.000000 0.041071
#
#
# Mechanical properties :
#
#
# Convention : Reuss Voigt Hill
#
# Bulk Modulus (GPa) = 47.16585 62.90104 55.03344
# Shear Modulus (GPa) = 21.04650 26.29382 23.67016
#
# Velocity S-wave (km/s) = 3.45385 3.86047 3.66280
# Velocity P-wave (km/s) = 6.52984 7.45137 7.00577
#
# Compressibility (1/GPa) = 0.02120178
#
# Stress axis : x y z
#
# Youngs Moduli (GPa) = 34.37555 29.81300 77.98707
#
# Poissons Ratio (x) = 0.35891 0.41536
# Poissons Ratio (y) = 0.41384 0.76131
# Poissons Ratio (z) = 0.18309 0.29103
#
# Static dielectric constant tensor:
#      x y z
#    x 3.097820 0.000000 -0.074850 
#    y 0.000000 3.246460 0.000000 
#    z -0.074850 0.000000 3.652200 
# 
# 
# High freq. dielectric constant tensor:
#      x y z
#    x 1.661160 0.000000 -0.002620 
#    y 0.000000 1.679920 0.000000 
#    z -0.002620 0.000000 1.699270 
# 
# From -- ./inp_files/319897.got.cif
#   From: 2010.06.25/outbox.cif.g09.slc.cpg/sg12_160_cif.got.tgz:319897.got - 2010.06.28 00:19:55.
