data_PCOD8085765
_publ_section_title
;
Structure prediction by ZEFSAII (Michael W. Deem and Ramdas Pophale) SiO2 
 PCOD8085765
Probable space group: C 2/M
;
_chemical_formula_sum "Si O2"
_cell_formula_units_Z 40
_cell_length_a 24.982169
_cell_length_b 8.968946
_cell_length_c 17.791750
_cell_angle_alpha 90.000000
_cell_angle_beta 145.918382
_cell_angle_gamma 90.000000
_cell_volume 2233.920197
_symmetry_space_group_name_H-M "C 2/M"
_symmetry_group_IT_number 12
_symmetry_cell_setting 'monoclinic'
loop_
_space_group_symop_operation_xyz
x,y,z
-x,y,-z
-x,-y,-z
x,-y,z
1/2+x,1/2+y,z
1/2-x,1/2+y,-z
1/2-x,1/2-y,-z
1/2+x,1/2-y,z
loop_
_atom_site_type_symbol
_atom_site_label
_atom_site_fract_x
_atom_site_fract_y
_atom_site_fract_z
Si Si1 0.719256 0.823249 0.203312
Si Si2 0.152897 0.828530 0.863762
Si Si3 0.069840 0.830179 0.924439
Si Si4 0.603611 0.827351 0.654481
Si Si5 0.074739 0.335208 0.154373
O O1 0.822022 0.746797 0.316816
O O2 0.674260 0.780093 0.232556
O O3 0.728699 0.000000 0.206506
O O4 0.653127 0.767742 0.058167
O O5 0.076762 0.815738 0.842800
O O6 0.106371 0.750034 0.738358
O O7 0.175104 0.000000 0.870018
O O8 0.250000 0.750000 0.000000
O O9 0.964159 0.774820 0.826385
O O10 0.083216 0.000000 0.966664
O O11 0.500000 0.803124 0.500000
O O12 0.629879 0.000000 0.694952
O O13 0.086884 0.500000 0.203782
O O14 0.000000 0.341511 0.000000
#
# Coordination Sequence:
#
# PCOD8085765 Si02
#       5
#     8   8   8   8   8
#     4  10  19  32  52  76 105 141 178 218 265 319
#     4  11  22  35  55  81 110 143 179 221 269 319
#     4  10  19  30  49  79 109 137 173 218 266 315
#     4  11  24  39  55  78 108 143 183 225 271 323
#     4   8  16  29  46  73 105 137 173 213 264 317
#
# _framework density 17.905740999999999
#
# number of rings (size 3 to 8) (size 9 to 14) (size 15 to 20)
#    0.000    2.000    2.000    3.600    0.000    8.400 
#    0.000    0.000    0.000    1.200    0.000    0.000 
#    0.000    0.000    0.000    0.000    0.000    0.000 
#
# Total GULP energy -247973.868690 kJ/mol
# GULP energy per Si atom -12398.693435 kJ/mol
# Density = 1.786499 g / cm^3
# Si number density = 17.905741 Si / 1000 Ang^3
#
#
#
# Elastic Constant Matrix: (Units=GPa)
#
#
# Indices 1 2 3 4 5 6 
#
# 1 146.5834 77.2597 45.5591 0.0000 18.6507 0.0000
# 2 77.2597 137.6675 52.4224 0.0000 7.5761 0.0000
# 3 45.5591 52.4224 59.6320 0.0000 3.4286 0.0000
# 4 0.0000 0.0000 0.0000 22.7948 0.0000 2.7456
# 5 18.6507 7.5761 3.4286 0.0000 22.5731 0.0000
# 6 0.0000 0.0000 0.0000 2.7456 0.0000 35.4157
#
#
#
# Elastic Compliance Matrix: (Units=1/GPa)
#
#
# Indices 1 2 3 4 5 6 
#
# 1 0.011418 -0.004275 -0.004545 0.000000 -0.007309 0.000000
# 2 -0.004275 0.012632 -0.007866 0.000000 0.000487 0.000000
# 3 -0.004545 -0.007866 0.027026 0.000000 0.002291 0.000000
# 4 0.000000 0.000000 0.000000 0.044283 0.000000 -0.003433
# 5 -0.007309 0.000487 0.002291 0.000000 0.049828 0.000000
# 6 0.000000 0.000000 0.000000 -0.003433 0.000000 0.028502
#
#
# Mechanical properties :
#
#
# Convention : Reuss Voigt Hill
#
# Bulk Modulus (GPa) = 56.48954 77.15170 66.82062
# Shear Modulus (GPa) = 23.47844 27.39949 25.43897
#
# Velocity S-wave (km/s) = 3.62501 3.91603 3.77333
# Velocity P-wave (km/s) = 7.00983 7.97673 7.50886
#
# Compressibility (1/GPa) = 0.01770239
#
# Stress axis : x y z
#
# Youngs Moduli (GPa) = 87.58338 79.16688 37.00193
#
# Poissons Ratio (x) = 0.33842 0.16817
# Poissons Ratio (y) = 0.37440 0.29107
# Poissons Ratio (z) = 0.39807 0.62276
#
# Static dielectric constant tensor:
#      x y z
#    x 4.595010 0.000000 -0.275750 
#    y 0.000000 3.528880 0.000000 
#    z -0.275750 0.000000 3.150880 
# 
# 
# High freq. dielectric constant tensor:
#      x y z
#    x 1.714230 0.000000 0.013450 
#    y 0.000000 1.710150 0.000000 
#    z 0.013450 0.000000 1.634610 
# 
# From -- ./inp_files/220601.got.cif
#   From: 2010.06.25/outbox.cif.g09.slc.cpg/sg12_111_cif.got.tgz:220601.got - 2010.06.28 00:19:55.
