data_PCOD8085331
_publ_section_title
;
Structure prediction by ZEFSAII (Michael W. Deem and Ramdas Pophale) SiO2 
 PCOD8085331
Probable space group: C 2/M
;
_chemical_formula_sum "Si O2"
_cell_formula_units_Z 64
_cell_length_a 17.002031
_cell_length_b 13.635086
_cell_length_c 16.707078
_cell_angle_alpha 90.000000
_cell_angle_beta 104.419936
_cell_angle_gamma 90.000000
_cell_volume 3751.088174
_symmetry_space_group_name_H-M "C 2/M"
_symmetry_group_IT_number 12
_symmetry_cell_setting 'monoclinic'
loop_
_space_group_symop_operation_xyz
x,y,z
-x,y,-z
-x,-y,-z
x,-y,z
1/2+x,1/2+y,z
1/2-x,1/2+y,-z
1/2-x,1/2-y,-z
1/2+x,1/2-y,z
loop_
_atom_site_type_symbol
_atom_site_label
_atom_site_fract_x
_atom_site_fract_y
_atom_site_fract_z
Si Si1 0.410076 0.234614 0.460092
Si Si2 0.711799 0.610687 0.621558
Si Si3 0.408943 0.112938 0.988701
Si Si4 0.138032 0.111439 0.773931
Si Si5 0.742690 0.218460 0.089523
Si Si6 0.388601 0.115251 0.609062
Si Si7 0.049700 0.297927 0.704215
Si Si8 0.839002 0.391965 0.146823
O O1 0.500000 0.277624 0.500000
O O2 0.346623 0.323604 0.448385
O O3 0.386287 0.149828 0.516339
O O4 0.408615 0.188068 0.371565
O O5 0.695865 0.500000 0.589009
O O6 0.696417 0.622476 0.712060
O O7 0.804292 0.640887 0.629887
O O8 0.382094 0.126027 0.072961
O O9 0.404294 0.000000 0.959649
O O10 0.500000 0.153781 0.000000
O O11 0.347534 0.176182 0.917198
O O12 0.190398 0.137346 0.866683
O O13 0.063100 0.187515 0.743155
O O14 0.104626 0.000000 0.773718
O O15 0.764216 0.317197 0.144638
O O16 0.750000 0.250000 0.000000
O O17 0.454536 0.177818 0.675453
O O18 0.409237 0.000000 0.616444
O O19 0.091253 0.378625 0.770383
O O20 0.801606 0.500000 0.142687
#
# Coordination Sequence:
#
# PCOD8085331 Si02
#       8
#     8   8   8   8   8   8   8   8
#     4   9  18  31  47  66  89 121 156 188 223 267
#     4   9  18  31  47  69  94 119 149 188 233 274
#     4   9  17  28  44  68  93 114 141 181 228 272
#     4   9  17  31  50  70  92 118 150 188 230 272
#     4   9  17  29  45  67  91 118 149 179 217 265
#     4  10  19  30  46  68  94 122 152 188 228 270
#     4   9  18  30  45  68  91 118 152 187 226 267
#     4   9  17  29  45  65  89 116 148 184 219 261
#
# _framework density 17.061716000000001
#
# number of rings (size 3 to 8) (size 9 to 14) (size 15 to 20)
#    0.000    2.875    0.000    1.125    0.000    4.500 
#    0.000    5.625    0.000    1.125    0.000   15.750 
#    0.000    0.000    0.000    0.000    0.000    0.000 
#
# Total GULP energy -396615.910482 kJ/mol
# GULP energy per Si atom -12394.247203 kJ/mol
# Density = 1.702288 g / cm^3
# Si number density = 17.061716 Si / 1000 Ang^3
#
#
#
# Elastic Constant Matrix: (Units=GPa)
#
#
# Indices 1 2 3 4 5 6 
#
# 1 100.1246 62.8419 24.4733 0.0000 22.9216 0.0000
# 2 62.8419 109.3125 40.8919 0.0000 18.4231 0.0000
# 3 24.4733 40.8919 67.8374 0.0000 17.4053 0.0000
# 4 0.0000 0.0000 0.0000 22.9266 0.0000 4.5434
# 5 22.9216 18.4231 17.4053 0.0000 19.7669 0.0000
# 6 0.0000 0.0000 0.0000 4.5434 0.0000 28.1996
#
#
#
# Elastic Compliance Matrix: (Units=1/GPa)
#
#
# Indices 1 2 3 4 5 6 
#
# 1 0.018566 -0.009096 0.002756 0.000000 -0.015479 0.000000
# 2 -0.009096 0.016870 -0.007183 0.000000 0.001148 0.000000
# 3 0.002756 -0.007183 0.022193 0.000000 -0.016043 0.000000
# 4 0.000000 0.000000 0.000000 0.045056 0.000000 -0.007259
# 5 -0.015479 0.001148 -0.016043 0.000000 0.081595 0.000000
# 6 0.000000 0.000000 0.000000 -0.007259 0.000000 0.036631
#
#
# Mechanical properties :
#
#
# Convention : Reuss Voigt Hill
#
# Bulk Modulus (GPa) = 32.69552 59.29875 45.99713
# Shear Modulus (GPa) = 19.36854 24.11645 21.74250
#
# Velocity S-wave (km/s) = 3.37294 3.76371 3.57367
# Velocity P-wave (km/s) = 5.86290 7.32927 6.63671
#
# Compressibility (1/GPa) = 0.03058523
#
# Stress axis : x y z
#
# Youngs Moduli (GPa) = 53.86106 59.27534 45.06004
#
# Poissons Ratio (x) = 0.53915 -0.12420
# Poissons Ratio (y) = 0.48991 0.32365
# Poissons Ratio (z) = -0.14846 0.42575
#
# Static dielectric constant tensor:
#      x y z
#    x 3.140740 0.000000 0.184420 
#    y 0.000000 3.377600 0.000000 
#    z 0.184420 0.000000 3.304170 
# 
# 
# High freq. dielectric constant tensor:
#      x y z
#    x 1.635080 0.000000 0.015280 
#    y 0.000000 1.658920 0.000000 
#    z 0.015280 0.000000 1.663330 
# 
# From -- ./inp_files/277433.got.cif
#   From: 2010.06.25/outbox.cif.g09.slc.cpg/sg12_139_cif.got.tgz:277433.got - 2010.06.28 00:19:55.
