data_PCOD8085326
_publ_section_title
;
Structure prediction by ZEFSAII (Michael W. Deem and Ramdas Pophale) SiO2 
 PCOD8085326
Probable space group: C 2/M
;
_chemical_formula_sum "Si O2"
_cell_formula_units_Z 56
_cell_length_a 37.238362
_cell_length_b 8.968480
_cell_length_c 23.280651
_cell_angle_alpha 90.000000
_cell_angle_beta 155.628410
_cell_angle_gamma 90.000000
_cell_volume 3208.406219
_symmetry_space_group_name_H-M "C 2/M"
_symmetry_group_IT_number 12
_symmetry_cell_setting 'monoclinic'
loop_
_space_group_symop_operation_xyz
x,y,z
-x,y,-z
-x,-y,-z
x,-y,z
1/2+x,1/2+y,z
1/2-x,1/2+y,-z
1/2-x,1/2-y,-z
1/2+x,1/2-y,z
loop_
_atom_site_type_symbol
_atom_site_label
_atom_site_fract_x
_atom_site_fract_y
_atom_site_fract_z
Si Si1 0.717319 0.824732 0.706889
Si Si2 0.786772 0.176664 0.420550
Si Si3 0.254866 0.823398 0.068425
Si Si4 0.095516 0.675859 0.631859
Si Si5 0.941217 0.173828 0.727169
Si Si6 0.684520 0.674217 0.361225
Si Si7 0.632522 0.676945 0.990159
O O1 0.704626 0.728985 0.631701
O O2 0.634947 0.785686 0.627082
O O3 0.805367 0.771107 0.867154
O O4 0.720650 0.000000 0.697088
O O5 0.870863 0.236576 0.578789
O O6 0.698582 0.247927 0.319829
O O7 0.778485 0.000000 0.411746
O O8 0.341871 0.763742 0.226588
O O9 0.172307 0.773211 0.986855
O O10 0.256599 0.000000 0.063979
O O11 0.250000 0.750000 0.000000
O O12 0.089700 0.500000 0.630355
O O13 0.000000 0.749150 0.500000
O O14 0.910784 0.200740 0.749158
O O15 0.949762 0.000000 0.727066
O O16 0.036213 0.248712 0.856854
O O17 0.704897 0.500000 0.385264
O O18 0.750000 0.750000 0.500000
O O19 0.628890 0.500000 0.987295
#
# Coordination Sequence:
#
# PCOD8085326 Si02
#       7
#     8   8   8   8   8   8   8
#     4   9  17  30  49  68  87 118 155 188 222 262
#     4  10  19  30  46  68  94 121 148 184 228 270
#     4   9  17  29  47  68  90 118 148 182 223 264
#     4   8  15  29  47  66  90 120 152 184 221 268
#     4   8  15  28  47  68  87 113 150 187 220 259
#     4   9  16  28  47  69  92 118 149 186 227 267
#     4   8  15  30  48  65  88 118 152 185 219 263
#
# _framework density 17.454148
#
# number of rings (size 3 to 8) (size 9 to 14) (size 15 to 20)
#    0.000    3.286    0.000    3.429    0.000    1.143 
#    0.000    3.571    0.000   14.571    0.000    0.000 
#    0.000    0.000    0.000    0.000    0.000    0.000 
#
# Total GULP energy -346939.960180 kJ/mol
# GULP energy per Si atom -12390.712864 kJ/mol
# Density = 1.741442 g / cm^3
# Si number density = 17.454148 Si / 1000 Ang^3
#
#
#
# Elastic Constant Matrix: (Units=GPa)
#
#
# Indices 1 2 3 4 5 6 
#
# 1 147.4578 39.1047 81.7365 0.0000 8.0185 0.0000
# 2 39.1047 45.4041 26.2780 0.0000 2.6526 0.0000
# 3 81.7365 26.2780 108.3406 0.0000 20.3536 0.0000
# 4 0.0000 0.0000 0.0000 13.3763 0.0000 -6.3202
# 5 8.0185 2.6526 20.3536 0.0000 28.0983 0.0000
# 6 0.0000 0.0000 0.0000 -6.3202 0.0000 31.6636
#
#
#
# Elastic Compliance Matrix: (Units=1/GPa)
#
#
# Indices 1 2 3 4 5 6 
#
# 1 0.013392 -0.006413 -0.009195 0.000000 0.003444 0.000000
# 2 -0.006413 0.028834 -0.002301 0.000000 0.000775 0.000000
# 3 -0.009195 -0.002301 0.018742 0.000000 -0.010735 0.000000
# 4 0.000000 0.000000 0.000000 0.082544 0.000000 0.016476
# 5 0.003444 0.000775 -0.010735 0.000000 0.042309 0.000000
# 6 0.000000 0.000000 0.000000 0.016476 0.000000 0.034871
#
#
# Mechanical properties :
#
#
# Convention : Reuss Voigt Hill
#
# Bulk Modulus (GPa) = 39.76135 66.16008 52.96071
# Shear Modulus (GPa) = 18.87552 24.89987 21.88770
#
# Velocity S-wave (km/s) = 3.29209 3.78112 3.54504
# Velocity P-wave (km/s) = 6.10576 7.55313 6.86768
#
# Compressibility (1/GPa) = 0.02515005
#
# Stress axis : x y z
#
# Youngs Moduli (GPa) = 74.67235 34.68080 53.35653
#
# Poissons Ratio (x) = 0.22242 0.49060
# Poissons Ratio (y) = 0.47891 0.12276
# Poissons Ratio (z) = 0.68660 0.07979
#
# Static dielectric constant tensor:
#      x y z
#    x 3.554390 0.000000 0.365880 
#    y 0.000000 2.904860 0.000000 
#    z 0.365880 0.000000 3.682180 
# 
# 
# High freq. dielectric constant tensor:
#      x y z
#    x 1.686140 0.000000 0.011640 
#    y 0.000000 1.636240 0.000000 
#    z 0.011640 0.000000 1.660870 
# 
# From -- ./inp_files/320226.got.cif
#   From: 2010.06.25/outbox.cif.g09.slc.cpg/sg12_161_cif.got.tgz:320226.got - 2010.06.28 00:19:55.
