data_PCOD8085787
_publ_section_title
;
Structure prediction by ZEFSAII (Michael W. Deem and Ramdas Pophale) SiO2 
 PCOD8085787
Probable space group: C 2/M
;
_chemical_formula_sum "Si O2"
_cell_formula_units_Z 56
_cell_length_a 19.095039
_cell_length_b 9.399167
_cell_length_c 24.460435
_cell_angle_alpha 90.000000
_cell_angle_beta 47.539463
_cell_angle_gamma 90.000000
_cell_volume 3238.760871
_symmetry_space_group_name_H-M "C 2/M"
_symmetry_group_IT_number 12
_symmetry_cell_setting 'monoclinic'
loop_
_space_group_symop_operation_xyz
x,y,z
-x,y,-z
-x,-y,-z
x,-y,z
1/2+x,1/2+y,z
1/2-x,1/2+y,-z
1/2-x,1/2-y,-z
1/2+x,1/2-y,z
loop_
_atom_site_type_symbol
_atom_site_label
_atom_site_fract_x
_atom_site_fract_y
_atom_site_fract_z
Si Si1 0.802788 0.836582 0.550244
Si Si2 0.340214 0.661177 0.938908
Si Si3 0.093735 0.833376 0.982803
Si Si4 0.402406 0.836510 0.580626
Si Si5 0.284983 0.333166 0.852823
Si Si6 0.095228 0.337759 0.293007
Si Si7 0.385809 0.161253 0.410288
O O1 0.818958 0.759202 0.599274
O O2 0.691971 0.816728 0.595555
O O3 0.868339 0.767107 0.469330
O O4 0.832434 0.000000 0.538953
O O5 0.307491 0.500000 0.962357
O O6 0.360267 0.691690 0.863921
O O7 0.250000 0.750000 0.000000
O O8 0.420611 0.692161 0.943243
O O9 0.184160 0.743785 0.915068
O O10 0.111690 0.000000 0.960819
O O11 0.000000 0.780376 0.000000
O O12 0.500000 0.791799 0.500000
O O13 0.405453 0.803449 0.642696
O O14 0.378704 0.000000 0.581378
O O15 0.265710 0.500000 0.853652
O O16 0.332984 0.268479 0.774018
O O17 0.126768 0.500000 0.264565
O O18 0.987796 0.309979 0.328900
O O19 0.382766 0.000000 0.435733
#
# Coordination Sequence:
#
# PCOD8085787 Si02
#       7
#     8   8   8   8   8   8   8
#     4  10  19  30  50  76  99 122 160 216 264 305
#     4   8  15  29  49  73  99 128 161 198 239 284
#     4   9  17  32  56  81 104 134 172 206 238 294
#     4  10  19  34  53  71  96 134 175 216 262 315
#     4  10  20  33  50  75 107 135 164 210 259 299
#     4  10  20  35  54  71  95 136 178 211 251 310
#     4   9  18  34  51  69  96 131 167 205 253 309
#
# _framework density 17.290562999999999
#
# number of rings (size 3 to 8) (size 9 to 14) (size 15 to 20)
#    0.000    2.571    1.429    0.857    0.000    2.857 
#    0.000    1.429    0.000    5.143    0.000    0.000 
#    0.000    0.000    0.000    0.000    0.000    0.000 
#
# Total GULP energy -346944.579299 kJ/mol
# GULP energy per Si atom -12390.877832 kJ/mol
# Density = 1.725121 g / cm^3
# Si number density = 17.290563 Si / 1000 Ang^3
#
#
#
# Elastic Constant Matrix: (Units=GPa)
#
#
# Indices 1 2 3 4 5 6 
#
# 1 123.0229 56.5719 51.4086 0.0000 7.5175 0.0000
# 2 56.5719 82.1320 47.1598 0.0000 3.0467 -0.0001
# 3 51.4086 47.1598 91.4174 0.0000 5.4304 0.0000
# 4 0.0000 0.0000 0.0000 24.7331 0.0000 2.3094
# 5 7.5175 3.0467 5.4304 0.0000 19.9270 0.0000
# 6 0.0000 -0.0001 0.0000 2.3094 0.0000 28.0212
#
#
#
# Elastic Compliance Matrix: (Units=1/GPa)
#
#
# Indices 1 2 3 4 5 6 
#
# 1 0.012898 -0.006694 -0.003631 0.000000 -0.002853 0.000000
# 2 -0.006694 0.020775 -0.007028 0.000000 0.001264 0.000000
# 3 -0.003631 -0.007028 0.016732 0.000000 -0.002115 0.000000
# 4 0.000000 0.000000 0.000000 0.040745 0.000000 -0.003358
# 5 -0.002853 0.001264 -0.002115 0.000000 0.051643 0.000000
# 6 0.000000 0.000000 0.000000 -0.003358 0.000000 0.035964
#
#
# Mechanical properties :
#
#
# Convention : Reuss Voigt Hill
#
# Bulk Modulus (GPa) = 63.69483 67.42810 65.56147
# Shear Modulus (GPa) = 22.86295 23.96506 23.41401
#
# Velocity S-wave (km/s) = 3.64026 3.72697 3.68387
# Velocity P-wave (km/s) = 7.38827 7.58960 7.48961
#
# Compressibility (1/GPa) = 0.01569986
#
# Stress axis : x y z
#
# Youngs Moduli (GPa) = 77.53048 48.13585 59.76633
#
# Poissons Ratio (x) = 0.32220 0.21700
# Poissons Ratio (y) = 0.51895 0.42004
# Poissons Ratio (z) = 0.28150 0.33830
#
# Static dielectric constant tensor:
#      x y z
#    x 3.588530 -0.000010 0.297180 
#    y -0.000010 5.204380 0.000010 
#    z 0.297180 0.000010 2.995330 
# 
# 
# High freq. dielectric constant tensor:
#      x y z
#    x 1.674110 0.000000 0.016830 
#    y 0.000000 1.673970 0.000000 
#    z 0.016830 0.000000 1.634760 
# 
# From -- ./inp_files/313323.got.cif
#   From: 2010.06.25/outbox.cif.g09.slc.cpg/sg12_157_cif.got.tgz:313323.got - 2010.06.28 00:19:55.
