data_PCOD8085731
_publ_section_title
;
Structure prediction by ZEFSAII (Michael W. Deem and Ramdas Pophale) SiO2 
 PCOD8085731
Probable space group: C 2/M
;
_chemical_formula_sum "Si O2"
_cell_formula_units_Z 56
_cell_length_a 23.851113
_cell_length_b 12.804279
_cell_length_c 13.879384
_cell_angle_alpha 90.000000
_cell_angle_beta 46.917189
_cell_angle_gamma 90.000000
_cell_volume 3095.816772
_symmetry_space_group_name_H-M "C 2/M"
_symmetry_group_IT_number 12
_symmetry_cell_setting 'monoclinic'
loop_
_space_group_symop_operation_xyz
x,y,z
-x,y,-z
-x,-y,-z
x,-y,z
1/2+x,1/2+y,z
1/2-x,1/2+y,-z
1/2-x,1/2-y,-z
1/2+x,1/2-y,z
loop_
_atom_site_type_symbol
_atom_site_label
_atom_site_fract_x
_atom_site_fract_y
_atom_site_fract_z
Si Si1 0.531611 0.000000 0.319307
Si Si2 0.371971 0.000000 0.617031
Si Si3 0.514132 0.788303 0.707182
Si Si4 0.853692 0.272959 0.602090
Si Si5 0.283263 0.879089 0.231317
Si Si6 0.868942 0.216934 0.797733
Si Si7 0.219093 0.615760 0.982489
Si Si8 0.560152 0.119808 0.845731
O O1 0.532287 0.104194 0.255235
O O2 0.453607 0.000000 0.470116
O O3 0.608502 0.000000 0.292982
O O4 0.325899 0.894702 0.641220
O O5 0.582723 0.762482 0.554817
O O6 0.447054 0.701649 0.768477
O O7 0.545726 0.795652 0.778435
O O8 0.783670 0.198324 0.654579
O O9 0.890925 0.238172 0.660181
O O10 0.307721 0.850176 0.093471
O O11 0.354706 0.859437 0.216616
O O12 0.255496 0.000000 0.268980
O O13 0.812988 0.117221 0.873843
O O14 0.816546 0.312629 0.894461
O O15 0.189948 0.500000 0.039069
O O16 0.552640 0.000000 0.817063
O O17 0.500000 0.141939 0.000000
#
# Coordination Sequence:
#
# PCOD8085731 Si02
#       8
#     4   4   8   8   8   8   8   8
#     4   9  16  26  43  72 104 128 145 203 250 289
#     4   9  16  28  44  74 107 128 154 189 248 303
#     4  11  19  30  49  75 103 125 162 207 252 296
#     4  10  20  31  50  77 105 131 159 200 254 300
#     4   9  19  37  52  70 102 134 169 206 239 288
#     4  10  19  30  49  76 101 130 166 199 249 300
#     4   9  19  33  49  70 101 135 166 203 243 288
#     4  10  20  33  52  74  96 130 170 206 249 291
#
# _framework density 18.088926000000001
#
# number of rings (size 3 to 8) (size 9 to 14) (size 15 to 20)
#    0.000    2.286    2.143    1.286    2.000    1.714 
#    0.000    0.714    0.000    3.429    1.857    0.500 
#    0.000    0.000    0.000    0.000    0.000    0.000 
#
# Total GULP energy -347033.612393 kJ/mol
# GULP energy per Si atom -12394.057585 kJ/mol
# Density = 1.804775 g / cm^3
# Si number density = 18.088926 Si / 1000 Ang^3
#
#
#
# Elastic Constant Matrix: (Units=GPa)
#
#
# Indices 1 2 3 4 5 6 
#
# 1 118.3338 24.4598 44.3101 0.0000 -1.7009 0.0000
# 2 24.4598 41.8370 16.0083 0.0000 -8.9397 0.0000
# 3 44.3101 16.0083 80.1200 0.0000 3.2615 0.0000
# 4 0.0000 0.0000 0.0000 23.2160 0.0000 -5.7447
# 5 -1.7009 -8.9397 3.2615 0.0000 23.5426 0.0000
# 6 0.0000 0.0000 0.0000 -5.7447 0.0000 24.5264
#
#
#
# Elastic Compliance Matrix: (Units=1/GPa)
#
#
# Indices 1 2 3 4 5 6 
#
# 1 0.011426 -0.004665 -0.005379 0.000000 -0.000201 0.000000
# 2 -0.004665 0.030716 -0.004041 0.000000 0.011886 0.000000
# 3 -0.005379 -0.004041 0.016434 0.000000 -0.004200 0.000000
# 4 0.000000 0.000000 0.000000 0.045724 0.000000 0.010710
# 5 -0.000201 0.011886 -0.004200 0.000000 0.047557 0.000000
# 6 0.000000 0.000000 0.000000 0.010710 0.000000 0.043281
#
#
# Mechanical properties :
#
#
# Convention : Reuss Voigt Hill
#
# Bulk Modulus (GPa) = 32.88777 45.53857 39.21317
# Shear Modulus (GPa) = 21.41847 24.62452 23.02149
#
# Velocity S-wave (km/s) = 3.44476 3.69359 3.57134
# Velocity P-wave (km/s) = 5.83459 6.58935 6.22342
#
# Compressibility (1/GPa) = 0.03040644
#
# Stress axis : x y z
#
# Youngs Moduli (GPa) = 87.51824 32.55662 60.84771
#
# Poissons Ratio (x) = 0.15188 0.32730
# Poissons Ratio (y) = 0.40827 0.24589
# Poissons Ratio (z) = 0.47076 0.13156
#
# Static dielectric constant tensor:
#      x y z
#    x 3.320890 0.000000 -0.034330 
#    y 0.000000 3.338960 0.000000 
#    z -0.034330 0.000000 3.310430 
# 
# 
# High freq. dielectric constant tensor:
#      x y z
#    x 1.688560 0.000000 0.002560 
#    y 0.000000 1.669770 0.000000 
#    z 0.002560 0.000000 1.706760 
# 
# From -- ./inp_files/240420.got.cif
#   From: 2010.06.25/outbox.cif.g09.slc.cpg/sg12_121_cif.got.tgz:240420.got - 2010.06.28 00:19:55.
