data_PCOD8085699
_publ_section_title
;
Structure prediction by ZEFSAII (Michael W. Deem and Ramdas Pophale) SiO2 
 PCOD8085699
Probable space group: C 2/M
;
_chemical_formula_sum "Si O2"
_cell_formula_units_Z 64
_cell_length_a 24.405189
_cell_length_b 8.881785
_cell_length_c 21.153643
_cell_angle_alpha 90.000000
_cell_angle_beta 127.996073
_cell_angle_gamma 90.000000
_cell_volume 3613.457910
_symmetry_space_group_name_H-M "C 2/M"
_symmetry_group_IT_number 12
_symmetry_cell_setting 'monoclinic'
loop_
_space_group_symop_operation_xyz
x,y,z
-x,y,-z
-x,-y,-z
x,-y,z
1/2+x,1/2+y,z
1/2-x,1/2+y,-z
1/2-x,1/2-y,-z
1/2+x,1/2-y,z
loop_
_atom_site_type_symbol
_atom_site_label
_atom_site_fract_x
_atom_site_fract_y
_atom_site_fract_z
Si Si1 0.116682 0.177504 0.451243
Si Si2 0.225051 0.177359 0.631129
Si Si3 0.733333 0.826402 0.887116
Si Si4 0.347358 0.328600 0.061018
Si Si5 0.011498 0.172296 0.786632
Si Si6 0.026454 0.677783 0.666083
Si Si7 0.833745 0.177883 0.276921
Si Si8 0.142070 0.826426 0.325631
O O1 0.173125 0.241246 0.540660
O O2 0.143063 0.220257 0.400003
O O3 0.043684 0.257073 0.414504
O O4 0.105205 0.000000 0.449942
O O5 0.200180 0.232826 0.681799
O O6 0.302982 0.232042 0.674719
O O7 0.225486 0.000000 0.627601
O O8 0.681896 0.784418 0.907497
O O9 0.718947 0.725484 0.815976
O O10 0.720745 0.000000 0.860150
O O11 0.812537 0.796943 0.967872
O O12 0.329453 0.500000 0.069113
O O13 0.431161 0.306531 0.117156
O O14 0.934488 0.211646 0.757305
O O15 0.033147 0.277241 0.743980
O O16 0.010420 0.000000 0.760444
O O17 0.026319 0.500000 0.659628
O O18 0.091957 0.742968 0.675144
O O19 0.844782 0.000000 0.282379
O O20 0.161385 0.000000 0.331107
#
# Coordination Sequence:
#
# PCOD8085699 Si02
#       8
#     8   8   8   8   8   8   8   8
#     4   9  19  37  56  75 100 131 166 210 260 312
#     4  10  22  37  54  73  96 135 181 211 248 306
#     4  10  19  30  48  78 106 132 170 210 248 297
#     4   9  17  30  51  76 106 137 165 202 251 305
#     4   9  17  32  53  77 105 137 165 199 254 311
#     4  11  21  32  50  78 104 131 167 210 255 302
#     4  11  22  36  51  69 102 144 174 205 251 307
#     4   9  18  32  54  79 102 127 162 211 263 302
#
# _framework density 17.711566999999999
#
# number of rings (size 3 to 8) (size 9 to 14) (size 15 to 20)
#    0.000    2.250    1.250    3.000    0.000    4.500 
#    0.000    2.500    0.000    0.750    0.000    5.250 
#    0.000    0.000    0.000    0.000    0.000    0.000 
#
# Total GULP energy -396755.521728 kJ/mol
# GULP energy per Si atom -12398.610054 kJ/mol
# Density = 1.767125 g / cm^3
# Si number density = 17.711567 Si / 1000 Ang^3
#
#
#
# Elastic Constant Matrix: (Units=GPa)
#
#
# Indices 1 2 3 4 5 6 
#
# 1 126.8920 40.4256 66.2482 0.0000 15.5194 0.0000
# 2 40.4256 58.7710 23.3547 0.0000 3.4310 0.0000
# 3 66.2482 23.3547 89.5524 0.0000 26.2781 0.0000
# 4 0.0000 0.0000 0.0000 24.2151 0.0000 4.0375
# 5 15.5194 3.4310 26.2781 0.0000 26.5481 0.0000
# 6 0.0000 0.0000 0.0000 4.0375 0.0000 27.1864
#
#
#
# Elastic Compliance Matrix: (Units=1/GPa)
#
#
# Indices 1 2 3 4 5 6 
#
# 1 0.014837 -0.006395 -0.009874 0.000000 0.001926 0.000000
# 2 -0.006395 0.021965 -0.001778 0.000000 0.002660 0.000000
# 3 -0.009874 -0.001778 0.024204 0.000000 -0.017956 0.000000
# 4 0.000000 0.000000 0.000000 0.042345 0.000000 -0.006289
# 5 0.001926 0.002660 -0.017956 0.000000 0.053971 0.000000
# 6 0.000000 0.000000 0.000000 -0.006289 0.000000 0.037717
#
#
# Mechanical properties :
#
#
# Convention : Reuss Voigt Hill
#
# Bulk Modulus (GPa) = 40.14000 59.47470 49.80735
# Shear Modulus (GPa) = 20.88239 25.26904 23.07571
#
# Velocity S-wave (km/s) = 3.43742 3.78126 3.61343
# Velocity P-wave (km/s) = 6.20216 7.26061 6.75216
#
# Compressibility (1/GPa) = 0.02491281
#
# Stress axis : x y z
#
# Youngs Moduli (GPa) = 67.39809 45.52679 41.31624
#
# Poissons Ratio (x) = 0.29112 0.40794
# Poissons Ratio (y) = 0.43098 0.07347
# Poissons Ratio (z) = 0.66547 0.08096
#
# Static dielectric constant tensor:
#      x y z
#    x 3.126600 0.000000 0.254180 
#    y 0.000000 3.232400 0.000000 
#    z 0.254180 0.000000 3.544720 
# 
# 
# High freq. dielectric constant tensor:
#      x y z
#    x 1.660110 0.000000 0.026700 
#    y 0.000000 1.684670 0.000000 
#    z 0.026700 0.000000 1.687620 
# 
# From -- ./inp_files/320131.got.cif
#   From: 2010.06.25/outbox.cif.g09.slc.cpg/sg12_161_cif.got.tgz:320131.got - 2010.06.28 00:19:55.
