data_PCOD8085055
_publ_section_title
;
Structure prediction by ZEFSAII (Michael W. Deem and Ramdas Pophale) SiO2 
 PCOD8085055
Probable space group: C 2/M
;
_chemical_formula_sum "Si O2"
_cell_formula_units_Z 56
_cell_length_a 24.848880
_cell_length_b 9.047650
_cell_length_c 14.580468
_cell_angle_alpha 90.000000
_cell_angle_beta 66.074275
_cell_angle_gamma 90.000000
_cell_volume 2996.363249
_symmetry_space_group_name_H-M "C 2/M"
_symmetry_group_IT_number 12
_symmetry_cell_setting 'monoclinic'
loop_
_space_group_symop_operation_xyz
x,y,z
-x,y,-z
-x,-y,-z
x,-y,z
1/2+x,1/2+y,z
1/2-x,1/2+y,-z
1/2-x,1/2-y,-z
1/2+x,1/2-y,z
loop_
_atom_site_type_symbol
_atom_site_label
_atom_site_fract_x
_atom_site_fract_y
_atom_site_fract_z
Si Si1 0.773265 0.673783 0.765262
Si Si2 0.301212 0.833652 0.033083
Si Si3 0.221353 0.827929 0.605374
Si Si4 0.900345 0.170378 0.238055
Si Si5 0.146743 0.174552 0.167438
Si Si6 0.922682 0.337404 0.039324
Si Si7 0.971138 0.829915 0.848037
O O1 0.772957 0.500000 0.785327
O O2 0.724663 0.754103 0.860192
O O3 0.759459 0.709119 0.669194
O O4 0.837225 0.743956 0.747867
O O5 0.370271 0.848546 0.003085
O O6 0.275201 0.000000 0.035763
O O7 0.300796 0.731082 0.939864
O O8 0.250000 0.750000 0.500000
O O9 0.153809 0.769027 0.663399
O O10 0.221544 0.000000 0.583993
O O11 0.900061 0.247367 0.140886
O O12 0.964285 0.192018 0.243245
O O13 0.887330 0.000000 0.226016
O O14 0.080614 0.222439 0.184849
O O15 0.151720 0.000000 0.175410
O O16 0.943808 0.500000 0.055788
O O17 0.974030 0.258691 0.943042
O O18 0.959640 0.000000 0.881924
#
# Coordination Sequence:
#
# PCOD8085055 Si02
#       7
#     8   8   8   8   8   8   8
#     4  11  21  35  54  76 103 138 175 218 267 316
#     4  10  19  31  48  74 108 146 180 215 256 309
#     4  10  23  40  60  82 104 131 173 226 277 322
#     4  10  19  35  55  75 102 139 177 217 265 315
#     4  10  20  33  50  76 108 144 179 214 253 306
#     4  10  19  29  46  76 111 143 177 215 258 309
#     4   9  19  33  51  74 106 145 181 211 250 310
#
# _framework density 18.689323999999999
#
# number of rings (size 3 to 8) (size 9 to 14) (size 15 to 20)
#    0.000    2.000    1.429    2.571    0.000    5.714 
#    0.000    0.000    0.000    0.857    0.000    6.000 
#    0.000    0.000    0.000    0.000    0.000    0.000 
#
# Total GULP energy -347048.479904 kJ/mol
# GULP energy per Si atom -12394.588568 kJ/mol
# Density = 1.864679 g / cm^3
# Si number density = 18.689324 Si / 1000 Ang^3
#
#
#
# Elastic Constant Matrix: (Units=GPa)
#
#
# Indices 1 2 3 4 5 6 
#
# 1 107.1804 43.6140 66.4983 0.0000 -7.0942 0.0000
# 2 43.6140 91.5712 52.8146 0.0000 1.5554 0.0000
# 3 66.4983 52.8146 119.0074 0.0000 -8.2982 0.0000
# 4 0.0000 0.0000 0.0000 28.4119 0.0000 4.2804
# 5 -7.0942 1.5554 -8.2982 0.0000 22.6829 0.0000
# 6 0.0000 0.0000 0.0000 4.2804 0.0000 26.1557
#
#
#
# Elastic Compliance Matrix: (Units=1/GPa)
#
#
# Indices 1 2 3 4 5 6 
#
# 1 0.015032 -0.003300 -0.006764 0.000000 0.002453 0.000000
# 2 -0.003300 0.015674 -0.005397 0.000000 -0.004081 0.000000
# 3 -0.006764 -0.005397 0.014834 0.000000 0.003681 0.000000
# 4 0.000000 0.000000 0.000000 0.036086 0.000000 -0.005905
# 5 0.002453 -0.004081 0.003681 0.000000 0.046480 0.000000
# 6 0.000000 0.000000 0.000000 -0.005905 0.000000 0.039199
#
#
# Mechanical properties :
#
#
# Convention : Reuss Voigt Hill
#
# Bulk Modulus (GPa) = 68.40452 71.51256 69.95854
# Shear Modulus (GPa) = 24.61854 25.77224 25.19539
#
# Velocity S-wave (km/s) = 3.63333 3.71749 3.67565
# Velocity P-wave (km/s) = 7.36762 7.53480 7.45168
#
# Compressibility (1/GPa) = 0.01461892
#
# Stress axis : x y z
#
# Youngs Moduli (GPa) = 66.52577 63.79951 67.41268
#
# Poissons Ratio (x) = 0.21054 0.45597
# Poissons Ratio (y) = 0.21953 0.36381
# Poissons Ratio (z) = 0.44997 0.34431
#
# Static dielectric constant tensor:
#      x y z
#    x 3.979630 0.000000 -0.107470 
#    y 0.000000 3.584950 0.000000 
#    z -0.107470 0.000000 3.025510 
# 
# 
# High freq. dielectric constant tensor:
#      x y z
#    x 1.758190 0.000000 -0.007430 
#    y 0.000000 1.732920 0.000000 
#    z -0.007430 0.000000 1.669410 
# 
# From -- ./inp_files/243628.got.cif
#   From: 2010.06.25/outbox.cif.g09.slc.cpg/sg12_122_cif.got.tgz:243628.got - 2010.06.28 00:19:55.
