data_PCOD8085109
_publ_section_title
;
Structure prediction by ZEFSAII (Michael W. Deem and Ramdas Pophale) SiO2 
 PCOD8085109
Probable space group: C 2/M
;
_chemical_formula_sum "Si O2"
_cell_formula_units_Z 56
_cell_length_a 27.869138
_cell_length_b 20.525025
_cell_length_c 5.327020
_cell_angle_alpha 90.000000
_cell_angle_beta 112.378556
_cell_angle_gamma 90.000000
_cell_volume 2817.650080
_symmetry_space_group_name_H-M "C 2/M"
_symmetry_group_IT_number 12
_symmetry_cell_setting 'monoclinic'
loop_
_space_group_symop_operation_xyz
x,y,z
-x,y,-z
-x,-y,-z
x,-y,z
1/2+x,1/2+y,z
1/2-x,1/2+y,-z
1/2-x,1/2-y,-z
1/2+x,1/2-y,z
loop_
_atom_site_type_symbol
_atom_site_label
_atom_site_fract_x
_atom_site_fract_y
_atom_site_fract_z
Si Si1 0.469385 0.076468 0.689056
Si Si2 0.883887 0.148150 0.021212
Si Si3 0.878450 0.673718 0.511106
Si Si4 0.286484 0.424682 0.827737
Si Si5 0.276863 0.349098 0.309125
Si Si6 0.326265 0.213151 0.907697
Si Si7 0.398356 0.313869 0.550056
O O1 0.500000 0.098131 0.500000
O O2 0.413754 0.110227 0.577919
O O3 0.458839 0.000000 0.668280
O O4 0.500000 0.098219 0.000000
O O5 0.849323 0.083394 0.950588
O O6 0.845600 0.212070 0.947378
O O7 0.919948 0.151098 0.844380
O O8 0.919680 0.150392 0.342227
O O9 0.845891 0.673893 0.702805
O O10 0.914805 0.738650 0.581045
O O11 0.844122 0.674246 0.191398
O O12 0.271506 0.500000 0.794667
O O13 0.264498 0.391657 0.532108
O O14 0.265405 0.393350 0.042311
O O15 0.236572 0.288550 0.223328
O O16 0.334921 0.319852 0.426235
#
# Coordination Sequence:
#
# PCOD8085109 Si02
#       7
#     8   8   8   8   8   8   8
#     4  10  21  38  57  72  90 121 158 194 242 304
#     4   8  16  27  42  60  79 109 146 181 224 259
#     4  10  19  32  50  72  90 109 147 195 235 270
#     4  10  19  30  41  56  82 117 159 192 216 253
#     4  10  19  31  46  63  88 125 159 184 225 277
#     4  10  19  31  48  68  91 117 151 192 230 276
#     4   8  16  27  44  67  89 112 146 184 222 263
#
# _framework density 19.874718000000001
#
# number of rings (size 3 to 8) (size 9 to 14) (size 15 to 20)
#    0.000    2.571    0.000    2.143    0.000   10.286 
#    0.000    4.286    0.000    0.000    0.000    0.000 
#    0.000    0.000    0.000    0.000    0.000 1157.143 
#
# Total GULP energy -346903.118805 kJ/mol
# GULP energy per Si atom -12389.397100 kJ/mol
# Density = 1.982948 g / cm^3
# Si number density = 19.874718 Si / 1000 Ang^3
#
#
#
# Elastic Constant Matrix: (Units=GPa)
#
#
# Indices 1 2 3 4 5 6 
#
# 1 15.7460 8.6276 27.1957 0.0000 -1.9388 0.0000
# 2 8.6276 52.0693 15.6811 0.0000 5.1150 0.0000
# 3 27.1957 15.6811 151.1644 0.0000 -50.3774 0.0000
# 4 0.0000 0.0000 0.0000 15.7702 0.0000 1.2710
# 5 -1.9388 5.1150 -50.3774 0.0000 25.7936 0.0000
# 6 0.0000 0.0000 0.0000 1.2710 0.0000 19.7853
#
#
#
# Elastic Compliance Matrix: (Units=1/GPa)
#
#
# Indices 1 2 3 4 5 6 
#
# 1 0.197235 0.012147 -0.093399 0.000000 -0.170000 0.000000
# 2 0.012147 0.026677 -0.018365 0.000000 -0.040245 0.000000
# 3 -0.093399 -0.018365 0.069313 0.000000 0.131996 0.000000
# 4 0.000000 0.000000 0.000000 0.063741 0.000000 -0.004095
# 5 -0.170000 -0.040245 0.131996 0.000000 0.291772 0.000000
# 6 0.000000 0.000000 0.000000 -0.004095 0.000000 0.050806
#
#
# Mechanical properties :
#
#
# Convention : Reuss Voigt Hill
#
# Bulk Modulus (GPa) = 10.63936 35.77652 23.20794
# Shear Modulus (GPa) = 5.37573 23.43486 14.40530
#
# Velocity S-wave (km/s) = 1.64641 3.43757 2.69514
# Velocity P-wave (km/s) = 2.99651 5.81343 4.62466
#
# Compressibility (1/GPa) = 0.09399057
#
# Stress axis : x y z
#
# Youngs Moduli (GPa) = 5.07010 37.48581 14.42736
#
# Poissons Ratio (x) = -0.45533 1.34750
# Poissons Ratio (y) = -0.06159 0.26496
# Poissons Ratio (z) = 0.47354 0.68842
#
# Static dielectric constant tensor:
#      x y z
#    x 3.303220 0.000000 -0.868890 
#    y 0.000000 3.297690 0.000000 
#    z -0.868890 0.000000 4.886790 
# 
# 
# High freq. dielectric constant tensor:
#      x y z
#    x 1.723790 0.000000 -0.045830 
#    y 0.000000 1.747150 0.000000 
#    z -0.045830 0.000000 1.806480 
# 
# From -- ./inp_files/25446.got.cif
#   From: 2010.06.25/outbox.cif.g09.slc.cpg/sg12_13_cif.got.tgz:25446.got - 2010.06.28 00:19:55.
