data_PCOD8085530
_publ_section_title
;
Structure prediction by ZEFSAII (Michael W. Deem and Ramdas Pophale) SiO2 
 PCOD8085530
Probable space group: C 2/M
;
_chemical_formula_sum "Si O2"
_cell_formula_units_Z 40
_cell_length_a 25.175022
_cell_length_b 8.937600
_cell_length_c 12.321433
_cell_angle_alpha 90.000000
_cell_angle_beta 121.329701
_cell_angle_gamma 90.000000
_cell_volume 2368.133459
_symmetry_space_group_name_H-M "C 2/M"
_symmetry_group_IT_number 12
_symmetry_cell_setting 'monoclinic'
loop_
_space_group_symop_operation_xyz
x,y,z
-x,y,-z
-x,-y,-z
x,-y,z
1/2+x,1/2+y,z
1/2-x,1/2+y,-z
1/2-x,1/2-y,-z
1/2+x,1/2-y,z
loop_
_atom_site_type_symbol
_atom_site_label
_atom_site_fract_x
_atom_site_fract_y
_atom_site_fract_z
Si Si1 0.668725 0.324121 0.822596
Si Si2 0.600479 0.822880 0.103033
Si Si3 0.708466 0.675474 0.105666
Si Si4 0.995414 0.676503 0.828472
Si Si5 0.039376 0.677043 0.645587
O O1 0.668785 0.500000 0.804273
O O2 0.724746 0.253432 0.813118
O O3 0.605508 0.256200 0.709703
O O4 0.676686 0.281685 0.957374
O O5 0.665507 0.737706 0.156961
O O6 0.570322 0.775152 0.187154
O O7 0.612097 0.000000 0.107799
O O8 0.553514 0.763692 0.960062
O O9 0.717832 0.500000 0.128836
O O10 0.999003 0.500000 0.838172
O O11 0.001243 0.733328 0.711160
O O12 0.050347 0.500000 0.660502
O O13 0.000000 0.727120 0.500000
#
# Coordination Sequence:
#
# PCOD8085530 Si02
#       5
#     8   8   8   8   8
#     4  10  20  32  47  69  97 129 160 193 238 287
#     4   9  15  27  48  69  95 127 155 191 234 286
#     4  10  19  30  47  72  99 124 154 199 245 283
#     4   8  15  27  45  70  96 125 159 189 231 284
#     4  10  19  32  51  72  97 128 161 197 231 273
#
# _framework density 16.890940000000001
#
# number of rings (size 3 to 8) (size 9 to 14) (size 15 to 20)
#    0.000    2.600    2.000    2.400    0.000    2.000 
#    0.000    3.000    0.000    1.200    0.000    0.000 
#    0.000    0.000    0.000    0.000    0.000    0.000 
#
# Total GULP energy -247949.249561 kJ/mol
# GULP energy per Si atom -12397.462478 kJ/mol
# Density = 1.685250 g / cm^3
# Si number density = 16.890940 Si / 1000 Ang^3
#
#
#
# Elastic Constant Matrix: (Units=GPa)
#
#
# Indices 1 2 3 4 5 6 
#
# 1 176.4763 47.8901 67.1771 0.0000 3.5221 0.0000
# 2 47.8901 49.4881 34.0795 0.0000 9.1181 0.0000
# 3 67.1771 34.0795 88.2225 0.0000 0.1675 0.0000
# 4 0.0000 0.0000 0.0000 15.1774 0.0000 5.2558
# 5 3.5221 9.1181 0.1675 0.0000 24.4391 0.0000
# 6 0.0000 0.0000 0.0000 5.2558 0.0000 31.1529
#
#
#
# Elastic Compliance Matrix: (Units=1/GPa)
#
#
# Indices 1 2 3 4 5 6 
#
# 1 0.008938 -0.005607 -0.004642 0.000000 0.000836 0.000000
# 2 -0.005607 0.033848 -0.008783 0.000000 -0.011760 0.000000
# 3 -0.004642 -0.008783 0.018255 0.000000 0.003821 0.000000
# 4 0.000000 0.000000 0.000000 0.069976 0.000000 -0.011805
# 5 0.000836 -0.011760 0.003821 0.000000 0.045159 0.000000
# 6 0.000000 0.000000 0.000000 -0.011805 0.000000 0.034091
#
#
# Mechanical properties :
#
#
# Convention : Reuss Voigt Hill
#
# Bulk Modulus (GPa) = 43.52121 68.05337 55.78729
# Shear Modulus (GPa) = 19.53189 25.15656 22.34423
#
# Velocity S-wave (km/s) = 3.40421 3.86340 3.64105
# Velocity P-wave (km/s) = 6.42444 7.76392 7.12573
#
# Compressibility (1/GPa) = 0.02297730
#
# Stress axis : x y z
#
# Youngs Moduli (GPa) = 111.87791 29.54348 54.77946
#
# Poissons Ratio (x) = 0.16566 0.25427
# Poissons Ratio (y) = 0.62733 0.48115
# Poissons Ratio (z) = 0.51930 0.25949
#
# Static dielectric constant tensor:
#      x y z
#    x 3.459250 0.000000 -0.205140 
#    y 0.000000 2.921460 0.000000 
#    z -0.205140 0.000000 2.961570 
# 
# 
# High freq. dielectric constant tensor:
#      x y z
#    x 1.668760 0.000000 -0.001980 
#    y 0.000000 1.635860 0.000000 
#    z -0.001980 0.000000 1.604950 
# 
# From -- ./inp_files/171383.got.cif
#   From: 2010.06.25/outbox.cif.g09.slc.cpg/sg12_86_cif.got.tgz:171383.got - 2010.06.28 00:19:55.
