data_PCOD8085675
_publ_section_title
;
Structure prediction by ZEFSAII (Michael W. Deem and Ramdas Pophale) SiO2 
 PCOD8085675
Probable space group: C 2/M
;
_chemical_formula_sum "Si O2"
_cell_formula_units_Z 40
_cell_length_a 25.074274
_cell_length_b 9.135257
_cell_length_c 29.377715
_cell_angle_alpha 90.000000
_cell_angle_beta 19.955810
_cell_angle_gamma 90.000000
_cell_volume 2296.663930
_symmetry_space_group_name_H-M "C 2/M"
_symmetry_group_IT_number 12
_symmetry_cell_setting 'monoclinic'
loop_
_space_group_symop_operation_xyz
x,y,z
-x,y,-z
-x,-y,-z
x,-y,z
1/2+x,1/2+y,z
1/2-x,1/2+y,-z
1/2-x,1/2-y,-z
1/2+x,1/2-y,z
loop_
_atom_site_type_symbol
_atom_site_label
_atom_site_fract_x
_atom_site_fract_y
_atom_site_fract_z
Si Si1 0.931663 0.166695 0.199226
Si Si2 0.181249 0.671153 0.858200
Si Si3 0.881350 0.169752 0.866248
Si Si4 0.749341 0.827360 0.107291
Si Si5 0.325159 0.327593 0.647091
O O1 0.784025 0.263787 0.304723
O O2 0.960616 0.184600 0.230472
O O3 0.892663 0.000000 0.218221
O O4 0.083861 0.216075 0.048385
O O5 0.204977 0.500000 0.849532
O O6 0.261098 0.765381 0.833609
O O7 0.264498 0.720857 0.745111
O O8 0.000000 0.711736 0.000000
O O9 0.889430 0.250077 0.810776
O O10 0.837074 0.000000 0.895045
O O11 0.750000 0.250000 0.000000
O O12 0.720783 0.000000 0.130081
O O13 0.500000 0.267200 0.500000
O O14 0.319187 0.500000 0.646294
#
# Coordination Sequence:
#
# PCOD8085675 Si02
#       5
#     8   8   8   8   8
#     4   9  18  31  48  72 101 132 165 203 247 294
#     4  10  19  32  51  74  99 133 168 204 253 301
#     4   9  17  29  46  72 103 133 165 205 252 299
#     4  10  19  30  48  76 104 131 165 208 254 295
#     4  10  21  35  51  73 101 133 169 206 247 297
#
# _framework density 17.416567000000001
#
# number of rings (size 3 to 8) (size 9 to 14) (size 15 to 20)
#    0.000    2.400    2.000    2.400    0.000    5.600 
#    0.000    0.000    0.000    1.200    0.000    0.000 
#    0.000    0.000    0.000    0.000    0.000    0.000 
#
# Total GULP energy -247956.510761 kJ/mol
# GULP energy per Si atom -12397.825538 kJ/mol
# Density = 1.737693 g / cm^3
# Si number density = 17.416567 Si / 1000 Ang^3
#
#
#
# Elastic Constant Matrix: (Units=GPa)
#
#
# Indices 1 2 3 4 5 6 
#
# 1 144.8335 64.7846 50.6101 0.0156 -15.2041 -0.0026
# 2 64.7846 77.4841 30.2703 0.0548 -9.5404 -0.0186
# 3 50.6101 30.2703 82.8675 0.0961 -2.2694 -0.0012
# 4 0.0156 0.0548 0.0961 14.8884 0.0084 -7.6511
# 5 -15.2041 -9.5404 -2.2694 0.0084 19.5434 -0.0039
# 6 -0.0026 -0.0186 -0.0012 -7.6511 -0.0039 36.9895
#
#
#
# Elastic Compliance Matrix: (Units=1/GPa)
#
#
# Indices 1 2 3 4 5 6 
#
# 1 0.012758 -0.008185 -0.004654 0.000047 0.005389 0.000007
# 2 -0.008185 0.021243 -0.002660 -0.000055 0.003694 -0.000001
# 3 -0.004654 -0.002660 0.015797 -0.000097 -0.003085 -0.000021
# 4 0.000047 -0.000055 -0.000097 0.075156 -0.000031 0.015546
# 5 0.005389 0.003694 -0.003085 -0.000031 0.056805 0.000002
# 6 0.000007 -0.000001 -0.000021 0.015546 0.000002 0.030250
#
#
# Mechanical properties :
#
#
# Convention : Reuss Voigt Hill
#
# Bulk Modulus (GPa) = 53.19094 66.27945 59.73520
# Shear Modulus (GPa) = 20.05819 24.91893 22.48856
#
# Velocity S-wave (km/s) = 3.39731 3.78664 3.59725
# Velocity P-wave (km/s) = 6.78201 7.56678 7.18512
#
# Compressibility (1/GPa) = 0.01880019
#
# Stress axis : x y z
#
# Youngs Moduli (GPa) = 78.38381 47.07373 63.30254
#
# Poissons Ratio (x) = 0.38530 0.29462
# Poissons Ratio (y) = 0.64157 0.16837
# Poissons Ratio (z) = 0.36481 0.12520
#
# Static dielectric constant tensor:
#      x y z
#    x 3.947480 -0.000080 -0.207600 
#    y -0.000080 3.261810 0.000060 
#    z -0.207600 0.000060 2.960010 
# 
# 
# High freq. dielectric constant tensor:
#      x y z
#    x 1.689310 0.000000 -0.014120 
#    y 0.000000 1.678240 0.000000 
#    z -0.014120 0.000000 1.619750 
# 
# From -- ./inp_files/93022.got.cif
#   From: 2010.06.25/outbox.cif.g09.slc.cpg/sg12_47_cif.got.tgz:93022.got - 2010.06.28 00:19:55.
