data_PCOD8085034
_publ_section_title
;
Structure prediction by ZEFSAII (Michael W. Deem and Ramdas Pophale) SiO2 
 PCOD8085034
Probable space group: C 2/M
;
_chemical_formula_sum "Si O2"
_cell_formula_units_Z 48
_cell_length_a 28.900475
_cell_length_b 8.778365
_cell_length_c 12.081023
_cell_angle_alpha 90.000000
_cell_angle_beta 110.437838
_cell_angle_gamma 90.000000
_cell_volume 2872.009208
_symmetry_space_group_name_H-M "C 2/M"
_symmetry_group_IT_number 12
_symmetry_cell_setting 'monoclinic'
loop_
_space_group_symop_operation_xyz
x,y,z
-x,y,-z
-x,-y,-z
x,-y,z
1/2+x,1/2+y,z
1/2-x,1/2+y,-z
1/2-x,1/2-y,-z
1/2+x,1/2-y,z
loop_
_atom_site_type_symbol
_atom_site_label
_atom_site_fract_x
_atom_site_fract_y
_atom_site_fract_z
Si Si1 0.221518 0.679237 0.577991
Si Si2 0.412156 0.680635 0.241543
Si Si3 0.323797 0.824466 0.070823
Si Si4 0.382166 0.318990 0.463253
Si Si5 0.250192 0.825103 0.823760
Si Si6 0.015348 0.832705 0.386143
O O1 0.221350 0.500000 0.565879
O O2 0.250000 0.750000 0.500000
O O3 0.165602 0.738168 0.528441
O O4 0.249905 0.724503 0.713731
O O5 0.412353 0.500000 0.221836
O O6 0.380382 0.765936 0.120575
O O7 0.387358 0.721508 0.338411
O O8 0.468891 0.746532 0.284176
O O9 0.293324 0.721978 0.130357
O O10 0.320082 0.000000 0.104492
O O11 0.302725 0.802816 0.929183
O O12 0.378168 0.500000 0.475624
O O13 0.430457 0.253422 0.571204
O O14 0.241044 0.000000 0.782491
O O15 0.000000 0.850760 0.500000
O O16 0.021532 0.000000 0.339102
#
# Coordination Sequence:
#
# PCOD8085034 Si02
#       6
#     8   8   8   8   8   8
#     4  12  24  36  51  70  94 125 164 202 241 284
#     4   9  15  25  45  70  98 130 159 188 229 283
#     4  10  19  29  46  71  99 128 157 194 239 285
#     4   9  16  29  47  67  95 127 160 197 234 275
#     4  10  20  34  48  66  94 128 163 197 237 283
#     4   7  12  23  41  66  93 125 159 187 225 280
#
# _framework density 16.713038999999998
#
# number of rings (size 3 to 8) (size 9 to 14) (size 15 to 20)
#    0.000    2.500    1.667    4.500    0.000    2.000 
#    0.000    0.833    0.000    3.000    0.000    1.167 
#    0.000    9.333    0.000    0.000    0.000    0.000 
#
# Total GULP energy -297366.321280 kJ/mol
# GULP energy per Si atom -12390.263387 kJ/mol
# Density = 1.667500 g / cm^3
# Si number density = 16.713039 Si / 1000 Ang^3
#
#
#
# Elastic Constant Matrix: (Units=GPa)
#
#
# Indices 1 2 3 4 5 6 
#
# 1 110.7223 47.9786 64.6751 0.0000 31.0499 0.0000
# 2 47.9786 67.5398 30.4810 0.0000 11.5272 0.0000
# 3 64.6751 30.4810 78.4777 0.0000 27.0462 0.0000
# 4 0.0000 0.0000 0.0000 23.8954 0.0000 3.2026
# 5 31.0499 11.5272 27.0462 0.0000 37.9653 0.0000
# 6 0.0000 0.0000 0.0000 3.2026 0.0000 20.8356
#
#
#
# Elastic Compliance Matrix: (Units=1/GPa)
#
#
# Indices 1 2 3 4 5 6 
#
# 1 0.021924 -0.008880 -0.012418 0.000000 -0.006388 0.000000
# 2 -0.008880 0.021562 -0.001727 0.000000 0.001946 0.000000
# 3 -0.012418 -0.001727 0.026463 0.000000 -0.008172 0.000000
# 4 0.000000 0.000000 0.000000 0.042729 0.000000 -0.006568
# 5 -0.006388 0.001946 -0.008172 0.000000 0.036795 0.000000
# 6 0.000000 0.000000 0.000000 -0.006568 0.000000 0.049004
#
#
# Mechanical properties :
#
#
# Convention : Reuss Voigt Hill
#
# Bulk Modulus (GPa) = 41.84157 60.33434 51.08796
# Shear Modulus (GPa) = 19.80240 24.11293 21.95766
#
# Velocity S-wave (km/s) = 3.44590 3.80249 3.62858
# Velocity P-wave (km/s) = 6.39702 7.44695 6.94187
#
# Compressibility (1/GPa) = 0.02389968
#
# Stress axis : x y z
#
# Youngs Moduli (GPa) = 45.61116 46.37886 37.78813
#
# Poissons Ratio (x) = 0.41185 0.46924
# Poissons Ratio (y) = 0.40503 0.06526
# Poissons Ratio (z) = 0.56638 0.08010
#
# Static dielectric constant tensor:
#      x y z
#    x 3.130830 0.000000 0.441320 
#    y 0.000000 3.021160 0.000000 
#    z 0.441320 0.000000 3.096220 
# 
# 
# High freq. dielectric constant tensor:
#      x y z
#    x 1.627150 0.000000 0.047950 
#    y 0.000000 1.631910 0.000000 
#    z 0.047950 0.000000 1.622010 
# 
# From -- ./inp_files/185718.got.cif
#   From: 2010.06.25/outbox.cif.g09.slc.cpg/sg12_93_cif.got.tgz:185718.got - 2010.06.28 00:19:55.
