data_PCOD8085253
_publ_section_title
;
Structure prediction by ZEFSAII (Michael W. Deem and Ramdas Pophale) SiO2 
 PCOD8085253
Probable space group: C 2/M
;
_chemical_formula_sum "Si O2"
_cell_formula_units_Z 56
_cell_length_a 32.104210
_cell_length_b 9.060918
_cell_length_c 15.923102
_cell_angle_alpha 90.000000
_cell_angle_beta 49.657289
_cell_angle_gamma 90.000000
_cell_volume 3530.391062
_symmetry_space_group_name_H-M "C 2/M"
_symmetry_group_IT_number 12
_symmetry_cell_setting 'monoclinic'
loop_
_space_group_symop_operation_xyz
x,y,z
-x,y,-z
-x,-y,-z
x,-y,z
1/2+x,1/2+y,z
1/2-x,1/2+y,-z
1/2-x,1/2-y,-z
1/2+x,1/2-y,z
loop_
_atom_site_type_symbol
_atom_site_label
_atom_site_fract_x
_atom_site_fract_y
_atom_site_fract_z
Si Si1 0.758887 0.171075 0.619615
Si Si2 0.065791 0.326235 0.824039
Si Si3 0.442501 0.827233 0.974736
Si Si4 0.199855 0.171245 0.108755
Si Si5 0.331212 0.670667 0.365196
Si Si6 0.734721 0.825230 0.216510
Si Si7 0.147931 0.831629 0.008929
O O1 0.702378 0.237952 0.659898
O O2 0.806461 0.193074 0.489600
O O3 0.778116 0.259266 0.676008
O O4 0.749060 0.000000 0.653864
O O5 0.076323 0.500000 0.799208
O O6 0.107540 0.233732 0.712559
O O7 0.004991 0.282886 0.873405
O O8 0.073737 0.276868 0.910378
O O9 0.403394 0.757906 0.956869
O O10 0.435846 0.000000 0.977057
O O11 0.190316 0.253188 0.210180
O O12 0.149817 0.187736 0.108062
O O13 0.213336 0.000000 0.107014
O O14 0.250000 0.250000 0.000000
O O15 0.330561 0.500000 0.339312
O O16 0.726681 0.000000 0.227341
O O17 0.795701 0.778156 0.108149
O O18 0.138383 0.000000 0.996409
#
# Coordination Sequence:
#
# PCOD8085253 Si02
#       7
#     8   8   8   8   8   8   8
#     4  10  20  32  46  65  90 120 150 181 221 265
#     4   9  18  32  46  63  89 119 150 184 221 259
#     4   9  18  30  45  65  88 117 152 183 216 263
#     4   9  17  29  43  62  90 121 150 182 222 266
#     4  10  20  32  46  66  90 117 151 186 219 260
#     4  10  19  30  45  67  92 118 151 186 220 264
#     4   9  18  29  42  64  92 118 146 181 218 259
#
# _framework density 15.862264
#
# number of rings (size 3 to 8) (size 9 to 14) (size 15 to 20)
#    0.000    2.571    0.000    4.286    0.000    8.571 
#    0.000    1.429    0.000    0.000    0.000    1.000 
#    0.000    8.000    0.000    0.000    0.000    0.000 
#
# Total GULP energy -347135.386872 kJ/mol
# GULP energy per Si atom -12397.692388 kJ/mol
# Density = 1.582616 g / cm^3
# Si number density = 15.862264 Si / 1000 Ang^3
#
#
#
# Elastic Constant Matrix: (Units=GPa)
#
#
# Indices 1 2 3 4 5 6 
#
# 1 102.4068 51.2701 42.4082 0.0000 9.2469 -0.0001
# 2 51.2701 88.7081 41.7838 0.0000 5.1392 -0.0004
# 3 42.4082 41.7838 65.7638 0.0000 0.9052 0.0000
# 4 0.0000 0.0000 0.0000 26.4298 0.0000 2.1734
# 5 9.2469 5.1392 0.9052 0.0000 27.3438 0.0000
# 6 -0.0001 -0.0004 0.0000 2.1734 0.0000 32.2630
#
#
#
# Elastic Compliance Matrix: (Units=1/GPa)
#
#
# Indices 1 2 3 4 5 6 
#
# 1 0.015677 -0.005842 -0.006343 0.000000 -0.003994 0.000000
# 2 -0.005842 0.018464 -0.007947 0.000000 -0.001232 0.000000
# 3 -0.006343 -0.007947 0.024306 0.000000 0.002834 0.000000
# 4 0.000000 0.000000 0.000000 0.038047 0.000000 -0.002563
# 5 -0.003994 -0.001232 0.002834 0.000000 0.038060 0.000000
# 6 0.000000 0.000000 0.000000 -0.002563 0.000000 0.031168
#
#
# Mechanical properties :
#
#
# Convention : Reuss Voigt Hill
#
# Bulk Modulus (GPa) = 54.99390 58.64476 56.81933
# Shear Modulus (GPa) = 23.57973 25.30174 24.44074
#
# Velocity S-wave (km/s) = 3.85974 3.99819 3.92957
# Velocity P-wave (km/s) = 7.38975 7.63973 7.51578
#
# Compressibility (1/GPa) = 0.01818383
#
# Stress axis : x y z
#
# Youngs Moduli (GPa) = 63.78826 54.15954 41.14127
#
# Poissons Ratio (x) = 0.31638 0.26095
# Poissons Ratio (y) = 0.37263 0.32696
# Poissons Ratio (z) = 0.40459 0.43042
#
# Static dielectric constant tensor:
#      x y z
#    x 3.184150 0.000000 0.163800 
#    y 0.000000 3.102180 0.000000 
#    z 0.163800 0.000000 2.845610 
# 
# 
# High freq. dielectric constant tensor:
#      x y z
#    x 1.600430 0.000000 0.013850 
#    y 0.000000 1.621760 0.000000 
#    z 0.013850 0.000000 1.581720 
# 
# From -- ./inp_files/237844.got.cif
#   From: 2010.06.25/outbox.cif.g09.slc.cpg/sg12_119_cif.got.tgz:237844.got - 2010.06.28 00:19:55.
