data_PCOD8085068
_publ_section_title
;
Structure prediction by ZEFSAII (Michael W. Deem and Ramdas Pophale) SiO2 
 PCOD8085068
Probable space group: C 2/M
;
_chemical_formula_sum "Si O2"
_cell_formula_units_Z 56
_cell_length_a 30.780798
_cell_length_b 8.944740
_cell_length_c 19.231784
_cell_angle_alpha 90.000000
_cell_angle_beta 37.540947
_cell_angle_gamma 90.000000
_cell_volume 3226.402038
_symmetry_space_group_name_H-M "C 2/M"
_symmetry_group_IT_number 12
_symmetry_cell_setting 'monoclinic'
loop_
_space_group_symop_operation_xyz
x,y,z
-x,y,-z
-x,-y,-z
x,-y,z
1/2+x,1/2+y,z
1/2-x,1/2+y,-z
1/2-x,1/2-y,-z
1/2+x,1/2-y,z
loop_
_atom_site_type_symbol
_atom_site_label
_atom_site_fract_x
_atom_site_fract_y
_atom_site_fract_z
Si Si1 0.298361 0.326177 0.742325
Si Si2 0.449251 0.323842 0.746101
Si Si3 0.067346 0.164910 0.864350
Si Si4 0.194026 0.677327 0.122445
Si Si5 0.450436 0.675861 0.502276
Si Si6 0.961288 0.823029 0.888973
Si Si7 0.851758 0.328243 0.127532
O O1 0.305263 0.500000 0.755684
O O2 0.285330 0.227063 0.826572
O O3 0.369275 0.267168 0.612959
O O4 0.232441 0.302157 0.773974
O O5 0.431817 0.500000 0.764226
O O6 0.384318 0.232944 0.796752
O O7 0.518905 0.281596 0.612389
O O8 0.463919 0.270939 0.805957
O O9 0.127237 0.270153 0.822184
O O10 0.035965 0.227379 0.830876
O O11 0.100881 0.000000 0.811981
O O12 0.000000 0.156228 0.000000
O O13 0.198309 0.500000 0.110711
O O14 0.250000 0.750000 0.000000
O O15 0.500000 0.747353 0.500000
O O16 0.450847 0.500000 0.511498
O O17 0.953174 0.000000 0.906477
O O18 0.892687 0.753314 0.013181
O O19 0.873192 0.500000 0.095675
#
# Coordination Sequence:
#
# PCOD8085068 Si02
#       7
#     8   8   8   8   8   8   8
#     4  10  20  35  52  73 100 130 168 208 245 291
#     4  10  19  34  55  75  97 129 169 208 246 290
#     4   8  15  29  47  68  97 129 161 198 239 292
#     4  12  24  35  49  72 102 133 163 199 249 300
#     4   9  16  31  56  75  92 127 172 210 245 286
#     4   9  18  31  49  73  99 128 163 200 242 295
#     4  10  19  29  47  74 101 128 160 200 247 296
#
# _framework density 17.356795999999999
#
# number of rings (size 3 to 8) (size 9 to 14) (size 15 to 20)
#    0.000    2.286    1.429    3.429    0.000    6.571 
#    0.000    1.429    0.000    0.857    0.000    0.000 
#    0.000    0.000    0.000    0.000    0.000    1.429 
#
# Total GULP energy -347120.223226 kJ/mol
# GULP energy per Si atom -12397.150829 kJ/mol
# Density = 1.731729 g / cm^3
# Si number density = 17.356796 Si / 1000 Ang^3
#
#
#
# Elastic Constant Matrix: (Units=GPa)
#
#
# Indices 1 2 3 4 5 6 
#
# 1 111.9373 29.1519 32.1779 0.0085 -13.0858 -0.0035
# 2 29.1519 56.2415 22.7590 0.0169 -8.6623 -0.0025
# 3 32.1779 22.7590 84.4373 0.0160 -19.3682 -0.0123
# 4 0.0085 0.0169 0.0160 14.7593 0.0001 -1.1639
# 5 -13.0858 -8.6623 -19.3682 0.0001 18.7105 -0.0053
# 6 -0.0035 -0.0025 -0.0123 -1.1639 -0.0053 27.0440
#
#
#
# Elastic Compliance Matrix: (Units=1/GPa)
#
#
# Indices 1 2 3 4 5 6 
#
# 1 0.011113 -0.004308 -0.002293 0.000001 0.003404 0.000001
# 2 -0.004308 0.021964 -0.003458 -0.000019 0.003576 0.000000
# 3 -0.002293 -0.003458 0.016935 -0.000012 0.014326 0.000009
# 4 0.000001 -0.000019 -0.000012 0.067985 -0.000021 0.002926
# 5 0.003404 0.003576 0.014326 -0.000021 0.072312 0.000021
# 6 0.000001 0.000000 0.000009 0.002926 0.000021 0.037103
#
#
# Mechanical properties :
#
#
# Convention : Reuss Voigt Hill
#
# Bulk Modulus (GPa) = 33.45220 46.75483 40.10352
# Shear Modulus (GPa) = 19.41806 23.33791 21.37799
#
# Velocity S-wave (km/s) = 3.34841 3.67085 3.51333
# Velocity P-wave (km/s) = 5.85357 6.70543 6.29393
#
# Compressibility (1/GPa) = 0.02989340
#
# Stress axis : x y z
#
# Youngs Moduli (GPa) = 89.98843 45.53005 59.04916
#
# Poissons Ratio (x) = 0.19614 0.13539
# Poissons Ratio (y) = 0.38766 0.20420
# Poissons Ratio (z) = 0.20633 0.15745
#
# Static dielectric constant tensor:
#      x y z
#    x 3.648000 -0.000140 0.038710 
#    y -0.000140 3.337590 0.000110 
#    z 0.038710 0.000110 3.281290 
# 
# 
# High freq. dielectric constant tensor:
#      x y z
#    x 1.679410 0.000000 -0.000590 
#    y 0.000000 1.654390 0.000000 
#    z -0.000590 0.000000 1.647610 
# 
# From -- ./inp_files/295093.got.cif
#   From: 2010.06.25/outbox.cif.g09.slc.cpg/sg12_148_cif.got.tgz:295093.got - 2010.06.28 00:19:55.
