data_PCOD8085743
_publ_section_title
;
Structure prediction by ZEFSAII (Michael W. Deem and Ramdas Pophale) SiO2 
 PCOD8085743
Probable space group: C 2/M
;
_chemical_formula_sum "Si O2"
_cell_formula_units_Z 48
_cell_length_a 22.267396
_cell_length_b 9.056025
_cell_length_c 28.376337
_cell_angle_alpha 90.000000
_cell_angle_beta 28.236582
_cell_angle_gamma 90.000000
_cell_volume 2707.251422
_symmetry_space_group_name_H-M "C 2/M"
_symmetry_group_IT_number 12
_symmetry_cell_setting 'monoclinic'
loop_
_space_group_symop_operation_xyz
x,y,z
-x,y,-z
-x,-y,-z
x,-y,z
1/2+x,1/2+y,z
1/2-x,1/2+y,-z
1/2-x,1/2-y,-z
1/2+x,1/2-y,z
loop_
_atom_site_type_symbol
_atom_site_label
_atom_site_fract_x
_atom_site_fract_y
_atom_site_fract_z
Si Si1 0.115066 0.325966 0.088278
Si Si2 0.463678 0.332212 0.271783
Si Si3 0.199159 0.669966 0.489559
Si Si4 0.795864 0.169504 0.153367
Si Si5 0.961622 0.828583 0.672789
Si Si6 0.465739 0.330031 0.947981
O O1 0.134368 0.500000 0.074707
O O2 0.026927 0.282333 0.192841
O O3 0.047578 0.276609 0.087029
O O4 0.250000 0.250000 0.000000
O O5 0.503061 0.500000 0.231574
O O6 0.310230 0.315066 0.373581
O O7 0.511870 0.293610 0.290831
O O8 0.173317 0.500000 0.519390
O O9 0.250000 0.750000 0.500000
O O10 0.065994 0.746538 0.567475
O O11 0.676840 0.272984 0.245744
O O12 0.896250 0.196980 0.125411
O O13 0.751578 0.000000 0.183410
O O14 0.857909 0.210932 0.060404
O O15 0.971822 0.000000 0.654548
O O16 0.450871 0.500000 0.942401
#
# Coordination Sequence:
#
# PCOD8085743 Si02
#       6
#     8   8   8   8   8   8
#     4  12  24  35  51  74 101 134 167 201 244 293
#     4   9  19  34  50  72 102 134 166 202 246 293
#     4   9  17  30  49  72  99 130 164 204 249 294
#     4   9  18  33  54  76  98 129 166 204 247 292
#     4  10  19  30  49  77 105 132 164 203 246 293
#     4   9  19  36  54  73  99 130 166 206 246 292
#
# _framework density 17.730160999999999
#
# number of rings (size 3 to 8) (size 9 to 14) (size 15 to 20)
#    0.000    2.333    0.000    5.500    0.000    8.000 
#    0.000    1.667    0.000    1.000    0.000    7.000 
#    0.000    0.000    0.000    0.000    0.000    0.000 
#
# Total GULP energy -297571.658834 kJ/mol
# GULP energy per Si atom -12398.819118 kJ/mol
# Density = 1.768981 g / cm^3
# Si number density = 17.730161 Si / 1000 Ang^3
#
#
#
# Elastic Constant Matrix: (Units=GPa)
#
#
# Indices 1 2 3 4 5 6 
#
# 1 58.6159 43.2318 37.0988 -0.0086 -5.8956 0.0189
# 2 43.2318 131.1092 68.9079 -0.0057 -7.1380 0.0128
# 3 37.0988 68.9079 118.4239 0.0026 -20.6761 0.0051
# 4 -0.0086 -0.0057 0.0026 34.3845 -0.0002 -3.7792
# 5 -5.8956 -7.1380 -20.6761 -0.0002 25.4603 -0.0027
# 6 0.0189 0.0128 0.0051 -3.7792 -0.0027 28.2264
#
#
#
# Elastic Compliance Matrix: (Units=1/GPa)
#
#
# Indices 1 2 3 4 5 6 
#
# 1 0.023906 -0.005720 -0.004048 0.000004 0.000645 -0.000012
# 2 -0.005720 0.012490 -0.005937 0.000001 -0.002645 -0.000001
# 3 -0.004048 -0.005937 0.014813 -0.000003 0.009428 0.000003
# 4 0.000004 0.000001 -0.000003 0.029517 0.000000 0.003952
# 5 0.000645 -0.002645 0.009428 0.000000 0.046341 0.000003
# 6 -0.000012 -0.000001 0.000003 0.003952 0.000003 0.035957
#
#
# Mechanical properties :
#
#
# Convention : Reuss Voigt Hill
#
# Bulk Modulus (GPa) = 50.51015 67.40288 58.95652
# Shear Modulus (GPa) = 24.87133 28.20828 26.53981
#
# Velocity S-wave (km/s) = 3.74942 3.99303 3.87314
# Velocity P-wave (km/s) = 6.87709 7.70439 7.30246
#
# Compressibility (1/GPa) = 0.01979800
#
# Stress axis : x y z
#
# Youngs Moduli (GPa) = 41.83057 80.06460 67.50701
#
# Poissons Ratio (x) = 0.45797 0.27328
# Poissons Ratio (y) = 0.23927 0.40082
# Poissons Ratio (z) = 0.16934 0.47538
#
# Static dielectric constant tensor:
#      x y z
#    x 3.032660 -0.000030 -0.159280 
#    y -0.000030 3.373730 0.000020 
#    z -0.159280 0.000020 3.501620 
# 
# 
# High freq. dielectric constant tensor:
#      x y z
#    x 1.652920 0.000000 -0.017670 
#    y 0.000000 1.693340 0.000000 
#    z -0.017670 0.000000 1.693750 
# 
# From -- ./inp_files/249371.got.cif
#   From: 2010.06.25/outbox.cif.g09.slc.cpg/sg12_125_cif.got.tgz:249371.got - 2010.06.28 00:19:55.
