data_PCOD8085439
_publ_section_title
;
Structure prediction by ZEFSAII (Michael W. Deem and Ramdas Pophale) SiO2 
 PCOD8085439
Probable space group: C 2/M
;
_chemical_formula_sum "Si O2"
_cell_formula_units_Z 56
_cell_length_a 9.564386
_cell_length_b 27.464605
_cell_length_c 13.877640
_cell_angle_alpha 90.000000
_cell_angle_beta 112.528239
_cell_angle_gamma 90.000000
_cell_volume 3367.229303
_symmetry_space_group_name_H-M "C 2/M"
_symmetry_group_IT_number 12
_symmetry_cell_setting 'monoclinic'
loop_
_space_group_symop_operation_xyz
x,y,z
-x,y,-z
-x,-y,-z
x,-y,z
1/2+x,1/2+y,z
1/2-x,1/2+y,-z
1/2-x,1/2-y,-z
1/2+x,1/2-y,z
loop_
_atom_site_type_symbol
_atom_site_label
_atom_site_fract_x
_atom_site_fract_y
_atom_site_fract_z
Si Si1 0.811505 0.593235 0.579949
Si Si2 0.361021 0.442957 0.290842
Si Si3 0.330333 0.391656 0.662533
Si Si4 0.279633 0.212489 0.370724
Si Si5 0.548656 0.057553 0.115203
Si Si6 0.901127 0.701679 0.615565
Si Si7 0.607396 0.944155 0.735322
O O1 0.677440 0.571026 0.609255
O O2 0.759078 0.591683 0.456227
O O3 0.853285 0.647057 0.629344
O O4 0.960907 0.560207 0.627523
O O5 0.400734 0.500000 0.295466
O O6 0.500327 0.411103 0.291738
O O7 0.221164 0.428500 0.185108
O O8 0.332861 0.333296 0.670458
O O9 0.246214 0.412699 0.733495
O O10 0.180838 0.261591 0.331017
O O11 0.350954 0.213543 0.494850
O O12 0.416681 0.208798 0.329722
O O13 0.436908 0.076067 0.170179
O O14 0.533961 0.000000 0.107286
O O15 0.500000 0.080975 0.000000
O O16 0.658957 0.000000 0.752232
#
# Coordination Sequence:
#
# PCOD8085439 Si02
#       7
#     8   8   8   8   8   8   8
#     4  10  19  31  45  63  97 137 168 189 222 274
#     4  10  21  32  45  69  97 128 165 196 226 277
#     4  11  20  30  43  68 103 132 156 195 232 268
#     4   9  18  29  44  62  88 124 163 201 235 266
#     4   8  16  34  54  67  85 118 159 201 245 287
#     4   9  17  30  44  62  85 123 169 202 232 266
#     4  10  19  30  47  69  93 126 162 193 227 278
#
# _framework density 16.630884999999999
#
# number of rings (size 3 to 8) (size 9 to 14) (size 15 to 20)
#    0.000    2.429    1.429    2.571    2.000    3.429 
#    0.000    0.714    0.000    3.429    0.000    0.000 
#    0.000   18.286    0.000    0.000    0.000    0.000 
#
# Total GULP energy -347135.444783 kJ/mol
# GULP energy per Si atom -12397.694457 kJ/mol
# Density = 1.659303 g / cm^3
# Si number density = 16.630885 Si / 1000 Ang^3
#
#
#
# Elastic Constant Matrix: (Units=GPa)
#
#
# Indices 1 2 3 4 5 6 
#
# 1 117.3615 39.4984 22.4028 0.0000 5.6922 0.0000
# 2 39.4984 75.9384 15.9015 0.0000 2.4851 0.0000
# 3 22.4028 15.9015 53.8881 0.0000 -10.2099 0.0000
# 4 0.0000 0.0000 0.0000 6.2870 0.0000 4.3891
# 5 5.6922 2.4851 -10.2099 0.0000 10.4230 0.0000
# 6 0.0000 0.0000 0.0000 4.3891 0.0000 29.5384
#
#
#
# Elastic Compliance Matrix: (Units=1/GPa)
#
#
# Indices 1 2 3 4 5 6 
#
# 1 0.011617 -0.004540 -0.005509 0.000000 -0.010659 0.000000
# 2 -0.004540 0.016549 -0.004020 0.000000 -0.005404 0.000000
# 3 -0.005509 -0.004020 0.027978 0.000000 0.031373 0.000000
# 4 0.000000 0.000000 0.000000 0.177469 0.000000 -0.026370
# 5 -0.010659 -0.005404 0.031373 0.000000 0.133783 0.000000
# 6 0.000000 0.000000 0.000000 -0.026370 0.000000 0.037773
#
#
# Mechanical properties :
#
#
# Convention : Reuss Voigt Hill
#
# Bulk Modulus (GPa) = 35.70748 44.75481 40.23114
# Shear Modulus (GPa) = 11.29583 20.54202 15.91892
#
# Velocity S-wave (km/s) = 2.60899 3.51832 3.09721
# Velocity P-wave (km/s) = 5.53109 6.59347 6.08551
#
# Compressibility (1/GPa) = 0.02800534
#
# Stress axis : x y z
#
# Youngs Moduli (GPa) = 86.07838 60.42814 35.74294
#
# Poissons Ratio (x) = 0.27435 0.19692
# Poissons Ratio (y) = 0.39081 0.14367
# Poissons Ratio (z) = 0.47424 0.24289
#
# Static dielectric constant tensor:
#      x y z
#    x 3.371220 0.000000 -0.080310 
#    y 0.000000 3.148360 0.000000 
#    z -0.080310 0.000000 2.951710 
# 
# 
# High freq. dielectric constant tensor:
#      x y z
#    x 1.652330 0.000000 0.002360 
#    y 0.000000 1.635680 0.000000 
#    z 0.002360 0.000000 1.584190 
# 
# From -- ./inp_files/199943.got.cif
#   From: 2010.06.25/outbox.cif.g09.slc.cpg/sg12_100_cif.got.tgz:199943.got - 2010.06.28 00:19:55.
