data_PCOD8085445
_publ_section_title
;
Structure prediction by ZEFSAII (Michael W. Deem and Ramdas Pophale) SiO2 
 PCOD8085445
Probable space group: C 2/M
;
_chemical_formula_sum "Si O2"
_cell_formula_units_Z 64
_cell_length_a 27.981016
_cell_length_b 8.876811
_cell_length_c 20.221428
_cell_angle_alpha 90.000000
_cell_angle_beta 47.216747
_cell_angle_gamma 90.000000
_cell_volume 3686.260172
_symmetry_space_group_name_H-M "C 2/M"
_symmetry_group_IT_number 12
_symmetry_cell_setting 'monoclinic'
loop_
_space_group_symop_operation_xyz
x,y,z
-x,y,-z
-x,-y,-z
x,-y,z
1/2+x,1/2+y,z
1/2-x,1/2+y,-z
1/2-x,1/2-y,-z
1/2+x,1/2-y,z
loop_
_atom_site_type_symbol
_atom_site_label
_atom_site_fract_x
_atom_site_fract_y
_atom_site_fract_z
Si Si1 0.554840 0.325852 0.902046
Si Si2 0.968860 0.674598 0.345590
Si Si3 0.200235 0.676590 0.628088
Si Si4 0.048896 0.322095 0.396880
Si Si5 0.342443 0.329633 0.507485
Si Si6 0.570271 0.677379 0.740336
Si Si7 0.821198 0.829277 0.683299
Si Si8 0.801772 0.174560 0.229659
O O1 0.536575 0.500000 0.910882
O O2 0.554241 0.255527 0.828159
O O3 0.625851 0.307664 0.869893
O O4 0.500000 0.247220 0.000000
O O5 0.974903 0.500000 0.324540
O O6 0.896663 0.708511 0.439534
O O7 0.981895 0.763739 0.264598
O O8 0.020398 0.724948 0.352437
O O9 0.185761 0.500000 0.634923
O O10 0.274264 0.713093 0.534009
O O11 0.142095 0.768080 0.646430
O O12 0.197458 0.722940 0.706771
O O13 0.058050 0.500000 0.395337
O O14 0.118257 0.243333 0.335994
O O15 0.000000 0.263197 0.500000
O O16 0.364376 0.500000 0.467651
O O17 0.331544 0.319676 0.595718
O O18 0.570856 0.500000 0.742091
O O19 0.755258 0.736952 0.764657
O O20 0.813243 0.000000 0.715281
O O21 0.788586 0.000000 0.260305
#
# Coordination Sequence:
#
# PCOD8085445 Si02
#       8
#     8   8   8   8   8   8   8   8
#     4   8  15  30  53  79 101 123 154 189 230 285
#     4  11  22  33  47  65  91 126 161 204 245 281
#     4   9  17  30  46  65  92 125 161 199 235 277
#     4  10  20  34  49  68  91 123 170 214 249 284
#     4   9  18  30  44  64  89 122 163 201 236 277
#     4  10  20  33  49  69  95 126 156 193 236 287
#     4  10  19  30  47  69  96 129 163 206 247 282
#     4   9  16  27  47  73 100 128 156 193 237 285
#
# _framework density 17.361768999999999
#
# number of rings (size 3 to 8) (size 9 to 14) (size 15 to 20)
#    0.000    2.500    1.250    3.375    0.000    4.250 
#    0.000    0.000    0.000   13.500    0.000    0.875 
#    0.000    0.000    0.000    0.000    0.000    0.000 
#
# Total GULP energy -396574.074326 kJ/mol
# GULP energy per Si atom -12392.939823 kJ/mol
# Density = 1.732225 g / cm^3
# Si number density = 17.361769 Si / 1000 Ang^3
#
#
#
# Elastic Constant Matrix: (Units=GPa)
#
#
# Indices 1 2 3 4 5 6 
#
# 1 122.3381 40.0046 28.5920 -0.0266 -11.2929 0.0094
# 2 40.0046 43.0894 7.2352 -0.0109 -1.6362 0.0057
# 3 28.5920 7.2352 50.5291 -0.0405 -13.0823 0.0165
# 4 -0.0266 -0.0109 -0.0405 11.0237 0.0103 0.9062
# 5 -11.2929 -1.6362 -13.0823 0.0103 16.3044 -0.0038
# 6 0.0094 0.0057 0.0165 0.9062 -0.0038 27.9776
#
#
#
# Elastic Compliance Matrix: (Units=1/GPa)
#
#
# Indices 1 2 3 4 5 6 
#
# 1 0.013478 -0.011533 -0.004869 -0.000001 0.004271 0.000001
# 2 -0.011533 0.033651 0.000648 0.000012 -0.004091 -0.000004
# 3 -0.004869 0.000648 0.027260 0.000073 0.018565 -0.000014
# 4 -0.000001 0.000012 0.000073 0.090956 0.000001 -0.002946
# 5 0.004271 -0.004091 0.018565 0.000001 0.078777 -0.000001
# 6 0.000001 -0.000004 -0.000014 -0.002946 -0.000001 0.035838
#
#
# Mechanical properties :
#
#
# Convention : Reuss Voigt Hill
#
# Bulk Modulus (GPa) = 23.32070 40.84668 32.08369
# Shear Modulus (GPa) = 15.34869 20.40278 17.87574
#
# Velocity S-wave (km/s) = 2.97653 3.43177 3.21222
# Velocity P-wave (km/s) = 5.02736 6.26743 5.68133
#
# Compressibility (1/GPa) = 0.04288036
#
# Stress axis : x y z
#
# Youngs Moduli (GPa) = 74.19744 29.71710 36.68416
#
# Poissons Ratio (x) = 0.34273 0.17862
# Poissons Ratio (y) = 0.85571 -0.02378
# Poissons Ratio (z) = 0.36128 -0.01927
#
# Static dielectric constant tensor:
#      x y z
#    x 3.564260 -0.000030 -0.147200 
#    y -0.000030 3.183130 0.000030 
#    z -0.147200 0.000030 3.178960 
# 
# 
# High freq. dielectric constant tensor:
#      x y z
#    x 1.673190 0.000000 -0.009240 
#    y 0.000000 1.667860 0.000000 
#    z -0.009240 0.000000 1.626050 
# 
# From -- ./inp_files/326883.got.cif
#   From: 2010.06.25/outbox.cif.g09.slc.cpg/sg12_164_cif.got.tgz:326883.got - 2010.06.28 00:19:55.
