data_PCOD8085122
_publ_section_title
;
Structure prediction by ZEFSAII (Michael W. Deem and Ramdas Pophale) SiO2 
 PCOD8085122
Probable space group: C 2/M
;
_chemical_formula_sum "Si O2"
_cell_formula_units_Z 56
_cell_length_a 25.582142
_cell_length_b 21.655698
_cell_length_c 22.436671
_cell_angle_alpha 90.000000
_cell_angle_beta 164.295518
_cell_angle_gamma 90.000000
_cell_volume 3364.471578
_symmetry_space_group_name_H-M "C 2/M"
_symmetry_group_IT_number 12
_symmetry_cell_setting 'monoclinic'
loop_
_space_group_symop_operation_xyz
x,y,z
-x,y,-z
-x,-y,-z
x,-y,z
1/2+x,1/2+y,z
1/2-x,1/2+y,-z
1/2-x,1/2-y,-z
1/2+x,1/2-y,z
loop_
_atom_site_type_symbol
_atom_site_label
_atom_site_fract_x
_atom_site_fract_y
_atom_site_fract_z
Si Si1 0.503782 0.634493 0.643456
Si Si2 0.668172 0.828979 0.459688
Si Si3 0.635747 0.765540 0.815463
Si Si4 0.764435 0.929627 0.477303
Si Si5 0.404284 0.883590 0.016125
Si Si6 0.305979 0.431202 0.324299
Si Si7 0.991825 0.257611 0.830383
O O1 0.496058 0.707874 0.645116
O O2 0.446503 0.601412 0.642859
O O3 0.336700 0.615051 0.413226
O O4 0.716347 0.614149 0.853545
O O5 0.494473 0.827433 0.318114
O O6 0.729634 0.895817 0.502894
O O7 0.846497 0.796309 0.689445
O O8 0.586195 0.787596 0.316121
O O9 0.750000 0.750000 0.000000
O O10 0.798044 0.775246 0.943502
O O11 0.567035 0.927258 0.222825
O O12 0.817975 0.000000 0.549866
O O13 0.487153 0.813947 0.099992
O O14 0.364062 0.907420 0.905377
O O15 0.500000 0.433608 0.500000
O O16 0.256232 0.500000 0.293528
#
# Coordination Sequence:
#
# PCOD8085122 Si02
#       7
#     8   8   8   8   8   8   8
#     4  10  19  30  43  59  79 105 139 173 201 231
#     4   9  16  27  40  57  78  95 124 168 206 242
#     4   9  15  26  44  60  73  95 129 168 207 239
#     4  11  21  29  40  58  79 107 139 167 200 240
#     4   9  18  31  44  58  78 107 142 173 197 226
#     4   9  17  29  42  56  81 115 142 164 191 223
#     4   8  14  25  43  60  73  95 128 167 205 236
#
# _framework density 16.644514999999998
#
# number of rings (size 3 to 8) (size 9 to 14) (size 15 to 20)
#    0.000    2.714    0.000    5.143    0.000    2.286 
#    0.000    1.429    0.000    0.000    0.000    0.000 
#    0.000    0.000    0.000    2.571    0.000   26.143 
#
# Total GULP energy -346878.115792 kJ/mol
# GULP energy per Si atom -12388.504135 kJ/mol
# Density = 1.660663 g / cm^3
# Si number density = 16.644515 Si / 1000 Ang^3
#
#
#
# Elastic Constant Matrix: (Units=GPa)
#
#
# Indices 1 2 3 4 5 6 
#
# 1 36.9737 30.8597 9.5848 0.0442 5.2731 0.0153
# 2 30.8597 65.9590 33.6811 0.0425 -1.5658 0.0389
# 3 9.5848 33.6811 58.1189 0.1079 -1.3811 0.0933
# 4 0.0442 0.0425 0.1079 21.0956 0.0668 -5.1630
# 5 5.2731 -1.5658 -1.3811 0.0668 21.1275 0.0262
# 6 0.0153 0.0389 0.0933 -5.1630 0.0262 22.3841
#
#
#
# Elastic Compliance Matrix: (Units=1/GPa)
#
#
# Indices 1 2 3 4 5 6 
#
# 1 0.050143 -0.027555 0.007365 -0.000045 -0.014075 -0.000011
# 2 -0.027555 0.036688 -0.016515 0.000047 0.008516 0.000025
# 3 0.007365 -0.016515 0.025530 -0.000136 -0.001393 -0.000112
# 4 -0.000045 0.000047 -0.000136 0.050241 -0.000167 0.011589
# 5 -0.014075 0.008516 -0.001393 -0.000167 0.051385 -0.000098
# 6 -0.000011 0.000025 -0.000112 0.011589 -0.000098 0.047348
#
#
# Mechanical properties :
#
#
# Convention : Reuss Voigt Hill
#
# Bulk Modulus (GPa) = 25.67360 34.36700 30.02030
# Shear Modulus (GPa) = 14.37906 18.71651 16.54778
#
# Velocity S-wave (km/s) = 2.94239 3.35697 3.15650
# Velocity P-wave (km/s) = 5.19632 5.97647 5.59999
#
# Compressibility (1/GPa) = 0.03895052
#
# Stress axis : x y z
#
# Youngs Moduli (GPa) = 19.94308 27.25687 39.17016
#
# Poissons Ratio (x) = 0.75105 -0.28848
# Poissons Ratio (y) = 0.54953 0.64689
# Poissons Ratio (z) = -0.14688 0.45015
#
# Static dielectric constant tensor:
#      x y z
#    x 3.198130 -0.000270 0.354180 
#    y -0.000270 3.047490 -0.000450 
#    z 0.354180 -0.000450 3.405880 
# 
# 
# High freq. dielectric constant tensor:
#      x y z
#    x 1.610400 -0.000010 0.040910 
#    y -0.000010 1.610240 -0.000020 
#    z 0.040910 -0.000020 1.641800 
# 
# From -- ./inp_files/286350.got.cif
#   From: 2010.06.25/outbox.cif.g09.slc.cpg/sg12_144_cif.got.tgz:286350.got - 2010.06.28 00:19:55.
