data_PCOD8085189
_publ_section_title
;
Structure prediction by ZEFSAII (Michael W. Deem and Ramdas Pophale) SiO2 
 PCOD8085189
Probable space group: C 2/M
;
_chemical_formula_sum "Si O2"
_cell_formula_units_Z 56
_cell_length_a 28.087549
_cell_length_b 8.899961
_cell_length_c 29.833938
_cell_angle_alpha 90.000000
_cell_angle_beta 152.648957
_cell_angle_gamma 90.000000
_cell_volume 3426.433368
_symmetry_space_group_name_H-M "C 2/M"
_symmetry_group_IT_number 12
_symmetry_cell_setting 'monoclinic'
loop_
_space_group_symop_operation_xyz
x,y,z
-x,y,-z
-x,-y,-z
x,-y,z
1/2+x,1/2+y,z
1/2-x,1/2+y,-z
1/2-x,1/2-y,-z
1/2+x,1/2-y,z
loop_
_atom_site_type_symbol
_atom_site_label
_atom_site_fract_x
_atom_site_fract_y
_atom_site_fract_z
Si Si1 0.641980 0.327677 0.406146
Si Si2 0.588445 0.665992 0.036914
Si Si3 0.671121 0.675163 0.334618
Si Si4 0.412533 0.323462 0.829585
Si Si5 0.454910 0.176088 0.414074
Si Si6 0.107566 0.176726 0.472930
Si Si7 0.765695 0.676813 0.778123
O O1 0.667482 0.500000 0.433326
O O2 0.750000 0.250000 0.500000
O O3 0.600861 0.294470 0.321047
O O4 0.573175 0.283010 0.392253
O O5 0.636403 0.500000 0.069267
O O6 0.529060 0.725110 0.942408
O O7 0.500000 0.657726 0.000000
O O8 0.679250 0.776255 0.129017
O O9 0.704591 0.500000 0.360121
O O10 0.599644 0.718744 0.232683
O O11 0.773299 0.777337 0.419380
O O12 0.397788 0.500000 0.826414
O O13 0.323800 0.241148 0.783484
O O14 0.500000 0.220023 0.500000
O O15 0.536778 0.223781 0.445293
O O16 0.350441 0.265466 0.318219
O O17 0.432327 0.000000 0.391680
O O18 0.093884 0.000000 0.472248
O O19 0.765849 0.500000 0.774926
#
# Coordination Sequence:
#
# PCOD8085189 Si02
#       7
#     8   8   8   8   8   8   8
#     4   8  15  27  43  63  88 116 145 178 215 258
#     4   8  15  29  46  63  86 116 148 180 214 257
#     4   9  16  28  46  67  91 120 150 177 213 260
#     4   9  17  29  46  67  91 119 149 180 214 256
#     4  11  23  36  48  62  84 118 155 184 213 256
#     4  10  19  30  44  65  92 119 148 183 221 256
#     4  11  21  31  45  65  90 118 147 182 222 260
#
# _framework density 16.343526000000001
#
# number of rings (size 3 to 8) (size 9 to 14) (size 15 to 20)
#    0.000    2.571    0.000    3.857    0.000    8.286 
#    0.000    0.000    0.000    0.000    0.000    1.000 
#    0.000    0.000    0.000    0.000    0.000    0.000 
#
# Total GULP energy -346884.075522 kJ/mol
# GULP energy per Si atom -12388.716983 kJ/mol
# Density = 1.630633 g / cm^3
# Si number density = 16.343526 Si / 1000 Ang^3
#
#
#
# Elastic Constant Matrix: (Units=GPa)
#
#
# Indices 1 2 3 4 5 6 
#
# 1 97.3582 26.8394 50.5468 0.0005 -26.2133 0.0005
# 2 26.8394 48.5469 28.3276 0.0010 -6.4098 0.0011
# 3 50.5468 28.3276 102.8581 0.0012 -24.8240 0.0010
# 4 0.0005 0.0010 0.0012 11.8888 0.0005 -8.3767
# 5 -26.2133 -6.4098 -24.8240 0.0005 26.1714 0.0003
# 6 0.0005 0.0011 0.0010 -8.3767 0.0003 -8.6957
#
#
#
# Elastic Compliance Matrix: (Units=1/GPa)
#
#
# Indices 1 2 3 4 5 6 
#
# 1 0.017094 -0.005545 -0.003980 0.000000 0.011988 0.000000
# 2 -0.005545 0.026347 -0.005595 0.000000 -0.004408 0.000002
# 3 -0.003980 -0.005595 0.015467 0.000000 0.009314 0.000001
# 4 0.000000 0.000000 0.000000 0.050105 -0.000001 -0.048267
# 5 0.011988 -0.004408 0.009314 -0.000001 0.057972 0.000004
# 6 0.000000 0.000002 0.000001 -0.048267 0.000004 -0.068504
#
#
# Mechanical properties :
#
#
# Convention : Reuss Voigt Hill
#
# Bulk Modulus (GPa) = 34.88278 51.13230 43.00754
# Shear Modulus (GPa) = 36.15931 15.40953 25.78442
#
# Velocity S-wave (km/s) = 4.70878 3.07392 3.97628
# Velocity P-wave (km/s) = 7.13816 6.62967 6.88861
#
# Compressibility (1/GPa) = 0.02866744
#
# Stress axis : x y z
#
# Youngs Moduli (GPa) = 58.49923 37.95494 64.65533
#
# Poissons Ratio (x) = 0.21048 0.25733
# Poissons Ratio (y) = 0.32440 0.36174
# Poissons Ratio (z) = 0.23283 0.21235
#
# Static dielectric constant tensor:
#      x y z
#    x 3.374470 0.000000 -0.576580 
#    y 0.000000 2.800180 0.000000 
#    z -0.576580 0.000000 3.424890 
# 
# 
# High freq. dielectric constant tensor:
#      x y z
#    x 1.609550 0.000000 -0.030160 
#    y 0.000000 1.633520 0.000000 
#    z -0.030160 0.000000 1.615110 
# 
# From -- ./inp_files/384433.got.cif
#   From: 2010.06.25/outbox.cif.g09.slc.cpg/sg12_193_cif.got.tgz:384433.got - 2010.06.28 00:19:55.
