data_PCOD8085634
_publ_section_title
;
Structure prediction by ZEFSAII (Michael W. Deem and Ramdas Pophale) SiO2 
 PCOD8085634
Probable space group: C 2/M
;
_chemical_formula_sum "Si O2"
_cell_formula_units_Z 64
_cell_length_a 28.784151
_cell_length_b 9.144188
_cell_length_c 15.770383
_cell_angle_alpha 90.000000
_cell_angle_beta 61.976407
_cell_angle_gamma 90.000000
_cell_volume 3664.212100
_symmetry_space_group_name_H-M "C 2/M"
_symmetry_group_IT_number 12
_symmetry_cell_setting 'monoclinic'
loop_
_space_group_symop_operation_xyz
x,y,z
-x,y,-z
-x,-y,-z
x,-y,z
1/2+x,1/2+y,z
1/2-x,1/2+y,-z
1/2-x,1/2-y,-z
1/2+x,1/2-y,z
loop_
_atom_site_type_symbol
_atom_site_label
_atom_site_fract_x
_atom_site_fract_y
_atom_site_fract_z
Si Si1 0.650328 0.670261 0.069987
Si Si2 0.715179 0.332876 0.851198
Si Si3 0.319867 0.328511 0.766296
Si Si4 0.436426 0.831793 0.948281
Si Si5 0.081987 0.327470 0.392910
Si Si6 0.521171 0.172329 0.610557
Si Si7 0.048575 0.331781 0.771173
Si Si8 0.107789 0.169851 0.855522
O O1 0.635049 0.500000 0.076587
O O2 0.672420 0.714242 0.142279
O O3 0.598095 0.764255 0.098120
O O4 0.694179 0.709853 0.962522
O O5 0.734486 0.500000 0.833598
O O6 0.763487 0.230124 0.784522
O O7 0.669397 0.306606 0.821648
O O8 0.321909 0.500000 0.749729
O O9 0.364367 0.255833 0.670985
O O10 0.496954 0.816481 0.872410
O O11 0.420169 0.000000 0.974930
O O12 0.427463 0.746783 0.042999
O O13 0.090845 0.500000 0.374625
O O14 0.065093 0.287988 0.503326
O O15 0.036255 0.268854 0.368813
O O16 0.538110 0.237042 0.686970
O O17 0.515025 0.000000 0.623832
O O18 0.066544 0.500000 0.748778
O O19 0.095148 0.240034 0.775098
O O20 0.092969 0.000000 0.868176
#
# Coordination Sequence:
#
# PCOD8085634 Si02
#       8
#     8   8   8   8   8   8   8   8
#     4   9  19  33  47  69 102 133 161 197 240 287
#     4   9  19  35  50  65  91 129 170 204 235 281
#     4  11  21  31  48  75 102 127 159 200 246 291
#     4  10  19  30  48  74 101 130 164 200 237 282
#     4   9  17  33  55  75  99 131 162 193 235 288
#     4   8  16  32  54  77  99 127 163 198 234 283
#     4  10  19  31  49  74 100 126 163 205 240 281
#     4  10  21  35  49  68  97 132 167 202 242 287
#
# _framework density 17.466238000000001
#
# number of rings (size 3 to 8) (size 9 to 14) (size 15 to 20)
#    0.000    2.500    0.000    4.125    0.000    7.000 
#    0.000    2.500    0.000    0.750    0.000    0.000 
#    0.000    0.000    0.000    0.000    0.000    0.000 
#
# Total GULP energy -396835.054511 kJ/mol
# GULP energy per Si atom -12401.095453 kJ/mol
# Density = 1.742648 g / cm^3
# Si number density = 17.466238 Si / 1000 Ang^3
#
#
#
# Elastic Constant Matrix: (Units=GPa)
#
#
# Indices 1 2 3 4 5 6 
#
# 1 97.5263 48.9400 52.0882 0.0000 5.9332 0.0000
# 2 48.9400 75.0001 36.3195 0.0000 -0.7073 0.0000
# 3 52.0882 36.3195 75.9286 0.0000 5.7054 0.0000
# 4 0.0000 0.0000 0.0000 20.7564 0.0000 1.3388
# 5 5.9332 -0.7073 5.7054 0.0000 30.3056 0.0000
# 6 0.0000 0.0000 0.0000 1.3388 0.0000 30.9023
#
#
#
# Elastic Compliance Matrix: (Units=1/GPa)
#
#
# Indices 1 2 3 4 5 6 
#
# 1 0.019464 -0.008250 -0.009237 0.000000 -0.002264 0.000000
# 2 -0.008250 0.020969 -0.004594 0.000000 0.002969 0.000000
# 3 -0.009237 -0.004594 0.021886 0.000000 -0.002419 0.000000
# 4 0.000000 0.000000 0.000000 0.048313 0.000000 -0.002093
# 5 -0.002264 0.002969 -0.002419 0.000000 0.033965 0.000000
# 6 0.000000 0.000000 0.000000 -0.002093 0.000000 0.032451
#
#
# Mechanical properties :
#
#
# Convention : Reuss Voigt Hill
#
# Bulk Modulus (GPa) = 55.06929 58.12782 56.59855
# Shear Modulus (GPa) = 22.00101 23.80001 22.90051
#
# Velocity S-wave (km/s) = 3.55298 3.69539 3.62488
# Velocity P-wave (km/s) = 6.95909 7.18054 7.07068
#
# Compressibility (1/GPa) = 0.01815894
#
# Stress axis : x y z
#
# Youngs Moduli (GPa) = 51.37597 47.68897 45.69115
#
# Poissons Ratio (x) = 0.39341 0.42203
# Poissons Ratio (y) = 0.42383 0.20991
# Poissons Ratio (z) = 0.47454 0.21909
#
# Static dielectric constant tensor:
#      x y z
#    x 3.308610 0.000000 0.190700 
#    y 0.000000 3.149460 0.000000 
#    z 0.190700 0.000000 3.197490 
# 
# 
# High freq. dielectric constant tensor:
#      x y z
#    x 1.673860 0.000000 0.005080 
#    y 0.000000 1.666980 0.000000 
#    z 0.005080 0.000000 1.656440 
# 
# From -- ./inp_files/248963.got.cif
#   From: 2010.06.25/outbox.cif.g09.slc.cpg/sg12_125_cif.got.tgz:248963.got - 2010.06.28 00:19:55.
