data_PCOD8085935
_publ_section_title
;
Structure prediction by ZEFSAII (Michael W. Deem and Ramdas Pophale) SiO2 
 PCOD8085935
Probable space group: C 2/M
;
_chemical_formula_sum "Si O2"
_cell_formula_units_Z 64
_cell_length_a 22.971763
_cell_length_b 9.360182
_cell_length_c 23.496201
_cell_angle_alpha 90.000000
_cell_angle_beta 127.014390
_cell_angle_gamma 90.000000
_cell_volume 4034.062947
_symmetry_space_group_name_H-M "C 2/M"
_symmetry_group_IT_number 12
_symmetry_cell_setting 'monoclinic'
loop_
_space_group_symop_operation_xyz
x,y,z
-x,y,-z
-x,-y,-z
x,-y,z
1/2+x,1/2+y,z
1/2-x,1/2+y,-z
1/2-x,1/2-y,-z
1/2+x,1/2-y,z
loop_
_atom_site_type_symbol
_atom_site_label
_atom_site_fract_x
_atom_site_fract_y
_atom_site_fract_z
Si Si1 0.678204 0.668397 0.439815
Si Si2 0.435812 0.330995 0.535132
Si Si3 0.146528 0.163869 0.122362
Si Si4 0.231784 0.661612 0.723502
Si Si5 0.948138 0.332178 0.843002
Si Si6 0.642388 0.666669 0.290041
Si Si7 0.433520 0.841130 0.005096
Si Si8 0.596130 0.330991 0.609048
O O1 0.691272 0.500000 0.454925
O O2 0.750000 0.750000 0.500000
O O3 0.612529 0.725015 0.441005
O O4 0.658366 0.708804 0.363990
O O5 0.437352 0.500000 0.534566
O O6 0.519323 0.278395 0.590847
O O7 0.401207 0.278522 0.455072
O O8 0.230814 0.173559 0.191831
O O9 0.102449 0.257931 0.140593
O O10 0.130714 0.229922 0.050180
O O11 0.119657 0.000000 0.107813
O O12 0.206809 0.500000 0.696972
O O13 0.287884 0.709710 0.707016
O O14 0.161318 0.760782 0.682491
O O15 0.930077 0.500000 0.829519
O O16 0.929012 0.257007 0.771633
O O17 0.032634 0.307829 0.912171
O O18 0.624094 0.500000 0.271899
O O19 0.399725 0.000000 0.984277
O O20 0.500000 0.830617 0.000000
O O21 0.605033 0.500000 0.618935
#
# Coordination Sequence:
#
# PCOD8085935 Si02
#       8
#     8   8   8   8   8   8   8   8
#     4  10  19  31  46  63  85 110 136 170 207 242
#     4   8  16  30  45  62  82 103 133 172 206 238
#     4   9  16  24  35  53  79 109 137 166 201 243
#     4   9  17  27  37  56  85 109 133 167 202 235
#     4   9  16  25  37  53  76 106 138 172 204 235
#     4   9  18  29  40  57  82 111 140 168 202 247
#     4   8  14  23  34  51  75 103 136 170 201 235
#     4   9  16  28  46  62  77 104 139 168 200 244
#
# _framework density 15.864898999999999
#
# number of rings (size 3 to 8) (size 9 to 14) (size 15 to 20)
#    0.000    3.125    0.000    3.750    0.000    5.750 
#    0.000    1.875    0.000    0.000    0.000    0.000 
#    0.000    1.000    0.000    2.250    0.000    4.500 
#
# Total GULP energy -396503.082267 kJ/mol
# GULP energy per Si atom -12390.721321 kJ/mol
# Density = 1.582879 g / cm^3
# Si number density = 15.864899 Si / 1000 Ang^3
#
#
#
# Elastic Constant Matrix: (Units=GPa)
#
#
# Indices 1 2 3 4 5 6 
#
# 1 61.6129 26.6007 48.1395 0.0000 5.9367 0.0000
# 2 26.6007 70.4829 66.2767 0.0000 6.5027 0.0000
# 3 48.1395 66.2767 143.2589 0.0000 9.8013 0.0000
# 4 0.0000 0.0000 0.0000 28.7659 0.0000 5.9484
# 5 5.9367 6.5027 9.8013 0.0000 14.4228 0.0000
# 6 0.0000 0.0000 0.0000 5.9484 0.0000 12.6155
#
#
#
# Elastic Compliance Matrix: (Units=1/GPa)
#
#
# Indices 1 2 3 4 5 6 
#
# 1 0.022455 -0.002244 -0.006234 0.000000 -0.003995 0.000000
# 2 -0.002244 0.025516 -0.010830 0.000000 -0.003221 0.000000
# 3 -0.006234 -0.010830 0.014238 0.000000 -0.002227 0.000000
# 4 0.000000 0.000000 0.000000 0.038519 0.000000 -0.018162
# 5 -0.003995 -0.003221 -0.002227 0.000000 0.073944 0.000000
# 6 0.000000 0.000000 0.000000 -0.018162 0.000000 0.087831
#
#
# Mechanical properties :
#
#
# Convention : Reuss Voigt Hill
#
# Bulk Modulus (GPa) = 42.38705 61.93207 52.15956
# Shear Modulus (GPa) = 16.18211 20.11670 18.14940
#
# Velocity S-wave (km/s) = 3.19720 3.56476 3.38597
# Velocity P-wave (km/s) = 6.35649 7.48768 6.94515
#
# Compressibility (1/GPa) = 0.02359211
#
# Stress axis : x y z
#
# Youngs Moduli (GPa) = 44.53366 39.19175 70.23505
#
# Poissons Ratio (x) = 0.08795 0.43785
# Poissons Ratio (y) = 0.09994 0.76065
# Poissons Ratio (z) = 0.27763 0.42445
#
# Static dielectric constant tensor:
#      x y z
#    x 2.762940 0.000000 0.006830 
#    y 0.000000 3.007400 0.000000 
#    z 0.006830 0.000000 3.643960 
# 
# 
# High freq. dielectric constant tensor:
#      x y z
#    x 1.546180 0.000000 0.009790 
#    y 0.000000 1.605330 0.000000 
#    z 0.009790 0.000000 1.625370 
# 
# From -- ./inp_files/348579.got.cif
#   From: 2010.06.25/outbox.cif.g09.slc.cpg/sg12_175_cif.got.tgz:348579.got - 2010.06.28 00:19:55.
