data_PCOD8085380
_publ_section_title
;
Structure prediction by ZEFSAII (Michael W. Deem and Ramdas Pophale) SiO2 
 PCOD8085380
Probable space group: C 2/M
;
_chemical_formula_sum "Si O2"
_cell_formula_units_Z 56
_cell_length_a 18.818798
_cell_length_b 8.760605
_cell_length_c 22.826908
_cell_angle_alpha 90.000000
_cell_angle_beta 52.315352
_cell_angle_gamma 90.000000
_cell_volume 2978.257041
_symmetry_space_group_name_H-M "C 2/M"
_symmetry_group_IT_number 12
_symmetry_cell_setting 'monoclinic'
loop_
_space_group_symop_operation_xyz
x,y,z
-x,y,-z
-x,-y,-z
x,-y,z
1/2+x,1/2+y,z
1/2-x,1/2+y,-z
1/2-x,1/2-y,-z
1/2+x,1/2-y,z
loop_
_atom_site_type_symbol
_atom_site_label
_atom_site_fract_x
_atom_site_fract_y
_atom_site_fract_z
Si Si1 0.355695 0.320525 0.802131
Si Si2 0.521415 0.319881 0.364862
Si Si3 0.993542 0.318061 0.069462
Si Si4 0.822296 0.181881 0.633010
Si Si5 0.801753 0.681103 0.203548
Si Si6 0.843345 0.319847 0.933040
Si Si7 0.671515 0.318195 0.501798
O O1 0.353112 0.500000 0.817737
O O2 0.440659 0.277433 0.718369
O O3 0.264018 0.268494 0.816145
O O4 0.367430 0.226232 0.855173
O O5 0.518971 0.500000 0.373230
O O6 0.587150 0.254533 0.382136
O O7 0.421823 0.253934 0.424614
O O8 0.991672 0.500000 0.070963
O O9 0.901270 0.251680 0.143689
O O10 0.077885 0.257216 0.064267
O O11 0.000000 0.256403 0.000000
O O12 0.736973 0.239294 0.714431
O O13 0.816416 0.244999 0.570250
O O14 0.824924 0.000000 0.631390
O O15 0.804612 0.500000 0.202453
O O16 0.835978 0.500000 0.941828
O O17 0.750000 0.250000 0.000000
O O18 0.675182 0.500000 0.501700
O O19 0.750000 0.250000 0.500000
#
# Coordination Sequence:
#
# PCOD8085380 Si02
#       7
#     8   8   8   8   8   8   8
#     4   9  17  32  54  75  96 123 156 198 246 293
#     4   8  15  29  50  73  94 123 164 203 239 284
#     4   9  17  29  46  68  92 120 156 196 234 274
#     4   8  14  26  47  71  92 121 164 207 239 278
#     4   8  14  27  49  74  94 117 159 208 245 279
#     4  11  22  34  51  74 100 129 160 196 237 283
#     4  10  19  30  46  70 100 130 162 203 247 289
#
# _framework density 18.802942999999999
#
# number of rings (size 3 to 8) (size 9 to 14) (size 15 to 20)
#    0.000    3.000    0.000    3.429    0.000    5.143 
#    0.000    2.143    0.000   12.857    0.000    0.000 
#    0.000    0.000    0.000    0.000    0.000    0.000 
#
# Total GULP energy -347069.590017 kJ/mol
# GULP energy per Si atom -12395.342501 kJ/mol
# Density = 1.876015 g / cm^3
# Si number density = 18.802943 Si / 1000 Ang^3
#
#
#
# Elastic Constant Matrix: (Units=GPa)
#
#
# Indices 1 2 3 4 5 6 
#
# 1 170.2477 21.7514 116.6423 0.0000 -9.0928 -0.0001
# 2 21.7514 18.9878 21.3176 0.0000 1.8147 -0.0005
# 3 116.6423 21.3176 179.3127 0.0000 -7.3519 0.0000
# 4 0.0000 0.0000 0.0000 16.8884 0.0000 3.6882
# 5 -9.0928 1.8147 -7.3519 0.0000 39.4371 0.0000
# 6 -0.0001 -0.0005 0.0000 3.6882 0.0000 23.9694
#
#
#
# Elastic Compliance Matrix: (Units=1/GPa)
#
#
# Indices 1 2 3 4 5 6 
#
# 1 0.011138 -0.005600 -0.006513 0.000000 0.001612 0.000000
# 2 -0.005600 0.064284 -0.004206 0.000000 -0.005033 0.000001
# 3 -0.006513 -0.004206 0.010339 0.000000 0.000619 0.000000
# 4 0.000000 0.000000 0.000000 0.061271 0.000000 -0.009428
# 5 0.001612 -0.005033 0.000619 0.000000 0.026075 0.000000
# 6 0.000000 0.000001 0.000000 -0.009428 0.000000 0.043170
#
#
# Mechanical properties :
#
#
# Convention : Reuss Voigt Hill
#
# Bulk Modulus (GPa) = 18.82464 76.44119 47.63292
# Shear Modulus (GPa) = 18.75304 29.98145 24.36724
#
# Velocity S-wave (km/s) = 3.16150 3.99746 3.60380
# Velocity P-wave (km/s) = 4.83323 7.87708 6.53485
#
# Compressibility (1/GPa) = 0.05312185
#
# Stress axis : x y z
#
# Youngs Moduli (GPa) = 89.78403 15.55605 96.72048
#
# Poissons Ratio (x) = 0.08712 0.62996
# Poissons Ratio (y) = 0.50283 0.40677
# Poissons Ratio (z) = 0.58479 0.06542
#
# Static dielectric constant tensor:
#      x y z
#    x 3.678320 0.000000 -0.171800 
#    y 0.000000 2.829270 0.000000 
#    z -0.171800 0.000000 3.913950 
# 
# 
# High freq. dielectric constant tensor:
#      x y z
#    x 1.733490 0.000000 -0.003790 
#    y 0.000000 1.665460 0.000000 
#    z -0.003790 0.000000 1.750150 
# 
# From -- ./inp_files/313697.got.cif
#   From: 2010.06.25/outbox.cif.g09.slc.cpg/sg12_157_cif.got.tgz:313697.got - 2010.06.28 00:19:55.
