data_PCOD8085538
_publ_section_title
;
Structure prediction by ZEFSAII (Michael W. Deem and Ramdas Pophale) SiO2 
 PCOD8085538
Probable space group: C 2/M
;
_chemical_formula_sum "Si O2"
_cell_formula_units_Z 64
_cell_length_a 18.781850
_cell_length_b 9.195739
_cell_length_c 24.820449
_cell_angle_alpha 90.000000
_cell_angle_beta 56.425634
_cell_angle_gamma 90.000000
_cell_volume 3571.639411
_symmetry_space_group_name_H-M "C 2/M"
_symmetry_group_IT_number 12
_symmetry_cell_setting 'monoclinic'
loop_
_space_group_symop_operation_xyz
x,y,z
-x,y,-z
-x,-y,-z
x,-y,z
1/2+x,1/2+y,z
1/2-x,1/2+y,-z
1/2-x,1/2-y,-z
1/2+x,1/2-y,z
loop_
_atom_site_type_symbol
_atom_site_label
_atom_site_fract_x
_atom_site_fract_y
_atom_site_fract_z
Si Si1 0.907875 0.169075 0.189085
Si Si2 0.231284 0.667362 0.309712
Si Si3 0.073956 0.170610 0.187771
Si Si4 0.137066 0.837450 0.432766
Si Si5 0.999942 0.667809 0.060693
Si Si6 0.070056 0.668722 0.301313
Si Si7 0.473467 0.335737 0.425409
Si Si8 0.331535 0.169836 0.942788
O O1 0.819001 0.232801 0.249153
O O2 0.980459 0.200165 0.202770
O O3 0.928564 0.247814 0.124445
O O4 0.899442 0.000000 0.179106
O O5 0.244309 0.500000 0.317462
O O6 0.211196 0.739490 0.375946
O O7 0.156853 0.693999 0.297847
O O8 0.077146 0.234635 0.245694
O O9 0.144765 0.254893 0.123452
O O10 0.096148 0.000000 0.179360
O O11 0.107925 0.783208 0.504623
O O12 0.055762 0.834184 0.428447
O O13 0.173349 0.000000 0.422178
O O14 0.973360 0.500000 0.072635
O O15 0.093296 0.693265 0.045907
O O16 0.000000 0.729242 0.000000
O O17 0.055755 0.500000 0.293022
O O18 0.988449 0.725550 0.369681
O O19 0.458409 0.500000 0.410025
O O20 0.312449 0.000000 0.940805
O O21 0.250000 0.250000 0.000000
#
# Coordination Sequence:
#
# PCOD8085538 Si02
#       8
#     8   8   8   8   8   8   8   8
#     4   9  19  35  52  70  94 128 164 193 231 283
#     4   9  18  31  47  71 100 125 155 198 243 286
#     4  10  20  35  53  70  94 130 166 197 233 280
#     4   8  14  25  43  67  94 125 159 195 237 284
#     4   9  19  35  53  74  98 124 157 196 236 278
#     4  10  19  30  47  73 101 126 157 199 244 287
#     4   8  14  26  43  65  95 127 159 195 236 284
#     4  10  20  35  54  75 100 127 158 196 236 282
#
# _framework density 17.918942999999999
#
# number of rings (size 3 to 8) (size 9 to 14) (size 15 to 20)
#    0.000    2.875    0.000    1.875    0.000    3.750 
#    0.000    5.000    0.000    0.750    0.000    0.000 
#    0.000    0.000    0.000    0.000    0.000    0.000 
#
# Total GULP energy -396728.794910 kJ/mol
# GULP energy per Si atom -12397.774841 kJ/mol
# Density = 1.787816 g / cm^3
# Si number density = 17.918943 Si / 1000 Ang^3
#
#
#
# Elastic Constant Matrix: (Units=GPa)
#
#
# Indices 1 2 3 4 5 6 
#
# 1 30.7281 32.4975 50.5176 -0.0001 -6.0061 -0.0003
# 2 32.4975 95.3874 82.4567 -0.0003 -3.6555 -0.0002
# 3 50.5176 82.4567 186.3000 0.0000 -13.5120 -0.0001
# 4 -0.0001 -0.0003 0.0000 41.8671 0.0000 0.0843
# 5 -6.0061 -3.6555 -13.5120 0.0000 25.2102 -0.0002
# 6 -0.0003 -0.0002 -0.0001 0.0843 -0.0002 17.4892
#
#
#
# Elastic Compliance Matrix: (Units=1/GPa)
#
#
# Indices 1 2 3 4 5 6 
#
# 1 0.066788 -0.011797 -0.012339 0.000000 0.007588 0.000001
# 2 -0.011797 0.019129 -0.005483 0.000000 -0.002976 0.000000
# 3 -0.012339 -0.005483 0.011309 0.000000 0.002327 0.000000
# 4 0.000000 0.000000 0.000000 0.023885 0.000000 -0.000115
# 5 0.007588 -0.002976 0.002327 0.000000 0.042290 0.000001
# 6 0.000001 0.000000 0.000000 -0.000115 0.000001 0.057179
#
#
# Mechanical properties :
#
#
# Convention : Reuss Voigt Hill
#
# Bulk Modulus (GPa) = 26.32431 71.48436 48.90433
# Shear Modulus (GPa) = 17.09515 26.70955 21.90235
#
# Velocity S-wave (km/s) = 3.09208 3.86499 3.49994
# Velocity P-wave (km/s) = 5.24124 7.73933 6.60938
#
# Compressibility (1/GPa) = 0.03798770
#
# Stress axis : x y z
#
# Youngs Moduli (GPa) = 14.97269 52.27763 88.42433
#
# Poissons Ratio (x) = 0.61673 1.09104
# Poissons Ratio (y) = 0.17664 0.48485
# Poissons Ratio (z) = 0.18474 0.28665
#
# Static dielectric constant tensor:
#      x y z
#    x 3.027970 0.000000 -0.071400 
#    y 0.000000 3.406670 0.000000 
#    z -0.071400 0.000000 3.718290 
# 
# 
# High freq. dielectric constant tensor:
#      x y z
#    x 1.656120 0.000000 -0.002010 
#    y 0.000000 1.695420 0.000000 
#    z -0.002010 0.000000 1.710820 
# 
# From -- ./inp_files/341996.got.cif
#   From: 2010.06.25/outbox.cif.g09.slc.cpg/sg12_171_cif.got.tgz:341996.got - 2010.06.28 00:19:55.
