data_PCOD8085690
_publ_section_title
;
Structure prediction by ZEFSAII (Michael W. Deem and Ramdas Pophale) SiO2 
 PCOD8085690
Probable space group: C 2/M
;
_chemical_formula_sum "Si O2"
_cell_formula_units_Z 56
_cell_length_a 27.688886
_cell_length_b 9.248708
_cell_length_c 12.619019
_cell_angle_alpha 90.000000
_cell_angle_beta 123.720562
_cell_angle_gamma 90.000000
_cell_volume 2687.865539
_symmetry_space_group_name_H-M "C 2/M"
_symmetry_group_IT_number 12
_symmetry_cell_setting 'monoclinic'
loop_
_space_group_symop_operation_xyz
x,y,z
-x,y,-z
-x,-y,-z
x,-y,z
1/2+x,1/2+y,z
1/2-x,1/2+y,-z
1/2-x,1/2-y,-z
1/2+x,1/2-y,z
loop_
_atom_site_type_symbol
_atom_site_label
_atom_site_fract_x
_atom_site_fract_y
_atom_site_fract_z
Si Si1 0.272774 0.845896 0.117842
Si Si2 0.558088 0.335038 0.224033
Si Si3 0.747367 0.339196 0.712105
Si Si4 0.927333 0.832482 0.125906
Si Si5 0.094966 0.338243 0.694445
Si Si6 0.119770 0.833213 0.511551
Si Si7 0.376619 0.167153 0.873402
O O1 0.254335 0.784888 0.205897
O O2 0.340670 0.858728 0.186538
O O3 0.242153 0.000000 0.070102
O O4 0.250000 0.750000 0.000000
O O5 0.578011 0.500000 0.226712
O O6 0.489115 0.324043 0.143767
O O7 0.586149 0.278041 0.367428
O O8 0.578590 0.234582 0.154015
O O9 0.743108 0.500000 0.757837
O O10 0.689340 0.315017 0.570446
O O11 0.811760 0.320900 0.740630
O O12 0.935369 0.758184 0.251405
O O13 0.908124 0.000000 0.117668
O O14 0.881506 0.749551 0.993198
O O15 0.066538 0.500000 0.649152
O O16 0.095565 0.258632 0.581333
O O17 0.104986 0.000000 0.518264
O O18 0.392685 0.000000 0.912826
#
# Coordination Sequence:
#
# PCOD8085690 Si02
#       7
#     8   8   8   8   8   8   8
#     4  10  19  30  48  76 109 144 181 223 272 328
#     4  10  23  41  60  82 110 148 194 237 274 326
#     4   9  19  35  55  80 110 143 180 224 274 331
#     4  11  23  39  59  83 112 149 192 233 277 331
#     4  10  21  36  55  83 116 146 182 230 281 333
#     4   9  19  39  62  83 112 150 188 226 275 333
#     4  11  23  38  58  86 116 146 185 233 284 334
#
# _framework density 20.834375999999999
#
# number of rings (size 3 to 8) (size 9 to 14) (size 15 to 20)
#    0.000    2.000    0.000    3.000    0.000   10.857 
#    0.000    2.857    0.000    0.000    0.000    0.000 
#    0.000    0.000    0.000    0.000    0.000    0.000 
#
# Total GULP energy -346945.783495 kJ/mol
# GULP energy per Si atom -12390.920839 kJ/mol
# Density = 2.078696 g / cm^3
# Si number density = 20.834376 Si / 1000 Ang^3
#
#
#
# Elastic Constant Matrix: (Units=GPa)
#
#
# Indices 1 2 3 4 5 6 
#
# 1 64.7951 26.3191 6.0378 0.0000 -6.8846 0.0000
# 2 26.3191 130.6939 34.5713 0.0000 -5.4600 0.0000
# 3 6.0378 34.5713 82.1120 0.0000 2.9553 0.0000
# 4 0.0000 0.0000 0.0000 20.4526 0.0000 4.7374
# 5 -6.8846 -5.4600 2.9553 0.0000 17.6895 0.0000
# 6 0.0000 0.0000 0.0000 4.7374 0.0000 17.2535
#
#
#
# Elastic Compliance Matrix: (Units=1/GPa)
#
#
# Indices 1 2 3 4 5 6 
#
# 1 0.017369 -0.003222 -0.000129 0.000000 0.005787 0.000000
# 2 -0.003222 0.009402 -0.003804 0.000000 0.002283 0.000000
# 3 -0.000129 -0.003804 0.013917 0.000000 -0.003549 0.000000
# 4 0.000000 0.000000 0.000000 0.052214 0.000000 -0.014337
# 5 0.005787 0.002283 -0.003549 0.000000 0.060081 0.000000
# 6 0.000000 0.000000 0.000000 -0.014337 0.000000 0.061896
#
#
# Mechanical properties :
#
#
# Convention : Reuss Voigt Hill
#
# Bulk Modulus (GPa) = 37.90917 45.71749 41.81333
# Shear Modulus (GPa) = 21.01013 25.12399 23.06706
#
# Velocity S-wave (km/s) = 3.17903 3.47636 3.33102
# Velocity P-wave (km/s) = 5.63116 6.17287 5.90823
#
# Compressibility (1/GPa) = 0.02637884
#
# Stress axis : x y z
#
# Youngs Moduli (GPa) = 57.57436 106.36214 71.85365
#
# Poissons Ratio (x) = 0.34268 0.00926
# Poissons Ratio (y) = 0.18550 0.27331
# Poissons Ratio (z) = 0.00742 0.40457
#
# Static dielectric constant tensor:
#      x y z
#    x 3.741220 0.000000 0.164650 
#    y 0.000000 3.965850 0.000000 
#    z 0.164650 0.000000 3.488760 
# 
# 
# High freq. dielectric constant tensor:
#      x y z
#    x 1.810530 0.000000 0.012480 
#    y 0.000000 1.827540 0.000000 
#    z 0.012480 0.000000 1.805950 
# 
# From -- ./inp_files/181072.got.cif
#   From: 2010.06.25/outbox.cif.g09.slc.cpg/sg12_91_cif.got.tgz:181072.got - 2010.06.28 00:19:55.
