data_PCOD8085815
_publ_section_title
;
Structure prediction by ZEFSAII (Michael W. Deem and Ramdas Pophale) SiO2 
 PCOD8085815
Probable space group: C 2/M
;
_chemical_formula_sum "Si O2"
_cell_formula_units_Z 56
_cell_length_a 27.514597
_cell_length_b 10.979813
_cell_length_c 9.718017
_cell_angle_alpha 90.000000
_cell_angle_beta 97.422030
_cell_angle_gamma 90.000000
_cell_volume 2911.264860
_symmetry_space_group_name_H-M "C 2/M"
_symmetry_group_IT_number 12
_symmetry_cell_setting 'monoclinic'
loop_
_space_group_symop_operation_xyz
x,y,z
-x,y,-z
-x,-y,-z
x,-y,z
1/2+x,1/2+y,z
1/2-x,1/2+y,-z
1/2-x,1/2-y,-z
1/2+x,1/2-y,z
loop_
_atom_site_type_symbol
_atom_site_label
_atom_site_fract_x
_atom_site_fract_y
_atom_site_fract_z
Si Si1 0.830029 0.140363 0.141708
Si Si2 0.154661 0.138547 0.151723
Si Si3 0.687837 0.131854 0.478206
Si Si4 0.908751 0.743769 0.638268
Si Si5 0.422931 0.358982 0.359237
Si Si6 0.008553 0.636348 0.663056
Si Si7 0.747628 0.757667 0.281382
O O1 0.868937 0.159644 0.277555
O O2 0.777599 0.198498 0.160087
O O3 0.819163 0.000000 0.111694
O O4 0.848715 0.196997 0.003209
O O5 0.114971 0.198027 0.236310
O O6 0.210546 0.149342 0.227226
O O7 0.139158 0.000000 0.140678
O O8 0.629795 0.152688 0.446280
O O9 0.713129 0.138562 0.336486
O O10 0.712091 0.225962 0.590104
O O11 0.696100 0.000000 0.545261
O O12 0.922849 0.842485 0.524946
O O13 0.956140 0.670768 0.710383
O O14 0.440921 0.500000 0.335963
O O15 0.455102 0.251730 0.297556
O O16 0.025895 0.500000 0.723871
O O17 0.000000 0.623406 0.500000
#
# Coordination Sequence:
#
# PCOD8085815 Si02
#       7
#     8   8   8   8   8   8   8
#     4  10  20  36  53  74 108 146 182 223 273 321
#     4  10  21  34  52  78 109 143 181 225 270 321
#     4  10  19  30  50  79 106 136 177 222 273 319
#     4  10  19  34  55  80 108 138 177 224 272 323
#     4  10  20  35  57  82 108 140 182 227 273 326
#     4   9  19  35  57  84 111 139 175 224 279 330
#     4  10  19  33  50  75 104 143 180 224 265 316
#
# _framework density 19.235624000000001
#
# number of rings (size 3 to 8) (size 9 to 14) (size 15 to 20)
#    0.000    2.143    1.429    2.143    0.000    3.714 
#    0.000    0.714    0.000   11.143    0.000    0.000 
#    0.000    0.000    0.000    0.000    0.000    0.000 
#
# Total GULP energy -346889.263871 kJ/mol
# GULP energy per Si atom -12388.902281 kJ/mol
# Density = 1.919184 g / cm^3
# Si number density = 19.235624 Si / 1000 Ang^3
#
#
#
# Elastic Constant Matrix: (Units=GPa)
#
#
# Indices 1 2 3 4 5 6 
#
# 1 111.2449 51.6902 20.0650 0.0000 -18.9946 0.0000
# 2 51.6902 107.1642 13.9988 0.0000 -5.9619 0.0000
# 3 20.0650 13.9988 60.2827 0.0000 -20.8441 0.0000
# 4 0.0000 0.0000 0.0000 17.4664 0.0000 4.2502
# 5 -18.9946 -5.9619 -20.8441 0.0000 23.2910 0.0000
# 6 0.0000 0.0000 0.0000 4.2502 0.0000 17.4251
#
#
#
# Elastic Compliance Matrix: (Units=1/GPa)
#
#
# Indices 1 2 3 4 5 6 
#
# 1 0.013337 -0.005933 0.000252 0.000000 0.009584 0.000000
# 2 -0.005933 0.012270 -0.002116 0.000000 -0.003592 0.000000
# 3 0.000252 -0.002116 0.024444 0.000000 0.021540 0.000000
# 4 0.000000 0.000000 0.000000 0.060865 0.000000 -0.014846
# 5 0.009584 -0.003592 0.021540 0.000000 0.069108 0.000000
# 6 0.000000 0.000000 0.000000 -0.014846 0.000000 0.061009
#
#
# Mechanical properties :
#
#
# Convention : Reuss Voigt Hill
#
# Bulk Modulus (GPa) = 29.02186 50.02219 39.52203
# Shear Modulus (GPa) = 18.64888 24.49903 21.57396
#
# Velocity S-wave (km/s) = 3.11705 3.57266 3.35261
# Velocity P-wave (km/s) = 5.29859 6.56354 5.96469
#
# Compressibility (1/GPa) = 0.03445678
#
# Stress axis : x y z
#
# Youngs Moduli (GPa) = 74.98134 81.50144 40.90994
#
# Poissons Ratio (x) = 0.48352 -0.01032
# Poissons Ratio (y) = 0.44484 0.08658
# Poissons Ratio (z) = -0.01892 0.17249
#
# Static dielectric constant tensor:
#      x y z
#    x 3.706650 0.000000 -0.151080 
#    y 0.000000 3.573530 0.000000 
#    z -0.151080 0.000000 3.373280 
# 
# 
# High freq. dielectric constant tensor:
#      x y z
#    x 1.754680 0.000000 -0.006490 
#    y 0.000000 1.740160 0.000000 
#    z -0.006490 0.000000 1.720440 
# 
# From -- ./inp_files/110074.got.cif
#   From: 2010.06.25/outbox.cif.g09.slc.cpg/sg12_56_cif.got.tgz:110074.got - 2010.06.28 00:19:55.
