data_PCOD8085826
_publ_section_title
;
Structure prediction by ZEFSAII (Michael W. Deem and Ramdas Pophale) SiO2 
 PCOD8085826
Probable space group: C 2/M
;
_chemical_formula_sum "Si O2"
_cell_formula_units_Z 64
_cell_length_a 18.721624
_cell_length_b 13.812099
_cell_length_c 15.148734
_cell_angle_alpha 90.000000
_cell_angle_beta 63.172662
_cell_angle_gamma 90.000000
_cell_volume 3495.624607
_symmetry_space_group_name_H-M "C 2/M"
_symmetry_group_IT_number 12
_symmetry_cell_setting 'monoclinic'
loop_
_space_group_symop_operation_xyz
x,y,z
-x,y,-z
-x,-y,-z
x,-y,z
1/2+x,1/2+y,z
1/2-x,1/2+y,-z
1/2-x,1/2-y,-z
1/2+x,1/2-y,z
loop_
_atom_site_type_symbol
_atom_site_label
_atom_site_fract_x
_atom_site_fract_y
_atom_site_fract_z
Si Si1 0.626760 0.107303 0.251181
Si Si2 0.181123 0.777603 0.102414
Si Si3 0.152492 0.613142 0.586009
Si Si4 0.063967 0.731620 0.028184
Si Si5 0.976672 0.393882 0.213490
Si Si6 0.204166 0.390642 0.859605
Si Si7 0.289357 0.609822 0.634051
Si Si8 0.595158 0.215792 0.443549
O O1 0.677320 0.186793 0.170841
O O2 0.541165 0.101571 0.254594
O O3 0.616864 0.137318 0.357856
O O4 0.667576 0.000000 0.224722
O O5 0.101497 0.797104 0.086796
O O6 0.209889 0.871855 0.139670
O O7 0.250000 0.750000 0.000000
O O8 0.131814 0.500000 0.579513
O O9 0.099280 0.655479 0.696798
O O10 0.244942 0.625184 0.564520
O O11 0.133709 0.676433 0.511365
O O12 0.006829 0.654800 0.107644
O O13 0.134567 0.680715 0.932883
O O14 0.000000 0.788309 0.000000
O O15 0.950780 0.500000 0.195768
O O16 0.177800 0.500000 0.895206
O O17 0.221545 0.372858 0.746986
O O18 0.322419 0.500000 0.623209
O O19 0.364549 0.681130 0.601575
O O20 0.500000 0.231570 0.500000
#
# Coordination Sequence:
#
# PCOD8085826 Si02
#       8
#     8   8   8   8   8   8   8   8
#     4  10  19  33  53  81 112 136 169 219 267 318
#     4   9  19  34  52  77 109 141 178 209 252 315
#     4  10  20  34  53  80 110 141 172 216 273 322
#     4  10  19  30  50  80 112 140 168 210 267 322
#     4   9  17  29  47  76 110 135 165 206 259 319
#     4  10  19  34  55  77 105 143 180 216 256 310
#     4  10  22  38  54  75 107 142 183 224 263 311
#     4  12  22  35  57  78 106 141 181 224 268 319
#
# _framework density 18.308602
#
# number of rings (size 3 to 8) (size 9 to 14) (size 15 to 20)
#    0.000    2.000    2.500    1.875    0.000    5.750 
#    0.000    0.000    0.000    0.375    0.000    0.000 
#    0.000    0.000    0.000    0.000    0.000    0.000 
#
# Total GULP energy -396423.207798 kJ/mol
# GULP energy per Si atom -12388.225244 kJ/mol
# Density = 1.826693 g / cm^3
# Si number density = 18.308602 Si / 1000 Ang^3
#
#
#
# Elastic Constant Matrix: (Units=GPa)
#
#
# Indices 1 2 3 4 5 6 
#
# 1 83.0478 23.2222 25.6722 0.0000 17.9523 0.0000
# 2 23.2222 47.4156 22.2650 0.0000 0.4922 0.0000
# 3 25.6722 22.2650 82.1485 0.0000 2.6075 0.0000
# 4 0.0000 0.0000 0.0000 18.3790 0.0000 -1.4316
# 5 17.9523 0.4922 2.6075 0.0000 25.9665 0.0000
# 6 0.0000 0.0000 0.0000 -1.4316 0.0000 9.6886
#
#
#
# Elastic Compliance Matrix: (Units=1/GPa)
#
#
# Indices 1 2 3 4 5 6 
#
# 1 0.017491 -0.006935 -0.003217 0.000000 -0.011638 0.000000
# 2 -0.006935 0.026916 -0.005281 0.000000 0.004815 0.000000
# 3 -0.003217 -0.005281 0.014582 0.000000 0.000860 0.000000
# 4 0.000000 0.000000 0.000000 0.055043 0.000000 0.008133
# 5 -0.011638 0.004815 0.000860 0.000000 0.046380 0.000000
# 6 0.000000 0.000000 0.000000 0.008133 0.000000 0.104416
#
#
# Mechanical properties :
#
#
# Convention : Reuss Voigt Hill
#
# Bulk Modulus (GPa) = 35.55682 39.43675 37.49678
# Shear Modulus (GPa) = 16.38977 20.23698 18.31338
#
# Velocity S-wave (km/s) = 2.99523 3.32825 3.16612
# Velocity P-wave (km/s) = 5.60579 6.02963 5.82157
#
# Compressibility (1/GPa) = 0.02812400
#
# Stress axis : x y z
#
# Youngs Moduli (GPa) = 57.17353 37.15233 68.57572
#
# Poissons Ratio (x) = 0.25764 0.22061
# Poissons Ratio (y) = 0.39648 0.36214
# Poissons Ratio (z) = 0.18393 0.19619
#
# Static dielectric constant tensor:
#      x y z
#    x 4.065080 0.000000 0.346260 
#    y 0.000000 3.252430 0.000000 
#    z 0.346260 0.000000 3.467750 
# 
# 
# High freq. dielectric constant tensor:
#      x y z
#    x 1.717850 0.000000 0.015030 
#    y 0.000000 1.672200 0.000000 
#    z 0.015030 0.000000 1.718150 
# 
# From -- ./inp_files/225235.got.cif
#   From: 2010.06.25/outbox.cif.g09.slc.cpg/sg12_113_cif.got.tgz:225235.got - 2010.06.28 00:19:55.
