data_PCOD8085748
_publ_section_title
;
Structure prediction by ZEFSAII (Michael W. Deem and Ramdas Pophale) SiO2 
 PCOD8085748
Probable space group: C 2/M
;
_chemical_formula_sum "Si O2"
_cell_formula_units_Z 56
_cell_length_a 19.177112
_cell_length_b 8.839532
_cell_length_c 18.883551
_cell_angle_alpha 90.000000
_cell_angle_beta 69.684094
_cell_angle_gamma 90.000000
_cell_volume 3001.946424
_symmetry_space_group_name_H-M "C 2/M"
_symmetry_group_IT_number 12
_symmetry_cell_setting 'monoclinic'
loop_
_space_group_symop_operation_xyz
x,y,z
-x,y,-z
-x,-y,-z
x,-y,z
1/2+x,1/2+y,z
1/2-x,1/2+y,-z
1/2-x,1/2-y,-z
1/2+x,1/2-y,z
loop_
_atom_site_type_symbol
_atom_site_label
_atom_site_fract_x
_atom_site_fract_y
_atom_site_fract_z
Si Si1 0.651585 0.173511 0.819090
Si Si2 0.070514 0.176654 0.257922
Si Si3 0.728414 0.321546 0.581448
Si Si4 0.329464 0.324941 0.047449
Si Si5 0.084174 0.324074 0.696217
Si Si6 0.297901 0.675544 0.685777
Si Si7 0.343556 0.175834 0.899065
O O1 0.630292 0.275691 0.894054
O O2 0.591951 0.202637 0.777973
O O3 0.732976 0.221532 0.763002
O O4 0.651621 0.000000 0.843819
O O5 0.123759 0.211847 0.305538
O O6 0.106768 0.231027 0.172540
O O7 0.995215 0.265155 0.300985
O O8 0.053764 0.000000 0.256933
O O9 0.727624 0.500000 0.574661
O O10 0.750000 0.250000 0.500000
O O11 0.647059 0.265615 0.632118
O O12 0.790267 0.272839 0.617241
O O13 0.344172 0.500000 0.027189
O O14 0.242318 0.288289 0.086062
O O15 0.364103 0.229562 0.970889
O O16 0.092999 0.500000 0.674686
O O17 0.289297 0.500000 0.668213
O O18 0.362518 0.000000 0.884246
#
# Coordination Sequence:
#
# PCOD8085748 Si02
#       7
#     8   8   8   8   8   8   8
#     4   9  17  33  54  76 106 145 184 229 279 330
#     4  11  21  36  57  83 115 149 186 230 279 331
#     4  11  22  39  64  90 116 146 183 224 269 323
#     4  10  19  30  49  77 106 140 188 239 281 326
#     4  10  22  39  58  83 116 150 184 225 277 332
#     4   9  19  35  57  84 114 147 184 226 274 327
#     4  10  20  32  49  75 109 147 185 231 285 333
#
# _framework density 18.654563
#
# number of rings (size 3 to 8) (size 9 to 14) (size 15 to 20)
#    0.000    2.000    1.429    3.857    0.000    5.143 
#    0.000    1.429    0.000    8.571    0.000    0.000 
#    0.000    0.000    0.000    0.000    0.000    0.000 
#
# Total GULP energy -347294.310919 kJ/mol
# GULP energy per Si atom -12403.368247 kJ/mol
# Density = 1.861210 g / cm^3
# Si number density = 18.654563 Si / 1000 Ang^3
#
#
#
# Elastic Constant Matrix: (Units=GPa)
#
#
# Indices 1 2 3 4 5 6 
#
# 1 94.9554 45.3488 40.6153 0.0001 7.8360 0.0001
# 2 45.3488 99.3042 49.7744 0.0001 11.8455 0.0002
# 3 40.6153 49.7744 104.5572 0.0000 18.9758 0.0000
# 4 0.0001 0.0001 0.0000 36.2340 0.0000 2.2748
# 5 7.8360 11.8455 18.9758 0.0000 18.4155 0.0000
# 6 0.0001 0.0002 0.0000 2.2748 0.0000 30.7526
#
#
#
# Elastic Compliance Matrix: (Units=1/GPa)
#
#
# Indices 1 2 3 4 5 6 
#
# 1 0.014243 -0.004918 -0.003279 0.000000 0.000482 0.000000
# 2 -0.004918 0.015017 -0.004754 0.000000 -0.002668 0.000000
# 3 -0.003279 -0.004754 0.015120 0.000000 -0.011127 0.000000
# 4 0.000000 0.000000 0.000000 0.027727 0.000000 -0.002051
# 5 0.000482 -0.002668 -0.011127 0.000000 0.067279 0.000000
# 6 0.000000 0.000000 0.000000 -0.002051 0.000000 0.032669
#
#
# Mechanical properties :
#
#
# Convention : Reuss Voigt Hill
#
# Bulk Modulus (GPa) = 54.11807 63.36600 58.74203
# Shear Modulus (GPa) = 24.49565 27.95231 26.22398
#
# Velocity S-wave (km/s) = 3.62763 3.87514 3.75342
# Velocity P-wave (km/s) = 6.82787 7.35283 7.09521
#
# Compressibility (1/GPa) = 0.01847812
#
# Stress axis : x y z
#
# Youngs Moduli (GPa) = 70.21104 66.58982 66.13543
#
# Poissons Ratio (x) = 0.32751 0.21684
# Poissons Ratio (y) = 0.34532 0.31443
# Poissons Ratio (z) = 0.23020 0.31659
#
# Static dielectric constant tensor:
#      x y z
#    x 3.452990 0.000000 0.142670 
#    y 0.000000 3.445590 0.000000 
#    z 0.142670 0.000000 3.324750 
# 
# 
# High freq. dielectric constant tensor:
#      x y z
#    x 1.711680 0.000000 0.013830 
#    y 0.000000 1.734020 0.000000 
#    z 0.013830 0.000000 1.713990 
# 
# From -- ./inp_files/280886.got.cif
#   From: 2010.06.25/outbox.cif.g09.slc.cpg/sg12_141_cif.got.tgz:280886.got - 2010.06.28 00:19:55.
