data_PCOD8085590
_publ_section_title
;
Structure prediction by ZEFSAII (Michael W. Deem and Ramdas Pophale) SiO2 
 PCOD8085590
Probable space group: C 2/M
;
_chemical_formula_sum "Si O2"
_cell_formula_units_Z 48
_cell_length_a 18.452293
_cell_length_b 9.107254
_cell_length_c 19.140972
_cell_angle_alpha 90.000000
_cell_angle_beta 122.507043
_cell_angle_gamma 90.000000
_cell_volume 2712.669950
_symmetry_space_group_name_H-M "C 2/M"
_symmetry_group_IT_number 12
_symmetry_cell_setting 'monoclinic'
loop_
_space_group_symop_operation_xyz
x,y,z
-x,y,-z
-x,-y,-z
x,-y,z
1/2+x,1/2+y,z
1/2-x,1/2+y,-z
1/2-x,1/2-y,-z
1/2+x,1/2-y,z
loop_
_atom_site_type_symbol
_atom_site_label
_atom_site_fract_x
_atom_site_fract_y
_atom_site_fract_z
Si Si1 0.740899 0.671652 0.421881
Si Si2 0.756205 0.668980 0.930570
Si Si3 0.081349 0.170651 0.998733
Si Si4 0.433564 0.666617 0.172357
Si Si5 0.929402 0.670715 0.514542
Si Si6 0.924217 0.326263 0.670223
O O1 0.721347 0.500000 0.421541
O O2 0.750000 0.750000 0.500000
O O3 0.833638 0.695107 0.432320
O O4 0.661218 0.749172 0.340785
O O5 0.778631 0.500000 0.955509
O O6 0.662819 0.684630 0.845586
O O7 0.750000 0.750000 0.000000
O O8 0.834353 0.743706 0.928366
O O9 0.065486 0.204166 0.909214
O O10 0.097965 0.000000 0.020993
O O11 0.000000 0.228265 0.000000
O O12 0.466179 0.500000 0.201066
O O13 0.493833 0.781449 0.242388
O O14 0.950803 0.500000 0.531493
O O15 0.936627 0.733175 0.597265
O O16 0.000000 0.746454 0.500000
O O17 0.911142 0.500000 0.666443
#
# Coordination Sequence:
#
# PCOD8085590 Si02
#       6
#     8   8   8   8   8   8
#     4   9  16  28  48  69  92 122 154 190 230 277
#     4   9  17  30  49  71  95 126 162 196 236 287
#     4   9  18  33  52  73  96 124 161 201 240 287
#     4   9  18  32  49  69  95 125 155 192 237 282
#     4   8  15  29  48  69  90 115 152 192 227 267
#     4  10  19  30  48  71  93 121 157 195 232 276
#
# _framework density 17.694744
#
# number of rings (size 3 to 8) (size 9 to 14) (size 15 to 20)
#    0.000    3.000    0.000    3.500    0.000    3.667 
#    0.000    1.667    0.000   26.000    0.000    0.000 
#    0.000    0.000    0.000    0.000    0.000    0.000 
#
# Total GULP energy -297372.207786 kJ/mol
# GULP energy per Si atom -12390.508658 kJ/mol
# Density = 1.765447 g / cm^3
# Si number density = 17.694744 Si / 1000 Ang^3
#
#
#
# Elastic Constant Matrix: (Units=GPa)
#
#
# Indices 1 2 3 4 5 6 
#
# 1 128.4124 46.6282 45.1363 0.0000 32.2290 0.0000
# 2 46.6282 86.5416 41.0043 0.0000 21.7823 0.0000
# 3 45.1363 41.0043 77.6425 0.0000 26.3457 0.0000
# 4 0.0000 0.0000 0.0000 30.8804 0.0000 9.6044
# 5 32.2290 21.7823 26.3457 0.0000 26.9401 0.0000
# 6 0.0000 0.0000 0.0000 9.6044 0.0000 24.5399
#
#
#
# Elastic Compliance Matrix: (Units=1/GPa)
#
#
# Indices 1 2 3 4 5 6 
#
# 1 0.012133 -0.003040 -0.002030 0.000000 -0.010071 0.000000
# 2 -0.003040 0.017036 -0.005672 0.000000 -0.004590 0.000000
# 3 -0.002030 -0.005672 0.021963 0.000000 -0.014464 0.000000
# 4 0.000000 0.000000 0.000000 0.036871 0.000000 -0.014431
# 5 -0.010071 -0.004590 -0.014464 0.000000 0.067023 0.000000
# 6 0.000000 0.000000 0.000000 -0.014431 0.000000 0.046398
#
#
# Mechanical properties :
#
#
# Convention : Reuss Voigt Hill
#
# Bulk Modulus (GPa) = 33.73052 62.01491 47.87272
# Shear Modulus (GPa) = 21.47848 27.12727 24.30288
#
# Velocity S-wave (km/s) = 3.48779 3.91969 3.71003
# Velocity P-wave (km/s) = 5.94335 7.45711 6.74284
#
# Compressibility (1/GPa) = 0.02964674
#
# Stress axis : x y z
#
# Youngs Moduli (GPa) = 82.42297 58.69910 45.53097
#
# Poissons Ratio (x) = 0.17846 0.09244
# Poissons Ratio (y) = 0.25058 0.25825
# Poissons Ratio (z) = 0.16734 0.33294
#
# Static dielectric constant tensor:
#      x y z
#    x 4.292640 0.000000 0.924010 
#    y 0.000000 3.303710 0.000000 
#    z 0.924010 0.000000 4.108000 
# 
# 
# High freq. dielectric constant tensor:
#      x y z
#    x 1.678740 0.000000 0.037230 
#    y 0.000000 1.678990 0.000000 
#    z 0.037230 0.000000 1.660010 
# 
# From -- ./inp_files/273604.got.cif
#   From: 2010.06.25/outbox.cif.g09.slc.cpg/sg12_137_cif.got.tgz:273604.got - 2010.06.28 00:19:55.
