data_PCOD8085103
_publ_section_title
;
Structure prediction by ZEFSAII (Michael W. Deem and Ramdas Pophale) SiO2 
 PCOD8085103
Probable space group: C 2/M
;
_chemical_formula_sum "Si O2"
_cell_formula_units_Z 56
_cell_length_a 20.480868
_cell_length_b 7.741865
_cell_length_c 30.895095
_cell_angle_alpha 90.000000
_cell_angle_beta 36.369301
_cell_angle_gamma 90.000000
_cell_volume 2904.885748
_symmetry_space_group_name_H-M "C 2/M"
_symmetry_group_IT_number 12
_symmetry_cell_setting 'monoclinic'
loop_
_space_group_symop_operation_xyz
x,y,z
-x,y,-z
-x,-y,-z
x,-y,z
1/2+x,1/2+y,z
1/2-x,1/2+y,-z
1/2-x,1/2-y,-z
1/2+x,1/2-y,z
loop_
_atom_site_type_symbol
_atom_site_label
_atom_site_fract_x
_atom_site_fract_y
_atom_site_fract_z
Si Si1 0.376728 0.795667 0.192855
Si Si2 0.857203 0.200214 0.714249
Si Si3 0.034369 0.000000 0.911335
Si Si4 0.840148 0.801850 0.820438
Si Si5 0.821764 0.000000 0.080898
Si Si6 0.561567 0.797525 0.742492
Si Si7 0.589481 0.200758 0.566790
Si Si8 0.708041 0.798059 0.587535
O O1 0.252335 0.729243 0.250403
O O2 0.455564 0.676718 0.121597
O O3 0.401798 0.752624 0.228961
O O4 0.394821 0.000000 0.172670
O O5 0.869835 0.270921 0.756512
O O6 0.963206 0.243184 0.628423
O O7 0.842671 0.000000 0.725546
O O8 0.126150 0.000000 0.899428
O O9 0.912711 0.000000 0.995313
O O10 0.748501 0.674480 0.888801
O O11 0.948087 0.798321 0.792542
O O12 0.795474 0.000000 0.843355
O O13 0.657202 0.725829 0.659311
O O14 0.542166 0.000000 0.746454
O O15 0.642604 0.287272 0.581692
O O16 0.661796 0.254517 0.486277
O O17 0.593330 0.000000 0.570588
O O18 0.691365 0.000000 0.596109
#
# Coordination Sequence:
#
# PCOD8085103 Si02
#       8
#     8   8   4   8   4   8   8   8
#     4  10  23  41  62  90 121 158 202 243 298 361
#     4  10  20  35  56  84 114 153 199 245 294 350
#     4  11  24  42  68  92 120 162 187 246 307 359
#     4  11  22  37  63  93 119 155 201 250 293 350
#     4  11  24  42  66  96 123 147 201 245 299 362
#     4  10  20  38  63  86 120 159 205 250 294 354
#     4  10  19  29  50  80 115 150 193 249 300 341
#     4   9  18  32  50  78 114 155 193 243 301 346
#
# _framework density 19.277867000000001
#
# number of rings (size 3 to 8) (size 9 to 14) (size 15 to 20)
#    0.000    1.857    3.571    0.429    3.000    1.714 
#    0.000    2.857    0.000    4.286    0.000    0.000 
#    0.000    0.000    0.000    0.000    0.000    0.000 
#
# Total GULP energy -347114.148818 kJ/mol
# GULP energy per Si atom -12396.933886 kJ/mol
# Density = 1.923399 g / cm^3
# Si number density = 19.277867 Si / 1000 Ang^3
#
#
#
# Elastic Constant Matrix: (Units=GPa)
#
#
# Indices 1 2 3 4 5 6 
#
# 1 111.6508 35.3537 62.5719 -0.0603 -0.4957 0.0075
# 2 35.3537 72.2595 54.2793 -0.0987 3.5007 -0.1008
# 3 62.5719 54.2793 160.7204 -0.0504 -1.7436 0.0514
# 4 -0.0603 -0.0987 -0.0504 29.1442 0.0226 1.3721
# 5 -0.4957 3.5007 -1.7436 0.0226 27.6479 -0.0371
# 6 0.0075 -0.1008 0.0514 1.3721 -0.0371 20.1467
#
#
#
# Elastic Compliance Matrix: (Units=1/GPa)
#
#
# Indices 1 2 3 4 5 6 
#
# 1 0.011975 -0.003188 -0.003581 0.000008 0.000392 -0.000011
# 2 -0.003188 0.019603 -0.005411 0.000048 -0.002880 0.000105
# 3 -0.003581 -0.005411 0.009457 -0.000008 0.001217 -0.000047
# 4 0.000008 0.000048 -0.000008 0.034423 -0.000038 -0.002344
# 5 0.000392 -0.002880 0.001217 -0.000038 0.036618 0.000052
# 6 -0.000011 0.000105 -0.000047 -0.002344 0.000052 0.049796
#
#
# Mechanical properties :
#
#
# Convention : Reuss Voigt Hill
#
# Bulk Modulus (GPa) = 59.96927 72.11560 66.04244
# Shear Modulus (GPa) = 26.07050 28.21614 27.14332
#
# Velocity S-wave (km/s) = 3.68143 3.82992 3.75641
# Velocity P-wave (km/s) = 7.01754 7.55298 7.29018
#
# Compressibility (1/GPa) = 0.01667521
#
# Stress axis : x y z
#
# Youngs Moduli (GPa) = 83.51040 51.01364 105.74521
#
# Poissons Ratio (x) = 0.16261 0.37869
# Poissons Ratio (y) = 0.26620 0.57214
# Poissons Ratio (z) = 0.29906 0.27601
#
# Static dielectric constant tensor:
#      x y z
#    x 3.473800 -0.000180 0.140830 
#    y -0.000180 3.449950 -0.000460 
#    z 0.140830 -0.000460 3.288580 
# 
# 
# High freq. dielectric constant tensor:
#      x y z
#    x 1.728070 0.000000 -0.007180 
#    y 0.000000 1.752920 0.000000 
#    z -0.007180 0.000000 1.745800 
# 
# From -- ./inp_files/377712.got.cif
#   From: 2010.06.25/outbox.cif.g09.slc.cpg/sg12_189_cif.got.tgz:377712.got - 2010.06.28 00:19:55.
