data_PCOD8085054
_publ_section_title
;
Structure prediction by ZEFSAII (Michael W. Deem and Ramdas Pophale) SiO2 
 PCOD8085054
Probable space group: C 2/M
;
_chemical_formula_sum "Si O2"
_cell_formula_units_Z 64
_cell_length_a 22.695043
_cell_length_b 29.013625
_cell_length_c 9.106390
_cell_angle_alpha 90.000000
_cell_angle_beta 33.989143
_cell_angle_gamma 90.000000
_cell_volume 3352.114687
_symmetry_space_group_name_H-M "C 2/M"
_symmetry_group_IT_number 12
_symmetry_cell_setting 'monoclinic'
loop_
_space_group_symop_operation_xyz
x,y,z
-x,y,-z
-x,-y,-z
x,-y,z
1/2+x,1/2+y,z
1/2-x,1/2+y,-z
1/2-x,1/2-y,-z
1/2+x,1/2-y,z
loop_
_atom_site_type_symbol
_atom_site_label
_atom_site_fract_x
_atom_site_fract_y
_atom_site_fract_z
Si Si1 0.645254 0.205479 0.346818
Si Si2 0.951116 0.774500 0.260646
Si Si3 0.256298 0.170356 0.263538
Si Si4 0.633597 0.258387 0.087228
Si Si5 0.440420 0.950004 0.816022
Si Si6 0.684015 0.948180 0.374991
Si Si7 0.119891 0.396819 0.788834
Si Si8 0.677434 0.114914 0.144007
O O1 0.596986 0.223726 0.599953
O O2 0.599048 0.240498 0.319391
O O3 0.615199 0.152874 0.373102
O O4 0.771881 0.205686 0.087541
O O5 0.862010 0.814037 0.451012
O O6 0.041875 0.785593 0.191978
O O7 0.000000 0.772052 0.000000
O O8 0.310347 0.144522 0.288460
O O9 0.329060 0.214497 0.084517
O O10 0.248248 0.139190 0.131824
O O11 0.388110 0.938348 0.079610
O O12 0.396600 0.000000 0.857856
O O13 0.564412 0.952455 0.573203
O O14 0.413209 0.912657 0.751244
O O15 0.687571 0.917666 0.514900
O O16 0.741047 0.919478 0.123997
O O17 0.732474 0.000000 0.294928
O O18 0.000000 0.379846 0.000000
#
# Coordination Sequence:
#
# PCOD8085054 Si02
#       8
#     8   8   8   8   8   8   8   8
#     4   9  20  36  53  76 103 137 180 213 251 313
#     4  11  23  36  55  77 104 138 175 222 269 307
#     4   9  21  38  51  75 104 135 181 213 250 314
#     4   9  19  37  56  73 103 140 173 216 261 303
#     4   9  17  30  47  71 106 143 173 203 249 311
#     4  10  19  29  46  76 108 139 173 208 254 310
#     4   9  18  32  52  74 107 146 173 208 253 304
#     4  10  19  31  49  70 102 137 170 212 247 292
#
# _framework density 19.092424999999999
#
# number of rings (size 3 to 8) (size 9 to 14) (size 15 to 20)
#    0.000    2.500    0.000    2.250    0.000   13.000 
#    0.000    0.000    0.000    0.000    0.000    0.000 
#    0.000   59.000    0.000    0.000    0.000    0.000 
#
# Total GULP energy -396527.061464 kJ/mol
# GULP energy per Si atom -12391.470671 kJ/mol
# Density = 1.904897 g / cm^3
# Si number density = 19.092425 Si / 1000 Ang^3
#
#
#
# Elastic Constant Matrix: (Units=GPa)
#
#
# Indices 1 2 3 4 5 6 
#
# 1 97.3654 57.4679 39.4700 0.0000 6.5625 0.0000
# 2 57.4679 113.3415 43.6906 0.0000 7.3965 0.0000
# 3 39.4700 43.6906 76.2322 0.0000 15.7075 0.0000
# 4 0.0000 0.0000 0.0000 13.9712 0.0000 4.1876
# 5 6.5625 7.3965 15.7075 0.0000 33.8163 0.0000
# 6 0.0000 0.0000 0.0000 4.1876 0.0000 30.8473
#
#
#
# Elastic Compliance Matrix: (Units=1/GPa)
#
#
# Indices 1 2 3 4 5 6 
#
# 1 0.015836 -0.006240 -0.004723 0.000000 0.000485 0.000000
# 2 -0.006240 0.013795 -0.004758 0.000000 0.000404 0.000000
# 3 -0.004723 -0.004758 0.019780 0.000000 -0.007230 0.000000
# 4 0.000000 0.000000 0.000000 0.074612 0.000000 -0.010129
# 5 0.000485 0.000404 -0.007230 0.000000 0.032747 0.000000
# 6 0.000000 0.000000 0.000000 -0.010129 0.000000 0.033793
#
#
# Mechanical properties :
#
#
# Convention : Reuss Voigt Hill
#
# Bulk Modulus (GPa) = 55.65534 63.13290 59.39412
# Shear Modulus (GPa) = 21.93036 25.48099 23.70567
#
# Velocity S-wave (km/s) = 3.39284 3.65720 3.52750
# Velocity P-wave (km/s) = 6.67550 7.13948 6.91138
#
# Compressibility (1/GPa) = 0.01796773
#
# Stress axis : x y z
#
# Youngs Moduli (GPa) = 63.14904 72.49068 50.55629
#
# Poissons Ratio (x) = 0.45237 0.23875
# Poissons Ratio (y) = 0.39408 0.24057
# Poissons Ratio (z) = 0.29822 0.34494
#
# Static dielectric constant tensor:
#      x y z
#    x 3.612680 0.000000 0.331800 
#    y 0.000000 3.802420 0.000000 
#    z 0.331800 0.000000 3.365880 
# 
# 
# High freq. dielectric constant tensor:
#      x y z
#    x 1.739470 0.000000 0.035590 
#    y 0.000000 1.736900 0.000000 
#    z 0.035590 0.000000 1.712690 
# 
# From -- ./inp_files/100211.got.cif
#   From: 2010.06.25/outbox.cif.g09.slc.cpg/sg12_51_cif.got.tgz:100211.got - 2010.06.28 00:19:55.
