data_PCOD8085869
_publ_section_title
;
Structure prediction by ZEFSAII (Michael W. Deem and Ramdas Pophale) SiO2 
 PCOD8085869
Probable space group: C 2/M
;
_chemical_formula_sum "Si O2"
_cell_formula_units_Z 64
_cell_length_a 30.223978
_cell_length_b 8.677899
_cell_length_c 12.813943
_cell_angle_alpha 90.000000
_cell_angle_beta 77.356564
_cell_angle_gamma 90.000000
_cell_volume 3279.352154
_symmetry_space_group_name_H-M "C 2/M"
_symmetry_group_IT_number 12
_symmetry_cell_setting 'monoclinic'
loop_
_space_group_symop_operation_xyz
x,y,z
-x,y,-z
-x,-y,-z
x,-y,z
1/2+x,1/2+y,z
1/2-x,1/2+y,-z
1/2-x,1/2-y,-z
1/2+x,1/2-y,z
loop_
_atom_site_type_symbol
_atom_site_label
_atom_site_fract_x
_atom_site_fract_y
_atom_site_fract_z
Si Si1 0.148959 0.180824 0.892571
Si Si2 0.399530 0.315877 0.877698
Si Si3 0.625005 0.818461 0.488479
Si Si4 0.460247 0.166112 0.596020
Si Si5 0.994923 0.176861 0.770338
Si Si6 0.250111 0.181668 0.885326
Si Si7 0.334741 0.317805 0.725926
Si Si8 0.596355 0.316050 0.718501
O O1 0.201865 0.219790 0.857359
O O2 0.123706 0.247579 0.804083
O O3 0.140613 0.000000 0.901644
O O4 0.127624 0.253046 0.009462
O O5 0.397847 0.500000 0.878114
O O6 0.452350 0.258547 0.861228
O O7 0.375694 0.258330 0.781643
O O8 0.580095 0.766253 0.451653
O O9 0.664078 0.754217 0.391446
O O10 0.623437 0.742879 0.603297
O O11 0.630310 0.000000 0.500049
O O12 0.500000 0.124033 0.500000
O O13 0.476641 0.300401 0.663486
O O14 0.447319 0.000000 0.657315
O O15 0.044819 0.254003 0.756548
O O16 0.001726 0.000000 0.793500
O O17 0.287277 0.266628 0.797997
O O18 0.259500 0.000000 0.885111
O O19 0.250000 0.250000 0.000000
O O20 0.335902 0.500000 0.716009
O O21 0.594972 0.500000 0.713301
#
# Coordination Sequence:
#
# PCOD8085869 Si02
#       8
#     8   8   8   8   8   8   8   8
#     4   9  19  37  58  81 113 149 187 233 283 335
#     4   9  17  31  53  83 115 144 176 228 286 327
#     4  11  22  36  55  81 115 153 191 234 284 337
#     4  10  19  31  48  73 106 147 187 227 275 327
#     4  10  19  30  51  83 113 145 188 233 274 327
#     4  11  21  37  62  90 117 147 186 234 289 342
#     4  11  21  36  59  89 119 144 182 239 294 339
#     4  10  21  36  56  81 111 154 198 231 272 333
#
# _framework density 19.516048999999999
#
# number of rings (size 3 to 8) (size 9 to 14) (size 15 to 20)
#    0.000    1.875    3.750    1.125    0.000    1.250 
#    0.000    4.375    0.000    0.000    0.000    1.750 
#    0.000    0.000    0.000    0.000    0.000    0.000 
#
# Total GULP energy -396494.524880 kJ/mol
# GULP energy per Si atom -12390.453902 kJ/mol
# Density = 1.947163 g / cm^3
# Si number density = 19.516049 Si / 1000 Ang^3
#
#
#
# Elastic Constant Matrix: (Units=GPa)
#
#
# Indices 1 2 3 4 5 6 
#
# 1 96.0621 18.2304 54.1035 0.0000 -5.9883 0.0000
# 2 18.2304 33.6244 17.2431 0.0000 0.2387 0.0000
# 3 54.1035 17.2431 122.1986 0.0000 -5.0445 0.0000
# 4 0.0000 0.0000 0.0000 20.0308 0.0000 -5.1269
# 5 -5.9883 0.2387 -5.0445 0.0000 35.0287 0.0000
# 6 0.0000 0.0000 0.0000 -5.1269 0.0000 22.0964
#
#
#
# Elastic Compliance Matrix: (Units=1/GPa)
#
#
# Indices 1 2 3 4 5 6 
#
# 1 0.014699 -0.005046 -0.005725 0.000000 0.001723 0.000000
# 2 -0.005046 0.033819 -0.002599 0.000000 -0.001467 0.000000
# 3 -0.005725 -0.002599 0.011111 0.000000 0.000639 0.000000
# 4 0.000000 0.000000 0.000000 0.053075 0.000000 0.012315
# 5 0.001723 -0.001467 0.000639 0.000000 0.028945 0.000000
# 6 0.000000 0.000000 0.000000 0.012315 0.000000 0.048114
#
#
# Mechanical properties :
#
#
# Convention : Reuss Voigt Hill
#
# Bulk Modulus (GPa) = 30.40388 47.89324 39.14856
# Shear Modulus (GPa) = 21.98136 26.25174 24.11655
#
# Velocity S-wave (km/s) = 3.35971 3.67159 3.51911
# Velocity P-wave (km/s) = 5.53741 6.52440 6.05106
#
# Compressibility (1/GPa) = 0.03289054
#
# Stress axis : x y z
#
# Youngs Moduli (GPa) = 68.03026 29.56902 89.99929
#
# Poissons Ratio (x) = 0.14921 0.51524
# Poissons Ratio (y) = 0.34328 0.23387
# Poissons Ratio (z) = 0.38947 0.07684
#
# Static dielectric constant tensor:
#      x y z
#    x 3.794820 0.000000 -0.152170 
#    y 0.000000 3.314600 0.000000 
#    z -0.152170 0.000000 3.654780 
# 
# 
# High freq. dielectric constant tensor:
#      x y z
#    x 1.761900 0.000000 -0.017770 
#    y 0.000000 1.733120 0.000000 
#    z -0.017770 0.000000 1.755240 
# 
# From -- ./inp_files/187520.got.cif
#   From: 2010.06.25/outbox.cif.g09.slc.cpg/sg12_94_cif.got.tgz:187520.got - 2010.06.28 00:19:55.
