data_PCOD8085544
_publ_section_title
;
Structure prediction by ZEFSAII (Michael W. Deem and Ramdas Pophale) SiO2 
 PCOD8085544
Probable space group: C 2/M
;
_chemical_formula_sum "Si O2"
_cell_formula_units_Z 60
_cell_length_a 27.602284
_cell_length_b 12.751364
_cell_length_c 24.009039
_cell_angle_alpha 90.000000
_cell_angle_beta 156.465898
_cell_angle_gamma 90.000000
_cell_volume 3374.194571
_symmetry_space_group_name_H-M "C 2/M"
_symmetry_group_IT_number 12
_symmetry_cell_setting 'monoclinic'
loop_
_space_group_symop_operation_xyz
x,y,z
-x,y,-z
-x,-y,-z
x,-y,z
1/2+x,1/2+y,z
1/2-x,1/2+y,-z
1/2-x,1/2-y,-z
1/2+x,1/2-y,z
loop_
_atom_site_type_symbol
_atom_site_label
_atom_site_fract_x
_atom_site_fract_y
_atom_site_fract_z
Si Si1 0.825637 0.259687 0.909064
Si Si2 0.942531 0.253809 0.208610
Si Si3 0.679553 0.618518 0.264029
Si Si4 0.755265 0.622731 0.939639
Si Si5 0.433263 0.119834 0.571444
Si Si6 0.000000 0.244962 0.000000
Si Si7 0.394359 0.119552 0.346374
Si Si8 0.508741 0.619393 0.842153
O O1 0.783609 0.354494 0.904412
O O2 0.714133 0.202711 0.760173
O O3 0.924480 0.307184 0.968484
O O4 0.884130 0.169536 0.008738
O O5 0.864334 0.185487 0.169161
O O6 0.048136 0.312066 0.353648
O O7 0.007295 0.177465 0.233231
O O8 0.864115 0.341911 0.094486
O O9 0.684295 0.500000 0.247853
O O10 0.816226 0.663274 0.414149
O O11 0.604629 0.677144 0.138238
O O12 0.618212 0.628141 0.259854
O O13 0.733363 0.500000 0.924222
O O14 0.554148 0.127380 0.661836
O O15 0.406690 0.000000 0.561025
O O16 0.500000 0.152015 0.500000
O O17 0.350613 0.000000 0.312851
O O18 0.547140 0.500000 0.871370
#
# Coordination Sequence:
#
# PCOD8085544 Si02
#       8
#     8   8   8   8   8   4   8   8
#     4  10  19  33  50  75 100 130 167 206 253 299
#     4  10  19  32  51  76 100 133 170 204 253 293
#     4   9  18  31  48  74 106 136 165 201 249 299
#     4  10  20  34  52  74 101 132 170 210 251 300
#     4  10  19  31  47  72 105 136 164 200 249 300
#     4  10  19  32  53  74  98 132 170 206 246 300
#     4  10  19  30  47  73 102 131 163 205 254 301
#     4   9  18  31  49  74 104 134 167 204 244 295
#
# _framework density 17.782022000000001
#
# number of rings (size 3 to 8) (size 9 to 14) (size 15 to 20)
#    0.000    2.267    1.333    2.200    0.000    3.200 
#    0.000    0.333    0.000    0.400    0.000    3.733 
#    0.000    0.000    0.000    0.000    0.000    0.000 
#
# Total GULP energy -371923.831230 kJ/mol
# GULP energy per Si atom -12397.461041 kJ/mol
# Density = 1.774155 g / cm^3
# Si number density = 17.782022 Si / 1000 Ang^3
#
#
#
# Elastic Constant Matrix: (Units=GPa)
#
#
# Indices 1 2 3 4 5 6 
#
# 1 99.5368 24.6789 21.5217 -0.0001 0.6524 0.0000
# 2 24.6789 61.4144 22.0990 -0.0001 -6.9635 0.0001
# 3 21.5217 22.0990 76.6557 -0.0002 -2.1209 0.0000
# 4 -0.0001 -0.0001 -0.0002 17.2337 -0.0001 2.4178
# 5 0.6524 -6.9635 -2.1209 -0.0001 25.5951 0.0000
# 6 0.0000 0.0001 0.0000 2.4178 0.0000 16.1815
#
#
#
# Elastic Compliance Matrix: (Units=1/GPa)
#
#
# Indices 1 2 3 4 5 6 
#
# 1 0.011516 -0.004046 -0.002110 0.000000 -0.001569 0.000000
# 2 -0.004046 0.020126 -0.004522 0.000000 0.005204 0.000000
# 3 -0.002110 -0.004522 0.014943 0.000000 0.000062 0.000000
# 4 0.000000 0.000000 0.000000 0.059268 0.000000 -0.008856
# 5 -0.001569 0.005204 0.000062 0.000000 0.040531 0.000000
# 6 0.000000 0.000000 0.000000 -0.008856 0.000000 0.063122
#
#
# Mechanical properties :
#
#
# Convention : Reuss Voigt Hill
#
# Bulk Modulus (GPa) = 39.63806 41.57847 40.60826
# Shear Modulus (GPa) = 20.89658 23.08922 21.99290
#
# Velocity S-wave (km/s) = 3.43177 3.60732 3.52064
# Velocity P-wave (km/s) = 6.16783 6.38619 6.27796
#
# Compressibility (1/GPa) = 0.02522828
#
# Stress axis : x y z
#
# Youngs Moduli (GPa) = 86.83325 49.68671 66.92018
#
# Poissons Ratio (x) = 0.20105 0.14121
# Poissons Ratio (y) = 0.35136 0.30262
# Poissons Ratio (z) = 0.18324 0.22469
#
# Static dielectric constant tensor:
#      x y z
#    x 3.535720 0.000000 0.083530 
#    y 0.000000 2.967240 0.000000 
#    z 0.083530 0.000000 3.217950 
# 
# 
# High freq. dielectric constant tensor:
#      x y z
#    x 1.703100 0.000000 0.003590 
#    y 0.000000 1.647650 0.000000 
#    z 0.003590 0.000000 1.684310 
# 
# From -- ./inp_files/370911.got.cif
#   From: 2010.06.25/outbox.cif.g09.slc.cpg/sg12_186_cif.got.tgz:370911.got - 2010.06.28 00:19:55.
