data_PCOD8085281
_publ_section_title
;
Structure prediction by ZEFSAII (Michael W. Deem and Ramdas Pophale) SiO2 
 PCOD8085281
Probable space group: C 2/M
;
_chemical_formula_sum "Si O2"
_cell_formula_units_Z 64
_cell_length_a 23.784761
_cell_length_b 8.995335
_cell_length_c 31.075483
_cell_angle_alpha 90.000000
_cell_angle_beta 149.687110
_cell_angle_gamma 90.000000
_cell_volume 3355.723187
_symmetry_space_group_name_H-M "C 2/M"
_symmetry_group_IT_number 12
_symmetry_cell_setting 'monoclinic'
loop_
_space_group_symop_operation_xyz
x,y,z
-x,y,-z
-x,-y,-z
x,-y,z
1/2+x,1/2+y,z
1/2-x,1/2+y,-z
1/2-x,1/2-y,-z
1/2+x,1/2-y,z
loop_
_atom_site_type_symbol
_atom_site_label
_atom_site_fract_x
_atom_site_fract_y
_atom_site_fract_z
Si Si1 0.505007 0.667324 0.733336
Si Si2 0.149664 0.322412 0.298480
Si Si3 0.903855 0.331623 0.357499
Si Si4 0.330566 0.177555 0.215533
Si Si5 0.887138 0.328753 0.899303
Si Si6 0.104975 0.826538 0.513710
Si Si7 0.150272 0.171970 0.211916
Si Si8 0.352780 0.662203 0.551872
O O1 0.532513 0.500000 0.768668
O O2 0.428892 0.755721 0.716538
O O3 0.615171 0.759873 0.792993
O O4 0.444897 0.653648 0.648478
O O5 0.140544 0.500000 0.293822
O O6 0.278777 0.269207 0.389453
O O7 0.105687 0.257358 0.224591
O O8 0.943861 0.500000 0.383702
O O9 0.897159 0.274417 0.303178
O O10 0.782696 0.311628 0.297814
O O11 0.985414 0.247306 0.446112
O O12 0.207334 0.245155 0.135943
O O13 0.322424 0.000000 0.207573
O O14 0.852246 0.500000 0.868879
O O15 0.906502 0.249642 0.866359
O O16 0.000000 0.315675 0.000000
O O17 0.102371 0.769131 0.462478
O O18 0.092045 0.000000 0.513260
O O19 0.113702 0.000000 0.189438
O O20 0.307248 0.500000 0.509076
O O21 0.250000 0.750000 0.500000
#
# Coordination Sequence:
#
# PCOD8085281 Si02
#       8
#     8   8   8   8   8   8   8   8
#     4  11  21  33  52  77 108 148 191 236 281 327
#     4  11  23  37  52  74 108 152 196 236 279 330
#     4   9  19  33  51  74 103 141 185 236 283 322
#     4  10  20  34  55  85 117 147 181 225 276 326
#     4  10  21  39  66  96 119 140 170 213 268 329
#     4  10  20  32  47  71 103 143 192 239 283 325
#     4  10  22  40  58  81 111 145 185 226 274 332
#     4  10  19  30  45  69 100 140 188 239 284 321
#
# _framework density 19.071895999999999
#
# number of rings (size 3 to 8) (size 9 to 14) (size 15 to 20)
#    0.000    1.875    2.500    2.625    0.000    6.000 
#    0.000    2.500    0.000    0.750    0.000    0.000 
#    0.000    0.000    0.000    0.000    0.000    0.000 
#
# Total GULP energy -396552.005120 kJ/mol
# GULP energy per Si atom -12392.250160 kJ/mol
# Density = 1.902849 g / cm^3
# Si number density = 19.071896 Si / 1000 Ang^3
#
#
#
# Elastic Constant Matrix: (Units=GPa)
#
#
# Indices 1 2 3 4 5 6 
#
# 1 48.1833 35.3716 27.4673 -0.0005 -10.0401 0.0010
# 2 35.3716 108.8459 42.6939 -0.0004 -1.0974 0.0006
# 3 27.4673 42.6939 72.1363 -0.0009 0.1058 -0.0001
# 4 -0.0005 -0.0004 -0.0009 26.2580 -0.0002 3.6762
# 5 -10.0401 -1.0974 0.1058 -0.0002 20.9038 -0.0001
# 6 0.0010 0.0006 -0.0001 3.6762 -0.0001 32.0333
#
#
#
# Elastic Compliance Matrix: (Units=1/GPa)
#
#
# Indices 1 2 3 4 5 6 
#
# 1 0.034794 -0.007731 -0.008697 0.000001 0.016350 -0.000001
# 2 -0.007731 0.013692 -0.005156 0.000000 -0.002968 0.000000
# 3 -0.008697 -0.005156 0.020232 0.000000 -0.004550 0.000000
# 4 0.000001 0.000000 0.000000 0.038706 0.000001 -0.004442
# 5 0.016350 -0.002968 -0.004550 0.000001 0.055558 0.000000
# 6 -0.000001 0.000000 0.000000 -0.004442 0.000000 0.031727
#
#
# Mechanical properties :
#
#
# Convention : Reuss Voigt Hill
#
# Bulk Modulus (GPa) = 39.13690 48.91458 44.02574
# Shear Modulus (GPa) = 20.29283 24.08118 22.18700
#
# Velocity S-wave (km/s) = 3.26547 3.55724 3.41447
# Velocity P-wave (km/s) = 5.89771 6.52496 6.21925
#
# Compressibility (1/GPa) = 0.02555134
#
# Stress axis : x y z
#
# Youngs Moduli (GPa) = 28.74074 73.03600 49.42631
#
# Poissons Ratio (x) = 0.56463 0.42986
# Poissons Ratio (y) = 0.22219 0.25482
# Poissons Ratio (z) = 0.24996 0.37654
#
# Static dielectric constant tensor:
#      x y z
#    x 3.499420 0.000000 0.017570 
#    y 0.000000 3.625860 0.000000 
#    z 0.017570 0.000000 3.190610 
# 
# 
# High freq. dielectric constant tensor:
#      x y z
#    x 1.745770 0.000000 0.001780 
#    y 0.000000 1.751200 0.000000 
#    z 0.001780 0.000000 1.707450 
# 
# From -- ./inp_files/382428.got.cif
#   From: 2010.06.25/outbox.cif.g09.slc.cpg/sg12_192_cif.got.tgz:382428.got - 2010.06.28 00:19:55.
