data_PCOD8085780
_publ_section_title
;
Structure prediction by ZEFSAII (Michael W. Deem and Ramdas Pophale) SiO2 
 PCOD8085780
Probable space group: C 2/M
;
_chemical_formula_sum "Si O2"
_cell_formula_units_Z 64
_cell_length_a 28.861013
_cell_length_b 20.475905
_cell_length_c 17.578311
_cell_angle_alpha 90.000000
_cell_angle_beta 159.178313
_cell_angle_gamma 90.000000
_cell_volume 3692.525529
_symmetry_space_group_name_H-M "C 2/M"
_symmetry_group_IT_number 12
_symmetry_cell_setting 'monoclinic'
loop_
_space_group_symop_operation_xyz
x,y,z
-x,y,-z
-x,-y,-z
x,-y,z
1/2+x,1/2+y,z
1/2-x,1/2+y,-z
1/2-x,1/2-y,-z
1/2+x,1/2-y,z
loop_
_atom_site_type_symbol
_atom_site_label
_atom_site_fract_x
_atom_site_fract_y
_atom_site_fract_z
Si Si1 0.487534 0.074119 0.772764
Si Si2 0.619924 0.924067 0.230456
Si Si3 0.288861 0.426783 0.246915
Si Si4 0.515198 0.806314 0.711041
Si Si5 0.598905 0.328866 0.876567
Si Si6 0.689629 0.326737 0.847732
Si Si7 0.620953 0.576729 0.449219
Si Si8 0.875056 0.698021 0.344588
O O1 0.394674 0.087448 0.702143
O O2 0.457473 0.130077 0.665102
O O3 0.463610 0.000000 0.704095
O O4 0.635606 0.081480 0.027251
O O5 0.758460 0.895669 0.415466
O O6 0.621086 0.000000 0.210647
O O7 0.500000 0.891056 0.000000
O O8 0.325467 0.500000 0.281694
O O9 0.339225 0.386254 0.252628
O O10 0.357202 0.405278 0.429282
O O11 0.537318 0.743123 0.799699
O O12 0.408901 0.787844 0.484308
O O13 0.657862 0.822500 0.894967
O O14 0.609021 0.336227 0.800829
O O15 0.507567 0.384059 0.773065
O O16 0.739115 0.340814 0.131500
O O17 0.641308 0.263214 0.729836
O O18 0.597532 0.500000 0.400262
O O19 0.000000 0.659349 0.500000
#
# Coordination Sequence:
#
# PCOD8085780 Si02
#       8
#     8   8   8   8   8   8   8   8
#     4   9  17  31  53  79 102 127 167 212 254 298
#     4   9  15  30  55  79 103 132 162 198 250 316
#     4   9  17  28  46  76 109 132 156 199 256 310
#     4  10  19  33  52  76  99 131 174 211 248 294
#     4  11  21  33  50  76 102 135 173 210 248 297
#     4  10  19  30  50  75 100 133 175 205 244 301
#     4  10  20  32  49  76 108 135 162 203 258 307
#     4  11  18  33  52  69  94 135 178 212 236 290
#
# _framework density 17.332311000000001
#
# number of rings (size 3 to 8) (size 9 to 14) (size 15 to 20)
#    0.000    2.125    3.750    1.500    0.000    0.500 
#    0.000    2.500    0.000    1.500    0.000    2.625 
#    0.000    0.000    0.000    0.000    0.000    0.000 
#
# Total GULP energy -396642.416894 kJ/mol
# GULP energy per Si atom -12395.075528 kJ/mol
# Density = 1.729286 g / cm^3
# Si number density = 17.332311 Si / 1000 Ang^3
#
#
#
# Elastic Constant Matrix: (Units=GPa)
#
#
# Indices 1 2 3 4 5 6 
#
# 1 61.7244 42.1561 40.5547 0.0000 11.4577 0.0000
# 2 42.1561 64.5390 34.5125 0.0000 12.7910 0.0000
# 3 40.5547 34.5125 109.3816 0.0000 9.9086 0.0000
# 4 0.0000 0.0000 0.0000 17.9001 0.0000 12.7129
# 5 11.4577 12.7910 9.9086 0.0000 20.8567 0.0000
# 6 0.0000 0.0000 0.0000 12.7129 0.0000 6.4308
#
#
#
# Elastic Compliance Matrix: (Units=1/GPa)
#
#
# Indices 1 2 3 4 5 6 
#
# 1 0.033026 -0.017259 -0.006390 0.000000 -0.004523 0.000000
# 2 -0.017259 0.029440 -0.002208 0.000000 -0.007524 0.000000
# 3 -0.006390 -0.002208 0.012297 0.000000 -0.000977 0.000000
# 4 0.000000 0.000000 0.000000 -0.138280 0.000000 0.273361
# 5 -0.004523 -0.007524 -0.000977 0.000000 0.055510 0.000000
# 6 0.000000 0.000000 0.000000 0.273361 0.000000 -0.384899
#
#
# Mechanical properties :
#
#
# Convention : Reuss Voigt Hill
#
# Bulk Modulus (GPa) = 43.38594 52.23241 47.80917
# Shear Modulus (GPa) = -14.99213 16.93232 0.97009
#
# Velocity S-wave (km/s) = -2.94425 3.12897 0.74894
# Velocity P-wave (km/s) = 3.67805 6.57687 5.32838
#
# Compressibility (1/GPa) = 0.02304894
#
# Stress axis : x y z
#
# Youngs Moduli (GPa) = 30.27889 33.96718 81.32289
#
# Poissons Ratio (x) = 0.58625 0.51962
# Poissons Ratio (y) = 0.52259 0.17959
# Poissons Ratio (z) = 0.19347 0.07501
#
# Static dielectric constant tensor:
#      x y z
#    x 3.110410 0.000000 0.115110 
#    y 0.000000 3.135770 0.000000 
#    z 0.115110 0.000000 3.340320 
# 
# 
# High freq. dielectric constant tensor:
#      x y z
#    x 1.650600 0.000000 0.007960 
#    y 0.000000 1.645920 0.000000 
#    z 0.007960 0.000000 1.664810 
# 
# From -- ./inp_files/297107.got.cif
#   From: 2010.06.25/outbox.cif.g09.slc.cpg/sg12_149_cif.got.tgz:297107.got - 2010.06.28 00:19:55.
