data_PCOD8085858
_publ_section_title
;
Structure prediction by ZEFSAII (Michael W. Deem and Ramdas Pophale) SiO2 
 PCOD8085858
Probable space group: C 2/M
;
_chemical_formula_sum "Si O2"
_cell_formula_units_Z 56
_cell_length_a 20.946972
_cell_length_b 27.444658
_cell_length_c 11.991677
_cell_angle_alpha 90.000000
_cell_angle_beta 25.639812
_cell_angle_gamma 90.000000
_cell_volume 2983.034121
_symmetry_space_group_name_H-M "C 2/M"
_symmetry_group_IT_number 12
_symmetry_cell_setting 'monoclinic'
loop_
_space_group_symop_operation_xyz
x,y,z
-x,y,-z
-x,-y,-z
x,-y,z
1/2+x,1/2+y,z
1/2-x,1/2+y,-z
1/2-x,1/2-y,-z
1/2+x,1/2-y,z
loop_
_atom_site_type_symbol
_atom_site_label
_atom_site_fract_x
_atom_site_fract_y
_atom_site_fract_z
Si Si1 0.584947 0.208351 0.481407
Si Si2 0.087352 0.817189 0.477084
Si Si3 0.964453 0.943278 0.927179
Si Si4 0.224327 0.555104 0.623405
Si Si5 0.347190 0.139996 0.939414
Si Si6 0.174302 0.139661 0.982605
Si Si7 0.521119 0.055435 0.149428
O O1 0.500000 0.211584 0.500000
O O2 0.625494 0.262595 0.459214
O O3 0.468944 0.182806 0.747303
O O4 0.738573 0.179192 0.228603
O O5 0.000000 0.813649 0.500000
O O6 0.989431 0.841861 0.727732
O O7 0.236482 0.847612 0.216253
O O8 0.110450 0.924765 0.632134
O O9 0.836049 0.909500 0.076603
O O10 0.922529 0.000000 0.972638
O O11 0.000000 0.933030 0.000000
O O12 0.234749 0.500000 0.564264
O O13 0.120527 0.578787 0.691125
O O14 0.157792 0.557500 0.849983
O O15 0.435031 0.089561 0.817545
O O16 0.264384 0.130826 0.953868
O O17 0.496194 0.000000 0.230837
#
# Coordination Sequence:
#
# PCOD8085858 Si02
#       7
#     8   8   8   8   8   8   8
#     4   9  18  32  50  76 106 132 164 205 248 301
#     4   9  17  32  53  76 102 132 166 204 249 302
#     4  10  21  35  52  71  98 138 177 204 238 298
#     4   8  16  32  50  70  93 129 178 209 231 282
#     4  10  19  30  51  81 104 130 165 202 259 307
#     4  10  20  33  51  78 105 130 166 210 253 298
#     4   9  17  30  51  76 103 129 162 209 251 294
#
# _framework density 18.772832000000001
#
# number of rings (size 3 to 8) (size 9 to 14) (size 15 to 20)
#    0.000    2.714    0.000    2.571    2.000    4.000 
#    0.000    0.000    0.000    8.571    7.429    0.000 
#    0.000    0.000    0.000    0.000    0.000    0.000 
#
# Total GULP energy -346927.424457 kJ/mol
# GULP energy per Si atom -12390.265159 kJ/mol
# Density = 1.873010 g / cm^3
# Si number density = 18.772832 Si / 1000 Ang^3
#
#
#
# Elastic Constant Matrix: (Units=GPa)
#
#
# Indices 1 2 3 4 5 6 
#
# 1 45.0267 42.2778 7.4796 0.0078 -3.6524 -0.0468
# 2 42.2778 113.0197 15.7384 0.0034 -6.3046 -0.0011
# 3 7.4796 15.7384 64.4035 0.0166 -1.6432 -0.0536
# 4 0.0078 0.0034 0.0166 19.1926 -0.0123 -0.5979
# 5 -3.6524 -6.3046 -1.6432 -0.0123 12.0941 0.0531
# 6 -0.0468 -0.0011 -0.0536 -0.5979 0.0531 11.3340
#
#
#
# Elastic Compliance Matrix: (Units=1/GPa)
#
#
# Indices 1 2 3 4 5 6 
#
# 1 0.034444 -0.012560 -0.000835 -0.000005 0.003741 0.000119
# 2 -0.012560 0.013989 -0.001877 0.000004 0.003245 -0.000074
# 3 -0.000835 -0.001877 0.016107 -0.000011 0.000957 0.000067
# 4 -0.000005 0.000004 -0.000011 0.052189 0.000040 0.002753
# 5 0.003741 0.003245 0.000957 0.000040 0.085638 -0.000379
# 6 0.000119 -0.000074 0.000067 0.002753 -0.000379 0.088378
#
#
# Mechanical properties :
#
#
# Convention : Reuss Voigt Hill
#
# Bulk Modulus (GPa) = 29.41542 39.27129 34.34336
# Shear Modulus (GPa) = 15.03207 18.98773 17.00990
#
# Velocity S-wave (km/s) = 2.83280 3.18378 3.01340
# Velocity P-wave (km/s) = 5.13837 5.87196 5.51737
#
# Compressibility (1/GPa) = 0.03399577
#
# Stress axis : x y z
#
# Youngs Moduli (GPa) = 29.03232 71.48633 62.08358
#
# Poissons Ratio (x) = 0.89785 0.05187
# Poissons Ratio (y) = 0.36464 0.11654
# Poissons Ratio (z) = 0.02426 0.13419
#
# Static dielectric constant tensor:
#      x y z
#    x 3.008040 -0.000020 -0.145120 
#    y -0.000020 3.475250 0.000100 
#    z -0.145120 0.000100 3.863400 
# 
# 
# High freq. dielectric constant tensor:
#      x y z
#    x 1.686390 0.000000 -0.004950 
#    y 0.000000 1.721250 0.000010 
#    z -0.004950 0.000010 1.744610 
# 
# From -- ./inp_files/170500.got.cif
#   From: 2010.06.25/outbox.cif.g09.slc.cpg/sg12_86_cif.got.tgz:170500.got - 2010.06.28 00:19:55.
