data_PCOD8085167
_publ_section_title
;
Structure prediction by ZEFSAII (Michael W. Deem and Ramdas Pophale) SiO2 
 PCOD8085167
Probable space group: C 2/M
;
_chemical_formula_sum "Si O2"
_cell_formula_units_Z 48
_cell_length_a 20.137848
_cell_length_b 13.319816
_cell_length_c 13.892852
_cell_angle_alpha 90.000000
_cell_angle_beta 129.466650
_cell_angle_gamma 90.000000
_cell_volume 2876.848608
_symmetry_space_group_name_H-M "C 2/M"
_symmetry_group_IT_number 12
_symmetry_cell_setting 'monoclinic'
loop_
_space_group_symop_operation_xyz
x,y,z
-x,y,-z
-x,-y,-z
x,-y,z
1/2+x,1/2+y,z
1/2-x,1/2+y,-z
1/2-x,1/2-y,-z
1/2+x,1/2-y,z
loop_
_atom_site_type_symbol
_atom_site_label
_atom_site_fract_x
_atom_site_fract_y
_atom_site_fract_z
Si Si1 0.703282 0.111352 0.997097
Si Si2 0.039636 0.885305 0.256656
Si Si3 0.577422 0.619654 0.505325
Si Si4 0.638018 0.680674 0.967000
Si Si5 0.756418 0.613048 0.750122
Si Si6 0.908288 0.758711 0.876384
O O1 0.632609 0.200375 0.931969
O O2 0.661358 0.000000 0.944572
O O3 0.771294 0.131199 0.975324
O O4 0.753901 0.116752 0.144462
O O5 0.067290 0.843598 0.386208
O O6 0.936567 0.878539 0.156239
O O7 0.068727 0.000000 0.270092
O O8 0.083393 0.820235 0.213939
O O9 0.500000 0.663452 0.500000
O O10 0.575410 0.500000 0.509865
O O11 0.669151 0.661532 0.627124
O O12 0.628582 0.669141 0.073566
O O13 0.767173 0.500000 0.722151
O O14 0.841876 0.669697 0.793421
O O15 0.000000 0.715982 0.000000
#
# Coordination Sequence:
#
# PCOD8085167 Si02
#       6
#     8   8   8   8   8   8
#     4   9  16  27  45  67  91 116 144 185 229 264
#     4  10  19  30  44  63  90 119 147 183 221 259
#     4   9  17  29  47  69  88 110 144 184 227 268
#     4   9  17  28  43  65  91 117 150 182 219 268
#     4   9  17  30  47  67  91 116 145 185 227 264
#     4   9  19  31  43  65  92 119 152 181 212 264
#
# _framework density 16.684925
#
# number of rings (size 3 to 8) (size 9 to 14) (size 15 to 20)
#    0.000    2.833    0.000    1.500    0.000    7.333 
#    0.000    2.500    0.000    0.000    0.000    1.167 
#    0.000   14.000    0.000    0.000    0.000    0.000 
#
# Total GULP energy -297486.049242 kJ/mol
# GULP energy per Si atom -12395.252052 kJ/mol
# Density = 1.664695 g / cm^3
# Si number density = 16.684925 Si / 1000 Ang^3
#
#
#
# Elastic Constant Matrix: (Units=GPa)
#
#
# Indices 1 2 3 4 5 6 
#
# 1 114.9903 30.6908 48.9070 0.0000 -5.2982 0.0000
# 2 30.6908 61.5913 25.1292 0.0000 -0.9895 0.0000
# 3 48.9070 25.1292 90.4641 0.0000 0.6273 0.0000
# 4 0.0000 0.0000 0.0000 18.4056 0.0000 1.8826
# 5 -5.2982 -0.9895 0.6273 0.0000 22.9367 0.0000
# 6 0.0000 0.0000 0.0000 1.8826 0.0000 19.9907
#
#
#
# Elastic Compliance Matrix: (Units=1/GPa)
#
#
# Indices 1 2 3 4 5 6 
#
# 1 0.012198 -0.003761 -0.005569 0.000000 0.002808 0.000000
# 2 -0.003761 0.019491 -0.003381 0.000000 0.000065 0.000000
# 3 -0.005569 -0.003381 0.015017 0.000000 -0.001843 0.000000
# 4 0.000000 0.000000 0.000000 0.054860 0.000000 -0.005166
# 5 0.002808 0.000065 -0.001843 0.000000 0.044300 0.000000
# 6 0.000000 0.000000 0.000000 -0.005166 0.000000 0.050510
#
#
# Mechanical properties :
#
#
# Convention : Reuss Voigt Hill
#
# Bulk Modulus (GPa) = 46.98646 52.94441 49.96544
# Shear Modulus (GPa) = 21.84423 23.08785 22.46604
#
# Velocity S-wave (km/s) = 3.62224 3.72392 3.67343
# Velocity P-wave (km/s) = 6.76138 7.09161 6.92846
#
# Compressibility (1/GPa) = 0.02128273
#
# Stress axis : x y z
#
# Youngs Moduli (GPa) = 81.97855 51.30633 66.59060
#
# Poissons Ratio (x) = 0.19296 0.37087
# Poissons Ratio (y) = 0.30832 0.22517
# Poissons Ratio (z) = 0.45658 0.17348
#
# Static dielectric constant tensor:
#      x y z
#    x 3.192310 0.000000 -0.032660 
#    y 0.000000 3.027960 0.000000 
#    z -0.032660 0.000000 3.095790 
# 
# 
# High freq. dielectric constant tensor:
#      x y z
#    x 1.651800 0.000000 -0.006900 
#    y 0.000000 1.617890 0.000000 
#    z -0.006900 0.000000 1.624960 
# 
# From -- ./inp_files/240262.got.cif
#   From: 2010.06.25/outbox.cif.g09.slc.cpg/sg12_121_cif.got.tgz:240262.got - 2010.06.28 00:19:55.
