data_PCOD8085197
_publ_section_title
;
Structure prediction by ZEFSAII (Michael W. Deem and Ramdas Pophale) SiO2 
 PCOD8085197
Probable space group: C 2/M
;
_chemical_formula_sum "Si O2"
_cell_formula_units_Z 64
_cell_length_a 21.054223
_cell_length_b 25.117974
_cell_length_c 9.672226
_cell_angle_alpha 90.000000
_cell_angle_beta 130.636702
_cell_angle_gamma 90.000000
_cell_volume 3881.580982
_symmetry_space_group_name_H-M "C 2/M"
_symmetry_group_IT_number 12
_symmetry_cell_setting 'monoclinic'
loop_
_space_group_symop_operation_xyz
x,y,z
-x,y,-z
-x,-y,-z
x,-y,z
1/2+x,1/2+y,z
1/2-x,1/2+y,-z
1/2-x,1/2-y,-z
1/2+x,1/2-y,z
loop_
_atom_site_type_symbol
_atom_site_label
_atom_site_fract_x
_atom_site_fract_y
_atom_site_fract_z
Si Si1 0.167101 0.275996 0.179380
Si Si2 0.900579 0.333822 0.171464
Si Si3 0.749266 0.850535 0.513506
Si Si4 0.803693 0.700890 0.292493
Si Si5 0.868096 0.440687 0.740562
Si Si6 0.929513 0.812907 0.805838
Si Si7 0.031881 0.242342 0.406408
Si Si8 0.959677 0.439904 0.155446
O O1 0.224217 0.301541 0.379537
O O2 0.219518 0.235634 0.156756
O O3 0.095305 0.242516 0.154445
O O4 0.129699 0.321454 0.027499
O O5 0.826935 0.326028 0.179380
O O6 0.929699 0.395479 0.222628
O O7 0.978179 0.296061 0.314198
O O8 0.710873 0.843995 0.612026
O O9 0.713256 0.904718 0.399985
O O10 0.850434 0.851650 0.667558
O O11 0.872327 0.741826 0.444031
O O12 0.840379 0.500000 0.661349
O O13 0.947142 0.423295 0.759581
O O14 0.895397 0.438339 0.937730
O O15 0.976963 0.798823 0.730817
O O16 0.000000 0.842072 0.000000
O O17 0.000000 0.212604 0.500000
O O18 0.959285 0.500000 0.218525
#
# Coordination Sequence:
#
# PCOD8085197 Si02
#       8
#     8   8   8   8   8   8   8   8
#     4  11  19  30  50  68  95 135 164 201 237 296
#     4  11  20  29  48  69  99 138 158 199 244 287
#     4  11  19  33  52  68  98 129 165 207 245 291
#     4  10  20  32  41  70 102 130 166 195 236 289
#     4   9  18  32  52  75  97 124 167 211 241 284
#     4  11  20  32  47  71  94 127 166 202 241 292
#     4  10  19  30  44  65  99 131 158 193 233 288
#     4   9  18  31  49  76 101 128 169 206 236 282
#
# _framework density 16.488126999999999
#
# number of rings (size 3 to 8) (size 9 to 14) (size 15 to 20)
#    0.000    1.750    5.000    2.625    0.000    0.000 
#    0.000    0.625    0.000    5.250    0.000    0.000 
#    0.000    0.500    0.000    0.000    0.000    0.000 
#
# Total GULP energy -396703.234330 kJ/mol
# GULP energy per Si atom -12396.976073 kJ/mol
# Density = 1.645060 g / cm^3
# Si number density = 16.488127 Si / 1000 Ang^3
#
#
#
# Elastic Constant Matrix: (Units=GPa)
#
#
# Indices 1 2 3 4 5 6 
#
# 1 90.1769 34.2008 30.5038 0.0000 -7.2422 0.0000
# 2 34.2008 68.9229 21.7685 0.0000 0.1171 0.0000
# 3 30.5038 21.7685 77.2662 0.0000 7.6879 0.0000
# 4 0.0000 0.0000 0.0000 23.6911 0.0000 1.9915
# 5 -7.2422 0.1171 7.6879 0.0000 26.6991 0.0000
# 6 0.0000 0.0000 0.0000 1.9915 0.0000 19.9623
#
#
#
# Elastic Compliance Matrix: (Units=1/GPa)
#
#
# Indices 1 2 3 4 5 6 
#
# 1 0.015565 -0.006162 -0.004974 0.000000 0.005681 0.000000
# 2 -0.006162 0.018407 -0.002655 0.000000 -0.000988 0.000000
# 3 -0.004974 -0.002655 0.016253 0.000000 -0.006018 0.000000
# 4 0.000000 0.000000 0.000000 0.042567 0.000000 -0.004247
# 5 0.005681 -0.000988 -0.006018 0.000000 0.040733 0.000000
# 6 0.000000 0.000000 0.000000 -0.004247 0.000000 0.050518
#
#
# Mechanical properties :
#
#
# Convention : Reuss Voigt Hill
#
# Bulk Modulus (GPa) = 44.16490 45.47913 44.82202
# Shear Modulus (GPa) = 22.81306 24.06337 23.43821
#
# Velocity S-wave (km/s) = 3.72372 3.82440 3.77440
# Velocity P-wave (km/s) = 6.73292 6.86617 6.79987
#
# Compressibility (1/GPa) = 0.02264241
#
# Stress axis : x y z
#
# Youngs Moduli (GPa) = 64.24513 54.32702 61.52837
#
# Poissons Ratio (x) = 0.33479 0.30605
# Poissons Ratio (y) = 0.39591 0.16334
# Poissons Ratio (z) = 0.31956 0.14422
#
# Static dielectric constant tensor:
#      x y z
#    x 3.124450 0.000000 -0.073710 
#    y 0.000000 2.832520 0.000000 
#    z -0.073710 0.000000 3.141190 
# 
# 
# High freq. dielectric constant tensor:
#      x y z
#    x 1.633190 0.000000 -0.003440 
#    y 0.000000 1.594210 0.000000 
#    z -0.003440 0.000000 1.637070 
# 
# From -- ./inp_files/67016.got.cif
#   From: 2010.06.25/outbox.cif.g09.slc.cpg/sg12_34_cif.got.tgz:67016.got - 2010.06.28 00:19:55.
