data_PCOD8085010
_publ_section_title
;
Structure prediction by ZEFSAII (Michael W. Deem and Ramdas Pophale) SiO2 
 PCOD8085010
Probable space group: C 2/M
;
_chemical_formula_sum "Si O2"
_cell_formula_units_Z 56
_cell_length_a 27.143751
_cell_length_b 8.873560
_cell_length_c 17.513564
_cell_angle_alpha 90.000000
_cell_angle_beta 53.911870
_cell_angle_gamma 90.000000
_cell_volume 3408.896420
_symmetry_space_group_name_H-M "C 2/M"
_symmetry_group_IT_number 12
_symmetry_cell_setting 'monoclinic'
loop_
_space_group_symop_operation_xyz
x,y,z
-x,y,-z
-x,-y,-z
x,-y,z
1/2+x,1/2+y,z
1/2-x,1/2+y,-z
1/2-x,1/2-y,-z
1/2+x,1/2-y,z
loop_
_atom_site_type_symbol
_atom_site_label
_atom_site_fract_x
_atom_site_fract_y
_atom_site_fract_z
Si Si1 0.534965 0.177184 0.042301
Si Si2 0.327153 0.177429 0.061892
Si Si3 0.906838 0.677882 0.601423
Si Si4 0.481835 0.327362 0.786932
Si Si5 0.211602 0.678043 0.209191
Si Si6 0.660010 0.325306 0.107139
Si Si7 0.984791 0.321825 0.392150
O O1 0.606029 0.221989 0.968569
O O2 0.526880 0.000000 0.058127
O O3 0.500000 0.239265 0.000000
O O4 0.504510 0.250127 0.144555
O O5 0.275685 0.237414 0.167947
O O6 0.321341 0.000000 0.054944
O O7 0.312285 0.261854 0.996485
O O8 0.911190 0.500000 0.604409
O O9 0.838083 0.732335 0.682304
O O10 0.954369 0.740791 0.621159
O O11 0.926900 0.726060 0.497713
O O12 0.499913 0.500000 0.778464
O O13 0.412133 0.302649 0.827746
O O14 0.523210 0.254590 0.682949
O O15 0.221962 0.500000 0.202762
O O16 0.186696 0.724956 0.149732
O O17 0.678443 0.500000 0.100316
O O18 0.987711 0.500000 0.377376
#
# Coordination Sequence:
#
# PCOD8085010 Si02
#       7
#     8   8   8   8   8   8   8
#     4   9  19  36  55  71  87 114 153 191 228 277
#     4  10  20  32  46  65  89 116 148 187 229 272
#     4   8  16  27  44  65  88 123 164 197 219 252
#     4  10  19  29  45  71  98 122 149 187 236 278
#     4  11  19  29  44  64  91 124 158 187 221 262
#     4  10  19  30  42  61  91 125 158 186 216 262
#     4   9  15  29  47  64  88 123 164 195 221 257
#
# _framework density 16.427603999999999
#
# number of rings (size 3 to 8) (size 9 to 14) (size 15 to 20)
#    0.000    2.429    1.429    3.000    0.000    2.000 
#    0.000    2.857    0.000    0.000    0.000    1.000 
#    0.000    0.000    0.000    0.000    0.000    0.000 
#
# Total GULP energy -347118.693771 kJ/mol
# GULP energy per Si atom -12397.096206 kJ/mol
# Density = 1.639021 g / cm^3
# Si number density = 16.427604 Si / 1000 Ang^3
#
#
#
# Elastic Constant Matrix: (Units=GPa)
#
#
# Indices 1 2 3 4 5 6 
#
# 1 64.2713 22.7557 57.5745 0.0000 4.9185 0.0000
# 2 22.7557 43.5547 36.3920 0.0003 0.4912 0.0001
# 3 57.5745 36.3920 142.3895 0.0000 -5.2424 -0.0001
# 4 0.0000 0.0003 0.0000 20.9543 0.0000 -4.6189
# 5 4.9185 0.4912 -5.2424 0.0000 22.8322 0.0000
# 6 0.0000 0.0001 -0.0001 -4.6189 0.0000 16.3199
#
#
#
# Elastic Compliance Matrix: (Units=1/GPa)
#
#
# Indices 1 2 3 4 5 6 
#
# 1 0.026906 -0.005894 -0.009663 0.000000 -0.007888 0.000000
# 2 -0.005894 0.030612 -0.005464 0.000000 -0.000643 0.000000
# 3 -0.009663 -0.005464 0.012514 0.000000 0.005072 0.000000
# 4 0.000000 0.000000 0.000000 0.050898 0.000000 0.014405
# 5 -0.007888 -0.000643 0.005072 0.000000 0.046675 0.000000
# 6 0.000000 0.000000 0.000000 0.014405 0.000000 0.065352
#
#
# Mechanical properties :
#
#
# Convention : Reuss Voigt Hill
#
# Bulk Modulus (GPa) = 35.72949 53.73998 44.73473
# Shear Modulus (GPa) = 17.58519 20.92082 19.25300
#
# Velocity S-wave (km/s) = 3.27535 3.57251 3.42715
# Velocity P-wave (km/s) = 6.00839 7.05700 6.55370
#
# Compressibility (1/GPa) = 0.02798809
#
# Stress axis : x y z
#
# Youngs Moduli (GPa) = 37.16643 32.66686 79.91328
#
# Poissons Ratio (x) = 0.19255 0.77222
# Poissons Ratio (y) = 0.21907 0.43666
# Poissons Ratio (z) = 0.35915 0.17850
#
# Static dielectric constant tensor:
#      x y z
#    x 2.938940 0.000000 -0.249550 
#    y 0.000000 2.992940 0.000000 
#    z -0.249550 0.000000 3.417160 
# 
# 
# High freq. dielectric constant tensor:
#      x y z
#    x 1.589450 0.000000 -0.016500 
#    y 0.000000 1.628430 0.000000 
#    z -0.016500 0.000000 1.634700 
# 
# From -- ./inp_files/243644.got.cif
#   From: 2010.06.25/outbox.cif.g09.slc.cpg/sg12_122_cif.got.tgz:243644.got - 2010.06.28 00:19:55.
