data_PCOD8085644
_publ_section_title
;
Structure prediction by ZEFSAII (Michael W. Deem and Ramdas Pophale) SiO2 
 PCOD8085644
Probable space group: C 2/M
;
_chemical_formula_sum "Si O2"
_cell_formula_units_Z 64
_cell_length_a 34.842591
_cell_length_b 8.825155
_cell_length_c 12.369496
_cell_angle_alpha 90.000000
_cell_angle_beta 76.951154
_cell_angle_gamma 90.000000
_cell_volume 3705.297452
_symmetry_space_group_name_H-M "C 2/M"
_symmetry_group_IT_number 12
_symmetry_cell_setting 'monoclinic'
loop_
_space_group_symop_operation_xyz
x,y,z
-x,y,-z
-x,-y,-z
x,-y,z
1/2+x,1/2+y,z
1/2-x,1/2+y,-z
1/2-x,1/2-y,-z
1/2+x,1/2-y,z
loop_
_atom_site_type_symbol
_atom_site_label
_atom_site_fract_x
_atom_site_fract_y
_atom_site_fract_z
Si Si1 0.844659 0.325960 0.406894
Si Si2 0.210297 0.821293 0.980133
Si Si3 0.578375 0.323060 0.573817
Si Si4 0.287498 0.825610 0.248766
Si Si5 0.419715 0.322305 0.677379
Si Si6 0.208545 0.677324 0.360609
Si Si7 0.000798 0.670721 0.371060
Si Si8 0.343322 0.822516 0.814383
O O1 0.856023 0.500000 0.422172
O O2 0.884168 0.227304 0.380313
O O3 0.824296 0.304412 0.304652
O O4 0.815838 0.268394 0.519866
O O5 0.172965 0.762913 0.070553
O O6 0.213906 0.000000 0.987648
O O7 0.250000 0.750000 0.000000
O O8 0.204270 0.777020 0.859945
O O9 0.571203 0.500000 0.590067
O O10 0.585568 0.277246 0.444661
O O11 0.539851 0.241167 0.646954
O O12 0.248413 0.772866 0.335580
O O13 0.282493 0.000000 0.217049
O O14 0.414826 0.500000 0.699159
O O15 0.462350 0.269655 0.693801
O O16 0.387390 0.233518 0.766515
O O17 0.218810 0.500000 0.359510
O O18 0.183977 0.718278 0.269739
O O19 0.005067 0.500000 0.324676
O O20 0.000000 0.675475 0.500000
O O21 0.343717 0.000000 0.837548
#
# Coordination Sequence:
#
# PCOD8085644 Si02
#       8
#     8   8   8   8   8   8   8   8
#     4  10  21  36  52  75 106 141 177 214 256 312
#     4  12  24  39  57  75 100 133 175 222 268 312
#     4  10  19  30  48  74 105 140 174 212 256 308
#     4  11  23  37  55  76 102 136 178 221 263 309
#     4  10  19  31  48  75 108 138 173 214 258 309
#     4  10  20  34  53  75 104 139 175 214 259 309
#     4   9  17  29  47  70 101 140 175 210 255 309
#     4  11  21  34  55  79 104 136 176 216 261 313
#
# _framework density 17.272568
#
# number of rings (size 3 to 8) (size 9 to 14) (size 15 to 20)
#    0.000    1.625    2.500    3.375    0.000    4.500 
#    0.000    0.000    0.000    0.000    0.000    0.875 
#    0.000    7.000    0.000    0.000    0.000    0.000 
#
# Total GULP energy -396961.663140 kJ/mol
# GULP energy per Si atom -12405.051973 kJ/mol
# Density = 1.723325 g / cm^3
# Si number density = 17.272568 Si / 1000 Ang^3
#
#
#
# Elastic Constant Matrix: (Units=GPa)
#
#
# Indices 1 2 3 4 5 6 
#
# 1 116.8358 47.7366 33.2581 0.0000 -6.2247 0.0000
# 2 47.7366 92.9897 31.4629 0.0000 -2.6072 0.0000
# 3 33.2581 31.4629 55.4681 0.0000 2.2068 0.0000
# 4 0.0000 0.0000 0.0000 24.2179 0.0000 -4.4205
# 5 -6.2247 -2.6072 2.2068 0.0000 15.6568 0.0000
# 6 0.0000 0.0000 0.0000 -4.4205 0.0000 35.3653
#
#
#
# Elastic Compliance Matrix: (Units=1/GPa)
#
#
# Indices 1 2 3 4 5 6 
#
# 1 0.011989 -0.004364 -0.004902 0.000000 0.004731 0.000000
# 2 -0.004364 0.015068 -0.005995 0.000000 0.001619 0.000000
# 3 -0.004902 -0.005995 0.024623 0.000000 -0.006418 0.000000
# 4 0.000000 0.000000 0.000000 0.042256 0.000000 0.005282
# 5 0.004731 0.001619 -0.006418 0.000000 0.066925 0.000000
# 6 0.000000 0.000000 0.000000 0.005282 0.000000 0.028937
#
#
# Mechanical properties :
#
#
# Convention : Reuss Voigt Hill
#
# Bulk Modulus (GPa) = 47.25940 54.46763 50.86352
# Shear Modulus (GPa) = 21.99049 25.23706 23.61378
#
# Velocity S-wave (km/s) = 3.57199 3.82659 3.70148
# Velocity P-wave (km/s) = 6.66577 7.15027 6.91227
#
# Compressibility (1/GPa) = 0.02115981
#
# Stress axis : x y z
#
# Youngs Moduli (GPa) = 83.40811 66.36724 40.61232
#
# Poissons Ratio (x) = 0.28960 0.19907
# Poissons Ratio (y) = 0.36396 0.24346
# Poissons Ratio (z) = 0.40884 0.39786
#
# Static dielectric constant tensor:
#      x y z
#    x 3.267860 0.000000 -0.094550 
#    y 0.000000 3.309710 0.000000 
#    z -0.094550 0.000000 3.020410 
# 
# 
# High freq. dielectric constant tensor:
#      x y z
#    x 1.670870 0.000000 -0.009300 
#    y 0.000000 1.681040 0.000000 
#    z -0.009300 0.000000 1.630040 
# 
# From -- ./inp_files/187401.got.cif
#   From: 2010.06.25/outbox.cif.g09.slc.cpg/sg12_94_cif.got.tgz:187401.got - 2010.06.28 00:19:55.
