data_PCOD8085740
_publ_section_title
;
Structure prediction by ZEFSAII (Michael W. Deem and Ramdas Pophale) SiO2 
 PCOD8085740
Probable space group: C 2/M
;
_chemical_formula_sum "Si O2"
_cell_formula_units_Z 48
_cell_length_a 23.328746
_cell_length_b 9.336394
_cell_length_c 20.545163
_cell_angle_alpha 90.000000
_cell_angle_beta 38.589651
_cell_angle_gamma 90.000000
_cell_volume 2791.146654
_symmetry_space_group_name_H-M "C 2/M"
_symmetry_group_IT_number 12
_symmetry_cell_setting 'monoclinic'
loop_
_space_group_symop_operation_xyz
x,y,z
-x,y,-z
-x,-y,-z
x,-y,z
1/2+x,1/2+y,z
1/2-x,1/2+y,-z
1/2-x,1/2-y,-z
1/2+x,1/2-y,z
loop_
_atom_site_type_symbol
_atom_site_label
_atom_site_fract_x
_atom_site_fract_y
_atom_site_fract_z
Si Si1 0.067642 0.666153 0.882363
Si Si2 0.542752 0.836663 0.653347
Si Si3 0.278190 0.839801 0.578344
Si Si4 0.062628 0.667945 0.383212
Si Si5 0.067442 0.835898 0.753067
Si Si6 0.722535 0.666818 0.294964
O O1 0.057176 0.500000 0.872588
O O2 0.040263 0.758919 0.844134
O O3 0.170853 0.699284 0.815010
O O4 0.000000 0.711223 0.000000
O O5 0.651513 0.818812 0.543316
O O6 0.487010 0.786821 0.639327
O O7 0.515119 0.738580 0.739214
O O8 0.519019 0.000000 0.692451
O O9 0.175651 0.820366 0.643126
O O10 0.302038 0.724142 0.611782
O O11 0.291414 0.000000 0.596603
O O12 0.082840 0.500000 0.367529
O O13 0.159330 0.751785 0.298760
O O14 0.000000 0.714469 0.500000
O O15 0.035791 0.000000 0.785619
O O16 0.699889 0.500000 0.312403
#
# Coordination Sequence:
#
# PCOD8085740 Si02
#       6
#     8   8   8   8   8   8
#     4   9  19  37  58  76  97 128 164 204 255 311
#     4  10  19  31  48  67  97 141 175 196 232 294
#     4   9  17  31  47  66  98 138 170 197 237 296
#     4  10  19  33  50  68  99 143 178 200 233 291
#     4  10  20  31  48  75 103 127 160 210 257 291
#     4  10  19  30  49  77 102 126 164 213 252 284
#
# _framework density 17.197234000000002
#
# number of rings (size 3 to 8) (size 9 to 14) (size 15 to 20)
#    0.000    2.333    1.667    1.500    0.000    3.333 
#    0.000    0.000    0.000    1.000    0.000    0.000 
#    0.000    0.000    0.000    0.000    0.000    0.000 
#
# Total GULP energy -297611.295235 kJ/mol
# GULP energy per Si atom -12400.470635 kJ/mol
# Density = 1.715809 g / cm^3
# Si number density = 17.197234 Si / 1000 Ang^3
#
#
#
# Elastic Constant Matrix: (Units=GPa)
#
#
# Indices 1 2 3 4 5 6 
#
# 1 114.6334 66.4339 51.4222 -0.0001 19.5898 0.0001
# 2 66.4339 91.0708 51.8351 -0.0002 13.4336 0.0004
# 3 51.4222 51.8351 81.6581 0.0000 12.9664 0.0001
# 4 -0.0001 -0.0002 0.0000 21.9603 0.0001 1.6840
# 5 19.5898 13.4336 12.9664 0.0001 19.0266 -0.0001
# 6 0.0001 0.0004 0.0001 1.6840 -0.0001 33.7313
#
#
#
# Elastic Compliance Matrix: (Units=1/GPa)
#
#
# Indices 1 2 3 4 5 6 
#
# 1 0.017140 -0.009177 -0.003583 0.000000 -0.008727 0.000000
# 2 -0.009177 0.022590 -0.008442 0.000000 -0.000748 0.000000
# 3 -0.003583 -0.008442 0.020553 0.000000 -0.004358 0.000000
# 4 0.000000 0.000000 0.000000 0.045712 0.000000 -0.002282
# 5 -0.008727 -0.000748 -0.004358 0.000000 0.065041 0.000000
# 6 0.000000 0.000000 0.000000 -0.002282 0.000000 0.029760
#
#
# Mechanical properties :
#
#
# Convention : Reuss Voigt Hill
#
# Bulk Modulus (GPa) = 55.92792 69.63830 62.78311
# Shear Modulus (GPa) = 20.06748 22.78838 21.42793
#
# Velocity S-wave (km/s) = 3.41970 3.64417 3.53372
# Velocity P-wave (km/s) = 6.94151 7.63468 7.29633
#
# Compressibility (1/GPa) = 0.01788016
#
# Stress axis : x y z
#
# Youngs Moduli (GPa) = 58.34225 44.26694 48.65476
#
# Poissons Ratio (x) = 0.40624 0.17431
# Poissons Ratio (y) = 0.53541 0.41075
# Poissons Ratio (z) = 0.20901 0.37371
#
# Static dielectric constant tensor:
#      x y z
#    x 3.153670 0.000000 -0.070620 
#    y 0.000000 3.259870 0.000000 
#    z -0.070620 0.000000 2.946450 
# 
# 
# High freq. dielectric constant tensor:
#      x y z
#    x 1.660380 0.000000 0.002180 
#    y 0.000000 1.669500 0.000000 
#    z 0.002180 0.000000 1.628290 
# 
# From -- ./inp_files/172955.got.cif
#   From: 2010.06.25/outbox.cif.g09.slc.cpg/sg12_87_cif.got.tgz:172955.got - 2010.06.28 00:19:55.
