data_PCOD8085846
_publ_section_title
;
Structure prediction by ZEFSAII (Michael W. Deem and Ramdas Pophale) SiO2 
 PCOD8085846
Probable space group: C 2/M
;
_chemical_formula_sum "Si O2"
_cell_formula_units_Z 64
_cell_length_a 24.884347
_cell_length_b 8.515650
_cell_length_c 23.948729
_cell_angle_alpha 90.000000
_cell_angle_beta 46.547357
_cell_angle_gamma 90.000000
_cell_volume 3684.080294
_symmetry_space_group_name_H-M "C 2/M"
_symmetry_group_IT_number 12
_symmetry_cell_setting 'monoclinic'
loop_
_space_group_symop_operation_xyz
x,y,z
-x,y,-z
-x,-y,-z
x,-y,z
1/2+x,1/2+y,z
1/2-x,1/2+y,-z
1/2-x,1/2-y,-z
1/2+x,1/2-y,z
loop_
_atom_site_type_symbol
_atom_site_label
_atom_site_fract_x
_atom_site_fract_y
_atom_site_fract_z
Si Si1 0.319396 0.685876 0.680748
Si Si2 0.598334 0.815912 0.576573
Si Si3 0.120399 0.182215 0.678650
Si Si4 0.436826 0.827300 0.998882
Si Si5 0.278870 0.683755 0.585859
Si Si6 0.668411 0.187423 0.837154
Si Si7 0.450814 0.187759 0.167189
Si Si8 0.475987 0.185576 0.577128
O O1 0.323360 0.500000 0.679592
O O2 0.305809 0.743250 0.627172
O O3 0.252175 0.746939 0.768056
O O4 0.394348 0.757242 0.651722
O O5 0.589393 0.720471 0.639816
O O6 0.677467 0.780742 0.492161
O O7 0.533320 0.754075 0.582518
O O8 0.592135 0.000000 0.593337
O O9 0.192240 0.285901 0.640467
O O10 0.055828 0.229101 0.768255
O O11 0.140397 0.000000 0.669096
O O12 0.473882 0.747437 0.917479
O O13 0.410841 0.000000 0.998729
O O14 0.500000 0.842926 0.000000
O O15 0.366531 0.741846 0.079642
O O16 0.294274 0.500000 0.566837
O O17 0.620279 0.240512 0.818287
O O18 0.664694 0.000000 0.843604
O O19 0.453839 0.000000 0.171598
O O20 0.500000 0.256925 0.500000
O O21 0.476986 0.000000 0.573521
#
# Coordination Sequence:
#
# PCOD8085846 Si02
#       8
#     8   8   8   8   8   8   8   8
#     4  10  19  30  51  77 102 131 163 202 242 288
#     4  11  23  39  55  70  94 130 168 210 250 293
#     4  12  24  35  49  72 102 135 168 205 245 293
#     4   7  11  20  42  70  97 128 161 197 233 281
#     4  11  21  35  53  75 101 131 166 203 243 292
#     4   8  13  25  44  73 103 128 162 199 238 286
#     4   9  15  28  48  71  99 132 167 199 237 288
#     4  10  21  37  54  72  95 125 164 207 252 296
#
# _framework density 17.372043999999999
#
# number of rings (size 3 to 8) (size 9 to 14) (size 15 to 20)
#    0.000    2.250    2.500    3.750    0.000    1.750 
#    0.000    0.000    0.000    4.125    0.000    0.875 
#    0.000    0.000    0.000    0.000    0.000    0.000 
#
# Total GULP energy -396618.196887 kJ/mol
# GULP energy per Si atom -12394.318653 kJ/mol
# Density = 1.733250 g / cm^3
# Si number density = 17.372044 Si / 1000 Ang^3
#
#
#
# Elastic Constant Matrix: (Units=GPa)
#
#
# Indices 1 2 3 4 5 6 
#
# 1 67.8432 13.5087 48.2666 0.0000 2.6804 -0.0011
# 2 13.5087 26.2137 14.4046 -0.0013 1.8478 -0.0008
# 3 48.2666 14.4046 156.3179 0.0011 2.1069 0.0001
# 4 0.0000 -0.0013 0.0011 18.3374 -0.0008 -1.1471
# 5 2.6804 1.8478 2.1069 -0.0008 20.1813 0.0000
# 6 -0.0011 -0.0008 0.0001 -1.1471 0.0000 16.6788
#
#
#
# Elastic Compliance Matrix: (Units=1/GPa)
#
#
# Indices 1 2 3 4 5 6 
#
# 1 0.020186 -0.007254 -0.005545 0.000000 -0.001438 0.000001
# 2 -0.007254 0.043010 -0.001686 0.000003 -0.002799 0.000002
# 3 -0.005545 -0.001686 0.008264 -0.000001 0.000028 -0.000001
# 4 0.000000 0.000003 -0.000001 0.054769 0.000002 0.003767
# 5 -0.001438 -0.002799 0.000028 0.000002 0.049995 0.000000
# 6 0.000001 0.000002 -0.000001 0.003767 0.000000 0.060215
#
#
# Mechanical properties :
#
#
# Convention : Reuss Voigt Hill
#
# Bulk Modulus (GPa) = 23.53467 44.74830 34.14149
# Shear Modulus (GPa) = 17.88440 22.65249 20.26845
#
# Velocity S-wave (km/s) = 3.21205 3.61496 3.41945
# Velocity P-wave (km/s) = 5.22812 6.57561 5.94020
#
# Compressibility (1/GPa) = 0.04249050
#
# Stress axis : x y z
#
# Youngs Moduli (GPa) = 49.53901 23.25044 121.00170
#
# Poissons Ratio (x) = 0.16866 0.67096
# Poissons Ratio (y) = 0.35936 0.20398
# Poissons Ratio (z) = 0.27470 0.03919
#
# Static dielectric constant tensor:
#      x y z
#    x 3.048150 0.000000 -0.034410 
#    y 0.000000 2.899040 0.000010 
#    z -0.034410 0.000010 3.703960 
# 
# 
# High freq. dielectric constant tensor:
#      x y z
#    x 1.628440 0.000000 -0.001540 
#    y 0.000000 1.645230 0.000000 
#    z -0.001540 0.000000 1.687360 
# 
# From -- ./inp_files/348530.got.cif
#   From: 2010.06.25/outbox.cif.g09.slc.cpg/sg12_175_cif.got.tgz:348530.got - 2010.06.28 00:19:55.
