data_PCOD8085828
_publ_section_title
;
Structure prediction by ZEFSAII (Michael W. Deem and Ramdas Pophale) SiO2 
 PCOD8085828
Probable space group: C 2/M
;
_chemical_formula_sum "Si O2"
_cell_formula_units_Z 56
_cell_length_a 26.067310
_cell_length_b 9.307103
_cell_length_c 13.046408
_cell_angle_alpha 90.000000
_cell_angle_beta 67.020765
_cell_angle_gamma 90.000000
_cell_volume 2914.033584
_symmetry_space_group_name_H-M "C 2/M"
_symmetry_group_IT_number 12
_symmetry_cell_setting 'monoclinic'
loop_
_space_group_symop_operation_xyz
x,y,z
-x,y,-z
-x,-y,-z
x,-y,z
1/2+x,1/2+y,z
1/2-x,1/2+y,-z
1/2-x,1/2-y,-z
1/2+x,1/2-y,z
loop_
_atom_site_type_symbol
_atom_site_label
_atom_site_fract_x
_atom_site_fract_y
_atom_site_fract_z
Si Si1 0.600804 0.663922 0.868309
Si Si2 0.906957 0.164918 0.892413
Si Si3 0.703865 0.166001 0.330124
Si Si4 0.027253 0.832740 0.736480
Si Si5 0.691042 0.167851 0.693760
Si Si6 0.115903 0.664169 0.559500
Si Si7 0.699925 0.169643 0.094902
O O1 0.618930 0.500000 0.832969
O O2 0.553320 0.713597 0.825600
O O3 0.655522 0.762079 0.813591
O O4 0.577236 0.681619 0.000642
O O5 0.858278 0.273311 0.902159
O O6 0.962107 0.208914 0.785931
O O7 0.889202 0.000000 0.882934
O O8 0.748082 0.263283 0.355043
O O9 0.643231 0.196940 0.427550
O O10 0.702110 0.206906 0.212826
O O11 0.720203 0.000000 0.334282
O O12 0.059482 0.754841 0.618535
O O13 0.034783 0.000000 0.712445
O O14 0.661824 0.203941 0.609069
O O15 0.696563 0.000000 0.710568
O O16 0.097728 0.500000 0.584134
O O17 0.704615 0.000000 0.070773
O O18 0.750000 0.250000 0.000000
#
# Coordination Sequence:
#
# PCOD8085828 Si02
#       7
#     8   8   8   8   8   8   8
#     4   9  17  31  52  77 107 141 171 202 250 312
#     4  10  20  35  55  78 105 138 174 212 254 301
#     4  10  21  37  54  72 100 140 178 209 251 309
#     4   9  18  33  54  80 107 135 170 210 253 304
#     4  10  19  30  50  81 109 132 165 213 262 303
#     4   9  19  35  53  76 106 136 169 210 255 306
#     4  11  24  40  57  77 102 135 174 214 255 301
#
# _framework density 19.217348999999999
#
# number of rings (size 3 to 8) (size 9 to 14) (size 15 to 20)
#    0.000    2.286    0.000    2.571    0.000    8.571 
#    0.000    0.714    0.000    8.571    0.000    0.000 
#    0.000    0.000    0.000    0.000    0.000    0.000 
#
# Total GULP energy -347240.344452 kJ/mol
# GULP energy per Si atom -12401.440873 kJ/mol
# Density = 1.917361 g / cm^3
# Si number density = 19.217349 Si / 1000 Ang^3
#
#
#
# Elastic Constant Matrix: (Units=GPa)
#
#
# Indices 1 2 3 4 5 6 
#
# 1 96.2916 51.7036 47.7676 0.0000 -25.1804 0.0000
# 2 51.7036 78.8222 52.9715 0.0000 -14.9616 0.0000
# 3 47.7676 52.9715 122.1602 0.0000 -25.1046 0.0000
# 4 0.0000 0.0000 0.0000 29.5799 0.0000 -6.6693
# 5 -25.1804 -14.9616 -25.1046 0.0000 26.8559 0.0000
# 6 0.0000 0.0000 0.0000 -6.6693 0.0000 32.4923
#
#
#
# Elastic Compliance Matrix: (Units=1/GPa)
#
#
# Indices 1 2 3 4 5 6 
#
# 1 0.019086 -0.009737 -0.000839 0.000000 0.011686 0.000000
# 2 -0.009737 0.023121 -0.006743 0.000000 -0.002552 0.000000
# 3 -0.000839 -0.006743 0.013002 0.000000 0.007611 0.000000
# 4 0.000000 0.000000 0.000000 0.035447 0.000000 0.007276
# 5 0.011686 -0.002552 0.007611 0.000000 0.053886 0.000000
# 6 0.000000 0.000000 0.000000 0.007276 0.000000 0.032270
#
#
# Mechanical properties :
#
#
# Convention : Reuss Voigt Hill
#
# Bulk Modulus (GPa) = 48.61359 66.90661 57.76010
# Shear Modulus (GPa) = 22.90360 27.44103 25.17232
#
# Velocity S-wave (km/s) = 3.45602 3.78290 3.62315
# Velocity P-wave (km/s) = 6.42472 7.34654 6.90104
#
# Compressibility (1/GPa) = 0.02057038
#
# Stress axis : x y z
#
# Youngs Moduli (GPa) = 52.39537 43.25095 76.91116
#
# Poissons Ratio (x) = 0.42114 0.06454
# Poissons Ratio (y) = 0.51018 0.51859
# Poissons Ratio (z) = 0.04397 0.29163
#
# Static dielectric constant tensor:
#      x y z
#    x 3.373620 0.000000 -0.153620 
#    y 0.000000 3.520640 0.000000 
#    z -0.153620 0.000000 3.610840 
# 
# 
# High freq. dielectric constant tensor:
#      x y z
#    x 1.733470 0.000000 -0.016050 
#    y 0.000000 1.744830 0.000000 
#    z -0.016050 0.000000 1.748910 
# 
# From -- ./inp_files/180774.got.cif
#   From: 2010.06.25/outbox.cif.g09.slc.cpg/sg12_91_cif.got.tgz:180774.got - 2010.06.28 00:19:55.
