data_PCOD8085487
_publ_section_title
;
Structure prediction by ZEFSAII (Michael W. Deem and Ramdas Pophale) SiO2 
 PCOD8085487
Probable space group: C 2/M
;
_chemical_formula_sum "Si O2"
_cell_formula_units_Z 56
_cell_length_a 16.991708
_cell_length_b 12.997923
_cell_length_c 26.540498
_cell_angle_alpha 90.000000
_cell_angle_beta 146.121588
_cell_angle_gamma 90.000000
_cell_volume 3267.474611
_symmetry_space_group_name_H-M "C 2/M"
_symmetry_group_IT_number 12
_symmetry_cell_setting 'monoclinic'
loop_
_space_group_symop_operation_xyz
x,y,z
-x,y,-z
-x,-y,-z
x,-y,z
1/2+x,1/2+y,z
1/2-x,1/2+y,-z
1/2-x,1/2-y,-z
1/2+x,1/2-y,z
loop_
_atom_site_type_symbol
_atom_site_label
_atom_site_fract_x
_atom_site_fract_y
_atom_site_fract_z
Si Si1 0.501263 0.620898 0.078589
Si Si2 0.013040 0.254655 0.282022
Si Si3 0.095882 0.119032 0.234870
Si Si4 0.788902 0.882835 0.414247
Si Si5 0.271323 0.378703 0.880445
Si Si6 0.099967 0.702122 0.594400
Si Si7 0.904374 0.789374 0.568733
O O1 0.522221 0.500000 0.092537
O O2 0.524302 0.667361 0.146555
O O3 0.623497 0.661828 0.106832
O O4 0.346225 0.646543 0.974052
O O5 0.867995 0.313449 0.199179
O O6 0.025292 0.174074 0.244092
O O7 0.133706 0.341108 0.344444
O O8 0.021243 0.186828 0.338157
O O9 0.264157 0.133637 0.322255
O O10 0.060586 0.000000 0.221412
O O11 0.856135 0.813873 0.405480
O O12 0.882896 0.879911 0.515918
O O13 0.781646 0.000000 0.391243
O O14 0.238127 0.500000 0.858376
O O15 0.000000 0.646029 0.500000
O O16 0.008655 0.707776 0.597038
O O17 0.750000 0.750000 0.500000
#
# Coordination Sequence:
#
# PCOD8085487 Si02
#       7
#     8   8   8   8   8   8   8
#     4   8  16  30  48  71  95 121 152 187 231 278
#     4  10  19  30  47  71  96 122 153 188 229 277
#     4  10  20  33  46  64  95 128 156 188 228 275
#     4   9  18  32  49  68  92 122 154 190 230 268
#     4   9  16  29  51  75  95 115 149 195 234 270
#     4   9  18  32  49  67  88 120 159 194 226 269
#     4   9  18  31  44  64  93 117 147 188 225 266
#
# _framework density 17.138617
#
# number of rings (size 3 to 8) (size 9 to 14) (size 15 to 20)
#    0.000    2.857    0.000    3.000    0.000    4.000 
#    0.000    2.857    0.000    0.857    0.000    2.000 
#    0.000    0.000    0.000    0.000    0.000    0.000 
#
# Total GULP energy -346874.368876 kJ/mol
# GULP energy per Si atom -12388.370317 kJ/mol
# Density = 1.709961 g / cm^3
# Si number density = 17.138617 Si / 1000 Ang^3
#
#
#
# Elastic Constant Matrix: (Units=GPa)
#
#
# Indices 1 2 3 4 5 6 
#
# 1 102.9007 20.1123 54.9710 0.0001 -10.9550 0.0000
# 2 20.1123 51.5381 32.3333 0.0001 -3.8378 0.0000
# 3 54.9710 32.3333 132.9678 0.0003 -13.7821 0.0000
# 4 0.0001 0.0001 0.0003 22.1524 0.0001 3.1536
# 5 -10.9550 -3.8378 -13.7821 0.0001 38.1795 0.0000
# 6 0.0000 0.0000 0.0000 3.1536 0.0000 14.1749
#
#
#
# Elastic Compliance Matrix: (Units=1/GPa)
#
#
# Indices 1 2 3 4 5 6 
#
# 1 0.012755 -0.001950 -0.004612 0.000000 0.001799 0.000000
# 2 -0.001950 0.023197 -0.004832 0.000000 0.000028 0.000000
# 3 -0.004612 -0.004832 0.010820 0.000000 0.002097 0.000000
# 4 0.000000 0.000000 0.000000 0.046618 0.000000 -0.010371
# 5 0.001799 0.000028 0.002097 0.000000 0.027468 0.000000
# 6 0.000000 0.000000 0.000000 -0.010371 0.000000 0.072855
#
#
# Mechanical properties :
#
#
# Convention : Reuss Voigt Hill
#
# Bulk Modulus (GPa) = 41.69492 55.80443 48.74967
# Shear Modulus (GPa) = 22.27219 26.90071 24.58645
#
# Velocity S-wave (km/s) = 3.60881 3.96611 3.79167
# Velocity P-wave (km/s) = 6.46108 7.32152 6.90472
#
# Compressibility (1/GPa) = 0.02398374
#
# Stress axis : x y z
#
# Youngs Moduli (GPa) = 78.40222 43.10823 92.42376
#
# Poissons Ratio (x) = 0.08405 0.42630
# Poissons Ratio (y) = 0.15287 0.44658
# Poissons Ratio (z) = 0.36163 0.20829
#
# Static dielectric constant tensor:
#      x y z
#    x 3.427090 0.000000 -0.264910 
#    y 0.000000 2.741620 0.000000 
#    z -0.264910 0.000000 3.574270 
# 
# 
# High freq. dielectric constant tensor:
#      x y z
#    x 1.670450 0.000000 -0.004520 
#    y 0.000000 1.614300 0.000000 
#    z -0.004520 0.000000 1.673650 
# 
# From -- ./inp_files/339945.got.cif
#   From: 2010.06.25/outbox.cif.g09.slc.cpg/sg12_170_cif.got.tgz:339945.got - 2010.06.28 00:19:55.
