data_PCOD8085186
_publ_section_title
;
Structure prediction by ZEFSAII (Michael W. Deem and Ramdas Pophale) SiO2 
 PCOD8085186
Probable space group: C 2/M
;
_chemical_formula_sum "Si O2"
_cell_formula_units_Z 56
_cell_length_a 27.521613
_cell_length_b 8.861253
_cell_length_c 14.457957
_cell_angle_alpha 90.000000
_cell_angle_beta 103.804086
_cell_angle_gamma 90.000000
_cell_volume 3424.109344
_symmetry_space_group_name_H-M "C 2/M"
_symmetry_group_IT_number 12
_symmetry_cell_setting 'monoclinic'
loop_
_space_group_symop_operation_xyz
x,y,z
-x,y,-z
-x,-y,-z
x,-y,z
1/2+x,1/2+y,z
1/2-x,1/2+y,-z
1/2-x,1/2-y,-z
1/2+x,1/2-y,z
loop_
_atom_site_type_symbol
_atom_site_label
_atom_site_fract_x
_atom_site_fract_y
_atom_site_fract_z
Si Si1 0.317260 0.176926 0.597650
Si Si2 0.182716 0.320952 0.779266
Si Si3 0.211237 0.178274 0.108244
Si Si4 0.630890 0.678012 0.218579
Si Si5 0.636677 0.320987 0.922565
Si Si6 0.444364 0.320852 0.968491
Si Si7 0.705552 0.322682 0.599807
O O1 0.363231 0.232761 0.682517
O O2 0.322917 0.261895 0.503179
O O3 0.264224 0.220699 0.620728
O O4 0.321273 0.000000 0.581582
O O5 0.180725 0.500000 0.772545
O O6 0.233371 0.257661 0.850655
O O7 0.137406 0.259454 0.822679
O O8 0.179184 0.255336 0.675082
O O9 0.177041 0.232688 0.177119
O O10 0.211940 0.000000 0.108761
O O11 0.186555 0.232909 0.000890
O O12 0.631898 0.500000 0.238905
O O13 0.580316 0.725920 0.141070
O O14 0.635353 0.500000 0.908335
O O15 0.588436 0.264559 0.958936
O O16 0.445977 0.500000 0.973962
O O17 0.500000 0.250740 0.000000
O O18 0.697699 0.500000 0.603797
#
# Coordination Sequence:
#
# PCOD8085186 Si02
#       7
#     8   8   8   8   8   8   8
#     4  10  19  30  44  65  91 120 155 192 227 266
#     4  11  19  28  42  62  91 123 155 187 223 266
#     4   8  15  26  40  59  86 121 153 183 216 256
#     4   9  15  27  47  67  91 121 154 189 226 268
#     4   9  17  29  44  63  89 119 154 189 223 267
#     4   8  15  29  50  73  93 117 152 193 231 268
#     4  10  20  31  44  62  88 124 160 191 222 261
#
# _framework density 16.354617999999999
#
# number of rings (size 3 to 8) (size 9 to 14) (size 15 to 20)
#    0.000    2.714    1.429    3.429    0.000    1.143 
#    0.000    3.571    0.000    1.714    0.000    1.000 
#    0.000    8.000    0.000    0.000    0.000    0.000 
#
# Total GULP energy -347052.628116 kJ/mol
# GULP energy per Si atom -12394.736718 kJ/mol
# Density = 1.631739 g / cm^3
# Si number density = 16.354618 Si / 1000 Ang^3
#
#
#
# Elastic Constant Matrix: (Units=GPa)
#
#
# Indices 1 2 3 4 5 6 
#
# 1 71.9393 23.0942 58.0399 0.0000 -0.1263 0.0000
# 2 23.0942 50.7042 39.1529 0.0000 -5.2671 0.0000
# 3 58.0399 39.1529 128.4465 0.0000 -10.8328 0.0000
# 4 0.0000 0.0000 0.0000 27.2418 0.0000 -4.0470
# 5 -0.1263 -5.2671 -10.8328 0.0000 21.5523 0.0000
# 6 0.0000 0.0000 0.0000 -4.0470 0.0000 12.8002
#
#
#
# Elastic Compliance Matrix: (Units=1/GPa)
#
#
# Indices 1 2 3 4 5 6 
#
# 1 0.022872 -0.003472 -0.009750 0.000000 -0.005615 0.000000
# 2 -0.003472 0.026445 -0.006212 0.000000 0.003320 0.000000
# 3 -0.009750 -0.006212 0.014569 0.000000 0.005748 0.000000
# 4 0.000000 0.000000 0.000000 0.038517 0.000000 0.012178
# 5 -0.005615 0.003320 0.005748 0.000000 0.050066 0.000000
# 6 0.000000 0.000000 0.000000 0.012178 0.000000 0.081974
#
#
# Mechanical properties :
#
#
# Convention : Reuss Voigt Hill
#
# Bulk Modulus (GPa) = 39.97102 54.62933 47.30017
# Shear Modulus (GPa) = 17.75243 21.03906 19.39575
#
# Velocity S-wave (km/s) = 3.29822 3.59057 3.44750
# Velocity P-wave (km/s) = 6.24481 7.11795 6.69562
#
# Compressibility (1/GPa) = 0.02501813
#
# Stress axis : x y z
#
# Youngs Moduli (GPa) = 43.72250 37.81372 68.63704
#
# Poissons Ratio (x) = 0.13128 0.66922
# Poissons Ratio (y) = 0.15179 0.42640
# Poissons Ratio (z) = 0.42630 0.23491
#
# Static dielectric constant tensor:
#      x y z
#    x 3.064810 0.000000 0.057650 
#    y 0.000000 2.784520 0.000000 
#    z 0.057650 0.000000 3.188050 
# 
# 
# High freq. dielectric constant tensor:
#      x y z
#    x 1.585920 0.000000 -0.011330 
#    y 0.000000 1.612070 0.000000 
#    z -0.011330 0.000000 1.632420 
# 
# From -- ./inp_files/247929.got.cif
#   From: 2010.06.25/outbox.cif.g09.slc.cpg/sg12_124_cif.got.tgz:247929.got - 2010.06.28 00:19:55.
