data_PCOD8086739
_publ_section_title
;
Structure prediction by ZEFSAII (Michael W. Deem and Ramdas Pophale) SiO2 
 PCOD8086739
Probable space group: C 2/M
;
_chemical_formula_sum "Si O2"
_cell_formula_units_Z 64
_cell_length_a 21.541400
_cell_length_b 14.559217
_cell_length_c 10.840331
_cell_angle_alpha 90.000000
_cell_angle_beta 90.000026
_cell_angle_gamma 90.000000
_cell_volume 3399.808751
_symmetry_space_group_name_H-M "C 2/M"
_symmetry_group_IT_number 12
_symmetry_cell_setting 'monoclinic'
loop_
_space_group_symop_operation_xyz
x,y,z
-x,y,-z
-x,-y,-z
x,-y,z
1/2+x,1/2+y,z
1/2-x,1/2+y,-z
1/2-x,1/2-y,-z
1/2+x,1/2-y,z
loop_
_atom_site_type_symbol
_atom_site_label
_atom_site_fract_x
_atom_site_fract_y
_atom_site_fract_z
Si Si1 0.500000 0.103636 0.647701
Si Si2 0.866065 0.104002 0.252652
Si Si3 0.766029 0.396834 0.641459
Si Si4 0.930148 0.892675 0.000000
Si Si5 0.733971 0.103166 0.641458
Si Si6 0.116262 0.710061 0.358539
Si Si7 0.616262 0.210061 0.641461
Si Si8 0.133935 0.104002 0.252652
O O1 0.500000 0.108577 0.500000
O O2 0.440116 0.155138 0.704479
O O3 0.559884 0.155138 0.704479
O O4 0.500000 0.000000 0.696161
O O5 0.791837 0.109273 0.265347
O O6 0.894182 0.180577 0.343833
O O7 0.889019 0.000000 0.285979
O O8 0.889078 0.135417 0.117934
O O9 0.793698 0.500000 0.643950
O O10 0.745195 0.372471 0.500000
O O11 0.817505 0.325823 0.693525
O O12 0.889078 0.864584 0.882066
O O13 0.939932 0.000000 0.000001
O O14 0.000000 0.847867 0.000000
O O15 0.682495 0.174177 0.693525
O O16 0.791837 0.109273 0.734652
O O17 0.706302 0.000000 0.643949
O O18 0.116373 0.682674 0.500000
O O19 0.105818 0.819423 0.343833
O O20 0.110981 0.000000 0.285979
#
# Coordination Sequence:
#
# PCOD8086739 Si02
#       8
#     8   8   8   8   8   8   8   8
#     4   9  18  32  49  72 103 138 175 206 235 289
#     4  10  20  33  52  76 100 130 172 213 256 308
#     4   9  17  31  52  77 108 142 170 203 250 302
#     4   9  20  38  55  68  92 135 178 217 257 303
#     4   9  17  31  52  77 108 142 170 203 250 302
#     4  10  19  31  50  78 109 139 169 204 251 304
#     4  10  19  31  50  78 109 139 169 204 251 304
#     4  10  20  33  52  76 100 130 172 213 256 308
#
# _framework density 18.824589
#
# number of rings (size 3 to 8) (size 9 to 14) (size 15 to 20)
#    0.000    2.500    0.000    2.250    1.750    6.500 
#    0.000    2.500    0.000    2.250    0.000    3.500 
#    0.000    0.000    0.000    0.000    0.000    0.000 
#
# Total GULP energy -396504.580663 kJ/mol
# GULP energy per Si atom -12390.768146 kJ/mol
# Density = 1.878174 g / cm^3
# Si number density = 18.824589 Si / 1000 Ang^3
#
#
#
# Elastic Constant Matrix: (Units=GPa)
#
#
# Indices 1 2 3 4 5 6 
#
# 1 125.3080 49.1309 47.6922 0.0000 -13.1076 0.0000
# 2 49.1309 128.8229 13.0974 0.0000 -7.0177 0.0000
# 3 47.6922 13.0974 44.2096 0.0000 -2.6877 0.0000
# 4 0.0000 0.0000 0.0000 12.2276 0.0000 -3.0026
# 5 -13.1076 -7.0177 -2.6877 0.0000 7.1877 0.0000
# 6 0.0000 0.0000 0.0000 -3.0026 0.0000 27.6443
#
#
#
# Elastic Compliance Matrix: (Units=1/GPa)
#
#
# Indices 1 2 3 4 5 6 
#
# 1 0.018733 -0.004072 -0.017567 0.000000 0.023618 0.000000
# 2 -0.004072 0.009258 0.001789 0.000000 0.002282 0.000000
# 3 -0.017567 0.001789 0.040111 0.000000 -0.015290 0.000000
# 4 0.000000 0.000000 0.000000 0.084023 0.000000 0.009126
# 5 0.023618 0.002282 -0.015290 0.000000 0.178709 0.000000
# 6 0.000000 0.000000 0.000000 0.009126 0.000000 0.037165
#
#
# Mechanical properties :
#
#
# Convention : Reuss Voigt Hill
#
# Bulk Modulus (GPa) = 35.20892 57.57572 46.39232
# Shear Modulus (GPa) = 11.98560 21.97323 16.97941
#
# Velocity S-wave (km/s) = 2.52603 3.42023 3.00656
# Velocity P-wave (km/s) = 5.22035 6.80067 6.06222
#
# Compressibility (1/GPa) = 0.02840189
#
# Stress axis : x y z
#
# Youngs Moduli (GPa) = 53.38058 108.01422 24.93094
#
# Poissons Ratio (x) = 0.43983 0.43796
# Poissons Ratio (y) = 0.21736 -0.04459
# Poissons Ratio (z) = 0.93773 -0.19321
#
# Static dielectric constant tensor:
#      x y z
#    x 3.652410 0.000000 -0.101980 
#    y 0.000000 3.592020 0.000000 
#    z -0.101980 0.000000 3.128820 
# 
# 
# High freq. dielectric constant tensor:
#      x y z
#    x 1.734060 0.000000 -0.012330 
#    y 0.000000 1.741610 0.000000 
#    z -0.012330 0.000000 1.670730 
# 
# From -- ./inp_files/167255.got.cif
#   From: 2010.06.25/outbox.cif.g09.slc.cpg/sg12_84_cif.got.tgz:167255.got - 2010.06.28 00:19:55.
