data_PCOD8086518
_publ_section_title
;
Structure prediction by ZEFSAII (Michael W. Deem and Ramdas Pophale) SiO2 
 PCOD8086518
Probable space group: C 2/M
;
_chemical_formula_sum "Si O2"
_cell_formula_units_Z 56
_cell_length_a 24.329758
_cell_length_b 9.761506
_cell_length_c 13.562416
_cell_angle_alpha 90.000000
_cell_angle_beta 68.860977
_cell_angle_gamma 90.000000
_cell_volume 3004.259473
_symmetry_space_group_name_H-M "C 2/M"
_symmetry_group_IT_number 12
_symmetry_cell_setting 'monoclinic'
loop_
_space_group_symop_operation_xyz
x,y,z
-x,y,-z
-x,-y,-z
x,-y,z
1/2+x,1/2+y,z
1/2-x,1/2+y,-z
1/2-x,1/2-y,-z
1/2+x,1/2-y,z
loop_
_atom_site_type_symbol
_atom_site_label
_atom_site_fract_x
_atom_site_fract_y
_atom_site_fract_z
Si Si1 0.460409 0.653600 0.613467
Si Si2 0.298241 0.344729 0.417009
Si Si3 0.791527 0.343530 0.771775
Si Si4 0.663281 0.646980 0.407157
Si Si5 0.590722 0.840180 0.197499
Si Si6 0.836451 0.841242 0.177184
Si Si7 0.566384 0.159505 0.987587
O O1 0.500000 0.715413 0.500000
O O2 0.481956 0.500000 0.630358
O O3 0.395995 0.647268 0.613414
O O4 0.457765 0.755204 0.708653
O O5 0.274398 0.500000 0.417763
O O6 0.250000 0.250000 0.500000
O O7 0.349713 0.337889 0.467364
O O8 0.324101 0.291877 0.297170
O O9 0.802253 0.500000 0.737494
O O10 0.795768 0.265611 0.664302
O O11 0.841119 0.297901 0.819669
O O12 0.723525 0.320712 0.850314
O O13 0.695319 0.500000 0.368444
O O14 0.578414 0.802862 0.092973
O O15 0.580020 0.000000 0.225598
O O16 0.856233 0.000000 0.160990
O O17 0.888893 0.748157 0.105059
O O18 0.578743 0.000000 0.959075
O O19 0.500000 0.198679 0.000000
#
# Coordination Sequence:
#
# PCOD8086518 Si02
#       7
#     8   8   8   8   8   8   8
#     4   9  18  32  51  78 108 137 173 216 261 312
#     4  10  19  31  49  76 110 142 172 209 257 314
#     4   9  17  32  53  79 108 133 166 215 268 320
#     4   9  17  29  47  73 106 141 172 207 254 310
#     4   9  19  36  57  77 103 140 177 220 270 316
#     4  10  21  35  54  82 111 140 178 223 270 321
#     4  10  23  42  58  75 104 142 186 230 267 314
#
# _framework density 18.640201999999999
#
# number of rings (size 3 to 8) (size 9 to 14) (size 15 to 20)
#    0.000    2.571    1.429    0.000    0.000    4.000 
#    0.000    1.429    0.000    0.000    0.000    0.000 
#    0.000    0.000    0.000    0.000    0.000    0.000 
#
# Total GULP energy -346875.856055 kJ/mol
# GULP energy per Si atom -12388.423431 kJ/mol
# Density = 1.859778 g / cm^3
# Si number density = 18.640202 Si / 1000 Ang^3
#
#
#
# Elastic Constant Matrix: (Units=GPa)
#
#
# Indices 1 2 3 4 5 6 
#
# 1 82.5258 43.3975 67.1355 0.0000 3.2618 0.0000
# 2 43.3975 78.1680 74.1943 0.0000 -9.8641 0.0000
# 3 67.1355 74.1943 145.2673 0.0000 -3.1622 0.0000
# 4 0.0000 0.0000 0.0000 35.7826 0.0000 -5.5515
# 5 3.2618 -9.8641 -3.1622 0.0000 30.2712 0.0000
# 6 0.0000 0.0000 0.0000 -5.5515 0.0000 23.0091
#
#
#
# Elastic Compliance Matrix: (Units=1/GPa)
#
#
# Indices 1 2 3 4 5 6 
#
# 1 0.020870 -0.005708 -0.006835 0.000000 -0.004823 0.000000
# 2 -0.005708 0.027862 -0.011408 0.000000 0.008503 0.000000
# 3 -0.006835 -0.011408 0.015840 0.000000 -0.001326 0.000000
# 4 0.000000 0.000000 0.000000 0.029033 0.000000 0.007005
# 5 -0.004823 0.008503 -0.001326 0.000000 0.036186 0.000000
# 6 0.000000 0.000000 0.000000 0.007005 0.000000 0.045151
#
#
# Mechanical properties :
#
#
# Convention : Reuss Voigt Hill
#
# Bulk Modulus (GPa) = 59.98102 75.04617 67.51360
# Shear Modulus (GPa) = 21.89136 25.89484 23.89310
#
# Velocity S-wave (km/s) = 3.43069 3.73123 3.58411
# Velocity P-wave (km/s) = 6.92395 7.67532 7.30930
#
# Compressibility (1/GPa) = 0.01667194
#
# Stress axis : x y z
#
# Youngs Moduli (GPa) = 47.91643 35.89054 63.13122
#
# Poissons Ratio (x) = 0.20486 0.43148
# Poissons Ratio (y) = 0.27350 0.72018
# Poissons Ratio (z) = 0.32749 0.40943
#
# Static dielectric constant tensor:
#      x y z
#    x 3.430060 0.000000 0.467350 
#    y 0.000000 3.931850 0.000000 
#    z 0.467350 0.000000 3.136300 
# 
# 
# High freq. dielectric constant tensor:
#      x y z
#    x 1.724030 0.000000 0.016120 
#    y 0.000000 1.724070 0.000000 
#    z 0.016120 0.000000 1.707780 
# 
# From -- ./inp_files/237329.got.cif
#   From: 2010.06.25/outbox.cif.g09.slc.cpg/sg12_119_cif.got.tgz:237329.got - 2010.06.28 00:19:55.
