data_PCOD8086126
_publ_section_title
;
Structure prediction by ZEFSAII (Michael W. Deem and Ramdas Pophale) SiO2 
 PCOD8086126
Probable space group: C 2/M
;
_chemical_formula_sum "Si O2"
_cell_formula_units_Z 64
_cell_length_a 5.291617
_cell_length_b 28.197672
_cell_length_c 22.177859
_cell_angle_alpha 90.000000
_cell_angle_beta 76.793949
_cell_angle_gamma 90.000000
_cell_volume 3221.674574
_symmetry_space_group_name_H-M "C 2/M"
_symmetry_group_IT_number 12
_symmetry_cell_setting 'monoclinic'
loop_
_space_group_symop_operation_xyz
x,y,z
-x,y,-z
-x,-y,-z
x,-y,z
1/2+x,1/2+y,z
1/2-x,1/2+y,-z
1/2-x,1/2-y,-z
1/2+x,1/2-y,z
loop_
_atom_site_type_symbol
_atom_site_label
_atom_site_fract_x
_atom_site_fract_y
_atom_site_fract_z
Si Si1 0.783413 0.869899 0.961402
Si Si2 0.775385 0.198079 0.473498
Si Si3 0.569533 0.145708 0.710578
Si Si4 0.599512 0.446273 0.140344
Si Si5 0.120105 0.809208 0.668947
Si Si6 0.368117 0.770327 0.071173
Si Si7 0.495435 0.234437 0.782280
Si Si8 0.022651 0.446083 0.217456
O O1 0.742965 0.823528 0.922410
O O2 0.896964 0.912815 0.917209
O O3 0.500000 0.885535 0.000000
O O4 0.000000 0.858319 0.000000
O O5 0.500000 0.170996 0.500000
O O6 0.750000 0.250000 0.500000
O O7 0.851383 0.207765 0.400449
O O8 0.000000 0.170924 0.500000
O O9 0.375568 0.158752 0.666976
O O10 0.470055 0.178616 0.771811
O O11 0.548438 0.090058 0.725480
O O12 0.868787 0.157336 0.683568
O O13 0.624315 0.500000 0.115679
O O14 0.839495 0.433751 0.170802
O O15 0.324709 0.438536 0.187456
O O16 0.098880 0.764455 0.716717
O O17 0.620994 0.764307 0.101470
O O18 0.500000 0.755944 0.000000
O O19 0.223025 0.257187 0.819191
O O20 0.968865 0.500000 0.242051
#
# Coordination Sequence:
#
# PCOD8086126 Si02
#       8
#     8   8   8   8   8   8   8   8
#     4  11  21  33  55  85 111 141 179 212 253 315
#     4  10  21  27  43  67 110 156 177 206 247 295
#     4  10  19  31  54  72  96 132 178 226 257 305
#     4  10  22  39  58  78 109 140 164 212 279 339
#     4  10  19  31  47  75 108 143 178 206 259 310
#     4   9  16  28  47  71 101 134 173 210 242 276
#     4   8  16  25  44  64  96 130 165 198 246 298
#     4  10  21  39  59  79 100 132 177 225 284 323
#
# _framework density 19.865444
#
# number of rings (size 3 to 8) (size 9 to 14) (size 15 to 20)
#    0.000    2.250    0.000    4.125   10.500    0.500 
#    0.000    0.000    0.000   13.500    0.000    0.000 
#    0.000   10.000    0.000    0.000    0.000    0.000 
#
# Total GULP energy -396578.726321 kJ/mol
# GULP energy per Si atom -12393.085198 kJ/mol
# Density = 1.982023 g / cm^3
# Si number density = 19.865444 Si / 1000 Ang^3
#
#
#
# Elastic Constant Matrix: (Units=GPa)
#
#
# Indices 1 2 3 4 5 6 
#
# 1 152.8032 29.4150 20.6267 0.0000 10.8386 0.0000
# 2 29.4150 104.3616 32.6937 0.0000 6.3483 0.0000
# 3 20.6267 32.6937 47.1563 0.0000 8.7704 0.0000
# 4 0.0000 0.0000 0.0000 20.1535 0.0000 -4.3287
# 5 10.8386 6.3483 8.7704 0.0000 29.5150 0.0000
# 6 0.0000 0.0000 0.0000 -4.3287 0.0000 22.3550
#
#
#
# Elastic Compliance Matrix: (Units=1/GPa)
#
#
# Indices 1 2 3 4 5 6 
#
# 1 0.007181 -0.001323 -0.001891 0.000000 -0.001791 0.000000
# 2 -0.001323 0.012485 -0.008117 0.000000 0.000212 0.000000
# 3 -0.001891 -0.008117 0.028798 0.000000 -0.006117 0.000000
# 4 0.000000 0.000000 0.000000 0.051772 0.000000 0.010025
# 5 -0.001791 0.000212 -0.006117 0.000000 0.036311 0.000000
# 6 0.000000 0.000000 0.000000 0.010025 0.000000 0.046674
#
#
# Mechanical properties :
#
#
# Convention : Reuss Voigt Hill
#
# Bulk Modulus (GPa) = 38.75460 52.19911 45.47685
# Shear Modulus (GPa) = 23.31185 29.17708 26.24447
#
# Velocity S-wave (km/s) = 3.42934 3.83657 3.63865
# Velocity P-wave (km/s) = 5.93560 6.77931 6.37144
#
# Compressibility (1/GPa) = 0.02580339
#
# Stress axis : x y z
#
# Youngs Moduli (GPa) = 139.25078 80.09800 34.72432
#
# Poissons Ratio (x) = 0.10595 0.06567
# Poissons Ratio (y) = 0.18419 0.28184
# Poissons Ratio (z) = 0.26333 0.65012
#
# Static dielectric constant tensor:
#      x y z
#    x 4.138390 0.000000 -0.005640 
#    y 0.000000 3.377030 0.000000 
#    z -0.005640 0.000000 3.472050 
# 
# 
# High freq. dielectric constant tensor:
#      x y z
#    x 1.828820 0.000000 -0.001710 
#    y 0.000000 1.736540 0.000000 
#    z -0.001710 0.000000 1.756600 
# 
# From -- ./inp_files/331443.got.cif
#   From: 2010.06.25/outbox.cif.g09.slc.cpg/sg12_166_cif.got.tgz:331443.got - 2010.06.28 00:19:55.
