data_PCOD8086688
_publ_section_title
;
Structure prediction by ZEFSAII (Michael W. Deem and Ramdas Pophale) SiO2 
 PCOD8086688
Probable space group: C 2/M
;
_chemical_formula_sum "Si O2"
_cell_formula_units_Z 48
_cell_length_a 20.298966
_cell_length_b 8.701415
_cell_length_c 19.880821
_cell_angle_alpha 90.000000
_cell_angle_beta 48.373340
_cell_angle_gamma 90.000000
_cell_volume 2624.840792
_symmetry_space_group_name_H-M "C 2/M"
_symmetry_group_IT_number 12
_symmetry_cell_setting 'monoclinic'
loop_
_space_group_symop_operation_xyz
x,y,z
-x,y,-z
-x,-y,-z
x,-y,z
1/2+x,1/2+y,z
1/2-x,1/2+y,-z
1/2-x,1/2-y,-z
1/2+x,1/2-y,z
loop_
_atom_site_type_symbol
_atom_site_label
_atom_site_fract_x
_atom_site_fract_y
_atom_site_fract_z
Si Si1 0.101716 0.678051 0.946623
Si Si2 0.655005 0.317279 0.776220
Si Si3 0.510441 0.819434 0.778146
Si Si4 0.386169 0.669854 0.402967
Si Si5 0.282154 0.829771 0.578094
Si Si6 0.344395 0.318550 0.951339
O O1 0.120711 0.500000 0.949418
O O2 0.160118 0.732347 0.843909
O O3 0.128442 0.780946 0.991206
O O4 0.000000 0.707739 0.000000
O O5 0.650104 0.500000 0.788752
O O6 0.568656 0.265776 0.794439
O O7 0.743544 0.268306 0.675268
O O8 0.542908 0.781103 0.680557
O O9 0.411140 0.760478 0.853544
O O10 0.516269 0.000000 0.787367
O O11 0.427304 0.500000 0.380598
O O12 0.361370 0.726343 0.495078
O O13 0.298268 0.666533 0.419024
O O14 0.320903 0.000000 0.561140
O O15 0.344494 0.500000 0.940053
O O16 0.250000 0.250000 0.000000
#
# Coordination Sequence:
#
# PCOD8086688 Si02
#       6
#     8   8   8   8   8   8
#     4  11  22  36  56  82 110 142 182 223 269 323
#     4  10  19  31  50  76 105 140 179 220 268 317
#     4  11  20  32  50  74 104 139 178 220 268 318
#     4   9  16  26  42  66  97 135 174 212 262 317
#     4   8  15  26  40  65 100 134 170 213 262 314
#     4  12  25  41  59  79 108 142 182 226 272 322
#
# _framework density 18.286822000000001
#
# number of rings (size 3 to 8) (size 9 to 14) (size 15 to 20)
#    0.000    1.833    1.667    5.500    0.000    5.333 
#    0.000    0.000    0.000    0.000    0.000    1.167 
#    0.000    9.333    0.000    0.000    0.000    0.000 
#
# Total GULP energy -297574.084750 kJ/mol
# GULP energy per Si atom -12398.920198 kJ/mol
# Density = 1.824520 g / cm^3
# Si number density = 18.286822 Si / 1000 Ang^3
#
#
#
# Elastic Constant Matrix: (Units=GPa)
#
#
# Indices 1 2 3 4 5 6 
#
# 1 35.4264 12.3636 24.1408 0.0000 -5.2119 -0.0001
# 2 12.3636 69.0509 34.9806 0.0002 3.1343 -0.0002
# 3 24.1408 34.9806 146.5957 0.0000 5.2609 -0.0001
# 4 0.0000 0.0002 0.0000 37.6371 0.0000 1.1113
# 5 -5.2119 3.1343 5.2609 0.0000 15.8917 0.0000
# 6 -0.0001 -0.0002 -0.0001 1.1113 0.0000 20.4914
#
#
#
# Elastic Compliance Matrix: (Units=1/GPa)
#
#
# Indices 1 2 3 4 5 6 
#
# 1 0.035449 -0.004297 -0.005323 0.000000 0.014236 0.000000
# 2 -0.004297 0.017055 -0.003229 0.000000 -0.003704 0.000000
# 3 -0.005323 -0.003229 0.008611 0.000000 -0.003959 0.000000
# 4 0.000000 0.000000 0.000000 0.026612 0.000000 -0.001443
# 5 0.014236 -0.003704 -0.003959 0.000000 0.069636 0.000000
# 6 0.000000 0.000000 0.000000 -0.001443 0.000000 0.048879
#
#
# Mechanical properties :
#
#
# Convention : Reuss Voigt Hill
#
# Bulk Modulus (GPa) = 28.23520 43.78255 36.00887
# Shear Modulus (GPa) = 20.51316 26.77657 23.64486
#
# Velocity S-wave (km/s) = 3.35288 3.83071 3.59973
# Velocity P-wave (km/s) = 5.51931 6.59999 6.08369
#
# Compressibility (1/GPa) = 0.03541679
#
# Stress axis : x y z
#
# Youngs Moduli (GPa) = 28.20971 58.63233 116.13390
#
# Poissons Ratio (x) = 0.25192 0.61820
# Poissons Ratio (y) = 0.12121 0.37503
# Poissons Ratio (z) = 0.15017 0.18934
#
# Static dielectric constant tensor:
#      x y z
#    x 2.793410 0.000000 0.045550 
#    y 0.000000 3.541460 0.000000 
#    z 0.045550 0.000000 3.850360 
# 
# 
# High freq. dielectric constant tensor:
#      x y z
#    x 1.635690 0.000000 0.006380 
#    y 0.000000 1.724200 0.000000 
#    z 0.006380 0.000000 1.733640 
# 
# From -- ./inp_files/318979.got.cif
#   From: 2010.06.25/outbox.cif.g09.slc.cpg/sg12_160_cif.got.tgz:318979.got - 2010.06.28 00:19:55.
