data_PCOD8086549
_publ_section_title
;
Structure prediction by ZEFSAII (Michael W. Deem and Ramdas Pophale) SiO2 
 PCOD8086549
Probable space group: C 2/M
;
_chemical_formula_sum "Si O2"
_cell_formula_units_Z 48
_cell_length_a 34.008094
_cell_length_b 9.091906
_cell_length_c 19.202673
_cell_angle_alpha 90.000000
_cell_angle_beta 151.323059
_cell_angle_gamma 90.000000
_cell_volume 2849.199895
_symmetry_space_group_name_H-M "C 2/M"
_symmetry_group_IT_number 12
_symmetry_cell_setting 'monoclinic'
loop_
_space_group_symop_operation_xyz
x,y,z
-x,y,-z
-x,-y,-z
x,-y,z
1/2+x,1/2+y,z
1/2-x,1/2+y,-z
1/2-x,1/2-y,-z
1/2+x,1/2-y,z
loop_
_atom_site_type_symbol
_atom_site_label
_atom_site_fract_x
_atom_site_fract_y
_atom_site_fract_z
Si Si1 0.324297 0.174104 0.654200
Si Si2 0.050084 0.826643 0.509960
Si Si3 0.487905 0.825310 0.834820
Si Si4 0.192953 0.665441 0.675641
Si Si5 0.340071 0.826602 0.838160
Si Si6 0.463859 0.165705 0.643846
O O1 0.250000 0.250000 0.500000
O O2 0.409117 0.234642 0.753690
O O3 0.322604 0.220378 0.732141
O O4 0.316677 0.000000 0.633586
O O5 0.001481 0.766344 0.365744
O O6 0.000000 0.779277 0.500000
O O7 0.140524 0.751389 0.653839
O O8 0.060746 0.000000 0.520765
O O9 0.488029 0.764694 0.755737
O O10 0.483306 0.000000 0.825347
O O11 0.569199 0.771832 0.000516
O O12 0.212126 0.500000 0.730985
O O13 0.277159 0.748101 0.791953
O O14 0.135916 0.662928 0.517334
O O15 0.331195 0.000000 0.834873
O O16 0.498943 0.000000 0.690310
#
# Coordination Sequence:
#
# PCOD8086549 Si02
#       6
#     8   8   8   8   8   8
#     4  10  20  33  50  72  98 130 170 210 244 283
#     4   9  17  30  51  77 101 123 156 202 243 287
#     4   9  17  32  50  70  98 133 168 202 244 290
#     4   9  18  31  49  72 100 128 159 200 245 291
#     4  10  19  31  50  72  97 132 171 205 240 287
#     4   8  16  29  48  71  97 128 161 198 242 289
#
# _framework density 16.846834000000001
#
# number of rings (size 3 to 8) (size 9 to 14) (size 15 to 20)
#    1.000    1.833    0.000    2.000    0.000    5.333 
#    0.000    1.667    0.000    3.000    0.000    0.000 
#    0.000    0.000    0.000    0.000    0.000    0.000 
#
# Total GULP energy -297400.892920 kJ/mol
# GULP energy per Si atom -12391.703872 kJ/mol
# Density = 1.680849 g / cm^3
# Si number density = 16.846834 Si / 1000 Ang^3
#
#
#
# Elastic Constant Matrix: (Units=GPa)
#
#
# Indices 1 2 3 4 5 6 
#
# 1 116.9770 48.2267 61.0552 0.0000 26.3425 0.0000
# 2 48.2267 58.0710 37.4637 0.0000 12.5744 0.0000
# 3 61.0552 37.4637 114.0503 0.0000 13.5407 0.0000
# 4 0.0000 0.0000 0.0000 21.9893 0.0000 1.9523
# 5 26.3425 12.5744 13.5407 0.0000 22.3691 0.0000
# 6 0.0000 0.0000 0.0000 1.9523 0.0000 16.9663
#
#
#
# Elastic Compliance Matrix: (Units=1/GPa)
#
#
# Indices 1 2 3 4 5 6 
#
# 1 0.017645 -0.008576 -0.005101 0.000000 -0.012871 0.000000
# 2 -0.008576 0.027651 -0.004143 0.000000 -0.002936 0.000000
# 3 -0.005101 -0.004143 0.012789 0.000000 0.000594 0.000000
# 4 0.000000 0.000000 0.000000 0.045946 0.000000 -0.005287
# 5 -0.012871 -0.002936 0.000594 0.000000 0.061152 0.000000
# 6 0.000000 0.000000 0.000000 -0.005287 0.000000 0.059549
#
#
# Mechanical properties :
#
#
# Convention : Reuss Voigt Hill
#
# Bulk Modulus (GPa) = 44.55330 64.73217 54.64274
# Shear Modulus (GPa) = 18.66679 21.75512 20.21095
#
# Velocity S-wave (km/s) = 3.33232 3.59743 3.46741
# Velocity P-wave (km/s) = 6.42723 7.46744 6.96678
#
# Compressibility (1/GPa) = 0.02244503
#
# Stress axis : x y z
#
# Youngs Moduli (GPa) = 56.67251 36.16445 78.19098
#
# Poissons Ratio (x) = 0.31016 0.39884
# Poissons Ratio (y) = 0.48604 0.32397
# Poissons Ratio (z) = 0.28908 0.14984
#
# Static dielectric constant tensor:
#      x y z
#    x 3.100560 0.000000 -0.005570 
#    y 0.000000 2.960910 0.000000 
#    z -0.005570 0.000000 3.033970 
# 
# 
# High freq. dielectric constant tensor:
#      x y z
#    x 1.641930 0.000000 0.004330 
#    y 0.000000 1.635490 0.000000 
#    z 0.004330 0.000000 1.632540 
# 
# From -- ./inp_files/289461.got.cif
#   From: 2010.06.25/outbox.cif.g09.slc.cpg/sg12_145_cif.got.tgz:289461.got - 2010.06.28 00:19:55.
