data_PCOD8086597
_publ_section_title
;
Structure prediction by ZEFSAII (Michael W. Deem and Ramdas Pophale) SiO2 
 PCOD8086597
Probable space group: C 2/M
;
_chemical_formula_sum "Si O2"
_cell_formula_units_Z 56
_cell_length_a 17.836092
_cell_length_b 19.804474
_cell_length_c 12.997519
_cell_angle_alpha 90.000000
_cell_angle_beta 43.220785
_cell_angle_gamma 90.000000
_cell_volume 3144.086790
_symmetry_space_group_name_H-M "C 2/M"
_symmetry_group_IT_number 12
_symmetry_cell_setting 'monoclinic'
loop_
_space_group_symop_operation_xyz
x,y,z
-x,y,-z
-x,-y,-z
x,-y,z
1/2+x,1/2+y,z
1/2-x,1/2+y,-z
1/2-x,1/2-y,-z
1/2+x,1/2-y,z
loop_
_atom_site_type_symbol
_atom_site_label
_atom_site_fract_x
_atom_site_fract_y
_atom_site_fract_z
Si Si1 0.122442 0.687630 0.114689
Si Si2 0.332813 0.310644 0.547476
Si Si3 0.370085 0.925430 0.743534
Si Si4 0.832813 0.189356 0.786898
Si Si5 0.370085 0.925430 0.516296
Si Si6 0.122442 0.687630 0.640427
Si Si7 0.000000 0.075431 0.380066
O O1 0.175927 0.629120 0.131529
O O2 0.115804 0.755064 0.189164
O O3 1.000000 0.670549 0.197861
O O4 0.201867 0.689780 0.936598
O O5 0.355456 0.292636 0.644544
O O6 0.201867 0.310220 0.659668
O O7 0.384196 0.255064 0.420772
O O8 0.390902 0.381679 0.459890
O O9 0.321672 0.911148 0.678328
O O10 0.500000 0.919337 0.608862
O O11 0.334775 0.000000 0.815989
O O12 0.890902 0.118321 0.758306
O O13 0.324073 0.870880 0.483383
O O14 0.334775 0.000000 0.514461
O O15 0.000000 0.063049 0.500000
O O16 0.000000 0.000000 0.327307
#
# Coordination Sequence:
#
# PCOD8086597 Si02
#       7
#     8   8   8   8   8   8   8
#     4  10  19  31  50  74 102 131 165 209 263 312
#     4  10  20  33  50  73 100 132 173 214 255 302
#     4   8  14  25  43  68  95 123 155 193 241 297
#     4  10  20  33  50  73 100 132 173 214 255 302
#     4   8  14  25  43  68  95 123 155 193 241 297
#     4  10  19  31  50  74 102 131 165 209 263 312
#     4   9  18  34  54  72  94 132 180 217 244 286
#
# _framework density 17.811212999999999
#
# number of rings (size 3 to 8) (size 9 to 14) (size 15 to 20)
#    0.000    2.714    1.429    1.714    0.000    2.857 
#    0.000    0.000    0.000    0.000    0.000    8.000 
#    0.000    9.143    0.000    0.000    0.000    0.000 
#
# Total GULP energy -346922.759678 kJ/mol
# GULP energy per Si atom -12390.098560 kJ/mol
# Density = 1.777067 g / cm^3
# Si number density = 17.811213 Si / 1000 Ang^3
#
#
#
# Elastic Constant Matrix: (Units=GPa)
#
#
# Indices 1 2 3 4 5 6 
#
# 1 50.0156 21.8005 40.7466 0.0000 -15.3350 0.0000
# 2 21.8005 109.5016 21.3452 0.0000 -1.6118 0.0000
# 3 40.7466 21.3452 42.8655 0.0000 -9.9886 0.0000
# 4 0.0000 0.0000 0.0000 18.3903 0.0000 1.7841
# 5 -15.3350 -1.6118 -9.9886 0.0000 21.4058 0.0000
# 6 0.0000 0.0000 0.0000 1.7841 0.0000 17.8866
#
#
#
# Elastic Compliance Matrix: (Units=1/GPa)
#
#
# Indices 1 2 3 4 5 6 
#
# 1 0.106047 -0.002740 -0.091763 0.000000 0.032945 0.000000
# 2 -0.002740 0.010246 -0.003113 0.000000 -0.002644 0.000000
# 3 -0.091763 -0.003113 0.108534 0.000000 -0.015327 0.000000
# 4 0.000000 0.000000 0.000000 0.054908 0.000000 -0.005477
# 5 0.032945 -0.002644 -0.015327 0.000000 0.062967 0.000000
# 6 0.000000 0.000000 0.000000 -0.005477 0.000000 0.056454
#
#
# Mechanical properties :
#
#
# Convention : Reuss Voigt Hill
#
# Bulk Modulus (GPa) = 33.79106 41.12967 37.46037
# Shear Modulus (GPa) = 8.27468 19.43591 13.85529
#
# Velocity S-wave (km/s) = 2.15774 3.30694 2.79211
# Velocity P-wave (km/s) = 5.02203 6.14193 5.60999
#
# Compressibility (1/GPa) = 0.02959363
#
# Stress axis : x y z
#
# Youngs Moduli (GPa) = 9.42982 97.60085 9.21366
#
# Poissons Ratio (x) = 0.26745 0.84547
# Poissons Ratio (y) = 0.02584 0.02869
# Poissons Ratio (z) = 0.86531 0.30387
#
# Static dielectric constant tensor:
#      x y z
#    x 3.102810 0.000000 0.036570 
#    y 0.000000 3.648320 0.000000 
#    z 0.036570 0.000000 3.113130 
# 
# 
# High freq. dielectric constant tensor:
#      x y z
#    x 1.663020 0.000000 -0.002780 
#    y 0.000000 1.700450 0.000000 
#    z -0.002780 0.000000 1.662240 
# 
# From -- ./inp_files/158232.got.cif
#   From: 2010.06.25/outbox.cif.g09.slc.cpg/sg12_80_cif.got.tgz:158232.got - 2010.06.28 00:19:55.
