data_PCOD8086281
_publ_section_title
;
Structure prediction by ZEFSAII (Michael W. Deem and Ramdas Pophale) SiO2 
 PCOD8086281
Probable space group: C 2/M
;
_chemical_formula_sum "Si O2"
_cell_formula_units_Z 56
_cell_length_a 20.694845
_cell_length_b 9.481499
_cell_length_c 17.233018
_cell_angle_alpha 90.000000
_cell_angle_beta 74.074809
_cell_angle_gamma 90.000000
_cell_volume 3251.654219
_symmetry_space_group_name_H-M "C 2/M"
_symmetry_group_IT_number 12
_symmetry_cell_setting 'monoclinic'
loop_
_space_group_symop_operation_xyz
x,y,z
-x,y,-z
-x,-y,-z
x,-y,z
1/2+x,1/2+y,z
1/2-x,1/2+y,-z
1/2-x,1/2-y,-z
1/2+x,1/2-y,z
loop_
_atom_site_type_symbol
_atom_site_label
_atom_site_fract_x
_atom_site_fract_y
_atom_site_fract_z
Si Si1 0.417981 0.333521 0.336700
Si Si2 0.695193 0.666343 0.740419
Si Si3 0.155048 0.662666 0.336029
Si Si4 0.665003 0.338292 0.084602
Si Si5 0.709749 0.664101 0.906143
Si Si6 0.429645 0.161989 0.486863
Si Si7 0.566704 0.662144 0.247046
O O1 0.410368 0.500000 0.352700
O O2 0.360582 0.270419 0.298965
O O3 0.410338 0.258330 0.421229
O O4 0.488817 0.295498 0.273483
O O5 0.693832 0.500000 0.730896
O O6 0.769288 0.723548 0.694099
O O7 0.676550 0.709620 0.835296
O O8 0.152827 0.500000 0.310704
O O9 0.129983 0.680888 0.431971
O O10 0.106495 0.746004 0.295385
O O11 0.687783 0.500000 0.086594
O O12 0.720360 0.244207 0.108033
O O13 0.594056 0.310880 0.150544
O O14 0.659671 0.300422 0.994469
O O15 0.728291 0.500000 0.897728
O O16 0.500000 0.214154 0.500000
O O17 0.436707 0.000000 0.457315
O O18 0.576522 0.500000 0.268178
#
# Coordination Sequence:
#
# PCOD8086281 Si02
#       7
#     8   8   8   8   8   8   8
#     4  10  21  35  51  71 101 135 163 197 246 300
#     4   9  18  33  51  73  99 131 167 198 239 296
#     4  10  19  33  54  73  95 128 167 205 241 289
#     4   9  17  28  46  75 102 123 159 206 243 278
#     4   9  16  29  50  72  97 130 163 197 239 287
#     4  10  20  34  52  75  99 124 163 211 249 285
#     4  10  19  31  48  74 103 128 160 203 246 286
#
# _framework density 17.222003999999998
#
# number of rings (size 3 to 8) (size 9 to 14) (size 15 to 20)
#    0.000    2.429    2.857    0.000    0.000    1.429 
#    0.000    2.143    0.000    4.286    0.000    0.000 
#    0.000    6.857    0.000    0.000    0.000    0.000 
#
# Total GULP energy -347122.720862 kJ/mol
# GULP energy per Si atom -12397.240031 kJ/mol
# Density = 1.718281 g / cm^3
# Si number density = 17.222004 Si / 1000 Ang^3
#
#
#
# Elastic Constant Matrix: (Units=GPa)
#
#
# Indices 1 2 3 4 5 6 
#
# 1 124.0711 36.2586 64.6362 0.0000 9.5913 0.0000
# 2 36.2586 36.6521 35.4554 0.0000 3.0453 0.0000
# 3 64.6362 35.4554 121.2046 0.0000 4.6945 0.0000
# 4 0.0000 0.0000 0.0000 19.6025 0.0000 1.8245
# 5 9.5913 3.0453 4.6945 0.0000 29.8276 0.0000
# 6 0.0000 0.0000 0.0000 1.8245 0.0000 18.3652
#
#
#
# Elastic Compliance Matrix: (Units=1/GPa)
#
#
# Indices 1 2 3 4 5 6 
#
# 1 0.012998 -0.008414 -0.004368 0.000000 -0.002633 0.000000
# 2 -0.008414 0.043635 -0.008260 0.000000 -0.000449 0.000000
# 3 -0.004368 -0.008260 0.012988 0.000000 0.000204 0.000000
# 4 0.000000 0.000000 0.000000 0.051490 0.000000 -0.005115
# 5 -0.002633 -0.000449 0.000204 0.000000 0.034386 0.000000
# 6 0.000000 0.000000 0.000000 -0.005115 0.000000 0.054959
#
#
# Mechanical properties :
#
#
# Convention : Reuss Voigt Hill
#
# Bulk Modulus (GPa) = 36.31497 61.62534 48.97015
# Shear Modulus (GPa) = 19.10440 23.26425 21.18433
#
# Velocity S-wave (km/s) = 3.33423 3.67937 3.51104
# Velocity P-wave (km/s) = 5.99624 7.34241 6.70320
#
# Compressibility (1/GPa) = 0.02753686
#
# Stress axis : x y z
#
# Youngs Moduli (GPa) = 76.93436 22.91750 76.99197
#
# Poissons Ratio (x) = 0.19283 0.33633
# Poissons Ratio (y) = 0.64733 0.63594
# Poissons Ratio (z) = 0.33608 0.18929
#
# Static dielectric constant tensor:
#      x y z
#    x 3.239810 0.000000 -0.095220 
#    y 0.000000 3.094720 0.000000 
#    z -0.095220 0.000000 3.530870 
# 
# 
# High freq. dielectric constant tensor:
#      x y z
#    x 1.644660 0.000000 -0.007230 
#    y 0.000000 1.647860 0.000000 
#    z -0.007230 0.000000 1.682960 
# 
# From -- ./inp_files/275222.got.cif
#   From: 2010.06.25/outbox.cif.g09.slc.cpg/sg12_138_cif.got.tgz:275222.got - 2010.06.28 00:19:55.
