data_PCOD8086148
_publ_section_title
;
Structure prediction by ZEFSAII (Michael W. Deem and Ramdas Pophale) SiO2 
 PCOD8086148
Probable space group: C 2/M
;
_chemical_formula_sum "Si O2"
_cell_formula_units_Z 56
_cell_length_a 23.608393
_cell_length_b 9.374168
_cell_length_c 14.332746
_cell_angle_alpha 90.000000
_cell_angle_beta 90.604631
_cell_angle_gamma 90.000000
_cell_volume 3171.789673
_symmetry_space_group_name_H-M "C 2/M"
_symmetry_group_IT_number 12
_symmetry_cell_setting 'monoclinic'
loop_
_space_group_symop_operation_xyz
x,y,z
-x,y,-z
-x,-y,-z
x,-y,z
1/2+x,1/2+y,z
1/2-x,1/2+y,-z
1/2-x,1/2-y,-z
1/2+x,1/2-y,z
loop_
_atom_site_type_symbol
_atom_site_label
_atom_site_fract_x
_atom_site_fract_y
_atom_site_fract_z
Si Si1 0.419446 0.334520 0.826725
Si Si2 0.799967 0.163546 0.140425
Si Si3 0.266563 0.160960 0.411468
Si Si4 0.136076 0.339402 0.710392
Si Si5 0.794302 0.832951 0.781381
Si Si6 0.474226 0.836217 0.198139
Si Si7 0.908703 0.163190 0.041877
O O1 0.428146 0.500000 0.803671
O O2 0.358987 0.280636 0.787581
O O3 0.468124 0.245533 0.775174
O O4 0.424980 0.303781 0.936454
O O5 0.838923 0.215682 0.225746
O O6 0.742252 0.255623 0.137648
O O7 0.840270 0.184084 0.050376
O O8 0.782813 0.000000 0.155260
O O9 0.250000 0.250000 0.500000
O O10 0.334256 0.178228 0.390689
O O11 0.230763 0.209218 0.319984
O O12 0.250946 0.000000 0.436285
O O13 0.152496 0.500000 0.747763
O O14 0.067785 0.323986 0.712191
O O15 0.790379 0.000000 0.802053
O O16 0.444049 0.769383 0.107110
O O17 0.488288 0.000000 0.175733
O O18 0.924664 0.000000 0.069024
#
# Coordination Sequence:
#
# PCOD8086148 Si02
#       7
#     8   8   8   8   8   8   8
#     4  10  20  33  47  63  91 131 164 191 228 272
#     4   9  16  27  45  68  92 118 154 197 230 264
#     4   9  17  31  52  75  94 113 142 182 229 281
#     4   8  16  31  48  67  94 124 149 180 228 278
#     4   9  19  34  48  65  94 128 154 181 231 288
#     4  10  19  31  48  69  93 123 161 199 229 261
#     4   9  18  31  46  66  92 124 162 199 233 267
#
# _framework density 17.655646999999998
#
# number of rings (size 3 to 8) (size 9 to 14) (size 15 to 20)
#    0.000    2.857    0.000    2.143    0.000    6.857 
#    0.000    0.000    0.000    0.857    0.000    6.000 
#    0.000    0.000    0.000    0.000    0.000    0.000 
#
# Total GULP energy -346959.173447 kJ/mol
# GULP energy per Si atom -12391.399052 kJ/mol
# Density = 1.761546 g / cm^3
# Si number density = 17.655647 Si / 1000 Ang^3
#
#
#
# Elastic Constant Matrix: (Units=GPa)
#
#
# Indices 1 2 3 4 5 6 
#
# 1 140.4095 51.9590 26.5918 0.0000 -27.2559 0.0000
# 2 51.9590 70.2950 20.2039 0.0000 -14.2594 0.0000
# 3 26.5918 20.2039 31.8071 0.0000 -21.8135 0.0000
# 4 0.0000 0.0000 0.0000 20.8110 0.0000 -6.7568
# 5 -27.2559 -14.2594 -21.8135 0.0000 23.1219 0.0000
# 6 0.0000 0.0000 0.0000 -6.7568 0.0000 33.0430
#
#
#
# Elastic Compliance Matrix: (Units=1/GPa)
#
#
# Indices 1 2 3 4 5 6 
#
# 1 0.011449 -0.006901 0.003254 0.000000 0.012310 0.000000
# 2 -0.006901 0.021568 -0.012429 0.000000 -0.006559 0.000000
# 3 0.003254 -0.012429 0.096282 0.000000 0.087004 0.000000
# 4 0.000000 0.000000 0.000000 0.051468 0.000000 0.010525
# 5 0.012310 -0.006559 0.087004 0.000000 0.135796 0.000000
# 6 0.000000 0.000000 0.000000 0.010525 0.000000 0.032416
#
#
# Mechanical properties :
#
#
# Convention : Reuss Voigt Hill
#
# Bulk Modulus (GPa) = 10.29365 48.89122 29.59243
# Shear Modulus (GPa) = 12.09149 24.97899 18.53524
#
# Velocity S-wave (km/s) = 2.61981 3.76545 3.24361
# Velocity P-wave (km/s) = 3.87222 6.83055 5.55205
#
# Compressibility (1/GPa) = 0.09714731
#
# Stress axis : x y z
#
# Youngs Moduli (GPa) = 87.34391 46.36429 10.38614
#
# Poissons Ratio (x) = 0.31995 -0.03380
# Poissons Ratio (y) = 0.60274 0.12909
# Poissons Ratio (z) = -0.28421 0.57627
#
# Static dielectric constant tensor:
#      x y z
#    x 3.558940 0.000000 -0.388670 
#    y 0.000000 3.303640 0.000000 
#    z -0.388670 0.000000 2.997630 
# 
# 
# High freq. dielectric constant tensor:
#      x y z
#    x 1.685890 0.000000 -0.035340 
#    y 0.000000 1.686650 0.000000 
#    z -0.035340 0.000000 1.638070 
# 
# From -- ./inp_files/280251.got.cif
#   From: 2010.06.25/outbox.cif.g09.slc.cpg/sg12_141_cif.got.tgz:280251.got - 2010.06.28 00:19:55.
