data_PCOD8086189
_publ_section_title
;
Structure prediction by ZEFSAII (Michael W. Deem and Ramdas Pophale) SiO2 
 PCOD8086189
Probable space group: C 2/M
;
_chemical_formula_sum "Si O2"
_cell_formula_units_Z 56
_cell_length_a 15.604508
_cell_length_b 15.049734
_cell_length_c 19.348622
_cell_angle_alpha 90.000000
_cell_angle_beta 42.511488
_cell_angle_gamma 90.000000
_cell_volume 3070.487260
_symmetry_space_group_name_H-M "C 2/M"
_symmetry_group_IT_number 12
_symmetry_cell_setting 'monoclinic'
loop_
_space_group_symop_operation_xyz
x,y,z
-x,y,-z
-x,-y,-z
x,-y,z
1/2+x,1/2+y,z
1/2-x,1/2+y,-z
1/2-x,1/2-y,-z
1/2+x,1/2-y,z
loop_
_atom_site_type_symbol
_atom_site_label
_atom_site_fract_x
_atom_site_fract_y
_atom_site_fract_z
Si Si1 0.711781 0.102437 0.104942
Si Si2 0.487612 0.229820 0.248382
Si Si3 0.947028 0.100756 0.870407
Si Si4 0.612096 0.263241 0.554118
Si Si5 0.702427 0.601256 0.794463
Si Si6 0.551524 0.595502 0.394181
Si Si7 0.286764 0.252320 0.649316
O O1 0.587243 0.159077 0.160000
O O2 0.773635 0.130944 0.141078
O O3 0.670852 0.000000 0.130883
O O4 0.812561 0.121109 0.985115
O O5 0.532872 0.330384 0.204309
O O6 0.479885 0.213519 0.336328
O O7 0.350014 0.214971 0.296117
O O8 0.053595 0.112707 0.866292
O O9 0.951407 0.000000 0.838122
O O10 0.750000 0.250000 0.500000
O O11 0.565040 0.365943 0.582400
O O12 0.614295 0.231171 0.472814
O O13 0.746412 0.500000 0.756094
O O14 0.783574 0.662361 0.694838
O O15 0.500000 0.576517 0.500000
O O16 0.597583 0.500000 0.335843
O O17 0.663159 0.668861 0.330868
#
# Coordination Sequence:
#
# PCOD8086189 Si02
#       7
#     8   8   8   8   8   8   8
#     4  10  19  31  48  71  98 126 159 203 249 292
#     4  10  19  31  48  70  97 129 159 194 246 295
#     4   9  18  32  50  71  94 123 163 207 246 288
#     4   9  18  32  48  69  98 126 156 199 240 276
#     4   9  17  31  51  72  94 126 165 201 243 292
#     4   9  17  30  49  68  89 124 163 193 227 274
#     4   9  18  32  49  70  98 128 161 201 237 281
#
# _framework density 18.238147999999999
#
# number of rings (size 3 to 8) (size 9 to 14) (size 15 to 20)
#    0.000    2.714    0.000    1.714    0.000    2.857 
#    0.000    5.000    0.000    6.429    0.000    0.000 
#    0.000   16.000    0.000    0.000    0.000    0.000 
#
# Total GULP energy -346876.846096 kJ/mol
# GULP energy per Si atom -12388.458789 kJ/mol
# Density = 1.819664 g / cm^3
# Si number density = 18.238148 Si / 1000 Ang^3
#
#
#
# Elastic Constant Matrix: (Units=GPa)
#
#
# Indices 1 2 3 4 5 6 
#
# 1 73.8990 46.1140 30.6166 0.0000 -8.6553 0.0000
# 2 46.1140 103.8766 46.2598 0.0000 -15.2226 0.0000
# 3 30.6166 46.2598 87.0992 0.0000 -7.1282 0.0000
# 4 0.0000 0.0000 0.0000 -40.2025 0.0000 -69.6019
# 5 -8.6553 -15.2226 -7.1282 0.0000 15.2138 0.0000
# 6 0.0000 0.0000 0.0000 -69.6019 0.0000 -32.9500
#
#
#
# Elastic Compliance Matrix: (Units=1/GPa)
#
#
# Indices 1 2 3 4 5 6 
#
# 1 0.019366 -0.006893 -0.002921 0.000000 0.002752 0.000000
# 2 -0.006893 0.016665 -0.005599 0.000000 0.010130 0.000000
# 3 -0.002921 -0.005599 0.015481 0.000000 -0.000011 0.000000
# 4 0.000000 0.000000 0.000000 0.009361 0.000000 -0.019775
# 5 0.002752 0.010130 -0.000011 0.000000 0.077426 0.000000
# 6 0.000000 0.000000 0.000000 -0.019775 0.000000 0.011422
#
#
# Mechanical properties :
#
#
# Convention : Reuss Voigt Hill
#
# Bulk Modulus (GPa) = 48.34373 56.76172 52.55272
# Shear Modulus (GPa) = 26.67502 -2.12878 12.27312
#
# Velocity S-wave (km/s) = 3.82854 -1.08155 2.59692
# Velocity P-wave (km/s) = 6.79029 5.44338 6.15380
#
# Compressibility (1/GPa) = 0.02068521
#
# Stress axis : x y z
#
# Youngs Moduli (GPa) = 51.63735 60.00747 64.59615
#
# Poissons Ratio (x) = 0.41362 0.18870
# Poissons Ratio (y) = 0.35593 0.36167
# Poissons Ratio (z) = 0.15084 0.33598
#
# Static dielectric constant tensor:
#      x y z
#    x 3.437560 0.000000 0.095270 
#    y 0.000000 3.439200 0.000000 
#    z 0.095270 0.000000 3.517870 
# 
# 
# High freq. dielectric constant tensor:
#      x y z
#    x 1.703930 0.000000 -0.002600 
#    y 0.000000 1.696120 0.000000 
#    z -0.002600 0.000000 1.700470 
# 
# From -- ./inp_files/183529.got.cif
#   From: 2010.06.25/outbox.cif.g09.slc.cpg/sg12_92_cif.got.tgz:183529.got - 2010.06.28 00:19:55.
