data_PCOD8086037
_publ_section_title
;
Structure prediction by ZEFSAII (Michael W. Deem and Ramdas Pophale) SiO2 
 PCOD8086037
Probable space group: C 2/M
;
_chemical_formula_sum "Si O2"
_cell_formula_units_Z 64
_cell_length_a 16.016460
_cell_length_b 17.250489
_cell_length_c 13.907921
_cell_angle_alpha 90.000000
_cell_angle_beta 107.923396
_cell_angle_gamma 90.000000
_cell_volume 3656.156016
_symmetry_space_group_name_H-M "C 2/M"
_symmetry_group_IT_number 12
_symmetry_cell_setting 'monoclinic'
loop_
_space_group_symop_operation_xyz
x,y,z
-x,y,-z
-x,-y,-z
x,-y,z
1/2+x,1/2+y,z
1/2-x,1/2+y,-z
1/2-x,1/2-y,-z
1/2+x,1/2-y,z
loop_
_atom_site_type_symbol
_atom_site_label
_atom_site_fract_x
_atom_site_fract_y
_atom_site_fract_z
Si Si1 0.444893 0.151322 0.670750
Si Si2 0.220481 0.685538 0.688430
Si Si3 0.619909 0.087612 0.793221
Si Si4 0.451380 0.721210 0.386390
Si Si5 0.678962 0.165922 0.205281
Si Si6 0.900527 0.589401 0.996415
Si Si7 0.667837 0.587699 0.647413
Si Si8 0.222852 0.592013 0.500463
O O1 0.529641 0.095374 0.700142
O O2 0.480965 0.238673 0.663509
O O3 0.407390 0.147556 0.764245
O O4 0.372526 0.123711 0.567598
O O5 0.200095 0.632263 0.772495
O O6 0.132040 0.725556 0.621271
O O7 0.290354 0.748069 0.752461
O O8 0.254199 0.635301 0.609096
O O9 0.649647 0.000000 0.804353
O O10 0.608570 0.118422 0.897479
O O11 0.500000 0.704318 0.500000
O O12 0.414153 0.637565 0.341375
O O13 0.655706 0.151575 0.085662
O O14 0.751616 0.101123 0.252677
O O15 0.868121 0.500000 0.971922
O O16 0.000000 0.595223 0.000000
O O17 0.636039 0.500000 0.639374
O O18 0.702452 0.610715 0.552422
O O19 0.214702 0.500000 0.515750
#
# Coordination Sequence:
#
# PCOD8086037 Si02
#       8
#     8   8   8   8   8   8   8   8
#     4  10  19  31  50  77 102 133 166 205 253 295
#     4  10  21  33  47  74 104 138 164 199 248 299
#     4  10  20  33  51  76 105 129 163 208 254 300
#     4  10  19  31  47  68 101 134 168 204 243 287
#     4  10  20  33  54  72 100 131 166 209 249 302
#     4  10  19  33  54  79 101 125 159 209 261 301
#     4   9  20  33  49  71  97 133 174 211 243 286
#     4  10  19  32  51  73 101 135 171 203 242 296
#
# _framework density 17.504724
#
# number of rings (size 3 to 8) (size 9 to 14) (size 15 to 20)
#    0.000    2.125    2.500    1.125    1.750    3.250 
#    0.000    1.875    0.000    0.000    0.000    0.000 
#    0.000    2.000    0.000    0.375    0.000    0.000 
#
# Total GULP energy -396547.616867 kJ/mol
# GULP energy per Si atom -12392.113027 kJ/mol
# Density = 1.746488 g / cm^3
# Si number density = 17.504724 Si / 1000 Ang^3
#
#
#
# Elastic Constant Matrix: (Units=GPa)
#
#
# Indices 1 2 3 4 5 6 
#
# 1 15.7974 26.4962 29.0327 0.0000 5.1888 0.0000
# 2 26.4962 91.4876 31.1416 0.0000 -1.0839 0.0000
# 3 29.0327 31.1416 65.9807 0.0000 -11.6960 0.0000
# 4 0.0000 0.0000 0.0000 18.1852 0.0000 -12.0764
# 5 5.1888 -1.0839 -11.6960 0.0000 18.1645 0.0000
# 6 0.0000 0.0000 0.0000 -12.0764 0.0000 14.0982
#
#
#
# Elastic Compliance Matrix: (Units=1/GPa)
#
#
# Indices 1 2 3 4 5 6 
#
# 1 -0.203078 0.026723 0.098560 0.000000 0.123067 0.000000
# 2 0.026723 0.009717 -0.019862 0.000000 -0.019843 0.000000
# 3 0.098560 -0.019862 -0.027136 0.000000 -0.046812 0.000000
# 4 0.000000 0.000000 0.000000 0.127540 0.000000 0.109249
# 5 0.123067 -0.019843 -0.046812 0.000000 -0.011428 0.000000
# 6 0.000000 0.000000 0.000000 0.109249 0.000000 0.164513
#
#
# Mechanical properties :
#
#
# Convention : Reuss Voigt Hill
#
# Bulk Modulus (GPa) = -103.58215 38.51187 -32.53514
# Shear Modulus (GPa) = -32.48150 15.86260 -8.30945
#
# Velocity S-wave (km/s) = -4.31232 3.01356 -2.18112
# Velocity P-wave (km/s) = 9.17045 5.84443 4.99699
#
# Compressibility (1/GPa) = -0.00965417
#
# Stress axis : x y z
#
# Youngs Moduli (GPa) = -4.92421 102.91417 -36.85163
#
# Poissons Ratio (x) = -2.75022 3.63211
# Poissons Ratio (y) = 0.13159 -0.73196
# Poissons Ratio (z) = 0.48533 2.04413
#
# Static dielectric constant tensor:
#      x y z
#    x 3.223040 0.000000 -0.077420 
#    y 0.000000 3.293610 0.000000 
#    z -0.077420 0.000000 3.175530 
# 
# 
# High freq. dielectric constant tensor:
#      x y z
#    x 1.662210 0.000000 -0.002710 
#    y 0.000000 1.674440 0.000000 
#    z -0.002710 0.000000 1.663710 
# 
# From -- ./inp_files/216375.got.cif
#   From: 2010.06.25/outbox.cif.g09.slc.cpg/sg12_109_cif.got.tgz:216375.got - 2010.06.28 00:19:55.
