data_PCOD8086262
_publ_section_title
;
Structure prediction by ZEFSAII (Michael W. Deem and Ramdas Pophale) SiO2 
 PCOD8086262
Probable space group: C 2/M
;
_chemical_formula_sum "Si O2"
_cell_formula_units_Z 64
_cell_length_a 17.533048
_cell_length_b 13.052487
_cell_length_c 18.374367
_cell_angle_alpha 90.000000
_cell_angle_beta 128.929311
_cell_angle_gamma 90.000000
_cell_volume 3271.139146
_symmetry_space_group_name_H-M "C 2/M"
_symmetry_group_IT_number 12
_symmetry_cell_setting 'monoclinic'
loop_
_space_group_symop_operation_xyz
x,y,z
-x,y,-z
-x,-y,-z
x,-y,z
1/2+x,1/2+y,z
1/2-x,1/2+y,-z
1/2-x,1/2-y,-z
1/2+x,1/2-y,z
loop_
_atom_site_type_symbol
_atom_site_label
_atom_site_fract_x
_atom_site_fract_y
_atom_site_fract_z
Si Si1 0.635659 0.615496 0.441733
Si Si2 0.218006 0.270424 0.898695
Si Si3 0.950680 0.780275 0.394844
Si Si4 0.101767 0.885039 0.026870
Si Si5 0.733753 0.615871 0.653785
Si Si6 0.429581 0.613165 0.161640
Si Si7 0.605475 0.755982 0.302171
Si Si8 0.942814 0.617731 0.271498
O O1 0.633321 0.500000 0.410452
O O2 0.524368 0.648380 0.393751
O O3 0.706718 0.622961 0.552671
O O4 0.671834 0.691994 0.399754
O O5 0.155969 0.167569 0.840280
O O6 0.139210 0.362403 0.840537
O O7 0.250000 0.250000 0.000000
O O8 0.311965 0.301218 0.904545
O O9 0.855369 0.849133 0.349973
O O10 0.918052 0.680743 0.329986
O O11 0.000000 0.744315 0.500000
O O12 0.101141 0.894006 0.940168
O O13 0.123993 0.000000 0.071934
O O14 0.000000 0.844011 0.000000
O O15 0.762555 0.500000 0.692662
O O16 0.825438 0.693530 0.718319
O O17 0.445988 0.500000 0.203958
O O18 0.529662 0.676906 0.221323
O O19 0.549757 0.850190 0.307287
O O20 0.944355 0.500000 0.293900
#
# Coordination Sequence:
#
# PCOD8086262 Si02
#       8
#     8   8   8   8   8   8   8   8
#     4   9  17  31  51  71  95 132 173 213 256 303
#     4   9  18  33  53  76 100 129 169 212 251 302
#     4   9  19  34  51  74 104 138 177 214 251 306
#     4   9  17  30  50  75 101 128 159 200 251 303
#     4  10  19  32  50  71  98 133 171 212 260 306
#     4   9  18  32  50  71  97 131 166 204 251 301
#     4  10  19  31  48  73 101 126 165 215 257 303
#     4  10  20  34  53  75 101 136 173 210 258 311
#
# _framework density 19.565048999999998
#
# number of rings (size 3 to 8) (size 9 to 14) (size 15 to 20)
#    0.000    2.625    0.000    1.875    0.000    3.250 
#    0.000    3.125    0.000    1.125    0.000    0.000 
#    0.000    0.000    0.000    0.000    0.000    0.000 
#
# Total GULP energy -396503.467859 kJ/mol
# GULP energy per Si atom -12390.733371 kJ/mol
# Density = 1.952052 g / cm^3
# Si number density = 19.565049 Si / 1000 Ang^3
#
#
#
# Elastic Constant Matrix: (Units=GPa)
#
#
# Indices 1 2 3 4 5 6 
#
# 1 84.0369 49.1125 2.7385 0.0000 22.4840 0.0000
# 2 49.1125 149.4072 27.3021 0.0000 17.6675 0.0000
# 3 2.7385 27.3021 39.5931 0.0000 11.3839 0.0000
# 4 0.0000 0.0000 0.0000 22.4324 0.0000 1.1333
# 5 22.4840 17.6675 11.3839 0.0000 27.3603 0.0000
# 6 0.0000 0.0000 0.0000 1.1333 0.0000 28.0740
#
#
#
# Elastic Compliance Matrix: (Units=1/GPa)
#
#
# Indices 1 2 3 4 5 6 
#
# 1 0.018987 -0.005757 0.006900 0.000000 -0.014756 0.000000
# 2 -0.005757 0.009646 -0.006614 0.000000 0.001254 0.000000
# 3 0.006900 -0.006614 0.033784 0.000000 -0.015456 0.000000
# 4 0.000000 0.000000 0.000000 0.044669 0.000000 -0.001803
# 5 -0.014756 0.001254 -0.015456 0.000000 0.054296 0.000000
# 6 0.000000 0.000000 0.000000 -0.001803 0.000000 0.035693
#
#
# Mechanical properties :
#
#
# Convention : Reuss Voigt Hill
#
# Bulk Modulus (GPa) = 19.42719 47.92704 33.67711
# Shear Modulus (GPa) = 22.20467 28.49896 25.35181
#
# Velocity S-wave (km/s) = 3.37250 3.82072 3.60359
# Velocity P-wave (km/s) = 5.01160 6.63425 5.87918
#
# Compressibility (1/GPa) = 0.05147424
#
# Stress axis : x y z
#
# Youngs Moduli (GPa) = 52.66645 103.67093 29.59952
#
# Poissons Ratio (x) = 0.59686 -0.20422
# Poissons Ratio (y) = 0.30322 0.19577
# Poissons Ratio (z) = -0.36337 0.68567
#
# Static dielectric constant tensor:
#      x y z
#    x 3.453860 0.000000 0.161380 
#    y 0.000000 3.781490 0.000000 
#    z 0.161380 0.000000 3.593810 
# 
# 
# High freq. dielectric constant tensor:
#      x y z
#    x 1.743490 0.000000 0.014500 
#    y 0.000000 1.762550 0.000000 
#    z 0.014500 0.000000 1.754820 
# 
# From -- ./inp_files/315759.got.cif
#   From: 2010.06.25/outbox.cif.g09.slc.cpg/sg12_158_cif.got.tgz:315759.got - 2010.06.28 00:19:55.
