data_PCOD8086662
_publ_section_title
;
Structure prediction by ZEFSAII (Michael W. Deem and Ramdas Pophale) SiO2 
 PCOD8086662
Probable space group: C 2/M
;
_chemical_formula_sum "Si O2"
_cell_formula_units_Z 64
_cell_length_a 30.957422
_cell_length_b 9.942092
_cell_length_c 17.815153
_cell_angle_alpha 90.000000
_cell_angle_beta 143.770117
_cell_angle_gamma 90.000000
_cell_volume 3240.701634
_symmetry_space_group_name_H-M "C 2/M"
_symmetry_group_IT_number 12
_symmetry_cell_setting 'monoclinic'
loop_
_space_group_symop_operation_xyz
x,y,z
-x,y,-z
-x,-y,-z
x,-y,z
1/2+x,1/2+y,z
1/2-x,1/2+y,-z
1/2-x,1/2-y,-z
1/2+x,1/2-y,z
loop_
_atom_site_type_symbol
_atom_site_label
_atom_site_fract_x
_atom_site_fract_y
_atom_site_fract_z
Si Si1 0.261217 0.148943 0.769671
Si Si2 0.564953 0.850948 0.545934
Si Si3 0.320642 0.156028 0.594386
Si Si4 0.844082 0.850665 0.081731
Si Si5 0.340557 0.155876 0.452775
Si Si6 0.534007 0.840814 0.124118
Si Si7 0.192398 0.257017 0.815319
Si Si8 0.907772 0.344315 0.053694
O O1 0.231436 0.258012 0.668921
O O2 0.219702 0.151052 0.791331
O O3 0.251632 0.000000 0.721232
O O4 0.346368 0.179679 0.903820
O O5 0.500000 0.771306 0.500000
O O6 0.590322 0.789492 0.500462
O O7 0.635643 0.858667 0.698036
O O8 0.535286 0.000000 0.487569
O O9 0.250000 0.250000 0.500000
O O10 0.357580 0.172103 0.564220
O O11 0.382065 0.203544 0.741001
O O12 0.297979 0.000000 0.575816
O O13 0.848855 0.822922 0.176856
O O14 0.894100 0.744168 0.108213
O O15 0.873592 0.000000 0.106125
O O16 0.759517 0.844215 0.939539
O O17 0.324963 0.000000 0.409909
O O18 0.483921 0.797571 0.124108
O O19 0.532174 0.000000 0.113932
O O20 0.500000 0.776789 0.000000
O O21 0.908569 0.500000 0.080333
#
# Coordination Sequence:
#
# PCOD8086662 Si02
#       8
#     8   8   8   8   8   8   8   8
#     4   9  17  30  52  79 105 137 179 224 266 317
#     4   9  17  30  50  75 103 138 180 222 265 317
#     4  10  22  39  61  86 114 148 188 234 282 337
#     4  10  19  31  50  75 107 145 179 222 276 327
#     4   9  19  34  51  77 110 140 174 221 276 330
#     4   9  19  37  61  85 111 142 183 232 281 333
#     4   9  18  30  47  71 105 141 184 224 263 314
#     4   9  19  33  52  80 106 135 180 229 276 329
#
# _framework density 19.748809999999999
#
# number of rings (size 3 to 8) (size 9 to 14) (size 15 to 20)
#    0.000    2.750    0.000    0.750    1.750    8.000 
#    0.000    3.125    0.000   13.125    0.000    0.000 
#    0.000    0.000    0.000    0.000    0.000    0.000 
#
# Total GULP energy -396563.472403 kJ/mol
# GULP energy per Si atom -12392.608513 kJ/mol
# Density = 1.970386 g / cm^3
# Si number density = 19.748810 Si / 1000 Ang^3
#
#
#
# Elastic Constant Matrix: (Units=GPa)
#
#
# Indices 1 2 3 4 5 6 
#
# 1 96.9231 30.0405 51.1488 0.0000 7.0425 0.0000
# 2 30.0405 74.2168 25.2809 0.0000 1.1745 0.0000
# 3 51.1488 25.2809 90.9801 0.0000 -0.1356 0.0000
# 4 0.0000 0.0000 0.0000 22.0717 0.0000 -1.1853
# 5 7.0425 1.1745 -0.1356 0.0000 32.7646 0.0000
# 6 0.0000 0.0000 0.0000 -1.1853 0.0000 18.3828
#
#
#
# Elastic Compliance Matrix: (Units=1/GPa)
#
#
# Indices 1 2 3 4 5 6 
#
# 1 0.015870 -0.003679 -0.007905 0.000000 -0.003312 0.000000
# 2 -0.003679 0.015745 -0.002307 0.000000 0.000217 0.000000
# 3 -0.007905 -0.002307 0.016079 0.000000 0.001848 0.000000
# 4 0.000000 0.000000 0.000000 0.045464 0.000000 0.002932
# 5 -0.003312 0.000217 0.001848 0.000000 0.031233 0.000000
# 6 0.000000 0.000000 0.000000 0.002932 0.000000 0.054588
#
#
# Mechanical properties :
#
#
# Convention : Reuss Voigt Hill
#
# Bulk Modulus (GPa) = 50.21548 52.78447 51.49998
# Shear Modulus (GPa) = 23.43050 25.02047 24.22549
#
# Velocity S-wave (km/s) = 3.44819 3.56327 3.50620
# Velocity P-wave (km/s) = 6.42928 6.61174 6.52115
#
# Compressibility (1/GPa) = 0.01991418
#
# Stress axis : x y z
#
# Youngs Moduli (GPa) = 63.01293 63.51087 62.19218
#
# Poissons Ratio (x) = 0.23362 0.49161
# Poissons Ratio (y) = 0.23179 0.14347
# Poissons Ratio (z) = 0.49810 0.14651
#
# Static dielectric constant tensor:
#      x y z
#    x 3.769770 0.000000 -0.015250 
#    y 0.000000 3.278400 0.000000 
#    z -0.015250 0.000000 3.595960 
# 
# 
# High freq. dielectric constant tensor:
#      x y z
#    x 1.777820 0.000000 -0.005310 
#    y 0.000000 1.731720 0.000000 
#    z -0.005310 0.000000 1.758360 
# 
# From -- ./inp_files/295749.got.cif
#   From: 2010.06.25/outbox.cif.g09.slc.cpg/sg12_148_cif.got.tgz:295749.got - 2010.06.28 00:19:55.
