data_PCOD8086943
_publ_section_title
;
Structure prediction by ZEFSAII (Michael W. Deem and Ramdas Pophale) SiO2 
 PCOD8086943
Probable space group: C 2/M
;
_chemical_formula_sum "Si O2"
_cell_formula_units_Z 64
_cell_length_a 13.431086
_cell_length_b 17.763368
_cell_length_c 15.456780
_cell_angle_alpha 90.000000
_cell_angle_beta 78.741349
_cell_angle_gamma 90.000000
_cell_volume 3616.732255
_symmetry_space_group_name_H-M "C 2/M"
_symmetry_group_IT_number 12
_symmetry_cell_setting 'monoclinic'
loop_
_space_group_symop_operation_xyz
x,y,z
-x,y,-z
-x,-y,-z
x,-y,z
1/2+x,1/2+y,z
1/2-x,1/2+y,-z
1/2-x,1/2-y,-z
1/2+x,1/2-y,z
loop_
_atom_site_type_symbol
_atom_site_label
_atom_site_fract_x
_atom_site_fract_y
_atom_site_fract_z
Si Si1 0.680377 0.086410 0.765514
Si Si2 0.975957 0.779467 0.602234
Si Si3 0.163130 0.667198 0.278569
Si Si4 0.270444 0.710405 0.859558
Si Si5 0.776970 0.842825 0.591801
Si Si6 0.804699 0.174456 0.398763
Si Si7 0.550791 0.912952 0.151974
Si Si8 0.099016 0.724762 0.028738
O O1 0.756286 0.129646 0.817534
O O2 0.702159 0.106279 0.661463
O O3 0.564761 0.107878 0.805333
O O4 0.702729 0.000000 0.777934
O O5 0.935152 0.706574 0.660642
O O6 0.890077 0.844702 0.614030
O O7 0.000000 0.752967 0.500000
O O8 0.073885 0.815689 0.633370
O O9 0.230345 0.728083 0.215669
O O10 0.244619 0.630620 0.332343
O O11 0.121556 0.601851 0.223290
O O12 0.375474 0.718814 0.895785
O O13 0.182696 0.727417 0.941474
O O14 0.780143 0.870702 0.491761
O O15 0.743920 0.756684 0.594945
O O16 0.585034 0.860704 0.066198
O O17 0.562260 0.000000 0.122303
O O18 0.000000 0.756906 0.000000
#
# Coordination Sequence:
#
# PCOD8086943 Si02
#       8
#     8   8   8   8   8   8   8   8
#     4  11  20  34  54  77 113 142 173 215 257 318
#     4   9  16  26  48  76 100 131 176 224 258 294
#     4  10  19  31  52  77 109 138 170 229 254 306
#     4  10  20  34  51  84 101 132 177 206 272 302
#     4   9  17  30  45  77 105 132 180 214 258 296
#     4   9  16  28  51  73 103 135 172 224 257 296
#     4  10  22  35  52  78 108 142 171 206 264 324
#     4  10  20  35  57  78 108 128 166 227 257 312
#
# _framework density 17.695532
#
# number of rings (size 3 to 8) (size 9 to 14) (size 15 to 20)
#    0.000    2.250    3.750    1.500    0.000    0.750 
#    0.000    0.625    0.000    6.375    0.000    0.000 
#    0.000    0.000    0.000    0.000    0.000    0.000 
#
# Total GULP energy -396583.253582 kJ/mol
# GULP energy per Si atom -12393.226674 kJ/mol
# Density = 1.765526 g / cm^3
# Si number density = 17.695532 Si / 1000 Ang^3
#
#
#
# Elastic Constant Matrix: (Units=GPa)
#
#
# Indices 1 2 3 4 5 6 
#
# 1 99.3308 22.4786 30.6318 0.0000 18.1065 0.0000
# 2 22.4786 50.8891 14.6641 0.0000 3.3411 0.0000
# 3 30.6318 14.6641 75.5085 0.0000 1.8691 0.0000
# 4 0.0000 0.0000 0.0000 15.8618 0.0000 3.4540
# 5 18.1065 3.3411 1.8691 0.0000 39.6484 0.0000
# 6 0.0000 0.0000 0.0000 3.4540 0.0000 17.4930
#
#
#
# Elastic Compliance Matrix: (Units=1/GPa)
#
#
# Indices 1 2 3 4 5 6 
#
# 1 0.013431 -0.004276 -0.004480 0.000000 -0.005562 0.000000
# 2 -0.004276 0.022275 -0.002596 0.000000 0.000198 0.000000
# 3 -0.004480 -0.002596 0.015527 0.000000 0.001533 0.000000
# 4 0.000000 0.000000 0.000000 0.065877 0.000000 -0.013007
# 5 -0.005562 0.000198 0.001533 0.000000 0.027673 0.000000
# 6 0.000000 0.000000 0.000000 -0.013007 0.000000 0.059734
#
#
# Mechanical properties :
#
#
# Convention : Reuss Voigt Hill
#
# Bulk Modulus (GPa) = 35.05414 40.14193 37.59804
# Shear Modulus (GPa) = 21.12106 25.13088 23.12597
#
# Velocity S-wave (km/s) = 3.45857 3.77262 3.61900
# Velocity P-wave (km/s) = 5.98344 6.45840 6.22545
#
# Compressibility (1/GPa) = 0.02852730
#
# Stress axis : x y z
#
# Youngs Moduli (GPa) = 74.45693 44.89433 64.40288
#
# Poissons Ratio (x) = 0.19198 0.28854
# Poissons Ratio (y) = 0.31840 0.16719
# Poissons Ratio (z) = 0.33359 0.11654
#
# Static dielectric constant tensor:
#      x y z
#    x 3.726080 0.000000 0.197950 
#    y 0.000000 2.820950 0.000000 
#    z 0.197950 0.000000 3.680460 
# 
# 
# High freq. dielectric constant tensor:
#      x y z
#    x 1.693660 0.000000 0.003730 
#    y 0.000000 1.626860 0.000000 
#    z 0.003730 0.000000 1.704030 
# 
# From -- ./inp_files/215888.got.cif
#   From: 2010.06.25/outbox.cif.g09.slc.cpg/sg12_108_cif.got.tgz:215888.got - 2010.06.28 00:19:55.
