data_PCOD8086068
_publ_section_title
;
Structure prediction by ZEFSAII (Michael W. Deem and Ramdas Pophale) SiO2 
 PCOD8086068
Probable space group: C 2/M
;
_chemical_formula_sum "Si O2"
_cell_formula_units_Z 64
_cell_length_a 30.940795
_cell_length_b 9.110893
_cell_length_c 14.310664
_cell_angle_alpha 90.000000
_cell_angle_beta 90.848485
_cell_angle_gamma 90.000000
_cell_volume 4033.709120
_symmetry_space_group_name_H-M "C 2/M"
_symmetry_group_IT_number 12
_symmetry_cell_setting 'monoclinic'
loop_
_space_group_symop_operation_xyz
x,y,z
-x,y,-z
-x,-y,-z
x,-y,z
1/2+x,1/2+y,z
1/2-x,1/2+y,-z
1/2-x,1/2-y,-z
1/2+x,1/2-y,z
loop_
_atom_site_type_symbol
_atom_site_label
_atom_site_fract_x
_atom_site_fract_y
_atom_site_fract_z
Si Si1 0.411256 0.326465 0.401816
Si Si2 0.206921 0.331015 0.100552
Si Si3 0.327532 0.169857 0.707342
Si Si4 0.495117 0.838108 0.389312
Si Si5 0.088972 0.672197 0.402031
Si Si6 0.248591 0.171904 0.401115
Si Si7 0.205008 0.670742 0.894561
Si Si8 0.663606 0.829850 0.705543
O O1 0.411353 0.500000 0.409114
O O2 0.457371 0.274644 0.360655
O O3 0.402028 0.260273 0.503124
O O4 0.374127 0.274278 0.331189
O O5 0.220060 0.500000 0.097123
O O6 0.171883 0.301303 0.180754
O O7 0.250181 0.246951 0.128514
O O8 0.188420 0.282803 0.997961
O O9 0.374579 0.214902 0.671418
O O10 0.291609 0.268880 0.658471
O O11 0.317326 0.000000 0.684089
O O12 0.500000 0.845873 0.500000
O O13 0.542457 0.786346 0.354092
O O14 0.483309 0.000000 0.349508
O O15 0.089730 0.500000 0.427939
O O16 0.250000 0.250000 0.500000
O O17 0.292588 0.206470 0.348053
O O18 0.242159 0.000000 0.416738
O O19 0.215175 0.500000 0.888319
O O20 0.169643 0.711282 0.815195
O O21 0.650655 0.000000 0.691474
#
# Coordination Sequence:
#
# PCOD8086068 Si02
#       8
#     8   8   8   8   8   8   8   8
#     4  11  21  30  45  69  93 116 150 195 232 261
#     4   9  17  29  48  70  91 114 146 192 235 265
#     4  10  19  31  47  69  94 120 150 186 226 267
#     4   8  15  30  49  65  86 119 152 181 221 273
#     4   9  18  32  48  66  92 125 154 178 217 276
#     4  11  22  33  44  61  89 126 161 189 218 260
#     4   9  17  31  48  66  88 118 153 188 228 272
#     4  10  20  33  46  61  88 125 158 184 219 272
#
# _framework density 15.866291
#
# number of rings (size 3 to 8) (size 9 to 14) (size 15 to 20)
#    0.000    2.375    1.250    3.000    0.000    7.250 
#    0.000    0.000    0.000    0.000    0.000    0.875 
#    0.000    7.000    0.000    0.000    0.000    0.000 
#
# Total GULP energy -396670.602029 kJ/mol
# GULP energy per Si atom -12395.956313 kJ/mol
# Density = 1.583018 g / cm^3
# Si number density = 15.866291 Si / 1000 Ang^3
#
#
#
# Elastic Constant Matrix: (Units=GPa)
#
#
# Indices 1 2 3 4 5 6 
#
# 1 124.5961 52.9910 62.1293 0.0000 1.8679 0.0000
# 2 52.9910 70.9929 45.0051 0.0000 3.9384 0.0000
# 3 62.1293 45.0051 100.8469 0.0000 -5.5858 0.0000
# 4 0.0000 0.0000 0.0000 17.0994 0.0000 2.6855
# 5 1.8679 3.9384 -5.5858 0.0000 7.4801 0.0000
# 6 0.0000 0.0000 0.0000 2.6855 0.0000 22.7237
#
#
#
# Elastic Compliance Matrix: (Units=1/GPa)
#
#
# Indices 1 2 3 4 5 6 
#
# 1 0.013684 -0.006215 -0.005909 0.000000 -0.004557 0.000000
# 2 -0.006215 0.024976 -0.008303 0.000000 -0.017798 0.000000
# 3 -0.005909 -0.008303 0.018344 0.000000 0.019546 0.000000
# 4 0.000000 0.000000 0.000000 0.059588 0.000000 -0.007042
# 5 -0.004557 -0.017798 0.019546 0.000000 0.158793 0.000000
# 6 0.000000 0.000000 0.000000 -0.007042 0.000000 0.044839
#
#
# Mechanical properties :
#
#
# Convention : Reuss Voigt Hill
#
# Bulk Modulus (GPa) = 61.91944 68.52075 65.22010
# Shear Modulus (GPa) = 13.64394 18.54800 16.09597
#
# Velocity S-wave (km/s) = 2.93564 3.42280 3.18854
# Velocity P-wave (km/s) = 7.11345 7.67469 7.39939
#
# Compressibility (1/GPa) = 0.01615002
#
# Stress axis : x y z
#
# Youngs Moduli (GPa) = 73.07645 40.03824 54.51233
#
# Poissons Ratio (x) = 0.24886 0.32213
# Poissons Ratio (y) = 0.45420 0.45260
# Poissons Ratio (z) = 0.43182 0.33243
#
# Static dielectric constant tensor:
#      x y z
#    x 3.283580 0.000000 -0.103150 
#    y 0.000000 3.028850 0.000000 
#    z -0.103150 0.000000 3.174810 
# 
# 
# High freq. dielectric constant tensor:
#      x y z
#    x 1.599010 0.000000 -0.002440 
#    y 0.000000 1.609920 0.000000 
#    z -0.002440 0.000000 1.593100 
# 
# From -- ./inp_files/248450.got.cif
#   From: 2010.06.25/outbox.cif.g09.slc.cpg/sg12_125_cif.got.tgz:248450.got - 2010.06.28 00:19:55.
