data_PCOD8086801
_publ_section_title
;
Structure prediction by ZEFSAII (Michael W. Deem and Ramdas Pophale) SiO2 
 PCOD8086801
Probable space group: C 2/M
;
_chemical_formula_sum "Si O2"
_cell_formula_units_Z 56
_cell_length_a 20.640144
_cell_length_b 8.943757
_cell_length_c 24.253925
_cell_angle_alpha 90.000000
_cell_angle_beta 41.466246
_cell_angle_gamma 90.000000
_cell_volume 2964.762832
_symmetry_space_group_name_H-M "C 2/M"
_symmetry_group_IT_number 12
_symmetry_cell_setting 'monoclinic'
loop_
_space_group_symop_operation_xyz
x,y,z
-x,y,-z
-x,-y,-z
x,-y,z
1/2+x,1/2+y,z
1/2-x,1/2+y,-z
1/2-x,1/2-y,-z
1/2+x,1/2-y,z
loop_
_atom_site_type_symbol
_atom_site_label
_atom_site_fract_x
_atom_site_fract_y
_atom_site_fract_z
Si Si1 0.401750 0.677848 0.535318
Si Si2 0.526067 0.677379 0.254310
Si Si3 0.983987 0.322684 0.167005
Si Si4 0.353848 0.676933 0.444134
Si Si5 0.577652 0.822393 0.994551
Si Si6 0.723859 0.677963 0.184216
Si Si7 0.232696 0.677987 0.721860
O O1 0.500000 0.743914 0.500000
O O2 0.403763 0.500000 0.537018
O O3 0.394908 0.732312 0.476769
O O4 0.308952 0.740132 0.628286
O O5 0.528796 0.500000 0.247554
O O6 0.527390 0.747413 0.193302
O O7 0.430164 0.730207 0.348931
O O8 0.622103 0.738057 0.224556
O O9 0.985985 0.500000 0.173068
O O10 0.874183 0.263775 0.226753
O O11 0.050235 0.269235 0.073422
O O12 0.340578 0.500000 0.452241
O O13 0.250000 0.750000 0.500000
O O14 0.573477 0.000000 0.993907
O O15 0.500000 0.756720 0.000000
O O16 0.686145 0.763839 0.910712
O O17 0.723072 0.500000 0.186362
O O18 0.737341 0.741196 0.237382
O O19 0.232897 0.500000 0.723532
#
# Coordination Sequence:
#
# PCOD8086801 Si02
#       7
#     8   8   8   8   8   8   8
#     4   9  16  26  43  68  95 120 154 203 249 285
#     4  10  21  34  48  71 104 137 163 195 247 303
#     4  10  19  31  51  76  99 126 165 209 245 286
#     4  10  20  34  51  72 100 133 166 201 246 297
#     4   9  15  27  48  76 102 124 160 209 252 287
#     4   9  16  28  47  71 101 132 162 201 249 294
#     4   9  15  25  45  71  93 118 158 206 246 279
#
# _framework density 18.888524
#
# number of rings (size 3 to 8) (size 9 to 14) (size 15 to 20)
#    0.000    2.571    1.429    1.714    0.000    5.714 
#    0.000    0.000    0.000    1.714    0.000    0.000 
#    0.000    0.000    0.000    0.000    0.000    0.000 
#
# Total GULP energy -347171.667107 kJ/mol
# GULP energy per Si atom -12398.988111 kJ/mol
# Density = 1.884553 g / cm^3
# Si number density = 18.888524 Si / 1000 Ang^3
#
#
#
# Elastic Constant Matrix: (Units=GPa)
#
#
# Indices 1 2 3 4 5 6 
#
# 1 136.3313 17.4344 52.4826 0.0001 6.4243 0.0000
# 2 17.4344 9.1280 16.2190 0.0001 0.9622 0.0001
# 3 52.4826 16.2190 144.5917 0.0001 6.8019 -0.0001
# 4 0.0001 0.0001 0.0001 15.8487 -0.0001 3.3422
# 5 6.4243 0.9622 6.8019 -0.0001 42.0696 0.0001
# 6 0.0000 0.0001 -0.0001 3.3422 0.0001 21.2832
#
#
#
# Elastic Compliance Matrix: (Units=1/GPa)
#
#
# Indices 1 2 3 4 5 6 
#
# 1 0.010130 -0.015980 -0.001843 0.000000 -0.000883 0.000000
# 2 -0.015980 0.162052 -0.012412 -0.000001 0.000741 -0.000001
# 3 -0.001843 -0.012412 0.009019 0.000000 -0.000893 0.000000
# 4 0.000000 -0.000001 0.000000 0.065258 0.000000 -0.010248
# 5 -0.000883 0.000741 -0.000893 0.000000 0.024032 0.000000
# 6 0.000000 -0.000001 0.000000 -0.010248 0.000000 0.048595
#
#
# Mechanical properties :
#
#
# Convention : Reuss Voigt Hill
#
# Bulk Modulus (GPa) = 8.28291 51.36922 29.82607
# Shear Modulus (GPa) = 11.91047 29.43463 20.67255
#
# Velocity S-wave (km/s) = 2.51383 3.95186 3.31184
# Velocity P-wave (km/s) = 3.58057 6.93382 5.51808
#
# Compressibility (1/GPa) = 0.12073046
#
# Stress axis : x y z
#
# Youngs Moduli (GPa) = 98.71994 6.17088 110.87533
#
# Poissons Ratio (x) = 0.09861 0.20431
# Poissons Ratio (y) = 1.57757 1.37618
# Poissons Ratio (z) = 0.18191 0.07659
#
# Static dielectric constant tensor:
#      x y z
#    x 3.634740 0.000000 -0.019430 
#    y 0.000000 2.764030 0.000000 
#    z -0.019430 0.000000 3.812680 
# 
# 
# High freq. dielectric constant tensor:
#      x y z
#    x 1.746680 0.000000 0.000460 
#    y 0.000000 1.658520 0.000000 
#    z 0.000460 0.000000 1.754710 
# 
# From -- ./inp_files/315265.got.cif
#   From: 2010.06.25/outbox.cif.g09.slc.cpg/sg12_158_cif.got.tgz:315265.got - 2010.06.28 00:19:55.
