data_PCOD8086209
_publ_section_title
;
Structure prediction by ZEFSAII (Michael W. Deem and Ramdas Pophale) SiO2 
 PCOD8086209
Probable space group: C 2/M
;
_chemical_formula_sum "Si O2"
_cell_formula_units_Z 64
_cell_length_a 30.465002
_cell_length_b 10.406924
_cell_length_c 11.352075
_cell_angle_alpha 90.000000
_cell_angle_beta 90.003069
_cell_angle_gamma 90.000000
_cell_volume 3599.140869
_symmetry_space_group_name_H-M "C 2/M"
_symmetry_group_IT_number 12
_symmetry_cell_setting 'monoclinic'
loop_
_space_group_symop_operation_xyz
x,y,z
-x,y,-z
-x,-y,-z
x,-y,z
1/2+x,1/2+y,z
1/2-x,1/2+y,-z
1/2-x,1/2-y,-z
1/2+x,1/2-y,z
loop_
_atom_site_type_symbol
_atom_site_label
_atom_site_fract_x
_atom_site_fract_y
_atom_site_fract_z
Si Si1 0.175592 0.349031 0.630879
Si Si2 0.588098 0.849602 0.251829
Si Si3 0.120509 0.649036 0.000013
Si Si4 0.911937 0.650415 0.251770
Si Si5 0.000016 0.346779 0.365777
Si Si6 0.249980 0.749904 0.799511
Si Si7 0.175650 0.348990 0.369138
Si Si8 0.304120 0.359054 0.000021
O O1 0.169913 0.500000 0.622011
O O2 0.130596 0.288651 0.683567
O O3 0.215639 0.321228 0.716494
O O4 0.183728 0.290966 0.500032
O O5 0.543257 0.788673 0.302437
O O6 0.630647 0.788675 0.316424
O O7 0.587467 0.000000 0.277676
O O8 0.590510 0.821509 0.112755
O O9 0.137051 0.500000 0.999974
O O10 0.090504 0.678574 0.887291
O O11 0.162462 0.740706 0.000044
O O12 0.912566 0.500000 0.277530
O O13 0.956787 0.711318 0.302357
O O14 0.000017 0.500000 0.356867
O O15 0.000000 0.300077 0.500000
O O16 0.284288 0.820908 0.716325
O O17 0.274196 0.647284 0.883124
O O18 0.225784 0.852630 0.883057
O O19 0.170057 0.500000 0.377781
O O20 0.327119 0.500000 0.000050
#
# Coordination Sequence:
#
# PCOD8086209 Si02
#       8
#     8   8   8   8   8   8   8   8
#     4  10  19  31  48  71 101 136 172 210 257 312
#     4   9  17  29  47  72 102 137 168 205 260 315
#     4  10  19  34  54  74 105 140 173 217 267 313
#     4   9  17  29  47  72 102 137 168 205 260 315
#     4   9  16  27  45  73 107 135 164 208 261 318
#     4  11  21  34  50  70 101 135 178 220 266 305
#     4  10  19  31  48  71 101 136 172 210 257 312
#     4  11  23  35  53  76 102 139 184 224 261 312
#
# _framework density 17.782022000000001
#
# number of rings (size 3 to 8) (size 9 to 14) (size 15 to 20)
#    0.000    2.125    2.500    1.875    0.000    5.500 
#    0.000    2.500    0.000    0.000    0.000    1.750 
#    0.000    1.000    0.000    0.000    0.000    0.000 
#
# Total GULP energy -396659.612783 kJ/mol
# GULP energy per Si atom -12395.612899 kJ/mol
# Density = 1.774155 g / cm^3
# Si number density = 17.782022 Si / 1000 Ang^3
#
#
#
# Elastic Constant Matrix: (Units=GPa)
#
#
# Indices 1 2 3 4 5 6 
#
# 1 149.0763 21.2780 84.0646 0.0000 -1.8136 0.0000
# 2 21.2780 40.7542 23.9510 0.0000 0.1906 0.0000
# 3 84.0646 23.9510 170.6942 0.0000 3.2906 0.0000
# 4 0.0000 0.0000 0.0000 8.5165 0.0000 -0.7944
# 5 -1.8136 0.1906 3.2906 0.0000 25.0197 0.0000
# 6 0.0000 0.0000 0.0000 -0.7944 0.0000 16.7451
#
#
#
# Elastic Compliance Matrix: (Units=1/GPa)
#
#
# Indices 1 2 3 4 5 6 
#
# 1 0.009540 -0.002410 -0.004385 0.000000 0.001287 0.000000
# 2 -0.002410 0.027353 -0.002651 0.000000 -0.000034 0.000000
# 3 -0.004385 -0.002651 0.008417 0.000000 -0.001405 0.000000
# 4 0.000000 0.000000 0.000000 0.117942 0.000000 0.005595
# 5 0.001287 -0.000034 -0.001405 0.000000 0.040247 0.000000
# 6 0.000000 0.000000 0.000000 0.005595 0.000000 0.059984
#
#
# Mechanical properties :
#
#
# Convention : Reuss Voigt Hill
#
# Bulk Modulus (GPa) = 37.85079 68.79024 53.32051
# Shear Modulus (GPa) = 17.17140 25.47166 21.32153
#
# Velocity S-wave (km/s) = 3.11088 3.78886 3.46649
# Velocity P-wave (km/s) = 5.85112 7.60986 6.78769
#
# Compressibility (1/GPa) = 0.02641953
#
# Stress axis : x y z
#
# Youngs Moduli (GPa) = 104.81712 36.55841 118.80624
#
# Poissons Ratio (x) = 0.08811 0.52099
# Poissons Ratio (y) = 0.25261 0.31490
# Poissons Ratio (z) = 0.45964 0.09690
#
# Static dielectric constant tensor:
#      x y z
#    x 3.530980 0.000000 0.011810 
#    y 0.000000 2.704370 0.000000 
#    z 0.011810 0.000000 3.657040 
# 
# 
# High freq. dielectric constant tensor:
#      x y z
#    x 1.692860 0.000000 0.001970 
#    y 0.000000 1.614540 0.000000 
#    z 0.001970 0.000000 1.713460 
# 
# From -- ./inp_files/182049.got.cif
#   From: 2010.06.25/outbox.cif.g09.slc.cpg/sg12_92_cif.got.tgz:182049.got - 2010.06.28 00:19:55.
