data_PCOD8086246
_publ_section_title
;
Structure prediction by ZEFSAII (Michael W. Deem and Ramdas Pophale) SiO2 
 PCOD8086246
Probable space group: C 2/M
;
_chemical_formula_sum "Si O2"
_cell_formula_units_Z 56
_cell_length_a 22.726138
_cell_length_b 8.712150
_cell_length_c 21.009945
_cell_angle_alpha 90.000000
_cell_angle_beta 49.548746
_cell_angle_gamma 90.000000
_cell_volume 3165.459167
_symmetry_space_group_name_H-M "C 2/M"
_symmetry_group_IT_number 12
_symmetry_cell_setting 'monoclinic'
loop_
_space_group_symop_operation_xyz
x,y,z
-x,y,-z
-x,-y,-z
x,-y,z
1/2+x,1/2+y,z
1/2-x,1/2+y,-z
1/2-x,1/2-y,-z
1/2+x,1/2-y,z
loop_
_atom_site_type_symbol
_atom_site_label
_atom_site_fract_x
_atom_site_fract_y
_atom_site_fract_z
Si Si1 0.696688 0.678563 0.952067
Si Si2 0.588268 0.178849 0.924758
Si Si3 0.487915 0.181174 0.261637
Si Si4 0.647300 0.678441 0.127336
Si Si5 0.864523 0.330988 0.443637
Si Si6 0.881613 0.820434 0.230890
Si Si7 0.255931 0.169238 0.398069
O O1 0.717841 0.500000 0.934762
O O2 0.639904 0.720951 0.935410
O O3 0.775473 0.774525 0.889293
O O4 0.655380 0.720710 0.047396
O O5 0.609711 0.221734 0.838365
O O6 0.604144 0.000000 0.925781
O O7 0.500000 0.222286 0.000000
O O8 0.577285 0.223558 0.205412
O O9 0.445703 0.229902 0.357509
O O10 0.450804 0.273732 0.229298
O O11 0.476049 0.000000 0.257700
O O12 0.630640 0.500000 0.149742
O O13 0.875774 0.500000 0.464992
O O14 0.830957 0.225406 0.523765
O O15 0.804604 0.337722 0.428001
O O16 0.797567 0.783557 0.319621
O O17 0.887406 0.000000 0.211580
O O18 0.249946 0.000000 0.371594
#
# Coordination Sequence:
#
# PCOD8086246 Si02
#       7
#     8   8   8   8   8   8   8
#     4  10  21  36  53  73  98 129 165 203 244 289
#     4  11  23  37  53  73  99 130 164 203 245 289
#     4  10  19  31  48  72 102 132 164 203 246 291
#     4  10  20  34  53  75  99 128 163 203 245 290
#     4   8  15  26  41  64  94 127 160 196 240 288
#     4  11  21  32  48  70  99 133 167 202 243 294
#     4   9  16  27  43  64  93 127 162 199 240 288
#
# _framework density 17.690956
#
# number of rings (size 3 to 8) (size 9 to 14) (size 15 to 20)
#    0.000    2.143    0.000    5.143    0.000    9.143 
#    0.000    0.000    0.000    0.000    0.000    1.000 
#    0.000    8.000    0.000    0.000    0.000    0.000 
#
# Total GULP energy -347203.045450 kJ/mol
# GULP energy per Si atom -12400.108766 kJ/mol
# Density = 1.765069 g / cm^3
# Si number density = 17.690956 Si / 1000 Ang^3
#
#
#
# Elastic Constant Matrix: (Units=GPa)
#
#
# Indices 1 2 3 4 5 6 
#
# 1 50.9858 9.5446 36.0882 0.0021 -9.6978 -0.0006
# 2 9.5446 56.4692 27.5611 0.0144 -9.0817 -0.0047
# 3 36.0882 27.5611 109.7363 0.0003 -23.1560 -0.0001
# 4 0.0021 0.0144 0.0003 97.0276 -0.0013 -14.8560
# 5 -9.6978 -9.0817 -23.1560 -0.0013 22.4110 0.0004
# 6 -0.0006 -0.0047 -0.0001 -14.8560 0.0004 27.7491
#
#
#
# Elastic Compliance Matrix: (Units=1/GPa)
#
#
# Indices 1 2 3 4 5 6 
#
# 1 0.025727 -0.000049 -0.007805 0.000000 0.003048 0.000000
# 2 -0.000049 0.020434 -0.004314 -0.000003 0.003802 0.000002
# 3 -0.007805 -0.004314 0.014938 0.000001 0.010309 -0.000001
# 4 0.000000 -0.000003 0.000001 0.011227 0.000000 0.006010
# 5 0.003048 0.003802 0.010309 0.000000 0.058133 0.000000
# 6 0.000000 0.000002 -0.000001 0.006010 0.000000 0.039255
#
#
# Mechanical properties :
#
#
# Convention : Reuss Voigt Hill
#
# Bulk Modulus (GPa) = 27.20056 40.39768 33.79912
# Shear Modulus (GPa) = 24.23614 39.03736 31.63675
#
# Velocity S-wave (km/s) = 3.70533 4.70257 4.23342
# Velocity P-wave (km/s) = 5.80644 7.23674 6.56068
#
# Compressibility (1/GPa) = 0.03676395
#
# Stress axis : x y z
#
# Youngs Moduli (GPa) = 38.87003 48.93818 66.94137
#
# Poissons Ratio (x) = 0.00238 0.52248
# Poissons Ratio (y) = 0.00189 0.28877
# Poissons Ratio (z) = 0.30338 0.21111
#
# Static dielectric constant tensor:
#      x y z
#    x 2.865180 0.000000 -0.182670 
#    y 0.000000 3.405530 0.000000 
#    z -0.182670 0.000000 3.513510 
# 
# 
# High freq. dielectric constant tensor:
#      x y z
#    x 1.633350 0.000000 -0.017810 
#    y 0.000000 1.698310 0.000000 
#    z -0.017810 0.000000 1.693240 
# 
# From -- ./inp_files/295190.got.cif
#   From: 2010.06.25/outbox.cif.g09.slc.cpg/sg12_148_cif.got.tgz:295190.got - 2010.06.28 00:19:55.
