data_PCOD8086949
_publ_section_title
;
Structure prediction by ZEFSAII (Michael W. Deem and Ramdas Pophale) SiO2 
 PCOD8086949
Probable space group: C 2/M
;
_chemical_formula_sum "Si O2"
_cell_formula_units_Z 48
_cell_length_a 22.209157
_cell_length_b 7.827145
_cell_length_c 29.206406
_cell_angle_alpha 90.000000
_cell_angle_beta 148.719759
_cell_angle_gamma 90.000000
_cell_volume 2636.141240
_symmetry_space_group_name_H-M "C 2/M"
_symmetry_group_IT_number 12
_symmetry_cell_setting 'monoclinic'
loop_
_space_group_symop_operation_xyz
x,y,z
-x,y,-z
-x,-y,-z
x,-y,z
1/2+x,1/2+y,z
1/2-x,1/2+y,-z
1/2-x,1/2-y,-z
1/2+x,1/2-y,z
loop_
_atom_site_type_symbol
_atom_site_label
_atom_site_fract_x
_atom_site_fract_y
_atom_site_fract_z
Si Si1 0.429239 0.201312 0.629882
Si Si2 0.629890 0.805884 0.588750
Si Si3 0.790951 0.801366 0.455296
Si Si4 0.170830 0.000000 0.079014
Si Si5 0.570184 0.500000 0.114823
Si Si6 0.682807 0.691836 0.801767
Si Si7 0.282146 0.809600 0.768093
O O1 0.328407 0.260831 0.598949
O O2 0.397883 0.261036 0.558361
O O3 0.546372 0.291498 0.722291
O O4 0.447280 0.000000 0.642079
O O5 0.500000 0.730696 0.500000
O O6 0.694033 0.800864 0.581760
O O7 0.698590 0.694699 0.670170
O O8 0.625586 0.000000 0.603809
O O9 0.787471 0.000000 0.441499
O O10 0.113462 0.000000 0.091263
O O11 0.247642 0.171003 0.122289
O O12 0.069773 0.000000 0.975090
O O13 0.615425 0.670189 0.169985
O O14 0.722796 0.500000 0.841282
O O15 0.706029 0.730141 0.763494
O O16 0.337054 0.000000 0.806683
#
# Coordination Sequence:
#
# PCOD8086949 Si02
#       7
#     8   8   8   4   4   8   8
#     4  10  19  33  50  70 104 138 169 213 258 297
#     4  11  22  34  50  72 103 141 179 210 250 299
#     4  10  21  33  48  72 101 137 177 213 252 296
#     4   9  18  32  52  76 106 132 165 214 257 311
#     4   9  18  34  51  74 106 136 165 210 263 306
#     4  10  19  31  52  78 104 136 170 207 260 304
#     4  10  20  33  51  75 105 139 174 208 252 308
#
# _framework density 18.208431999999998
#
# number of rings (size 3 to 8) (size 9 to 14) (size 15 to 20)
#    0.000    2.000    1.667    2.500    0.000    6.667 
#    0.000    3.333    0.000    0.000    0.000    1.167 
#    0.000    0.000    0.000    0.000    0.000    0.000 
#
# Total GULP energy -297656.407407 kJ/mol
# GULP energy per Si atom -12402.350309 kJ/mol
# Density = 1.816699 g / cm^3
# Si number density = 18.208432 Si / 1000 Ang^3
#
#
#
# Elastic Constant Matrix: (Units=GPa)
#
#
# Indices 1 2 3 4 5 6 
#
# 1 51.2712 20.5063 27.3669 0.0001 2.6129 0.0001
# 2 20.5063 109.2902 56.0943 -0.0001 9.7175 0.0030
# 3 27.3669 56.0943 127.2358 0.0003 16.3446 0.0004
# 4 0.0001 -0.0001 0.0003 21.5073 -0.0001 -0.5599
# 5 2.6129 9.7175 16.3446 -0.0001 19.5228 0.0000
# 6 0.0001 0.0030 0.0004 -0.5599 0.0000 20.2369
#
#
#
# Elastic Compliance Matrix: (Units=1/GPa)
#
#
# Indices 1 2 3 4 5 6 
#
# 1 0.022489 -0.002289 -0.004020 0.000000 0.001495 0.000000
# 2 -0.002289 0.012110 -0.004607 0.000000 -0.001864 -0.000002
# 3 -0.004020 -0.004607 0.011644 0.000000 -0.006917 0.000000
# 4 0.000000 0.000000 0.000000 0.046529 0.000000 0.001287
# 5 0.001495 -0.001864 -0.006917 0.000000 0.057741 0.000000
# 6 0.000000 -0.000002 0.000000 0.001287 0.000000 0.049450
#
#
# Mechanical properties :
#
#
# Convention : Reuss Voigt Hill
#
# Bulk Modulus (GPa) = 40.96629 55.08136 48.02382
# Shear Modulus (GPa) = 21.74548 24.50871 23.12710
#
# Velocity S-wave (km/s) = 3.45955 3.67278 3.56776
# Velocity P-wave (km/s) = 6.20527 6.94996 6.58814
#
# Compressibility (1/GPa) = 0.02441031
#
# Stress axis : x y z
#
# Youngs Moduli (GPa) = 44.46567 82.57757 85.88363
#
# Poissons Ratio (x) = 0.18905 0.34524
# Poissons Ratio (y) = 0.10180 0.39566
# Poissons Ratio (z) = 0.17875 0.38043
#
# Static dielectric constant tensor:
#      x y z
#    x 3.114790 0.000000 0.136780 
#    y 0.000000 3.474070 0.000000 
#    z 0.136780 0.000000 3.313660 
# 
# 
# High freq. dielectric constant tensor:
#      x y z
#    x 1.669990 0.000000 0.011630 
#    y 0.000000 1.723440 0.000000 
#    z 0.011630 0.000000 1.688400 
# 
# From -- ./inp_files/345720.got.cif
#   From: 2010.06.25/outbox.cif.g09.slc.cpg/sg12_173_cif.got.tgz:345720.got - 2010.06.28 00:19:55.
