data_PCOD8086328
_publ_section_title
;
Structure prediction by ZEFSAII (Michael W. Deem and Ramdas Pophale) SiO2 
 PCOD8086328
Probable space group: C 2/M
;
_chemical_formula_sum "Si O2"
_cell_formula_units_Z 64
_cell_length_a 14.616374
_cell_length_b 9.437491
_cell_length_c 27.295816
_cell_angle_alpha 90.000000
_cell_angle_beta 107.295188
_cell_angle_gamma 90.000000
_cell_volume 3594.994397
_symmetry_space_group_name_H-M "C 2/M"
_symmetry_group_IT_number 12
_symmetry_cell_setting 'monoclinic'
loop_
_space_group_symop_operation_xyz
x,y,z
-x,y,-z
-x,-y,-z
x,-y,z
1/2+x,1/2+y,z
1/2-x,1/2+y,-z
1/2-x,1/2-y,-z
1/2+x,1/2-y,z
loop_
_atom_site_type_symbol
_atom_site_label
_atom_site_fract_x
_atom_site_fract_y
_atom_site_fract_z
Si Si1 0.733372 0.667387 0.615001
Si Si2 0.477057 0.333264 0.133114
Si Si3 0.403706 0.333113 0.322714
Si Si4 0.832126 0.333516 0.867690
Si Si5 0.777818 0.836109 0.051787
Si Si6 0.103926 0.832219 0.506286
Si Si7 0.396348 0.333718 0.603759
Si Si8 0.865007 0.831306 0.209527
O O1 0.747883 0.500000 0.613727
O O2 0.684845 0.713450 0.657937
O O3 0.676097 0.726981 0.558556
O O4 0.833570 0.747226 0.632177
O O5 0.500815 0.500000 0.136367
O O6 0.571322 0.250182 0.130590
O O7 0.387033 0.298483 0.083750
O O8 0.443862 0.281483 0.182121
O O9 0.405856 0.500000 0.316818
O O10 0.496675 0.283698 0.367223
O O11 0.394840 0.266205 0.267056
O O12 0.852672 0.500000 0.863998
O O13 0.798609 0.299944 0.917723
O O14 0.743657 0.281613 0.819443
O O15 0.770890 0.000000 0.037465
O O16 0.750000 0.750000 0.000000
O O17 0.133802 0.788956 0.456123
O O18 0.000000 0.765661 0.500000
O O19 0.097651 0.000000 0.510775
O O20 0.382696 0.500000 0.609864
O O21 0.864161 0.000000 0.208475
#
# Coordination Sequence:
#
# PCOD8086328 Si02
#       8
#     8   8   8   8   8   8   8   8
#     4  10  19  31  49  71  94 122 157 195 236 284
#     4   9  18  33  52  73  98 129 164 200 239 283
#     4   9  17  31  51  71  92 125 163 194 233 289
#     4   9  18  33  52  73  98 129 164 200 239 283
#     4   9  19  34  50  72 103 135 164 197 237 281
#     4   9  15  28  49  68  89 122 161 193 224 280
#     4  10  19  31  49  71  94 122 157 195 236 284
#     4   8  16  32  51  70  95 126 161 200 239 283
#
# _framework density 17.802530999999998
#
# number of rings (size 3 to 8) (size 9 to 14) (size 15 to 20)
#    0.000    2.875    1.250    1.875    0.000    2.500 
#    0.000    5.000    0.000    2.250    0.000    0.000 
#    0.000    0.000    0.000    0.000    0.000    0.000 
#
# Total GULP energy -396582.545017 kJ/mol
# GULP energy per Si atom -12393.204532 kJ/mol
# Density = 1.776201 g / cm^3
# Si number density = 17.802531 Si / 1000 Ang^3
#
#
#
# Elastic Constant Matrix: (Units=GPa)
#
#
# Indices 1 2 3 4 5 6 
#
# 1 124.4544 42.3950 37.9973 0.0000 -22.0078 0.0000
# 2 42.3950 33.8196 32.1142 0.0000 -6.9735 0.0000
# 3 37.9973 32.1142 122.1141 0.0000 -14.0683 0.0000
# 4 0.0000 0.0000 0.0000 15.1774 0.0000 -3.3088
# 5 -22.0078 -6.9735 -14.0683 0.0000 17.2059 0.0000
# 6 0.0000 0.0000 0.0000 -3.3088 0.0000 33.0353
#
#
#
# Elastic Compliance Matrix: (Units=1/GPa)
#
#
# Indices 1 2 3 4 5 6 
#
# 1 0.016857 -0.019597 0.001631 0.000000 0.014952 0.000000
# 2 -0.019597 0.063290 -0.011569 0.000000 -0.008874 0.000000
# 3 0.001631 -0.011569 0.011508 0.000000 0.006807 0.000000
# 4 0.000000 0.000000 0.000000 0.067358 0.000000 0.006747
# 5 0.014952 -0.008874 0.006807 0.000000 0.079214 0.000000
# 6 0.000000 0.000000 0.000000 0.006747 0.000000 0.030946
#
#
# Mechanical properties :
#
#
# Convention : Reuss Voigt Hill
#
# Bulk Modulus (GPa) = 30.68802 56.15567 43.42185
# Shear Modulus (GPa) = 14.74469 24.27582 19.51026
#
# Velocity S-wave (km/s) = 2.88103 3.69672 3.31407
# Velocity P-wave (km/s) = 5.32377 7.05926 6.25203
#
# Compressibility (1/GPa) = 0.03258601
#
# Stress axis : x y z
#
# Youngs Moduli (GPa) = 59.32353 15.80024 86.89443
#
# Poissons Ratio (x) = 0.30963 -0.14173
# Poissons Ratio (y) = 1.16254 1.00528
# Poissons Ratio (z) = -0.09676 0.18279
#
# Static dielectric constant tensor:
#      x y z
#    x 3.354660 0.000000 -0.030010 
#    y 0.000000 2.832190 0.000000 
#    z -0.030010 0.000000 3.539620 
# 
# 
# High freq. dielectric constant tensor:
#      x y z
#    x 1.697180 0.000000 -0.004200 
#    y 0.000000 1.643210 0.000000 
#    z -0.004200 0.000000 1.694290 
# 
# From -- ./inp_files/359881.got.cif
#   From: 2010.06.25/outbox.cif.g09.slc.cpg/sg12_180_cif.got.tgz:359881.got - 2010.06.28 00:19:55.
