data_PCOD8086485
_publ_section_title
;
Structure prediction by ZEFSAII (Michael W. Deem and Ramdas Pophale) SiO2 
 PCOD8086485
Probable space group: C 2/M
;
_chemical_formula_sum "Si O2"
_cell_formula_units_Z 56
_cell_length_a 28.285277
_cell_length_b 9.117701
_cell_length_c 17.343935
_cell_angle_alpha 90.000000
_cell_angle_beta 135.935175
_cell_angle_gamma 90.000000
_cell_volume 3110.806090
_symmetry_space_group_name_H-M "C 2/M"
_symmetry_group_IT_number 12
_symmetry_cell_setting 'monoclinic'
loop_
_space_group_symop_operation_xyz
x,y,z
-x,y,-z
-x,-y,-z
x,-y,z
1/2+x,1/2+y,z
1/2-x,1/2+y,-z
1/2-x,1/2-y,-z
1/2+x,1/2-y,z
loop_
_atom_site_type_symbol
_atom_site_label
_atom_site_fract_x
_atom_site_fract_y
_atom_site_fract_z
Si Si1 0.397644 0.171034 0.093141
Si Si2 0.430683 0.169958 0.303856
Si Si3 0.662711 0.827891 0.663201
Si Si4 0.465870 0.668980 0.770175
Si Si5 0.815179 0.174068 0.874290
Si Si6 0.568031 0.671379 0.439665
Si Si7 0.572367 0.328990 0.110380
O O1 0.393711 0.203878 0.179686
O O2 0.467947 0.231851 0.141576
O O3 0.393204 0.000000 0.069811
O O4 0.335132 0.253061 0.979034
O O5 0.379091 0.217085 0.309929
O O6 0.499079 0.262732 0.394139
O O7 0.451525 0.000000 0.334045
O O8 0.739702 0.774879 0.764233
O O9 0.633219 0.745002 0.554647
O O10 0.658321 0.000000 0.642170
O O11 0.490378 0.500000 0.798966
O O12 0.426596 0.706301 0.645310
O O13 0.416358 0.700351 0.784950
O O14 0.865271 0.236349 0.865967
O O15 0.818484 0.000000 0.888006
O O16 0.568314 0.500000 0.457310
O O17 0.570557 0.500000 0.089490
O O18 0.500000 0.259428 0.000000
#
# Coordination Sequence:
#
# PCOD8086485 Si02
#       7
#     8   8   8   8   8   8   8
#     4  10  19  31  49  75 104 130 160 204 254 295
#     4   9  19  35  53  73  99 133 169 203 246 297
#     4  10  21  36  52  70  99 138 172 203 242 295
#     4   9  17  32  53  76 100 128 164 205 247 292
#     4  10  20  34  52  74 100 133 171 203 241 298
#     4  10  20  33  53  78 101 127 166 212 250 286
#     4   9  15  28  54  78  96 125 166 205 240 290
#
# _framework density 18.001764000000001
#
# number of rings (size 3 to 8) (size 9 to 14) (size 15 to 20)
#    0.000    2.429    1.429    1.286    0.000    4.571 
#    0.000    2.143    0.000    0.000    0.000    0.000 
#    0.000    0.000    0.000    0.000    0.000    0.000 
#
# Total GULP energy -347203.681908 kJ/mol
# GULP energy per Si atom -12400.131497 kJ/mol
# Density = 1.796079 g / cm^3
# Si number density = 18.001764 Si / 1000 Ang^3
#
#
#
# Elastic Constant Matrix: (Units=GPa)
#
#
# Indices 1 2 3 4 5 6 
#
# 1 73.9339 19.5618 56.2877 0.0000 -5.7228 0.0000
# 2 19.5618 46.8032 50.5530 0.0000 -0.5419 0.0000
# 3 56.2877 50.5530 154.7673 0.0000 1.8060 0.0000
# 4 0.0000 0.0000 0.0000 32.9625 0.0000 -3.1696
# 5 -5.7228 -0.5419 1.8060 0.0000 22.4647 0.0000
# 6 0.0000 0.0000 0.0000 -3.1696 0.0000 16.2470
#
#
#
# Elastic Compliance Matrix: (Units=1/GPa)
#
#
# Indices 1 2 3 4 5 6 
#
# 1 0.019370 -0.000547 -0.006930 0.000000 0.005478 0.000000
# 2 -0.000547 0.033091 -0.010627 0.000000 0.001513 0.000000
# 3 -0.006930 -0.010627 0.012488 0.000000 -0.003026 0.000000
# 4 0.000000 0.000000 0.000000 0.030918 0.000000 0.006032
# 5 0.005478 0.001513 -0.003026 0.000000 0.046190 0.000000
# 6 0.000000 0.000000 0.000000 0.006032 0.000000 0.062727
#
#
# Mechanical properties :
#
#
# Convention : Reuss Voigt Hill
#
# Bulk Modulus (GPa) = 34.79426 58.70104 46.74765
# Shear Modulus (GPa) = 19.95419 24.27496 22.11458
#
# Velocity S-wave (km/s) = 3.33296 3.67614 3.50875
# Velocity P-wave (km/s) = 5.84651 7.12025 6.51459
#
# Compressibility (1/GPa) = 0.02874037
#
# Stress axis : x y z
#
# Youngs Moduli (GPa) = 51.62490 30.21943 80.07448
#
# Poissons Ratio (x) = 0.01654 0.55492
# Poissons Ratio (y) = 0.02826 0.85099
# Poissons Ratio (z) = 0.35776 0.32116
#
# Static dielectric constant tensor:
#      x y z
#    x 3.409200 0.000000 -0.142070 
#    y 0.000000 3.172460 0.000000 
#    z -0.142070 0.000000 3.364070 
# 
# 
# High freq. dielectric constant tensor:
#      x y z
#    x 1.692590 0.000000 -0.017700 
#    y 0.000000 1.680190 0.000000 
#    z -0.017700 0.000000 1.694940 
# 
# From -- ./inp_files/281675.got.cif
#   From: 2010.06.25/outbox.cif.g09.slc.cpg/sg12_141_cif.got.tgz:281675.got - 2010.06.28 00:19:55.
