data_PCOD8086891
_publ_section_title
;
Structure prediction by ZEFSAII (Michael W. Deem and Ramdas Pophale) SiO2 
 PCOD8086891
Probable space group: C 2/M
;
_chemical_formula_sum "Si O2"
_cell_formula_units_Z 56
_cell_length_a 22.339833
_cell_length_b 9.335833
_cell_length_c 15.811100
_cell_angle_alpha 90.000000
_cell_angle_beta 62.315505
_cell_angle_gamma 90.000000
_cell_volume 2920.069279
_symmetry_space_group_name_H-M "C 2/M"
_symmetry_group_IT_number 12
_symmetry_cell_setting 'monoclinic'
loop_
_space_group_symop_operation_xyz
x,y,z
-x,y,-z
-x,-y,-z
x,-y,z
1/2+x,1/2+y,z
1/2-x,1/2+y,-z
1/2-x,1/2-y,-z
1/2+x,1/2-y,z
loop_
_atom_site_type_symbol
_atom_site_label
_atom_site_fract_x
_atom_site_fract_y
_atom_site_fract_z
Si Si1 0.944315 0.164669 0.363279
Si Si2 0.923219 0.668456 0.721271
Si Si3 0.801256 0.165464 0.524618
Si Si4 0.427368 0.835893 0.911221
Si Si5 0.557854 0.665208 0.832611
Si Si6 0.660351 0.836339 0.875025
Si Si7 0.304392 0.335926 0.716450
O O1 0.878180 0.215089 0.457453
O O2 0.929727 0.188688 0.274370
O O3 0.006099 0.262344 0.354029
O O4 0.962843 0.000000 0.370435
O O5 0.927341 0.500000 0.703671
O O6 0.907627 0.708789 0.829085
O O7 0.864137 0.731232 0.703009
O O8 0.750000 0.250000 0.500000
O O9 0.783443 0.194718 0.633663
O O10 0.793682 0.000000 0.505048
O O11 0.488669 0.741206 0.906895
O O12 0.451819 0.000000 0.897573
O O13 0.362521 0.809972 0.013223
O O14 0.552038 0.500000 0.861346
O O15 0.621264 0.732473 0.838014
O O16 0.739794 0.802356 0.817493
O O17 0.646034 0.000000 0.856567
O O18 0.328589 0.500000 0.711513
#
# Coordination Sequence:
#
# PCOD8086891 Si02
#       7
#     8   8   8   8   8   8   8
#     4   9  19  36  56  77 106 142 173 209 260 311
#     4  10  21  37  56  78 103 135 178 221 258 301
#     4  10  21  37  58  83 109 138 171 209 257 311
#     4   9  19  35  53  74 103 139 176 213 257 311
#     4  10  19  31  51  80 108 134 171 217 261 306
#     4  10  20  34  52  74 104 142 176 210 259 313
#     4  10  22  38  55  77 106 139 174 213 259 311
#
# _framework density 19.177627000000001
#
# number of rings (size 3 to 8) (size 9 to 14) (size 15 to 20)
#    0.000    2.286    0.000    2.143    0.000    6.286 
#    0.000    2.857    0.000    0.000    0.000    0.000 
#    0.000    0.000    0.000    0.000    0.000    0.000 
#
# Total GULP energy -347317.002337 kJ/mol
# GULP energy per Si atom -12404.178655 kJ/mol
# Density = 1.913398 g / cm^3
# Si number density = 19.177627 Si / 1000 Ang^3
#
#
#
# Elastic Constant Matrix: (Units=GPa)
#
#
# Indices 1 2 3 4 5 6 
#
# 1 111.3631 63.8895 35.3411 0.0000 -10.4139 0.0000
# 2 63.8895 91.3731 33.5757 0.0000 -6.4470 0.0000
# 3 35.3411 33.5757 85.4140 0.0000 -25.6550 0.0000
# 4 0.0000 0.0000 0.0000 22.0696 0.0000 2.9116
# 5 -10.4139 -6.4470 -25.6550 0.0000 26.4951 0.0000
# 6 0.0000 0.0000 0.0000 2.9116 0.0000 38.8799
#
#
#
# Elastic Compliance Matrix: (Units=1/GPa)
#
#
# Indices 1 2 3 4 5 6 
#
# 1 0.015499 -0.009995 -0.001953 0.000000 0.001769 0.000000
# 2 -0.009995 0.019353 -0.004566 0.000000 -0.003640 0.000000
# 3 -0.001953 -0.004566 0.019384 0.000000 0.016891 0.000000
# 4 0.000000 0.000000 0.000000 0.045763 0.000000 -0.003427
# 5 0.001769 -0.003640 0.016891 0.000000 0.053907 0.000000
# 6 0.000000 0.000000 0.000000 -0.003427 0.000000 0.025977
#
#
# Mechanical properties :
#
#
# Convention : Reuss Voigt Hill
#
# Bulk Modulus (GPa) = 47.14757 61.52921 54.33839
# Shear Modulus (GPa) = 22.72946 27.84518 25.28732
#
# Velocity S-wave (km/s) = 3.44642 3.81460 3.63517
# Velocity P-wave (km/s) = 6.36201 7.18018 6.78344
#
# Compressibility (1/GPa) = 0.02121000
#
# Stress axis : x y z
#
# Youngs Moduli (GPa) = 64.52161 51.67058 51.59009
#
# Poissons Ratio (x) = 0.51643 0.10073
# Poissons Ratio (y) = 0.64487 0.23554
# Poissons Ratio (z) = 0.12599 0.23591
#
# Static dielectric constant tensor:
#      x y z
#    x 3.286990 0.000000 -0.118640 
#    y 0.000000 3.527700 0.000000 
#    z -0.118640 0.000000 3.700550 
# 
# 
# High freq. dielectric constant tensor:
#      x y z
#    x 1.735850 0.000000 -0.006960 
#    y 0.000000 1.745230 0.000000 
#    z -0.006960 0.000000 1.754150 
# 
# From -- ./inp_files/238306.got.cif
#   From: 2010.06.25/outbox.cif.g09.slc.cpg/sg12_120_cif.got.tgz:238306.got - 2010.06.28 00:19:55.
