data_PCOD8086750
_publ_section_title
;
Structure prediction by ZEFSAII (Michael W. Deem and Ramdas Pophale) SiO2 
 PCOD8086750
Probable space group: C 2/M
;
_chemical_formula_sum "Si O2"
_cell_formula_units_Z 56
_cell_length_a 20.235426
_cell_length_b 8.961784
_cell_length_c 29.748592
_cell_angle_alpha 90.000000
_cell_angle_beta 146.156749
_cell_angle_gamma 90.000000
_cell_volume 3004.472226
_symmetry_space_group_name_H-M "C 2/M"
_symmetry_group_IT_number 12
_symmetry_cell_setting 'monoclinic'
loop_
_space_group_symop_operation_xyz
x,y,z
-x,y,-z
-x,-y,-z
x,-y,z
1/2+x,1/2+y,z
1/2-x,1/2+y,-z
1/2-x,1/2-y,-z
1/2+x,1/2-y,z
loop_
_atom_site_type_symbol
_atom_site_label
_atom_site_fract_x
_atom_site_fract_y
_atom_site_fract_z
Si Si1 0.007914 0.825316 0.912079
Si Si2 0.009489 0.674847 0.817155
Si Si3 0.063014 0.334709 0.487662
Si Si4 0.145773 0.828821 0.665893
Si Si5 0.793292 0.672072 0.836267
Si Si6 0.282907 0.323454 0.664153
Si Si7 0.248206 0.672978 0.901514
O O1 0.994081 0.739203 0.857951
O O2 0.908634 0.770174 0.890655
O O3 0.992187 0.000000 0.894308
O O4 0.134740 0.787027 0.004674
O O5 0.986837 0.500000 0.806821
O O6 0.138091 0.715218 0.870892
O O7 0.910461 0.747385 0.728614
O O8 0.062858 0.500000 0.465939
O O9 0.198001 0.280331 0.573831
O O10 0.000000 0.339886 0.500000
O O11 0.991883 0.224020 0.414509
O O12 0.189976 0.805262 0.741413
O O13 0.228682 0.732090 0.680507
O O14 0.153578 0.000000 0.655028
O O15 0.832095 0.500000 0.861325
O O16 0.739144 0.725909 0.852492
O O17 0.297034 0.500000 0.675634
O O18 0.245801 0.500000 0.885962
#
# Coordination Sequence:
#
# PCOD8086750 Si02
#       7
#     8   8   8   8   8   8   8
#     4  11  22  38  60  82 107 143 185 228 276 329
#     4  11  22  37  57  82 112 143 182 230 275 325
#     4   8  16  29  47  75 108 139 176 219 266 320
#     4  10  19  31  50  79 111 141 177 223 272 319
#     4  11  23  37  56  83 113 145 183 228 273 322
#     4  10  19  32  52  79 109 143 180 220 269 325
#     4  10  24  41  56  79 110 146 186 227 275 329
#
# _framework density 18.638881000000001
#
# number of rings (size 3 to 8) (size 9 to 14) (size 15 to 20)
#    0.000    1.857    1.429    3.857    0.000    8.857 
#    0.000    0.000    0.000    0.857    0.000    0.000 
#    0.000    0.000    0.000    0.000    0.000    0.000 
#
# Total GULP energy -347248.399069 kJ/mol
# GULP energy per Si atom -12401.728538 kJ/mol
# Density = 1.859646 g / cm^3
# Si number density = 18.638881 Si / 1000 Ang^3
#
#
#
# Elastic Constant Matrix: (Units=GPa)
#
#
# Indices 1 2 3 4 5 6 
#
# 1 46.2184 23.5278 22.5869 0.0000 -0.1538 0.0001
# 2 23.5278 88.2583 53.3965 0.0000 3.3978 0.0003
# 3 22.5869 53.3965 122.3717 0.0000 13.8852 0.0000
# 4 0.0000 0.0000 0.0000 30.8277 0.0000 -0.0978
# 5 -0.1538 3.3978 13.8852 0.0000 6.7678 0.0000
# 6 0.0001 0.0003 0.0000 -0.0978 0.0000 27.1984
#
#
#
# Elastic Compliance Matrix: (Units=1/GPa)
#
#
# Indices 1 2 3 4 5 6 
#
# 1 0.026139 -0.005047 -0.003881 0.000000 0.011090 0.000000
# 2 -0.005047 0.016699 -0.007026 0.000000 0.005917 0.000000
# 3 -0.003881 -0.007026 0.015073 0.000000 -0.027484 0.000000
# 4 0.000000 0.000000 0.000000 0.032439 0.000000 0.000117
# 5 0.011090 0.005917 -0.027484 0.000000 0.201429 0.000000
# 6 0.000000 0.000000 0.000000 0.000117 0.000000 0.036767
#
#
# Mechanical properties :
#
#
# Convention : Reuss Voigt Hill
#
# Bulk Modulus (GPa) = 38.45826 50.65230 44.55528
# Shear Modulus (GPa) = 13.54567 23.44792 18.49680
#
# Velocity S-wave (km/s) = 2.69874 3.55069 3.15362
# Velocity P-wave (km/s) = 5.51263 6.63660 6.10056
#
# Compressibility (1/GPa) = 0.02600222
#
# Stress axis : x y z
#
# Youngs Moduli (GPa) = 38.25679 59.88361 66.34542
#
# Poissons Ratio (x) = 0.30225 0.25746
# Poissons Ratio (y) = 0.19309 0.46617
# Poissons Ratio (z) = 0.14846 0.42077
#
# Static dielectric constant tensor:
#      x y z
#    x 3.088280 0.000000 0.215020 
#    y 0.000000 3.528510 0.000000 
#    z 0.215020 0.000000 3.954680 
# 
# 
# High freq. dielectric constant tensor:
#      x y z
#    x 1.682720 0.000000 0.010500 
#    y 0.000000 1.734550 0.000000 
#    z 0.010500 0.000000 1.743700 
# 
# From -- ./inp_files/275125.got.cif
#   From: 2010.06.25/outbox.cif.g09.slc.cpg/sg12_138_cif.got.tgz:275125.got - 2010.06.28 00:19:55.
