data_PCOD8086157
_publ_section_title
;
Structure prediction by ZEFSAII (Michael W. Deem and Ramdas Pophale) SiO2 
 PCOD8086157
Probable space group: C 2/M
;
_chemical_formula_sum "Si O2"
_cell_formula_units_Z 64
_cell_length_a 28.147474
_cell_length_b 9.247544
_cell_length_c 20.646677
_cell_angle_alpha 90.000000
_cell_angle_beta 47.820535
_cell_angle_gamma 90.000000
_cell_volume 3982.545546
_symmetry_space_group_name_H-M "C 2/M"
_symmetry_group_IT_number 12
_symmetry_cell_setting 'monoclinic'
loop_
_space_group_symop_operation_xyz
x,y,z
-x,y,-z
-x,-y,-z
x,-y,z
1/2+x,1/2+y,z
1/2-x,1/2+y,-z
1/2-x,1/2-y,-z
1/2+x,1/2-y,z
loop_
_atom_site_type_symbol
_atom_site_label
_atom_site_fract_x
_atom_site_fract_y
_atom_site_fract_z
Si Si1 0.186612 0.830837 0.348767
Si Si2 0.655908 0.166790 0.598538
Si Si3 0.398297 0.335410 0.824084
Si Si4 0.789586 0.168205 0.820558
Si Si5 0.955390 0.831647 0.480645
Si Si6 0.746225 0.668635 0.604068
Si Si7 0.709644 0.333321 0.984040
Si Si8 0.518099 0.169779 0.673500
O O1 0.193252 0.788006 0.267901
O O2 0.116433 0.783980 0.436534
O O3 0.239518 0.743014 0.340432
O O4 0.198287 0.000000 0.349071
O O5 0.681321 0.264556 0.633998
O O6 0.694571 0.202163 0.497686
O O7 0.582310 0.207718 0.654143
O O8 0.665049 0.000000 0.609498
O O9 0.421240 0.500000 0.791990
O O10 0.349866 0.290959 0.810644
O O11 0.458915 0.230097 0.768980
O O12 0.364513 0.319960 0.925697
O O13 0.726052 0.258278 0.900239
O O14 0.772907 0.000000 0.842682
O O15 0.981643 0.741920 0.396730
O O16 0.000000 0.793751 0.500000
O O17 0.959342 0.000000 0.459243
O O18 0.735298 0.500000 0.625241
O O19 0.730840 0.500000 0.962385
O O20 0.750000 0.250000 0.000000
O O21 0.510654 0.000000 0.670493
#
# Coordination Sequence:
#
# PCOD8086157 Si02
#       8
#     8   8   8   8   8   8   8   8
#     4  10  19  31  48  69  95 128 160 193 236 280
#     4   9  19  34  48  66  93 120 154 199 243 283
#     4   9  18  32  48  68  97 129 162 195 229 280
#     4   9  18  32  49  70  97 128 163 198 232 278
#     4  10  20  33  47  63  91 132 168 191 221 272
#     4  10  19  32  50  69  91 119 157 201 240 281
#     4   9  17  30  48  69  94 124 159 200 240 277
#     4  11  21  32  47  70  96 123 157 199 239 276
#
# _framework density 16.070124
#
# number of rings (size 3 to 8) (size 9 to 14) (size 15 to 20)
#    0.000    2.375    1.250    2.625    0.000    6.750 
#    0.000    1.250    0.000    0.000    0.000    0.875 
#    0.000    7.000    0.000    0.000    0.000    0.000 
#
# Total GULP energy -396805.242503 kJ/mol
# GULP energy per Si atom -12400.163828 kJ/mol
# Density = 1.603355 g / cm^3
# Si number density = 16.070124 Si / 1000 Ang^3
#
#
#
# Elastic Constant Matrix: (Units=GPa)
#
#
# Indices 1 2 3 4 5 6 
#
# 1 81.2564 42.3651 31.1727 0.0075 -9.6632 0.0019
# 2 42.3651 69.0441 37.5087 0.0067 -9.5071 -0.0008
# 3 31.1727 37.5087 75.0264 0.0230 -14.8747 0.0003
# 4 0.0075 0.0067 0.0230 30.6584 0.0011 0.6519
# 5 -9.6632 -9.5071 -14.8747 0.0011 12.5041 -0.0026
# 6 0.0019 -0.0008 0.0003 0.6519 -0.0026 22.7397
#
#
#
# Elastic Compliance Matrix: (Units=1/GPa)
#
#
# Indices 1 2 3 4 5 6 
#
# 1 0.018711 -0.009770 -0.001957 -0.000001 0.004703 -0.000001
# 2 -0.009770 0.025164 -0.008146 0.000003 0.001892 0.000002
# 3 -0.001957 -0.008146 0.021837 -0.000015 0.018270 0.000002
# 4 -0.000001 0.000003 -0.000015 0.032637 -0.000019 -0.000936
# 5 0.004703 0.001892 0.018270 -0.000019 0.106781 0.000012
# 6 -0.000001 0.000002 0.000002 -0.000936 0.000012 0.044003
#
#
# Mechanical properties :
#
#
# Convention : Reuss Voigt Hill
#
# Bulk Modulus (GPa) = 38.51360 49.71335 44.11347
# Shear Modulus (GPa) = 16.80479 20.79915 18.80197
#
# Velocity S-wave (km/s) = 3.23726 3.60151 3.42423
# Velocity P-wave (km/s) = 6.16370 6.94959 6.56841
#
# Compressibility (1/GPa) = 0.02596486
#
# Stress axis : x y z
#
# Youngs Moduli (GPa) = 53.44542 39.73886 45.79435
#
# Poissons Ratio (x) = 0.38824 0.08963
# Poissons Ratio (y) = 0.52215 0.37305
# Poissons Ratio (z) = 0.10461 0.32372
#
# Static dielectric constant tensor:
#      x y z
#    x 2.888680 -0.000010 -0.033110 
#    y -0.000010 3.147890 0.000020 
#    z -0.033110 0.000020 3.278820 
# 
# 
# High freq. dielectric constant tensor:
#      x y z
#    x 1.594210 0.000000 -0.002080 
#    y 0.000000 1.625140 0.000000 
#    z -0.002080 0.000000 1.608040 
# 
# From -- ./inp_files/326812.got.cif
#   From: 2010.06.25/outbox.cif.g09.slc.cpg/sg12_164_cif.got.tgz:326812.got - 2010.06.28 00:19:55.
