data_PCOD8086592
_publ_section_title
;
Structure prediction by ZEFSAII (Michael W. Deem and Ramdas Pophale) SiO2 
 PCOD8086592
Probable space group: C 2/M
;
_chemical_formula_sum "Si O2"
_cell_formula_units_Z 48
_cell_length_a 27.505043
_cell_length_b 8.677695
_cell_length_c 13.553796
_cell_angle_alpha 90.000000
_cell_angle_beta 120.764421
_cell_angle_gamma 90.000000
_cell_volume 2779.784911
_symmetry_space_group_name_H-M "C 2/M"
_symmetry_group_IT_number 12
_symmetry_cell_setting 'monoclinic'
loop_
_space_group_symop_operation_xyz
x,y,z
-x,y,-z
-x,-y,-z
x,-y,z
1/2+x,1/2+y,z
1/2-x,1/2+y,-z
1/2-x,1/2-y,-z
1/2+x,1/2-y,z
loop_
_atom_site_type_symbol
_atom_site_label
_atom_site_fract_x
_atom_site_fract_y
_atom_site_fract_z
Si Si1 0.163095 0.678425 0.867675
Si Si2 0.332752 0.179215 0.555034
Si Si3 0.060949 0.319039 0.462588
Si Si4 0.721765 0.321271 0.321456
Si Si5 0.765306 0.678688 0.869414
Si Si6 0.443037 0.680489 0.331468
O O1 0.148475 0.500000 0.838666
O O2 0.209010 0.723900 0.832813
O O3 0.106169 0.776306 0.795850
O O4 0.186612 0.717098 0.000446
O O5 0.392561 0.225648 0.570267
O O6 0.325631 0.276158 0.647645
O O7 0.283623 0.222482 0.426732
O O8 0.329478 0.000000 0.578990
O O9 0.061698 0.500000 0.486368
O O10 0.075442 0.230045 0.578116
O O11 0.000020 0.268579 0.358008
O O12 0.716541 0.500000 0.290400
O O13 0.710199 0.224187 0.211104
O O14 0.748822 0.500000 0.856078
O O15 0.454928 0.500000 0.341128
#
# Coordination Sequence:
#
# PCOD8086592 Si02
#       6
#     8   8   8   8   8   8
#     4  10  20  34  51  72  99 131 165 199 242 292
#     4   9  19  33  49  71  98 130 165 199 238 286
#     4  10  19  33  52  72  99 133 166 202 244 290
#     4  10  19  31  50  74 101 131 161 197 241 290
#     4  10  20  33  51  74 100 129 162 202 243 288
#     4  11  21  32  49  74 102 130 163 203 245 290
#
# _framework density 17.267522
#
# number of rings (size 3 to 8) (size 9 to 14) (size 15 to 20)
#    0.000    2.000    0.000    5.500    0.000    5.333 
#    0.000    0.000    0.000    1.000    0.000    7.000 
#    0.000    0.000    0.000    0.000    0.000    0.000 
#
# Total GULP energy -297716.809633 kJ/mol
# GULP energy per Si atom -12404.867068 kJ/mol
# Density = 1.722822 g / cm^3
# Si number density = 17.267522 Si / 1000 Ang^3
#
#
#
# Elastic Constant Matrix: (Units=GPa)
#
#
# Indices 1 2 3 4 5 6 
#
# 1 110.2570 24.9928 49.1250 0.0000 -2.7069 0.0000
# 2 24.9928 53.7305 26.0709 0.0000 -1.8301 0.0000
# 3 49.1250 26.0709 84.8030 0.0000 -2.8116 0.0000
# 4 0.0000 0.0000 0.0000 27.6206 0.0000 -0.5504
# 5 -2.7069 -1.8301 -2.8116 0.0000 25.9426 0.0000
# 6 0.0000 0.0000 0.0000 -0.5504 0.0000 29.3222
#
#
#
# Elastic Compliance Matrix: (Units=1/GPa)
#
#
# Indices 1 2 3 4 5 6 
#
# 1 0.012558 -0.002708 -0.006428 0.000000 0.000423 0.000000
# 2 -0.002708 0.022476 -0.005317 0.000000 0.000727 0.000000
# 3 -0.006428 -0.005317 0.017177 0.000000 0.000816 0.000000
# 4 0.000000 0.000000 0.000000 0.036218 0.000000 0.000680
# 5 0.000423 0.000727 0.000816 0.000000 0.038730 0.000000
# 6 0.000000 0.000000 0.000000 0.000680 0.000000 0.034117
#
#
# Mechanical properties :
#
#
# Convention : Reuss Voigt Hill
#
# Bulk Modulus (GPa) = 42.90918 49.90753 46.40835
# Shear Modulus (GPa) = 25.25882 26.48386 25.87134
#
# Velocity S-wave (km/s) = 3.82880 3.92055 3.87494
# Velocity P-wave (km/s) = 6.66707 7.03275 6.85235
#
# Compressibility (1/GPa) = 0.02330504
#
# Stress axis : x y z
#
# Youngs Moduli (GPa) = 79.63068 44.49273 58.21614
#
# Poissons Ratio (x) = 0.12048 0.37422
# Poissons Ratio (y) = 0.21563 0.30953
# Poissons Ratio (z) = 0.51188 0.23656
#
# Static dielectric constant tensor:
#      x y z
#    x 3.170960 0.000000 0.043390 
#    y 0.000000 3.297700 0.000000 
#    z 0.043390 0.000000 3.112500 
# 
# 
# High freq. dielectric constant tensor:
#      x y z
#    x 1.656680 0.000000 0.000790 
#    y 0.000000 1.681240 0.000000 
#    z 0.000790 0.000000 1.653220 
# 
# From -- ./inp_files/180259.got.cif
#   From: 2010.06.25/outbox.cif.g09.slc.cpg/sg12_91_cif.got.tgz:180259.got - 2010.06.28 00:19:55.
