data_PCOD8086900
_publ_section_title
;
Structure prediction by ZEFSAII (Michael W. Deem and Ramdas Pophale) SiO2 
 PCOD8086900
Probable space group: C 2/M
;
_chemical_formula_sum "Si O2"
_cell_formula_units_Z 64
_cell_length_a 20.465698
_cell_length_b 9.069506
_cell_length_c 24.978597
_cell_angle_alpha 90.000000
_cell_angle_beta 129.985130
_cell_angle_gamma 90.000000
_cell_volume 3552.440018
_symmetry_space_group_name_H-M "C 2/M"
_symmetry_group_IT_number 12
_symmetry_cell_setting 'monoclinic'
loop_
_space_group_symop_operation_xyz
x,y,z
-x,y,-z
-x,-y,-z
x,-y,z
1/2+x,1/2+y,z
1/2-x,1/2+y,-z
1/2-x,1/2-y,-z
1/2+x,1/2-y,z
loop_
_atom_site_type_symbol
_atom_site_label
_atom_site_fract_x
_atom_site_fract_y
_atom_site_fract_z
Si Si1 0.923046 0.172512 0.215389
Si Si2 0.074135 0.671291 0.000192
Si Si3 0.984175 0.826174 0.133150
Si Si4 0.067476 0.331642 0.348303
Si Si5 0.680669 0.325848 0.231481
Si Si6 0.730761 0.174390 0.364062
Si Si7 0.763157 0.329106 0.844120
Si Si8 0.316955 0.828585 0.497613
O O1 0.948845 0.235514 0.170842
O O2 0.825955 0.214696 0.175999
O O3 0.983301 0.238200 0.293014
O O4 0.938227 0.000000 0.224299
O O5 0.058669 0.500000 0.980707
O O6 0.165195 0.703552 0.074190
O O7 0.071947 0.754827 0.942924
O O8 0.000000 0.732840 0.000000
O O9 0.082127 0.777596 0.178714
O O10 0.973284 0.000000 0.123243
O O11 0.045929 0.500000 0.324259
O O12 0.144608 0.280468 0.350139
O O13 0.092149 0.311409 0.424171
O O14 0.691077 0.500000 0.244752
O O15 0.728903 0.241827 0.304213
O O16 0.724056 0.275703 0.199621
O O17 0.812264 0.247183 0.437659
O O18 0.743925 0.000000 0.368419
O O19 0.765870 0.500000 0.827407
O O20 0.250000 0.750000 0.500000
O O21 0.293184 0.000000 0.478391
#
# Coordination Sequence:
#
# PCOD8086900 Si02
#       8
#     8   8   8   8   8   8   8   8
#     4  10  21  37  55  77 109 145 178 221 270 321
#     4  10  20  35  56  79 104 140 179 220 269 320
#     4  10  21  35  54  81 107 137 177 221 271 319
#     4   9  18  31  50  77 109 143 178 218 263 316
#     4  11  21  34  55  81 108 140 179 224 270 318
#     4  10  19  31  51  80 110 142 180 224 269 317
#     4  10  22  39  56  77 107 142 182 221 268 327
#     4   9  17  29  46  75 111 144 179 222 270 316
#
# _framework density 18.015787
#
# number of rings (size 3 to 8) (size 9 to 14) (size 15 to 20)
#    0.000    2.125    2.500    1.875    0.000    5.250 
#    0.000    0.000    0.000    0.750    0.000    5.250 
#    0.000    0.000    0.000    0.000    0.000    0.000 
#
# Total GULP energy -396822.390689 kJ/mol
# GULP energy per Si atom -12400.699709 kJ/mol
# Density = 1.797478 g / cm^3
# Si number density = 18.015787 Si / 1000 Ang^3
#
#
#
# Elastic Constant Matrix: (Units=GPa)
#
#
# Indices 1 2 3 4 5 6 
#
# 1 84.0228 35.5648 54.2068 0.0000 3.6046 0.0000
# 2 35.5648 68.0697 57.7217 0.0000 -4.1040 0.0000
# 3 54.2068 57.7217 145.5954 0.0000 -6.0361 0.0000
# 4 0.0000 0.0000 0.0000 39.4527 0.0000 -3.6965
# 5 3.6046 -4.1040 -6.0361 0.0000 24.0385 0.0000
# 6 0.0000 0.0000 0.0000 -3.6965 0.0000 23.0136
#
#
#
# Elastic Compliance Matrix: (Units=1/GPa)
#
#
# Indices 1 2 3 4 5 6 
#
# 1 0.017319 -0.005571 -0.004433 0.000000 -0.004661 0.000000
# 2 -0.005571 0.023983 -0.007306 0.000000 0.003095 0.000000
# 3 -0.004433 -0.007306 0.011511 0.000000 0.002308 0.000000
# 4 0.000000 0.000000 0.000000 0.025734 0.000000 0.004133
# 5 -0.004661 0.003095 0.002308 0.000000 0.043407 0.000000
# 6 0.000000 0.000000 0.000000 0.004133 0.000000 0.044116
#
#
# Mechanical properties :
#
#
# Convention : Reuss Voigt Hill
#
# Bulk Modulus (GPa) = 54.96232 65.85272 60.40752
# Shear Modulus (GPa) = 24.18324 27.31396 25.74860
#
# Velocity S-wave (km/s) = 3.66777 3.89795 3.78461
# Velocity P-wave (km/s) = 6.96497 7.54260 7.25953
#
# Compressibility (1/GPa) = 0.01819428
#
# Stress axis : x y z
#
# Youngs Moduli (GPa) = 57.73878 41.69559 86.87510
#
# Poissons Ratio (x) = 0.23229 0.38510
# Poissons Ratio (y) = 0.32167 0.63469
# Poissons Ratio (z) = 0.25594 0.30462
#
# Static dielectric constant tensor:
#      x y z
#    x 3.091820 0.000000 -0.048380 
#    y 0.000000 3.310550 0.000000 
#    z -0.048380 0.000000 3.495390 
# 
# 
# High freq. dielectric constant tensor:
#      x y z
#    x 1.662200 0.000000 -0.006660 
#    y 0.000000 1.699390 0.000000 
#    z -0.006660 0.000000 1.713840 
# 
# From -- ./inp_files/346136.got.cif
#   From: 2010.06.25/outbox.cif.g09.slc.cpg/sg12_174_cif.got.tgz:346136.got - 2010.06.28 00:19:55.
