data_PCOD8086546
_publ_section_title
;
Structure prediction by ZEFSAII (Michael W. Deem and Ramdas Pophale) SiO2 
 PCOD8086546
Probable space group: C 2/M
;
_chemical_formula_sum "Si O2"
_cell_formula_units_Z 64
_cell_length_a 31.791739
_cell_length_b 9.134475
_cell_length_c 14.141311
_cell_angle_alpha 90.000000
_cell_angle_beta 116.874759
_cell_angle_gamma 90.000000
_cell_volume 3663.117296
_symmetry_space_group_name_H-M "C 2/M"
_symmetry_group_IT_number 12
_symmetry_cell_setting 'monoclinic'
loop_
_space_group_symop_operation_xyz
x,y,z
-x,y,-z
-x,-y,-z
x,-y,z
1/2+x,1/2+y,z
1/2-x,1/2+y,-z
1/2-x,1/2-y,-z
1/2+x,1/2-y,z
loop_
_atom_site_type_symbol
_atom_site_label
_atom_site_fract_x
_atom_site_fract_y
_atom_site_fract_z
Si Si1 0.970531 0.665514 0.610478
Si Si2 0.030887 0.332933 0.167506
Si Si3 0.802372 0.830942 0.461359
Si Si4 0.937780 0.831352 0.078479
Si Si5 0.883805 0.830167 0.842265
Si Si6 0.388455 0.668087 0.425239
Si Si7 0.063288 0.168918 0.710557
Si Si8 0.305216 0.171497 0.655363
O O1 0.974041 0.500000 0.578772
O O2 0.965915 0.677056 0.717424
O O3 0.924447 0.735591 0.520037
O O4 0.018045 0.745282 0.624831
O O5 0.034600 0.500000 0.135305
O O6 0.073133 0.236894 0.171441
O O7 0.980923 0.266275 0.083229
O O8 0.835445 0.794465 0.405133
O O9 0.749176 0.792466 0.377047
O O10 0.819178 0.734214 0.566997
O O11 0.806078 0.000000 0.496044
O O12 0.922327 0.781708 0.168607
O O13 0.954510 0.000000 0.094652
O O14 0.893274 0.808846 0.963980
O O15 0.835583 0.747934 0.767895
O O16 0.879087 0.000000 0.810416
O O17 0.400462 0.500000 0.459646
O O18 0.393390 0.699668 0.317573
O O19 0.048954 0.000000 0.696248
O O20 0.316273 0.000000 0.666618
#
# Coordination Sequence:
#
# PCOD8086546 Si02
#       8
#     8   8   8   8   8   8   8   8
#     4  10  20  31  44  68 101 130 155 188 232 279
#     4  10  20  32  47  70  99 129 160 195 236 281
#     4   9  19  35  53  74  99 124 152 190 236 285
#     4   9  19  34  49  67  94 128 163 198 235 275
#     4  11  21  32  49  71  95 126 162 197 235 280
#     4  10  19  31  50  72  92 121 160 196 232 276
#     4   9  18  33  50  67  91 125 163 198 230 270
#     4  10  20  34  52  74  99 125 153 189 236 286
#
# _framework density 17.471458999999999
#
# number of rings (size 3 to 8) (size 9 to 14) (size 15 to 20)
#    0.000    2.250    0.000    3.000    0.000    9.000 
#    0.000    0.000    0.000    0.750    0.000    0.000 
#    0.000    0.000    0.000    0.000    0.000    0.500 
#
# Total GULP energy -396818.113280 kJ/mol
# GULP energy per Si atom -12400.566040 kJ/mol
# Density = 1.743169 g / cm^3
# Si number density = 17.471459 Si / 1000 Ang^3
#
#
#
# Elastic Constant Matrix: (Units=GPa)
#
#
# Indices 1 2 3 4 5 6 
#
# 1 112.4479 44.3373 50.8697 0.0000 -0.4936 0.0000
# 2 44.3373 88.3378 48.2162 0.0000 5.5678 0.0000
# 3 50.8697 48.2162 87.9870 0.0000 18.6061 0.0000
# 4 0.0000 0.0000 0.0000 25.2593 0.0000 5.0495
# 5 -0.4936 5.5678 18.6061 0.0000 14.5226 0.0000
# 6 0.0000 0.0000 0.0000 5.0495 0.0000 21.6566
#
#
#
# Elastic Compliance Matrix: (Units=1/GPa)
#
#
# Indices 1 2 3 4 5 6 
#
# 1 0.014523 -0.002799 -0.009867 0.000000 0.014208 0.000000
# 2 -0.002799 0.017236 -0.008791 0.000000 0.004560 0.000000
# 3 -0.009867 -0.008791 0.029140 0.000000 -0.034299 0.000000
# 4 0.000000 0.000000 0.000000 0.041525 0.000000 -0.009682
# 5 0.014208 0.004560 -0.034299 0.000000 0.111537 0.000000
# 6 0.000000 0.000000 0.000000 -0.009682 0.000000 0.048433
#
#
# Mechanical properties :
#
#
# Convention : Reuss Voigt Hill
#
# Bulk Modulus (GPa) = 55.60248 63.95766 59.78007
# Shear Modulus (GPa) = 16.06154 21.97767 19.01960
#
# Velocity S-wave (km/s) = 3.03529 3.55056 3.30299
# Velocity P-wave (km/s) = 6.64664 7.31403 6.98831
#
# Compressibility (1/GPa) = 0.01798481
#
# Stress axis : x y z
#
# Youngs Moduli (GPa) = 68.85799 58.01813 34.31652
#
# Poissons Ratio (x) = 0.16239 0.33860
# Poissons Ratio (y) = 0.19273 0.30168
# Poissons Ratio (z) = 0.67942 0.51005
#
# Static dielectric constant tensor:
#      x y z
#    x 3.269000 0.000000 -0.111450 
#    y 0.000000 3.407610 0.000000 
#    z -0.111450 0.000000 3.326940 
# 
# 
# High freq. dielectric constant tensor:
#      x y z
#    x 1.660560 0.000000 -0.009490 
#    y 0.000000 1.684230 0.000000 
#    z -0.009490 0.000000 1.668340 
# 
# From -- ./inp_files/248983.got.cif
#   From: 2010.06.25/outbox.cif.g09.slc.cpg/sg12_125_cif.got.tgz:248983.got - 2010.06.28 00:19:55.
