data_PCOD8086996
_publ_section_title
;
Structure prediction by ZEFSAII (Michael W. Deem and Ramdas Pophale) SiO2 
 PCOD8086996
Probable space group: C 2/M
;
_chemical_formula_sum "Si O2"
_cell_formula_units_Z 64
_cell_length_a 14.974256
_cell_length_b 13.804383
_cell_length_c 19.164205
_cell_angle_alpha 90.000000
_cell_angle_beta 64.806175
_cell_angle_gamma 90.000000
_cell_volume 3584.599668
_symmetry_space_group_name_H-M "C 2/M"
_symmetry_group_IT_number 12
_symmetry_cell_setting 'monoclinic'
loop_
_space_group_symop_operation_xyz
x,y,z
-x,y,-z
-x,-y,-z
x,-y,z
1/2+x,1/2+y,z
1/2-x,1/2+y,-z
1/2-x,1/2-y,-z
1/2+x,1/2-y,z
loop_
_atom_site_type_symbol
_atom_site_label
_atom_site_fract_x
_atom_site_fract_y
_atom_site_fract_z
Si Si1 0.443744 0.896741 0.317546
Si Si2 0.389423 0.611003 0.016287
Si Si3 0.383837 0.612620 0.854719
Si Si4 0.768311 0.236600 0.158968
Si Si5 0.653560 0.894753 0.302040
Si Si6 0.417399 0.269764 0.231165
Si Si7 0.257414 0.198526 0.604940
Si Si8 0.749856 0.388721 0.459392
O O1 0.538917 0.906336 0.331915
O O2 0.462755 0.828959 0.245132
O O3 0.362379 0.865376 0.401074
O O4 0.413074 0.000000 0.294943
O O5 0.374904 0.500000 0.046034
O O6 0.308115 0.679013 0.079002
O O7 0.500000 0.644939 0.000000
O O8 0.367160 0.621827 0.942361
O O9 0.380329 0.500000 0.832050
O O10 0.295129 0.669223 0.843999
O O11 0.494038 0.653142 0.804008
O O12 0.695229 0.170288 0.226727
O O13 0.863574 0.257905 0.176258
O O14 0.658491 0.850167 0.377353
O O15 0.706547 0.000000 0.281301
O O16 0.339437 0.306434 0.314133
O O17 0.302346 0.305463 0.570449
O O18 0.233106 0.133395 0.545848
O O19 0.716640 0.500000 0.453780
#
# Coordination Sequence:
#
# PCOD8086996 Si02
#       8
#     8   8   8   8   8   8   8   8
#     4   9  18  33  53  76 105 138 177 226 276 326
#     4  10  20  36  59  85 111 145 188 230 278 330
#     4  11  23  38  57  84 115 149 187 229 278 334
#     4  11  21  36  59  82 112 147 182 228 277 328
#     4  10  19  31  52  81 106 132 179 227 270 322
#     4  10  20  36  56  79 111 145 185 228 278 328
#     4   9  19  31  50  80 105 142 182 228 273 327
#     4   9  17  32  51  74 105 144 182 221 276 331
#
# _framework density 17.854154999999999
#
# number of rings (size 3 to 8) (size 9 to 14) (size 15 to 20)
#    0.000    2.125    2.500    1.125    0.000    3.500 
#    0.000    3.750    0.000    0.375    0.000    2.625 
#    0.000    0.000    0.000    0.000    0.000    0.000 
#
# Total GULP energy -396429.052085 kJ/mol
# GULP energy per Si atom -12388.407878 kJ/mol
# Density = 1.781352 g / cm^3
# Si number density = 17.854155 Si / 1000 Ang^3
#
#
#
# Elastic Constant Matrix: (Units=GPa)
#
#
# Indices 1 2 3 4 5 6 
#
# 1 85.6611 51.6163 26.8546 0.0000 12.7075 0.0000
# 2 51.6163 125.5416 41.3491 0.0000 16.8228 0.0000
# 3 26.8546 41.3491 82.9059 0.0000 15.8767 0.0000
# 4 0.0000 0.0000 0.0000 20.2733 0.0000 -0.6858
# 5 12.7075 16.8228 15.8767 0.0000 17.0424 0.0000
# 6 0.0000 0.0000 0.0000 -0.6858 0.0000 24.7522
#
#
#
# Elastic Compliance Matrix: (Units=1/GPa)
#
#
# Indices 1 2 3 4 5 6 
#
# 1 0.016226 -0.005462 -0.001518 0.000000 -0.005293 0.000000
# 2 -0.005462 0.011914 -0.003287 0.000000 -0.004625 0.000000
# 3 -0.001518 -0.003287 0.016255 0.000000 -0.010766 0.000000
# 4 0.000000 0.000000 0.000000 0.049372 0.000000 0.001368
# 5 -0.005293 -0.004625 -0.010766 0.000000 0.077219 0.000000
# 6 0.000000 0.000000 0.000000 0.001368 0.000000 0.040438
#
#
# Mechanical properties :
#
#
# Convention : Reuss Voigt Hill
#
# Bulk Modulus (GPa) = 41.91049 59.30541 50.60795
# Shear Modulus (GPa) = 20.84095 24.03282 22.43688
#
# Velocity S-wave (km/s) = 3.42027 3.67285 3.54881
# Velocity P-wave (km/s) = 6.25479 7.16067 6.72300
#
# Compressibility (1/GPa) = 0.02386037
#
# Stress axis : x y z
#
# Youngs Moduli (GPa) = 61.62824 83.93757 61.52066
#
# Poissons Ratio (x) = 0.45848 0.09340
# Poissons Ratio (y) = 0.33662 0.20221
# Poissons Ratio (z) = 0.09356 0.27589
#
# Static dielectric constant tensor:
#      x y z
#    x 3.296050 0.000000 0.090630 
#    y 0.000000 3.722180 0.000000 
#    z 0.090630 0.000000 3.287110 
# 
# 
# High freq. dielectric constant tensor:
#      x y z
#    x 1.676770 0.000000 0.003050 
#    y 0.000000 1.698840 0.000000 
#    z 0.003050 0.000000 1.695490 
# 
# From -- ./inp_files/270284.got.cif
#   From: 2010.06.25/outbox.cif.g09.slc.cpg/sg12_136_cif.got.tgz:270284.got - 2010.06.28 00:19:55.
