data_PCOD8086635
_publ_section_title
;
Structure prediction by ZEFSAII (Michael W. Deem and Ramdas Pophale) SiO2 
 PCOD8086635
Probable space group: C 2/M
;
_chemical_formula_sum "Si O2"
_cell_formula_units_Z 48
_cell_length_a 18.570199
_cell_length_b 8.949066
_cell_length_c 25.436356
_cell_angle_alpha 90.000000
_cell_angle_beta 41.520711
_cell_angle_gamma 90.000000
_cell_volume 2802.148272
_symmetry_space_group_name_H-M "C 2/M"
_symmetry_group_IT_number 12
_symmetry_cell_setting 'monoclinic'
loop_
_space_group_symop_operation_xyz
x,y,z
-x,y,-z
-x,-y,-z
x,-y,z
1/2+x,1/2+y,z
1/2-x,1/2+y,-z
1/2-x,1/2-y,-z
1/2+x,1/2-y,z
loop_
_atom_site_type_symbol
_atom_site_label
_atom_site_fract_x
_atom_site_fract_y
_atom_site_fract_z
Si Si1 0.794010 0.668286 0.259567
Si Si2 0.912083 0.676828 0.007318
Si Si3 0.331786 0.676912 0.843398
Si Si4 0.134341 0.324340 0.280546
Si Si5 0.566780 0.330288 0.415048
Si Si6 0.965713 0.675222 0.860090
O O1 0.806103 0.500000 0.229729
O O2 0.756466 0.773940 0.231506
O O3 0.697267 0.673155 0.356330
O O4 0.908567 0.716807 0.221560
O O5 0.913958 0.500000 0.010096
O O6 0.792028 0.735641 0.086834
O O7 0.942555 0.727134 0.932017
O O8 0.000000 0.745342 0.000000
O O9 0.338884 0.500000 0.834110
O O10 0.392655 0.752518 0.760917
O O11 0.390530 0.726671 0.864265
O O12 0.124562 0.500000 0.281751
O O13 0.047722 0.263046 0.371490
O O14 0.500000 0.257952 0.500000
O O15 0.526472 0.500000 0.427891
O O16 0.941667 0.500000 0.864373
#
# Coordination Sequence:
#
# PCOD8086635 Si02
#       6
#     8   8   8   8   8   8
#     4   8  16  31  51  74  99 130 164 201 250 299
#     4   9  18  32  52  73  95 130 172 212 250 295
#     4  11  21  33  49  71 102 136 172 208 252 300
#     4  10  19  31  50  75 102 130 168 208 248 294
#     4   8  15  30  53  79 103 128 162 202 248 300
#     4  10  19  33  52  73 101 134 171 208 249 299
#
# _framework density 17.129715000000001
#
# number of rings (size 3 to 8) (size 9 to 14) (size 15 to 20)
#    1.000    1.667    0.000    3.000    0.000    3.667 
#    0.000    0.833    0.000    4.500    0.000    0.000 
#    0.000    0.000    0.000    0.000    0.000    0.000 
#
# Total GULP energy -297376.309700 kJ/mol
# GULP energy per Si atom -12390.679571 kJ/mol
# Density = 1.709073 g / cm^3
# Si number density = 17.129715 Si / 1000 Ang^3
#
#
#
# Elastic Constant Matrix: (Units=GPa)
#
#
# Indices 1 2 3 4 5 6 
#
# 1 102.1179 35.0130 53.1437 0.0001 16.2351 0.0001
# 2 35.0130 73.7814 37.5785 0.0002 8.6465 -0.0003
# 3 53.1437 37.5785 123.4452 0.0000 15.1688 0.0000
# 4 0.0001 0.0002 0.0000 16.7914 0.0000 5.1119
# 5 16.2351 8.6465 15.1688 0.0000 17.6985 0.0000
# 6 0.0001 -0.0003 0.0000 5.1119 0.0000 27.4008
#
#
#
# Elastic Compliance Matrix: (Units=1/GPa)
#
#
# Indices 1 2 3 4 5 6 
#
# 1 0.014509 -0.003873 -0.004096 0.000000 -0.007907 0.000000
# 2 -0.003873 0.017342 -0.003362 0.000000 -0.002039 0.000000
# 3 -0.004096 -0.003362 0.011427 0.000000 -0.004395 0.000000
# 4 0.000000 0.000000 0.000000 0.063141 0.000000 -0.011780
# 5 -0.007907 -0.002039 -0.004395 0.000000 0.068518 0.000000
# 6 0.000000 0.000000 0.000000 -0.011780 0.000000 0.038693
#
#
# Mechanical properties :
#
#
# Convention : Reuss Voigt Hill
#
# Bulk Modulus (GPa) = 48.49897 61.20165 54.85031
# Shear Modulus (GPa) = 20.56238 23.95209 22.25723
#
# Velocity S-wave (km/s) = 3.46843 3.74341 3.60854
# Velocity P-wave (km/s) = 6.66440 7.38174 7.03222
#
# Compressibility (1/GPa) = 0.02061900
#
# Stress axis : x y z
#
# Youngs Moduli (GPa) = 68.92300 57.66232 87.50990
#
# Poissons Ratio (x) = 0.22330 0.35841
# Poissons Ratio (y) = 0.26691 0.29417
# Poissons Ratio (z) = 0.28229 0.19383
#
# Static dielectric constant tensor:
#      x y z
#    x 3.063280 0.000000 -0.047080 
#    y 0.000000 2.933750 0.000000 
#    z -0.047080 0.000000 3.276450 
# 
# 
# High freq. dielectric constant tensor:
#      x y z
#    x 1.639630 0.000000 0.003180 
#    y 0.000000 1.642630 0.000000 
#    z 0.003180 0.000000 1.657710 
# 
# From -- ./inp_files/341898.got.cif
#   From: 2010.06.25/outbox.cif.g09.slc.cpg/sg12_171_cif.got.tgz:341898.got - 2010.06.28 00:19:55.
