data_PCOD8086898
_publ_section_title
;
Structure prediction by ZEFSAII (Michael W. Deem and Ramdas Pophale) SiO2 
 PCOD8086898
Probable space group: C 2/M
;
_chemical_formula_sum "Si O2"
_cell_formula_units_Z 64
_cell_length_a 24.295339
_cell_length_b 8.873848
_cell_length_c 16.454507
_cell_angle_alpha 90.000000
_cell_angle_beta 93.694017
_cell_angle_gamma 90.000000
_cell_volume 3540.108506
_symmetry_space_group_name_H-M "C 2/M"
_symmetry_group_IT_number 12
_symmetry_cell_setting 'monoclinic'
loop_
_space_group_symop_operation_xyz
x,y,z
-x,y,-z
-x,-y,-z
x,-y,z
1/2+x,1/2+y,z
1/2-x,1/2+y,-z
1/2-x,1/2-y,-z
1/2+x,1/2-y,z
loop_
_atom_site_type_symbol
_atom_site_label
_atom_site_fract_x
_atom_site_fract_y
_atom_site_fract_z
Si Si1 0.613572 0.675671 0.303901
Si Si2 0.407089 0.177919 0.134176
Si Si3 0.689758 0.674404 0.777973
Si Si4 0.019292 0.177475 0.174133
Si Si5 0.093635 0.674625 0.050647
Si Si6 0.813950 0.328047 0.817330
Si Si7 0.677431 0.173580 0.436441
Si Si8 0.286865 0.826128 0.385303
O O1 0.614500 0.500000 0.323307
O O2 0.556779 0.724305 0.254900
O O3 0.664516 0.716451 0.249949
O O4 0.620878 0.767517 0.389044
O O5 0.352510 0.229275 0.174254
O O6 0.459911 0.249686 0.183075
O O7 0.411717 0.000000 0.139771
O O8 0.404079 0.234468 0.040919
O O9 0.672970 0.500000 0.779192
O O10 0.749435 0.702857 0.824241
O O11 0.688310 0.727520 0.684656
O O12 0.046167 0.236349 0.093463
O O13 0.013464 0.000000 0.166669
O O14 0.077116 0.500000 0.052464
O O15 0.153791 0.703689 0.095684
O O16 0.824003 0.500000 0.789218
O O17 0.673109 0.195859 0.532948
O O18 0.726141 0.272825 0.403406
O O19 0.688556 0.000000 0.415523
O O20 0.283958 0.000000 0.358339
#
# Coordination Sequence:
#
# PCOD8086898 Si02
#       8
#     8   8   8   8   8   8   8   8
#     4  10  19  31  52  80 108 137 171 217 265 310
#     4  11  23  37  54  75 102 142 183 219 265 316
#     4  11  22  35  53  76 107 144 179 216 260 313
#     4  10  21  36  55  80 106 134 175 225 270 309
#     4   9  19  36  56  78 104 135 175 222 268 314
#     4   9  18  33  52  75 105 139 174 213 262 315
#     4  10  19  31  51  80 110 140 172 210 258 307
#     4  10  20  33  51  77 110 142 174 212 253 306
#
# _framework density 18.078541000000001
#
# number of rings (size 3 to 8) (size 9 to 14) (size 15 to 20)
#    0.000    2.000    1.250    2.625    0.000    6.500 
#    0.000    0.000    0.000    0.750    0.000    5.250 
#    0.000    0.000    0.000    0.000    0.000    0.000 
#
# Total GULP energy -396865.593475 kJ/mol
# GULP energy per Si atom -12402.049796 kJ/mol
# Density = 1.803739 g / cm^3
# Si number density = 18.078541 Si / 1000 Ang^3
#
#
#
# Elastic Constant Matrix: (Units=GPa)
#
#
# Indices 1 2 3 4 5 6 
#
# 1 90.8339 25.0731 30.6048 0.0000 11.1259 0.0000
# 2 25.0731 47.4451 23.7680 0.0000 8.8026 0.0000
# 3 30.6048 23.7680 65.3795 0.0000 20.2000 0.0000
# 4 0.0000 0.0000 0.0000 28.4627 0.0000 -0.9162
# 5 11.1259 8.8026 20.2000 0.0000 23.3236 0.0000
# 6 0.0000 0.0000 0.0000 -0.9162 0.0000 30.1436
#
#
#
# Elastic Compliance Matrix: (Units=1/GPa)
#
#
# Indices 1 2 3 4 5 6 
#
# 1 0.014002 -0.004997 -0.004447 0.000000 -0.000942 0.000000
# 2 -0.004997 0.027637 -0.007129 0.000000 -0.001872 0.000000
# 3 -0.004447 -0.007129 0.025234 0.000000 -0.017043 0.000000
# 4 0.000000 0.000000 0.000000 0.035168 0.000000 0.001069
# 5 -0.000942 -0.001872 -0.017043 0.000000 0.058791 0.000000
# 6 0.000000 0.000000 0.000000 0.001069 0.000000 0.033207
#
#
# Mechanical properties :
#
#
# Convention : Reuss Voigt Hill
#
# Bulk Modulus (GPa) = 29.65028 40.28335 34.96681
# Shear Modulus (GPa) = 20.97063 24.66681 22.81872
#
# Velocity S-wave (km/s) = 3.40953 3.69782 3.55660
# Velocity P-wave (km/s) = 5.65122 6.36888 6.02075
#
# Compressibility (1/GPa) = 0.03372650
#
# Stress axis : x y z
#
# Youngs Moduli (GPa) = 71.41753 36.18376 39.62850
#
# Poissons Ratio (x) = 0.18082 0.17622
# Poissons Ratio (y) = 0.35689 0.28253
# Poissons Ratio (z) = 0.31758 0.25797
#
# Static dielectric constant tensor:
#      x y z
#    x 3.240020 0.000000 0.352490 
#    y 0.000000 3.404740 0.000000 
#    z 0.352490 0.000000 3.503610 
# 
# 
# High freq. dielectric constant tensor:
#      x y z
#    x 1.680340 0.000000 0.027980 
#    y 0.000000 1.711790 0.000000 
#    z 0.027980 0.000000 1.696870 
# 
# From -- ./inp_files/238559.got.cif
#   From: 2010.06.25/outbox.cif.g09.slc.cpg/sg12_120_cif.got.tgz:238559.got - 2010.06.28 00:19:55.
