data_PCOD8086389
_publ_section_title
;
Structure prediction by ZEFSAII (Michael W. Deem and Ramdas Pophale) SiO2 
 PCOD8086389
Probable space group: C 2/M
;
_chemical_formula_sum "Si O2"
_cell_formula_units_Z 56
_cell_length_a 18.925530
_cell_length_b 8.855774
_cell_length_c 29.911976
_cell_angle_alpha 90.000000
_cell_angle_beta 142.118875
_cell_angle_gamma 90.000000
_cell_volume 3078.264168
_symmetry_space_group_name_H-M "C 2/M"
_symmetry_group_IT_number 12
_symmetry_cell_setting 'monoclinic'
loop_
_space_group_symop_operation_xyz
x,y,z
-x,y,-z
-x,-y,-z
x,-y,z
1/2+x,1/2+y,z
1/2-x,1/2+y,-z
1/2-x,1/2-y,-z
1/2+x,1/2-y,z
loop_
_atom_site_type_symbol
_atom_site_label
_atom_site_fract_x
_atom_site_fract_y
_atom_site_fract_z
Si Si1 0.174400 0.321286 0.000852
Si Si2 0.558178 0.675574 0.709688
Si Si3 0.778995 0.324335 0.279489
Si Si4 0.029030 0.324976 0.562031
Si Si5 0.258767 0.822709 0.869259
Si Si6 0.410162 0.821577 0.862062
Si Si7 0.626332 0.178330 0.434495
O O1 0.189673 0.500000 0.006877
O O2 0.215539 0.253445 0.069179
O O3 0.250000 0.250000 0.000000
O O4 0.042453 0.273499 0.928358
O O5 0.527784 0.500000 0.691501
O O6 0.648237 0.719194 0.716722
O O7 0.625331 0.713836 0.789592
O O8 0.439295 0.767792 0.643658
O O9 0.788320 0.500000 0.270186
O O10 0.835889 0.302103 0.357251
O O11 0.648309 0.263746 0.209953
O O12 0.998520 0.500000 0.542720
O O13 0.000000 0.245197 0.500000
O O14 0.946957 0.259824 0.559927
O O15 0.349207 0.761469 0.877245
O O16 0.279656 0.000000 0.882030
O O17 0.394437 0.000000 0.848379
O O18 0.750000 0.250000 0.500000
O O19 0.636835 0.000000 0.438436
#
# Coordination Sequence:
#
# PCOD8086389 Si02
#       7
#     8   8   8   8   8   8   8
#     4  10  20  34  50  70  98 128 158 193 238 289
#     4   9  16  29  50  72  94 122 159 201 241 280
#     4   9  16  27  47  73  97 120 151 197 244 281
#     4   8  15  29  48  69  92 121 158 195 230 273
#     4   8  15  30  53  74  89 117 163 203 232 276
#     4   9  17  31  52  72  91 121 161 200 233 275
#     4  10  19  31  49  72  99 129 161 199 240 283
#
# _framework density 18.192070000000001
#
# number of rings (size 3 to 8) (size 9 to 14) (size 15 to 20)
#    0.000    3.000    0.000    3.429    0.000    2.286 
#    0.000    5.000    0.000   26.571    0.000    0.000 
#    0.000    0.000    0.000    0.000    0.000    0.000 
#
# Total GULP energy -346906.930879 kJ/mol
# GULP energy per Si atom -12389.533246 kJ/mol
# Density = 1.815066 g / cm^3
# Si number density = 18.192070 Si / 1000 Ang^3
#
#
#
# Elastic Constant Matrix: (Units=GPa)
#
#
# Indices 1 2 3 4 5 6 
#
# 1 76.4367 24.3419 73.8871 0.0000 1.4579 0.0000
# 2 24.3419 43.5253 52.0370 -0.0001 3.9022 0.0001
# 3 73.8871 52.0370 202.7648 0.0000 4.0924 0.0000
# 4 0.0000 -0.0001 0.0000 31.2752 0.0000 4.6082
# 5 1.4579 3.9022 4.0924 0.0000 26.7276 0.0000
# 6 0.0000 0.0001 0.0000 4.6082 0.0000 19.5312
#
#
#
# Elastic Compliance Matrix: (Units=1/GPa)
#
#
# Indices 1 2 3 4 5 6 
#
# 1 0.020601 -0.003713 -0.006562 0.000000 0.000423 0.000000
# 2 -0.003713 0.034153 -0.007338 0.000000 -0.003660 0.000000
# 3 -0.006562 -0.007338 0.009206 0.000000 0.000020 0.000000
# 4 0.000000 0.000000 0.000000 0.033126 0.000000 -0.007816
# 5 0.000423 -0.003660 0.000020 0.000000 0.037923 0.000000
# 6 0.000000 0.000000 0.000000 -0.007816 0.000000 0.053044
#
#
# Mechanical properties :
#
#
# Convention : Reuss Voigt Hill
#
# Bulk Modulus (GPa) = 34.80406 69.25095 52.02751
# Shear Modulus (GPa) = 21.47240 27.00420 24.23830
#
# Velocity S-wave (km/s) = 3.43930 3.85696 3.65410
# Velocity P-wave (km/s) = 5.91140 7.61473 6.81648
#
# Compressibility (1/GPa) = 0.02873228
#
# Stress axis : x y z
#
# Youngs Moduli (GPa) = 48.54207 29.28008 108.62559
#
# Poissons Ratio (x) = 0.10873 0.71285
# Poissons Ratio (y) = 0.18025 0.79708
# Poissons Ratio (z) = 0.31855 0.21485
#
# Static dielectric constant tensor:
#      x y z
#    x 3.140550 0.000000 -0.160080 
#    y 0.000000 3.167460 0.000000 
#    z -0.160080 0.000000 4.085170 
# 
# 
# High freq. dielectric constant tensor:
#      x y z
#    x 1.656860 0.000000 0.000450 
#    y 0.000000 1.681780 0.000000 
#    z 0.000450 0.000000 1.734160 
# 
# From -- ./inp_files/377761.got.cif
#   From: 2010.06.25/outbox.cif.g09.slc.cpg/sg12_189_cif.got.tgz:377761.got - 2010.06.28 00:19:55.
