data_PCOD8086800
_publ_section_title
;
Structure prediction by ZEFSAII (Michael W. Deem and Ramdas Pophale) SiO2 
 PCOD8086800
Probable space group: C 2/M
;
_chemical_formula_sum "Si O2"
_cell_formula_units_Z 48
_cell_length_a 18.967156
_cell_length_b 8.908165
_cell_length_c 18.118936
_cell_angle_alpha 90.000000
_cell_angle_beta 121.724293
_cell_angle_gamma 90.000000
_cell_volume 2604.009307
_symmetry_space_group_name_H-M "C 2/M"
_symmetry_group_IT_number 12
_symmetry_cell_setting 'monoclinic'
loop_
_space_group_symop_operation_xyz
x,y,z
-x,y,-z
-x,-y,-z
x,-y,z
1/2+x,1/2+y,z
1/2-x,1/2+y,-z
1/2-x,1/2-y,-z
1/2+x,1/2-y,z
loop_
_atom_site_type_symbol
_atom_site_label
_atom_site_fract_x
_atom_site_fract_y
_atom_site_fract_z
Si Si1 0.247115 0.677920 0.840805
Si Si2 0.500368 0.324532 0.348354
Si Si3 0.578527 0.321825 0.999462
Si Si4 0.600408 0.676571 0.846277
Si Si5 0.173880 0.822313 0.499446
Si Si6 0.162688 0.177432 0.662325
O O1 0.240551 0.500000 0.834806
O O2 0.337882 0.733125 0.915113
O O3 0.182415 0.739167 0.864884
O O4 0.231481 0.743176 0.750728
O O5 0.508479 0.500000 0.366408
O O6 0.476401 0.286803 0.250607
O O7 0.589217 0.253661 0.417982
O O8 0.428275 0.264030 0.362970
O O9 0.573590 0.500000 0.996983
O O10 0.500000 0.253343 0.000000
O O11 0.576111 0.264063 0.913735
O O12 0.620438 0.500000 0.856671
O O13 0.250000 0.750000 0.500000
O O14 0.178264 0.775098 0.587174
O O15 0.178360 0.000000 0.492421
O O16 0.169515 0.000000 0.678590
#
# Coordination Sequence:
#
# PCOD8086800 Si02
#       6
#     8   8   8   8   8   8
#     4  10  19  31  51  76  99 124 159 205 246 282
#     4   8  15  30  53  74  90 121 168 204 230 275
#     4   9  18  31  48  73 101 129 163 200 238 284
#     4   9  17  32  54  74  95 126 162 201 243 288
#     4  10  20  33  50  74 102 129 159 197 242 290
#     4   9  18  34  54  72  94 128 167 202 236 281
#
# _framework density 18.433115000000001
#
# number of rings (size 3 to 8) (size 9 to 14) (size 15 to 20)
#    0.000    2.833    0.000    2.500    0.000    4.000 
#    0.000    7.500    0.000    9.500    0.000    0.000 
#    0.000    0.000    0.000    0.000    0.000    0.000 
#
# Total GULP energy -297552.169091 kJ/mol
# GULP energy per Si atom -12398.007045 kJ/mol
# Density = 1.839116 g / cm^3
# Si number density = 18.433115 Si / 1000 Ang^3
#
#
#
# Elastic Constant Matrix: (Units=GPa)
#
#
# Indices 1 2 3 4 5 6 
#
# 1 148.7390 30.6894 116.4538 0.0000 -4.8517 0.0000
# 2 30.6894 29.4887 38.5917 0.0000 -1.7456 0.0000
# 3 116.4538 38.5917 181.4018 0.0000 -6.3814 0.0000
# 4 0.0000 0.0000 0.0000 23.1870 0.0000 0.3101
# 5 -4.8517 -1.7456 -6.3814 0.0000 21.6949 0.0000
# 6 0.0000 0.0000 0.0000 0.3101 0.0000 25.9266
#
#
#
# Elastic Compliance Matrix: (Units=1/GPa)
#
#
# Indices 1 2 3 4 5 6 
#
# 1 0.013828 -0.003836 -0.008046 0.000000 0.000417 0.000000
# 2 -0.003836 0.048075 -0.007739 0.000000 0.000734 0.000000
# 3 -0.008046 -0.007739 0.012367 0.000000 0.001216 0.000000
# 4 0.000000 0.000000 0.000000 0.043134 0.000000 -0.000516
# 5 0.000417 0.000734 0.001216 0.000000 0.046604 0.000000
# 6 0.000000 0.000000 0.000000 -0.000516 0.000000 0.038577
#
#
# Mechanical properties :
#
#
# Convention : Reuss Voigt Hill
#
# Bulk Modulus (GPa) = 28.54917 81.23326 54.89122
# Shear Modulus (GPa) = 19.72350 25.75467 22.73909
#
# Velocity S-wave (km/s) = 3.27464 3.74196 3.51607
# Velocity P-wave (km/s) = 5.46070 7.92683 6.80639
#
# Compressibility (1/GPa) = 0.03502729
#
# Stress axis : x y z
#
# Youngs Moduli (GPa) = 72.31591 20.80076 80.85809
#
# Poissons Ratio (x) = 0.07980 0.65062
# Poissons Ratio (y) = 0.27742 0.62576
# Poissons Ratio (z) = 0.58189 0.16098
#
# Static dielectric constant tensor:
#      x y z
#    x 3.520150 0.000000 0.034340 
#    y 0.000000 3.013760 0.000000 
#    z 0.034340 0.000000 3.701200 
# 
# 
# High freq. dielectric constant tensor:
#      x y z
#    x 1.712670 0.000000 -0.000480 
#    y 0.000000 1.675160 0.000000 
#    z -0.000480 0.000000 1.732440 
# 
# From -- ./inp_files/222421.got.cif
#   From: 2010.06.25/outbox.cif.g09.slc.cpg/sg12_112_cif.got.tgz:222421.got - 2010.06.28 00:19:55.
