data_PCOD8086143
_publ_section_title
;
Structure prediction by ZEFSAII (Michael W. Deem and Ramdas Pophale) SiO2 
 PCOD8086143
Probable space group: C 2/M
;
_chemical_formula_sum "Si O2"
_cell_formula_units_Z 40
_cell_length_a 5.252694
_cell_length_b 14.609079
_cell_length_c 22.532164
_cell_angle_alpha 90.000000
_cell_angle_beta 96.693610
_cell_angle_gamma 90.000000
_cell_volume 1717.265347
_symmetry_space_group_name_H-M "C 2/M"
_symmetry_group_IT_number 12
_symmetry_cell_setting 'monoclinic'
loop_
_space_group_symop_operation_xyz
x,y,z
-x,y,-z
-x,-y,-z
x,-y,z
1/2+x,1/2+y,z
1/2-x,1/2+y,-z
1/2-x,1/2-y,-z
1/2+x,1/2-y,z
loop_
_atom_site_type_symbol
_atom_site_label
_atom_site_fract_x
_atom_site_fract_y
_atom_site_fract_z
Si Si1 0.330819 0.391137 0.661638
Si Si2 0.134813 0.391157 0.269625
Si Si3 0.567435 0.890752 0.134870
Si Si4 0.966220 0.109156 0.932439
Si Si5 0.262826 0.351657 0.525652
O O1 0.327672 0.500000 0.655343
O O2 0.596832 0.355405 0.696660
O O3 0.298355 0.346706 0.596711
O O4 0.099827 0.355405 0.696660
O O5 0.134078 0.500000 0.268156
O O6 0.101160 0.352622 0.202321
O O7 0.300647 0.853178 0.101165
O O8 0.800518 0.853177 0.101165
O O9 0.567404 0.000000 0.134809
O O10 0.966020 0.000000 0.932041
O O11 0.000000 0.146414 0.000000
O O12 0.500000 0.403551 0.500000
O O13 0.250000 0.250000 0.500000
O O14 0.000000 0.403551 0.500000
#
# Coordination Sequence:
#
# PCOD8086143 Si02
#       5
#     8   8   8   8   8
#     4  10  19  31  48  69  91 115 149 193 235 275
#     4   9  17  28  42  62  86 113 147 191 241 281
#     4   9  15  23  34  48  72 105 140 185 235 271
#     4   9  15  21  30  46  69 102 146 191 229 265
#     4  10  21  36  52  70  93 120 148 183 223 280
#
# _framework density 23.292847999999999
#
# number of rings (size 3 to 8) (size 9 to 14) (size 15 to 20)
#    0.000    2.600    0.000    3.000    0.000    8.000 
#    0.000    0.000    0.000    0.000    0.000    0.000 
#    0.000    0.000    0.000    0.000    0.000    0.000 
#
# Total GULP energy -247992.815109 kJ/mol
# GULP energy per Si atom -12399.640755 kJ/mol
# Density = 2.323983 g / cm^3
# Si number density = 23.292848 Si / 1000 Ang^3
#
#
#
# Elastic Constant Matrix: (Units=GPa)
#
#
# Indices 1 2 3 4 5 6 
#
# 1 287.4673 -0.4698 146.0430 0.0000 -1.7452 0.0000
# 2 -0.4698 21.1327 13.4500 0.0000 0.9632 0.0000
# 3 146.0430 13.4500 278.1288 0.0000 1.0990 0.0000
# 4 0.0000 0.0000 0.0000 -0.5792 0.0000 0.5930
# 5 -1.7452 0.9632 1.0990 0.0000 58.2983 0.0000
# 6 0.0000 0.0000 0.0000 0.5930 0.0000 -9.1488
#
#
#
# Elastic Compliance Matrix: (Units=1/GPa)
#
#
# Indices 1 2 3 4 5 6 
#
# 1 0.004809 0.001761 -0.002611 0.000000 0.000164 0.000000
# 2 0.001761 0.049502 -0.003316 0.000000 -0.000703 0.000000
# 3 -0.002611 -0.003316 0.005127 0.000000 -0.000120 0.000000
# 4 0.000000 0.000000 0.000000 -1.849181 0.000000 -0.119855
# 5 0.000164 -0.000703 -0.000120 0.000000 0.017172 0.000000
# 6 0.000000 0.000000 0.000000 -0.119855 0.000000 -0.117072
#
#
# Mechanical properties :
#
#
# Convention : Reuss Voigt Hill
#
# Bulk Modulus (GPa) = 19.56698 100.53059 60.04879
# Shear Modulus (GPa) = -2.68201 38.22777 17.77288
#
# Velocity S-wave (km/s) = -1.07421 4.05554 2.76528
# Velocity P-wave (km/s) = 2.62299 8.07360 6.00263
#
# Compressibility (1/GPa) = 0.05110651
#
# Stress axis : x y z
#
# Youngs Moduli (GPa) = 207.94353 20.20141 195.03498
#
# Poissons Ratio (x) = -0.03558 0.50923
# Poissons Ratio (y) = -0.36623 0.64671
# Poissons Ratio (z) = 0.54294 0.06698
#
# Static dielectric constant tensor:
#      x y z
#    x 2.597310 0.000000 0.115800 
#    y 0.000000 3.280050 0.000000 
#    z 0.115800 0.000000 4.270910 
# 
# 
# High freq. dielectric constant tensor:
#      x y z
#    x 1.944450 0.000000 -0.000830 
#    y 0.000000 1.872490 0.000000 
#    z -0.000830 0.000000 1.932440 
# 
# From -- ./inp_files/252538.got.cif
#   From: 2010.06.25/outbox.cif.g09.slc.cpg/sg12_127_cif.got.tgz:252538.got - 2010.06.28 00:19:55.
