data_PCOD8086206
_publ_section_title
;
Structure prediction by ZEFSAII (Michael W. Deem and Ramdas Pophale) SiO2 
 PCOD8086206
Probable space group: C 2/M
;
_chemical_formula_sum "Si O2"
_cell_formula_units_Z 64
_cell_length_a 25.645802
_cell_length_b 13.155064
_cell_length_c 13.005669
_cell_angle_alpha 90.000000
_cell_angle_beta 59.029122
_cell_angle_gamma 90.000000
_cell_volume 3762.184592
_symmetry_space_group_name_H-M "C 2/M"
_symmetry_group_IT_number 12
_symmetry_cell_setting 'monoclinic'
loop_
_space_group_symop_operation_xyz
x,y,z
-x,y,-z
-x,-y,-z
x,-y,z
1/2+x,1/2+y,z
1/2-x,1/2+y,-z
1/2-x,1/2-y,-z
1/2+x,1/2-y,z
loop_
_atom_site_type_symbol
_atom_site_label
_atom_site_fract_x
_atom_site_fract_y
_atom_site_fract_z
Si Si1 0.184731 0.731351 0.112778
Si Si2 0.478378 0.379215 0.411884
Si Si3 0.431206 0.279296 0.040767
Si Si4 0.083101 0.118744 0.157109
Si Si5 0.656584 0.618049 0.498634
Si Si6 0.665459 0.617917 0.728888
Si Si7 0.343755 0.881931 0.047768
Si Si8 0.239452 0.758362 0.262206
O O1 0.144052 0.831348 0.139112
O O2 0.192152 0.710002 0.227104
O O3 0.250000 0.750000 0.000000
O O4 0.155579 0.638586 0.076595
O O5 0.500000 0.336485 0.500000
O O6 0.478150 0.500000 0.411709
O O7 0.524808 0.338674 0.278362
O O8 0.410945 0.339478 0.455198
O O9 0.396784 0.328452 0.172619
O O10 0.401947 0.171842 0.039496
O O11 0.500000 0.257557 0.000000
O O12 0.426232 0.359044 0.953011
O O13 0.091423 0.000000 0.166439
O O14 0.661995 0.500000 0.461446
O O15 0.672800 0.634270 0.600642
O O16 0.704050 0.683414 0.386715
O O17 0.662557 0.500000 0.761120
O O18 0.723036 0.665748 0.728123
O O19 0.282719 0.838720 0.161184
O O20 0.348891 0.000000 0.065372
#
# Coordination Sequence:
#
# PCOD8086206 Si02
#       8
#     8   8   8   8   8   8   8   8
#     4   9  19  31  46  71  96 123 161 199 241 290
#     4   9  17  28  44  69  97 124 156 193 237 289
#     4  10  20  33  50  72  98 129 166 200 241 295
#     4  10  19  31  48  71 101 131 158 197 248 299
#     4  10  19  31  49  72  99 131 164 200 242 288
#     4  10  21  34  48  71 101 130 164 205 245 288
#     4   9  19  34  50  71  98 126 161 205 247 290
#     4  10  19  33  51  72  97 130 166 201 245 294
#
# _framework density 17.011393000000002
#
# number of rings (size 3 to 8) (size 9 to 14) (size 15 to 20)
#    0.000    2.375    0.000    3.375    0.000    6.250 
#    0.000    0.000    0.000    0.000    0.000    3.500 
#    0.000   18.500    0.000    0.000    0.000    0.000 
#
# Total GULP energy -396771.586982 kJ/mol
# GULP energy per Si atom -12399.112093 kJ/mol
# Density = 1.697267 g / cm^3
# Si number density = 17.011393 Si / 1000 Ang^3
#
#
#
# Elastic Constant Matrix: (Units=GPa)
#
#
# Indices 1 2 3 4 5 6 
#
# 1 124.1953 50.9253 44.7975 0.0000 1.5156 0.0000
# 2 50.9253 89.9283 38.8554 0.0000 1.0573 0.0000
# 3 44.7975 38.8554 92.0806 0.0000 1.6776 0.0000
# 4 0.0000 0.0000 0.0000 20.1725 0.0000 -1.3936
# 5 1.5156 1.0573 1.6776 0.0000 30.6258 0.0000
# 6 0.0000 0.0000 0.0000 -1.3936 0.0000 15.1634
#
#
#
# Elastic Compliance Matrix: (Units=1/GPa)
#
#
# Indices 1 2 3 4 5 6 
#
# 1 0.011306 -0.004923 -0.003420 0.000000 -0.000202 0.000000
# 2 -0.004923 0.015744 -0.004247 0.000000 -0.000067 0.000000
# 3 -0.003420 -0.004247 0.014324 0.000000 -0.000469 0.000000
# 4 0.000000 0.000000 0.000000 0.049889 0.000000 0.004585
# 5 -0.000202 -0.000067 -0.000469 0.000000 0.032690 0.000000
# 6 0.000000 0.000000 0.000000 0.004585 0.000000 0.066370
#
#
# Mechanical properties :
#
#
# Convention : Reuss Voigt Hill
#
# Bulk Modulus (GPa) = 61.74659 63.92895 62.83777
# Shear Modulus (GPa) = 22.63461 24.63408 23.63434
#
# Velocity S-wave (km/s) = 3.65164 3.80951 3.73141
# Velocity P-wave (km/s) = 7.35903 7.55059 7.45543
#
# Compressibility (1/GPa) = 0.01619523
#
# Stress axis : x y z
#
# Youngs Moduli (GPa) = 88.44643 63.51822 69.81088
#
# Poissons Ratio (x) = 0.31268 0.23873
# Poissons Ratio (y) = 0.43540 0.29650
# Poissons Ratio (z) = 0.30245 0.26977
#
# Static dielectric constant tensor:
#      x y z
#    x 3.504880 0.000000 0.054650 
#    y 0.000000 2.883930 0.000000 
#    z 0.054650 0.000000 3.419330 
# 
# 
# High freq. dielectric constant tensor:
#      x y z
#    x 1.667020 0.000000 0.006360 
#    y 0.000000 1.623970 0.000000 
#    z 0.006360 0.000000 1.666860 
# 
# From -- ./inp_files/175278.got.cif
#   From: 2010.06.25/outbox.cif.g09.slc.cpg/sg12_88_cif.got.tgz:175278.got - 2010.06.28 00:19:55.
