data_PCOD8086362
_publ_section_title
;
Structure prediction by ZEFSAII (Michael W. Deem and Ramdas Pophale) SiO2 
 PCOD8086362
Probable space group: C 2/M
;
_chemical_formula_sum "Si O2"
_cell_formula_units_Z 64
_cell_length_a 30.725884
_cell_length_b 9.154525
_cell_length_c 14.473554
_cell_angle_alpha 90.000000
_cell_angle_beta 118.071689
_cell_angle_gamma 90.000000
_cell_volume 3592.203658
_symmetry_space_group_name_H-M "C 2/M"
_symmetry_group_IT_number 12
_symmetry_cell_setting 'monoclinic'
loop_
_space_group_symop_operation_xyz
x,y,z
-x,y,-z
-x,-y,-z
x,-y,z
1/2+x,1/2+y,z
1/2-x,1/2+y,-z
1/2-x,1/2-y,-z
1/2+x,1/2-y,z
loop_
_atom_site_type_symbol
_atom_site_label
_atom_site_fract_x
_atom_site_fract_y
_atom_site_fract_z
Si Si1 0.944218 0.832380 0.336476
Si Si2 0.362156 0.830440 0.148464
Si Si3 0.328931 0.833063 0.915399
Si Si4 0.284412 0.670428 0.191613
Si Si5 0.167386 0.170602 0.262953
Si Si6 0.634654 0.170065 0.405136
Si Si7 0.780717 0.668168 0.370633
Si Si8 0.441585 0.332248 0.546116
O O1 0.913512 0.728795 0.238623
O O2 0.931270 0.793405 0.429192
O O3 0.001421 0.804860 0.373340
O O4 0.930189 0.000000 0.302623
O O5 0.315630 0.746546 0.143394
O O6 0.356723 0.000000 0.167863
O O7 0.362458 0.805725 0.038534
O O8 0.272604 0.793888 0.884685
O O9 0.348715 0.730748 0.853213
O O10 0.331956 0.000000 0.884282
O O11 0.296369 0.500000 0.202404
O O12 0.300613 0.732622 0.307225
O O13 0.134368 0.247288 0.307510
O O14 0.224570 0.208518 0.339098
O O15 0.156500 0.000000 0.255075
O O16 0.686351 0.202344 0.507423
O O17 0.589697 0.225479 0.421782
O O18 0.627047 0.000000 0.378756
O O19 0.785167 0.500000 0.344122
O O20 0.427235 0.500000 0.551590
#
# Coordination Sequence:
#
# PCOD8086362 Si02
#       8
#     8   8   8   8   8   8   8   8
#     4   9  19  36  56  77 102 131 163 202 247 296
#     4  11  21  32  50  75 103 133 166 206 250 297
#     4   9  20  36  50  69 100 136 171 208 249 291
#     4  10  19  31  49  72 101 137 172 205 243 290
#     4  10  20  34  52  72  98 134 173 211 247 287
#     4  11  21  32  50  75 103 134 167 204 248 298
#     4   9  19  33  48  72 104 135 168 205 246 293
#     4   9  19  36  55  76 103 132 163 201 246 296
#
# _framework density 17.816362000000002
#
# number of rings (size 3 to 8) (size 9 to 14) (size 15 to 20)
#    0.000    2.250    0.000    3.750    0.000    6.000 
#    0.000    1.250    0.000    0.750    0.000    5.250 
#    0.000    0.000    0.000    0.000    0.000    0.000 
#
# Total GULP energy -396920.432106 kJ/mol
# GULP energy per Si atom -12403.763503 kJ/mol
# Density = 1.777581 g / cm^3
# Si number density = 17.816362 Si / 1000 Ang^3
#
#
#
# Elastic Constant Matrix: (Units=GPa)
#
#
# Indices 1 2 3 4 5 6 
#
# 1 77.9471 48.6013 41.5485 0.0000 -15.3864 0.0000
# 2 48.6013 102.9235 60.6452 0.0000 -14.7374 0.0000
# 3 41.5485 60.6452 102.4044 0.0000 -7.4251 0.0000
# 4 0.0000 0.0000 0.0000 30.8687 0.0000 -3.7106
# 5 -15.3864 -14.7374 -7.4251 0.0000 22.4237 0.0000
# 6 0.0000 0.0000 0.0000 -3.7106 0.0000 33.0579
#
#
#
# Elastic Compliance Matrix: (Units=1/GPa)
#
#
# Indices 1 2 3 4 5 6 
#
# 1 0.020496 -0.005988 -0.004134 0.000000 0.008759 0.000000
# 2 -0.005988 0.017846 -0.007774 0.000000 0.005046 0.000000
# 3 -0.004134 -0.007774 0.015851 0.000000 -0.002697 0.000000
# 4 0.000000 0.000000 0.000000 0.032838 0.000000 0.003686
# 5 0.008759 0.005046 -0.002697 0.000000 0.053029 0.000000
# 6 0.000000 0.000000 0.000000 0.003686 0.000000 0.030664
#
#
# Mechanical properties :
#
#
# Convention : Reuss Voigt Hill
#
# Bulk Modulus (GPa) = 54.34503 64.98501 59.66502
# Shear Modulus (GPa) = 23.51291 26.10207 24.80749
#
# Velocity S-wave (km/s) = 3.63676 3.83177 3.73554
# Velocity P-wave (km/s) = 6.94289 7.49204 7.22269
#
# Compressibility (1/GPa) = 0.01840095
#
# Stress axis : x y z
#
# Youngs Moduli (GPa) = 48.79112 56.03380 63.08871
#
# Poissons Ratio (x) = 0.33552 0.26084
# Poissons Ratio (y) = 0.29215 0.49042
# Poissons Ratio (z) = 0.20173 0.43558
#
# Static dielectric constant tensor:
#      x y z
#    x 3.085510 0.000000 -0.038880 
#    y 0.000000 3.334920 0.000000 
#    z -0.038880 0.000000 3.229850 
# 
# 
# High freq. dielectric constant tensor:
#      x y z
#    x 1.672270 0.000000 -0.007780 
#    y 0.000000 1.698190 0.000000 
#    z -0.007780 0.000000 1.681930 
# 
# From -- ./inp_files/249256.got.cif
#   From: 2010.06.25/outbox.cif.g09.slc.cpg/sg12_125_cif.got.tgz:249256.got - 2010.06.28 00:19:55.
