data_PCOD8086847
_publ_section_title
;
Structure prediction by ZEFSAII (Michael W. Deem and Ramdas Pophale) SiO2 
 PCOD8086847
Probable space group: C 2/M
;
_chemical_formula_sum "Si O2"
_cell_formula_units_Z 48
_cell_length_a 27.743953
_cell_length_b 8.752710
_cell_length_c 11.205277
_cell_angle_alpha 90.000000
_cell_angle_beta 77.452749
_cell_angle_gamma 90.000000
_cell_volume 2656.045027
_symmetry_space_group_name_H-M "C 2/M"
_symmetry_group_IT_number 12
_symmetry_cell_setting 'monoclinic'
loop_
_space_group_symop_operation_xyz
x,y,z
-x,y,-z
-x,-y,-z
x,-y,z
1/2+x,1/2+y,z
1/2-x,1/2+y,-z
1/2-x,1/2-y,-z
1/2+x,1/2-y,z
loop_
_atom_site_type_symbol
_atom_site_label
_atom_site_fract_x
_atom_site_fract_y
_atom_site_fract_z
Si Si1 0.821722 0.177742 0.911084
Si Si2 0.891973 0.323618 0.455034
Si Si3 0.409159 0.176244 0.724386
Si Si4 0.294773 0.679243 0.403983
Si Si5 0.779067 0.677425 0.160465
Si Si6 0.491404 0.327765 0.364386
O O1 0.872621 0.223468 0.822862
O O2 0.777255 0.215550 0.844320
O O3 0.822025 0.000000 0.944531
O O4 0.815580 0.274868 0.034549
O O5 0.886089 0.500000 0.423676
O O6 0.895518 0.300102 0.594259
O O7 0.845675 0.230235 0.434436
O O8 0.940466 0.258640 0.363068
O O9 0.464250 0.235765 0.722046
O O10 0.405304 0.000000 0.763758
O O11 0.290065 0.500000 0.417600
O O12 0.250000 0.750000 0.500000
O O13 0.293070 0.725709 0.267641
O O14 0.786455 0.500000 0.185140
O O15 0.500000 0.330212 0.500000
O O16 0.489191 0.500000 0.314777
#
# Coordination Sequence:
#
# PCOD8086847 Si02
#       6
#     8   8   8   8   8   8
#     4  10  20  34  54  78 104 135 172 215 259 305
#     4  10  20  34  52  76 107 140 174 213 259 308
#     4  10  19  31  51  78 106 137 174 215 258 305
#     4  12  24  37  54  77 106 139 175 212 255 307
#     4  10  21  37  55  76 104 137 173 213 259 307
#     4   9  17  30  49  74 104 136 171 213 260 306
#
# _framework density 18.071981999999998
#
# number of rings (size 3 to 8) (size 9 to 14) (size 15 to 20)
#    0.000    1.833    0.000    5.000    0.000    8.667 
#    0.000    0.000    0.000    1.000    0.000    7.000 
#    0.000    0.000    0.000    0.000    0.000    0.000 
#
# Total GULP energy -297701.558683 kJ/mol
# GULP energy per Si atom -12404.231612 kJ/mol
# Density = 1.803085 g / cm^3
# Si number density = 18.071982 Si / 1000 Ang^3
#
#
#
# Elastic Constant Matrix: (Units=GPa)
#
#
# Indices 1 2 3 4 5 6 
#
# 1 112.1317 53.3210 43.7488 0.0000 -21.1781 0.0000
# 2 53.3210 124.0734 35.7491 0.0000 1.3860 0.0000
# 3 43.7488 35.7491 52.6208 0.0000 -9.8836 0.0000
# 4 0.0000 0.0000 0.0000 31.5521 0.0000 -4.8340
# 5 -21.1781 1.3860 -9.8836 0.0000 25.8940 0.0000
# 6 0.0000 0.0000 0.0000 -4.8340 0.0000 35.4216
#
#
#
# Elastic Compliance Matrix: (Units=1/GPa)
#
#
# Indices 1 2 3 4 5 6 
#
# 1 0.016471 -0.004746 -0.008501 0.000000 0.010481 0.000000
# 2 -0.004746 0.011671 -0.005202 0.000000 -0.006492 0.000000
# 3 -0.008501 -0.005202 0.030542 0.000000 0.004983 0.000000
# 4 0.000000 0.000000 0.000000 0.032370 0.000000 0.004418
# 5 0.010481 -0.006492 0.004983 0.000000 0.049441 0.000000
# 6 0.000000 0.000000 0.000000 0.004418 0.000000 0.028834
#
#
# Mechanical properties :
#
#
# Convention : Reuss Voigt Hill
#
# Bulk Modulus (GPa) = 45.90354 61.60707 53.75531
# Shear Modulus (GPa) = 23.42027 28.97401 26.19714
#
# Velocity S-wave (km/s) = 3.60383 4.00841 3.81149
# Velocity P-wave (km/s) = 6.54005 7.45567 7.01282
#
# Compressibility (1/GPa) = 0.02178481
#
# Stress axis : x y z
#
# Youngs Moduli (GPa) = 60.71190 85.68317 32.74182
#
# Poissons Ratio (x) = 0.40667 0.27834
# Poissons Ratio (y) = 0.28815 0.17033
# Poissons Ratio (z) = 0.51612 0.44575
#
# Static dielectric constant tensor:
#      x y z
#    x 3.383560 0.000000 -0.115140 
#    y 0.000000 3.555440 0.000000 
#    z -0.115140 0.000000 3.163380 
# 
# 
# High freq. dielectric constant tensor:
#      x y z
#    x 1.701560 0.000000 -0.018420 
#    y 0.000000 1.721400 0.000000 
#    z -0.018420 0.000000 1.675870 
# 
# From -- ./inp_files/172112.got.cif
#   From: 2010.06.25/outbox.cif.g09.slc.cpg/sg12_87_cif.got.tgz:172112.got - 2010.06.28 00:19:55.
