data_PCOD8086173
_publ_section_title
;
Structure prediction by ZEFSAII (Michael W. Deem and Ramdas Pophale) SiO2 
 PCOD8086173
Probable space group: C 2/M
;
_chemical_formula_sum "Si O2"
_cell_formula_units_Z 64
_cell_length_a 19.040688
_cell_length_b 9.133118
_cell_length_c 21.299183
_cell_angle_alpha 90.000000
_cell_angle_beta 91.429146
_cell_angle_gamma 90.000000
_cell_volume 3702.793855
_symmetry_space_group_name_H-M "C 2/M"
_symmetry_group_IT_number 12
_symmetry_cell_setting 'monoclinic'
loop_
_space_group_symop_operation_xyz
x,y,z
-x,y,-z
-x,-y,-z
x,-y,z
1/2+x,1/2+y,z
1/2-x,1/2+y,-z
1/2-x,1/2-y,-z
1/2+x,1/2-y,z
loop_
_atom_site_type_symbol
_atom_site_label
_atom_site_fract_x
_atom_site_fract_y
_atom_site_fract_z
Si Si1 0.270168 0.670935 0.371047
Si Si2 0.155726 0.827623 0.873963
Si Si3 0.386101 0.168252 0.601349
Si Si4 0.376960 0.172369 0.455455
Si Si5 0.479813 0.671757 0.366108
Si Si6 0.287633 0.832441 0.946424
Si Si7 0.077705 0.327665 0.986392
Si Si8 0.367504 0.670880 0.263815
O O1 0.287768 0.500000 0.382841
O O2 0.187693 0.699912 0.366858
O O3 0.304140 0.760850 0.428898
O O4 0.303692 0.727218 0.306370
O O5 0.240853 0.798508 0.883271
O O6 0.108515 0.748598 0.925093
O O7 0.135298 0.758757 0.805655
O O8 0.139200 0.000000 0.878351
O O9 0.381925 0.210258 0.528529
O O10 0.441125 0.271156 0.638333
O O11 0.408689 0.000000 0.610070
O O12 0.443250 0.245336 0.422949
O O13 0.378111 0.000000 0.442938
O O14 0.477888 0.500000 0.380286
O O15 0.440859 0.708363 0.299707
O O16 0.280054 0.000000 0.963834
O O17 0.250000 0.750000 0.000000
O O18 0.371221 0.792945 0.951577
O O19 0.073548 0.500000 0.972478
O O20 0.000000 0.265801 0.000000
O O21 0.357614 0.500000 0.253848
#
# Coordination Sequence:
#
# PCOD8086173 Si02
#       8
#     8   8   8   8   8   8   8   8
#     4   9  18  33  50  68  93 123 154 191 237 284
#     4   9  16  29  50  69  86 117 160 193 218 261
#     4  10  20  32  47  70  97 121 150 196 246 286
#     4  10  19  31  48  70  95 121 153 195 240 285
#     4  10  20  33  49  67  91 125 160 194 237 288
#     4   8  14  25  43  65  87 114 146 177 211 254
#     4   9  17  29  44  68 102 126 142 178 230 273
#     4   8  16  32  50  66  86 117 157 195 226 265
#
# _framework density 17.284246
#
# number of rings (size 3 to 8) (size 9 to 14) (size 15 to 20)
#    0.000    2.875    0.000    2.250    0.000    3.250 
#    0.000    4.375    0.000    3.000    0.000    0.000 
#    0.000    0.000    0.000    0.000    0.000    0.000 
#
# Total GULP energy -396501.721077 kJ/mol
# GULP energy per Si atom -12390.678784 kJ/mol
# Density = 1.724491 g / cm^3
# Si number density = 17.284246 Si / 1000 Ang^3
#
#
#
# Elastic Constant Matrix: (Units=GPa)
#
#
# Indices 1 2 3 4 5 6 
#
# 1 142.5785 43.4104 67.3333 0.0000 10.3254 0.0000
# 2 43.4104 45.8776 35.2865 0.0000 6.4984 0.0000
# 3 67.3333 35.2865 108.2008 0.0000 14.4460 0.0000
# 4 0.0000 0.0000 0.0000 17.5851 0.0000 1.5855
# 5 10.3254 6.4984 14.4460 0.0000 14.7309 0.0000
# 6 0.0000 0.0000 0.0000 1.5855 0.0000 26.6719
#
#
#
# Elastic Compliance Matrix: (Units=1/GPa)
#
#
# Indices 1 2 3 4 5 6 
#
# 1 0.011457 -0.007140 -0.004774 0.000000 -0.000198 0.000000
# 2 -0.007140 0.033758 -0.006036 0.000000 -0.003968 0.000000
# 3 -0.004774 -0.006036 0.015395 0.000000 -0.009088 0.000000
# 4 0.000000 0.000000 0.000000 0.057173 0.000000 -0.003399
# 5 -0.000198 -0.003968 -0.009088 0.000000 0.078686 0.000000
# 6 0.000000 0.000000 0.000000 -0.003399 0.000000 0.037695
#
#
# Mechanical properties :
#
#
# Convention : Reuss Voigt Hill
#
# Bulk Modulus (GPa) = 40.47224 65.41304 52.94264
# Shear Modulus (GPa) = 17.96614 21.83937 19.90275
#
# Velocity S-wave (km/s) = 3.22755 3.55849 3.39705
# Velocity P-wave (km/s) = 6.11195 7.40347 6.78850
#
# Compressibility (1/GPa) = 0.02470829
#
# Stress axis : x y z
#
# Youngs Moduli (GPa) = 87.28441 29.62255 64.95590
#
# Poissons Ratio (x) = 0.21151 0.31013
# Poissons Ratio (y) = 0.62324 0.39208
# Poissons Ratio (z) = 0.41674 0.17880
#
# Static dielectric constant tensor:
#      x y z
#    x 3.593440 0.000000 0.335960 
#    y 0.000000 3.209380 0.000000 
#    z 0.335960 0.000000 3.302010 
# 
# 
# High freq. dielectric constant tensor:
#      x y z
#    x 1.674460 0.000000 0.016150 
#    y 0.000000 1.657410 0.000000 
#    z 0.016150 0.000000 1.646140 
# 
# From -- ./inp_files/341983.got.cif
#   From: 2010.06.25/outbox.cif.g09.slc.cpg/sg12_171_cif.got.tgz:341983.got - 2010.06.28 00:19:55.
