data_PCOD8086760
_publ_section_title
;
Structure prediction by ZEFSAII (Michael W. Deem and Ramdas Pophale) SiO2 
 PCOD8086760
Probable space group: C 2/M
;
_chemical_formula_sum "Si O2"
_cell_formula_units_Z 48
_cell_length_a 20.155436
_cell_length_b 8.875957
_cell_length_c 18.905275
_cell_angle_alpha 90.000000
_cell_angle_beta 39.881354
_cell_angle_gamma 90.000000
_cell_volume 2168.621985
_symmetry_space_group_name_H-M "C 2/M"
_symmetry_group_IT_number 12
_symmetry_cell_setting 'monoclinic'
loop_
_space_group_symop_operation_xyz
x,y,z
-x,y,-z
-x,-y,-z
x,-y,z
1/2+x,1/2+y,z
1/2-x,1/2+y,-z
1/2-x,1/2-y,-z
1/2+x,1/2-y,z
loop_
_atom_site_type_symbol
_atom_site_label
_atom_site_fract_x
_atom_site_fract_y
_atom_site_fract_z
Si Si1 0.519987 0.678966 0.253826
Si Si2 0.625350 0.178877 0.725774
Si Si3 0.881654 0.662512 0.600234
Si Si4 0.162032 0.825720 0.499511
Si Si5 0.118031 0.323639 0.892634
Si Si6 0.798469 0.324007 0.817946
O O1 0.527944 0.500000 0.250171
O O2 0.480525 0.736035 0.209462
O O3 0.431123 0.749027 0.379387
O O4 0.634030 0.745444 0.175499
O O5 0.716858 0.229855 0.594040
O O6 0.653066 0.225790 0.784222
O O7 0.607556 0.000000 0.737206
O O8 0.825245 0.500000 0.629519
O O9 0.855913 0.797135 0.568528
O O10 0.856728 0.719017 0.698662
O O11 0.000000 0.626743 0.500000
O O12 0.158308 0.000000 0.519860
O O13 0.133532 0.500000 0.891024
O O14 0.183173 0.241261 0.901382
O O15 0.000000 0.275371 0.000000
O O16 0.792142 0.500000 0.840237
#
# Coordination Sequence:
#
# PCOD8086760 Si02
#       6
#     8   8   8   8   8   8
#     4  11  23  36  55  86 122 158 195 232 277 340
#     4  10  21  38  58  83 118 155 191 234 287 342
#     4  10  19  31  50  80 116 153 191 232 276 330
#     4  10  20  33  53  82 116 157 195 230 276 334
#     4  10  22  42  67  90 112 143 188 243 297 346
#     4  11  22  37  59  86 117 153 192 237 287 340
#
# _framework density 22.133870999999999
#
# number of rings (size 3 to 8) (size 9 to 14) (size 15 to 20)
#    0.000    1.667    3.333    1.500    0.000    3.333 
#    0.000    0.833    0.000    0.000    0.000    0.000 
#    0.000    0.000    0.000    0.000    0.000    0.000 
#
# Total GULP energy -297338.366082 kJ/mol
# GULP energy per Si atom -12389.098587 kJ/mol
# Density = 2.208349 g / cm^3
# Si number density = 22.133871 Si / 1000 Ang^3
#
#
#
# Elastic Constant Matrix: (Units=GPa)
#
#
# Indices 1 2 3 4 5 6 
#
# 1 133.4739 43.4095 10.2846 0.0000 -40.8447 0.0000
# 2 43.4095 60.5483 17.6619 0.0002 -22.6021 -0.0002
# 3 10.2846 17.6619 57.8821 0.0000 -21.1135 0.0000
# 4 0.0000 0.0002 0.0000 20.0059 0.0000 -6.6007
# 5 -40.8447 -22.6021 -21.1135 0.0000 28.9810 0.0000
# 6 0.0000 -0.0002 0.0000 -6.6007 0.0000 41.9933
#
#
#
# Elastic Compliance Matrix: (Units=1/GPa)
#
#
# Indices 1 2 3 4 5 6 
#
# 1 0.015730 -0.004439 0.007332 0.000000 0.024049 0.000000
# 2 -0.004439 0.024570 -0.002725 0.000000 0.010920 0.000000
# 3 0.007332 -0.002725 0.026965 0.000000 0.027853 0.000000
# 4 0.000000 0.000000 0.000000 0.052719 0.000000 0.008287
# 5 0.024049 0.010920 0.027853 0.000000 0.097207 0.000000
# 6 0.000000 0.000000 0.000000 0.008287 0.000000 0.025116
#
#
# Mechanical properties :
#
#
# Convention : Reuss Voigt Hill
#
# Bulk Modulus (GPa) = 14.79283 43.84625 29.31954
# Shear Modulus (GPa) = 18.90325 30.23259 24.56792
#
# Velocity S-wave (km/s) = 2.92557 3.69981 3.33523
# Velocity P-wave (km/s) = 4.25556 6.17285 5.30160
#
# Compressibility (1/GPa) = 0.06760031
#
# Stress axis : x y z
#
# Youngs Moduli (GPa) = 63.57220 40.70084 37.08508
#
# Poissons Ratio (x) = 0.18067 -0.27190
# Poissons Ratio (y) = 0.28220 0.10106
# Poissons Ratio (z) = -0.46610 0.11091
#
# Static dielectric constant tensor:
#      x y z
#    x 4.023590 0.000000 -0.204380 
#    y 0.000000 3.729970 0.000000 
#    z -0.204380 0.000000 3.989430 
# 
# 
# High freq. dielectric constant tensor:
#      x y z
#    x 1.875950 0.000000 -0.016580 
#    y 0.000000 1.856440 0.000000 
#    z -0.016580 0.000000 1.853560 
# 
# From -- ./inp_files/319554.got.cif
#   From: 2010.06.25/outbox.cif.g09.slc.cpg/sg12_160_cif.got.tgz:319554.got - 2010.06.28 00:19:55.
