data_PCOD8086803
_publ_section_title
;
Structure prediction by ZEFSAII (Michael W. Deem and Ramdas Pophale) SiO2 
 PCOD8086803
Probable space group: C 2/M
;
_chemical_formula_sum "Si O2"
_cell_formula_units_Z 64
_cell_length_a 14.732665
_cell_length_b 9.109592
_cell_length_c 27.211425
_cell_angle_alpha 90.000000
_cell_angle_beta 73.936701
_cell_angle_gamma 90.000000
_cell_volume 3509.419586
_symmetry_space_group_name_H-M "C 2/M"
_symmetry_group_IT_number 12
_symmetry_cell_setting 'monoclinic'
loop_
_space_group_symop_operation_xyz
x,y,z
-x,y,-z
-x,-y,-z
x,-y,z
1/2+x,1/2+y,z
1/2-x,1/2+y,-z
1/2-x,1/2-y,-z
1/2+x,1/2-y,z
loop_
_atom_site_type_symbol
_atom_site_label
_atom_site_fract_x
_atom_site_fract_y
_atom_site_fract_z
Si Si1 0.467646 0.172622 0.735967
Si Si2 0.262811 0.672675 0.446572
Si Si3 0.954756 0.830531 0.366017
Si Si4 0.589455 0.826900 0.808431
Si Si5 0.717375 0.672318 0.266005
Si Si6 0.845871 0.167609 0.618098
Si Si7 0.152123 0.673848 0.999800
Si Si8 0.960531 0.674244 0.077791
O O1 0.538446 0.235509 0.684338
O O2 0.505716 0.214327 0.784032
O O3 0.365280 0.242790 0.748879
O O4 0.461391 0.000000 0.728681
O O5 0.254914 0.500000 0.455342
O O6 0.250000 0.750000 0.500000
O O7 0.363649 0.720306 0.409727
O O8 0.181646 0.724788 0.421654
O O9 0.044656 0.803027 0.387116
O O10 0.948882 0.000000 0.350971
O O11 0.686867 0.764933 0.771698
O O12 0.567752 0.757569 0.865135
O O13 0.599840 0.000000 0.811784
O O14 0.702045 0.500000 0.259363
O O15 0.716390 0.705023 0.324397
O O16 0.829075 0.000000 0.604027
O O17 0.167770 0.500000 0.000486
O O18 0.066818 0.726283 0.048359
O O19 0.250000 0.750000 0.000000
O O20 0.118626 0.722696 0.950112
O O21 0.962538 0.500000 0.079033
#
# Coordination Sequence:
#
# PCOD8086803 Si02
#       8
#     8   8   8   8   8   8   8   8
#     4  10  19  31  51  77 100 126 164 206 243 284
#     4  11  23  37  54  77 102 129 163 204 249 293
#     4   9  20  38  56  73 100 137 167 195 242 300
#     4   9  17  30  49  72 101 135 167 201 243 296
#     4   9  18  33  52  73  99 133 166 196 241 299
#     4   9  18  35  55  73  97 130 166 200 238 291
#     4   9  17  31  52  72  93 128 171 212 252 295
#     4   8  16  31  48  69  98 133 170 202 244 305
#
# _framework density 18.236633999999999
#
# number of rings (size 3 to 8) (size 9 to 14) (size 15 to 20)
#    0.000    2.750    0.000    3.000    0.000    5.500 
#    0.000    5.000    0.000    3.000    0.000    0.000 
#    0.000    0.000    0.000    0.000    0.000    0.000 
#
# Total GULP energy -396748.915749 kJ/mol
# GULP energy per Si atom -12398.403617 kJ/mol
# Density = 1.819513 g / cm^3
# Si number density = 18.236634 Si / 1000 Ang^3
#
#
#
# Elastic Constant Matrix: (Units=GPa)
#
#
# Indices 1 2 3 4 5 6 
#
# 1 86.3562 26.0223 38.9057 0.0000 16.0560 0.0000
# 2 26.0223 44.0623 28.5627 0.0000 11.2652 0.0000
# 3 38.9057 28.5627 107.0449 0.0000 21.6949 0.0000
# 4 0.0000 0.0000 0.0000 18.7071 0.0000 2.3280
# 5 16.0560 11.2652 21.6949 0.0000 20.0126 0.0000
# 6 0.0000 0.0000 0.0000 2.3280 0.0000 31.6906
#
#
#
# Elastic Compliance Matrix: (Units=1/GPa)
#
#
# Indices 1 2 3 4 5 6 
#
# 1 0.015820 -0.005855 -0.002926 0.000000 -0.006225 0.000000
# 2 -0.005855 0.031135 -0.004588 0.000000 -0.007855 0.000000
# 3 -0.002926 -0.004588 0.013623 0.000000 -0.009839 0.000000
# 4 0.000000 0.000000 0.000000 0.053949 0.000000 -0.003963
# 5 -0.006225 -0.007855 -0.009839 0.000000 0.070050 0.000000
# 6 0.000000 0.000000 0.000000 -0.003963 0.000000 0.031846
#
#
# Mechanical properties :
#
#
# Convention : Reuss Voigt Hill
#
# Bulk Modulus (GPa) = 29.54957 47.16054 38.35505
# Shear Modulus (GPa) = 19.65092 23.68024 21.66558
#
# Velocity S-wave (km/s) = 3.28617 3.60738 3.45051
# Velocity P-wave (km/s) = 5.53508 6.57779 6.07884
#
# Compressibility (1/GPa) = 0.03384144
#
# Stress axis : x y z
#
# Youngs Moduli (GPa) = 63.21224 32.11808 73.40261
#
# Poissons Ratio (x) = 0.18804 0.21478
# Poissons Ratio (y) = 0.37009 0.33675
# Poissons Ratio (z) = 0.18496 0.14735
#
# Static dielectric constant tensor:
#      x y z
#    x 3.700390 0.000000 0.069020 
#    y 0.000000 3.098970 0.000000 
#    z 0.069020 0.000000 3.717040 
# 
# 
# High freq. dielectric constant tensor:
#      x y z
#    x 1.715050 0.000000 0.000140 
#    y 0.000000 1.680580 0.000000 
#    z 0.000140 0.000000 1.708820 
# 
# From -- ./inp_files/359826.got.cif
#   From: 2010.06.25/outbox.cif.g09.slc.cpg/sg12_180_cif.got.tgz:359826.got - 2010.06.28 00:19:55.
