data_PCOD8086784
_publ_section_title
;
Structure prediction by ZEFSAII (Michael W. Deem and Ramdas Pophale) SiO2 
 PCOD8086784
Probable space group: C 2/M
;
_chemical_formula_sum "Si O2"
_cell_formula_units_Z 64
_cell_length_a 18.690119
_cell_length_b 8.871410
_cell_length_c 20.309851
_cell_angle_alpha 90.000000
_cell_angle_beta 90.123657
_cell_angle_gamma 90.000000
_cell_volume 3367.522013
_symmetry_space_group_name_H-M "C 2/M"
_symmetry_group_IT_number 12
_symmetry_cell_setting 'monoclinic'
loop_
_space_group_symop_operation_xyz
x,y,z
-x,y,-z
-x,-y,-z
x,-y,z
1/2+x,1/2+y,z
1/2-x,1/2+y,-z
1/2-x,1/2-y,-z
1/2+x,1/2-y,z
loop_
_atom_site_type_symbol
_atom_site_label
_atom_site_fract_x
_atom_site_fract_y
_atom_site_fract_z
Si Si1 0.175657 0.323386 0.258920
Si Si2 0.915764 0.826397 0.998991
Si Si3 0.673612 0.821966 0.890561
Si Si4 0.823480 0.322281 0.890598
Si Si5 0.079681 0.679094 0.376386
Si Si6 0.176663 0.676765 0.740792
Si Si7 0.672100 0.179157 0.499762
Si Si8 0.419865 0.179066 0.377037
O O1 0.186389 0.500000 0.266013
O O2 0.155894 0.278565 0.184175
O O3 0.113057 0.265805 0.307093
O O4 0.249532 0.250176 0.281969
O O5 0.887016 0.734985 0.936428
O O6 0.892422 0.000000 0.993370
O O7 0.886589 0.756712 0.066300
O O8 0.000000 0.807120 0.000000
O O9 0.750868 0.760223 0.912209
O O10 0.656641 0.777073 0.815157
O O11 0.671960 0.000000 0.902267
O O12 0.812770 0.500000 0.899322
O O13 0.075368 0.500000 0.378870
O O14 0.128931 0.737712 0.435974
O O15 0.999810 0.747265 0.382644
O O16 0.187906 0.500000 0.735023
O O17 0.114185 0.733404 0.692149
O O18 0.750000 0.250000 0.500000
O O19 0.628672 0.238213 0.563174
O O20 0.679722 0.000000 0.499956
O O21 0.423950 0.000000 0.379821
#
# Coordination Sequence:
#
# PCOD8086784 Si02
#       8
#     8   8   8   8   8   8   8   8
#     4   9  18  32  52  76 101 131 166 207 250 294
#     4  11  24  39  54  75 105 137 168 209 260 309
#     4  10  20  35  56  79 103 134 172 212 254 303
#     4  10  20  35  56  79 103 134 172 212 254 303
#     4   9  17  30  49  74 102 132 169 209 248 293
#     4   9  18  32  52  76 101 131 166 207 250 294
#     4  10  19  31  51  75  99 132 170 210 252 294
#     4   9  17  30  49  74 102 132 169 209 248 293
#
# _framework density 19.005072999999999
#
# number of rings (size 3 to 8) (size 9 to 14) (size 15 to 20)
#    0.000    2.375    0.000    2.625    0.000    4.500 
#    0.000    2.500    0.000    3.750    0.000    0.000 
#    0.000    0.000    0.000    0.000    0.000    0.000 
#
# Total GULP energy -396839.731161 kJ/mol
# GULP energy per Si atom -12401.241599 kJ/mol
# Density = 1.896182 g / cm^3
# Si number density = 19.005073 Si / 1000 Ang^3
#
#
#
# Elastic Constant Matrix: (Units=GPa)
#
#
# Indices 1 2 3 4 5 6 
#
# 1 154.9132 28.9880 85.8109 0.0000 -6.3210 0.0000
# 2 28.9880 23.8631 25.0073 0.0000 -7.8530 0.0000
# 3 85.8109 25.0073 133.8947 0.0000 -4.7332 0.0000
# 4 0.0000 0.0000 0.0000 14.8395 0.0000 -0.9203
# 5 -6.3210 -7.8530 -4.7332 0.0000 31.1536 0.0000
# 6 0.0000 0.0000 0.0000 -0.9203 0.0000 28.5185
#
#
#
# Elastic Compliance Matrix: (Units=1/GPa)
#
#
# Indices 1 2 3 4 5 6 
#
# 1 0.010978 -0.007612 -0.005633 0.000000 -0.000547 0.000000
# 2 -0.007612 0.062016 -0.006239 0.000000 0.013140 0.000000
# 3 -0.005633 -0.006239 0.012214 0.000000 -0.000860 0.000000
# 4 0.000000 0.000000 0.000000 0.067523 0.000000 0.002179
# 5 -0.000547 0.013140 -0.000860 0.000000 0.035170 0.000000
# 6 0.000000 0.000000 0.000000 0.002179 0.000000 0.035135
#
#
# Mechanical properties :
#
#
# Convention : Reuss Voigt Hill
#
# Bulk Modulus (GPa) = 21.62754 65.80928 43.71841
# Shear Modulus (GPa) = 18.02346 26.42665 22.22506
#
# Velocity S-wave (km/s) = 3.08287 3.73299 3.42340
# Velocity P-wave (km/s) = 4.90680 7.29950 6.21930
#
# Compressibility (1/GPa) = 0.04623734
#
# Stress axis : x y z
#
# Youngs Moduli (GPa) = 91.09453 16.12498 81.87607
#
# Poissons Ratio (x) = 0.12275 0.46121
# Poissons Ratio (y) = 0.69343 0.51086
# Poissons Ratio (z) = 0.51313 0.10061
#
# Static dielectric constant tensor:
#      x y z
#    x 3.577540 0.000000 -0.020420 
#    y 0.000000 3.258700 0.000000 
#    z -0.020420 0.000000 3.759930 
# 
# 
# High freq. dielectric constant tensor:
#      x y z
#    x 1.740180 0.000000 -0.000670 
#    y 0.000000 1.712470 0.000000 
#    z -0.000670 0.000000 1.755420 
# 
# From -- ./inp_files/314098.got.cif
#   From: 2010.06.25/outbox.cif.g09.slc.cpg/sg12_158_cif.got.tgz:314098.got - 2010.06.28 00:19:55.
