data_PCOD8086579
_publ_section_title
;
Structure prediction by ZEFSAII (Michael W. Deem and Ramdas Pophale) SiO2 
 PCOD8086579
Probable space group: C 2/M
;
_chemical_formula_sum "Si O2"
_cell_formula_units_Z 48
_cell_length_a 19.911574
_cell_length_b 8.964168
_cell_length_c 19.434642
_cell_angle_alpha 90.000000
_cell_angle_beta 121.461789
_cell_angle_gamma 90.000000
_cell_volume 2958.933919
_symmetry_space_group_name_H-M "C 2/M"
_symmetry_group_IT_number 12
_symmetry_cell_setting 'monoclinic'
loop_
_space_group_symop_operation_xyz
x,y,z
-x,y,-z
-x,-y,-z
x,-y,z
1/2+x,1/2+y,z
1/2-x,1/2+y,-z
1/2-x,1/2-y,-z
1/2+x,1/2-y,z
loop_
_atom_site_type_symbol
_atom_site_label
_atom_site_fract_x
_atom_site_fract_y
_atom_site_fract_z
Si Si1 0.732876 0.829904 0.826007
Si Si2 0.075700 0.168901 0.261211
Si Si3 0.714859 0.823804 0.278654
Si Si4 0.917062 0.674370 0.160555
Si Si5 0.725156 0.668891 0.417933
Si Si6 0.176747 0.827400 0.995525
O O1 0.737788 0.719873 0.764288
O O2 0.654119 0.788780 0.825831
O O3 0.728447 0.000000 0.797260
O O4 0.810774 0.809037 0.915671
O O5 0.126425 0.253080 0.228651
O O6 0.129451 0.169457 0.359423
O O7 0.995588 0.255351 0.234409
O O8 0.057893 0.000000 0.227602
O O9 0.760300 0.756485 0.370041
O O10 0.709622 0.000000 0.282430
O O11 0.928590 0.500000 0.156179
O O12 0.901078 0.747303 0.076450
O O13 0.757811 0.500000 0.435930
O O14 0.750000 0.750000 0.500000
O O15 0.175039 0.000000 0.973640
O O16 0.250000 0.750000 0.000000
#
# Coordination Sequence:
#
# PCOD8086579 Si02
#       6
#     8   8   8   8   8   8
#     4   9  18  32  48  70  99 131 164 201 244 286
#     4   9  19  33  50  72 100 128 159 200 244 290
#     4  10  19  31  50  74  99 127 162 201 241 287
#     4  10  19  31  50  73  99 130 166 205 244 289
#     4   9  18  32  53  76  98 126 158 196 238 290
#     4   9  17  29  46  67  95 130 168 205 241 286
#
# _framework density 16.222059000000002
#
# number of rings (size 3 to 8) (size 9 to 14) (size 15 to 20)
#    1.000    1.667    0.000    4.000    0.000    4.000 
#    0.000    0.833    0.000    6.000    0.000    7.000 
#    0.000    0.000    0.000    0.000    0.000    0.000 
#
# Total GULP energy -297350.515406 kJ/mol
# GULP energy per Si atom -12389.604809 kJ/mol
# Density = 1.618514 g / cm^3
# Si number density = 16.222059 Si / 1000 Ang^3
#
#
#
# Elastic Constant Matrix: (Units=GPa)
#
#
# Indices 1 2 3 4 5 6 
#
# 1 51.8694 39.6128 30.1205 0.0000 -4.1485 0.0000
# 2 39.6128 140.5600 48.1086 0.0000 -10.7907 0.0000
# 3 30.1205 48.1086 79.5668 0.0000 -10.7401 0.0000
# 4 0.0000 0.0000 0.0000 33.5165 0.0000 -0.1205
# 5 -4.1485 -10.7907 -10.7401 0.0000 21.9313 0.0000
# 6 0.0000 0.0000 0.0000 -0.1205 0.0000 27.8595
#
#
#
# Elastic Compliance Matrix: (Units=1/GPa)
#
#
# Indices 1 2 3 4 5 6 
#
# 1 0.027524 -0.005323 -0.007337 0.000000 -0.001005 0.000000
# 2 -0.005323 0.010073 -0.003793 0.000000 0.002092 0.000000
# 3 -0.007337 -0.003793 0.018417 0.000000 0.005765 0.000000
# 4 0.000000 0.000000 0.000000 0.029837 0.000000 0.000129
# 5 -0.001005 0.002092 0.005765 0.000000 0.049259 0.000000
# 6 0.000000 0.000000 0.000000 0.000129 0.000000 0.035895
#
#
# Mechanical properties :
#
#
# Convention : Reuss Voigt Hill
#
# Bulk Modulus (GPa) = 43.27357 56.40891 49.84124
# Shear Modulus (GPa) = 23.62783 26.93841 25.28312
#
# Velocity S-wave (km/s) = 3.82058 4.07947 3.95215
# Velocity P-wave (km/s) = 6.79678 7.55234 7.18450
#
# Compressibility (1/GPa) = 0.02310879
#
# Stress axis : x y z
#
# Youngs Moduli (GPa) = 36.33135 99.27090 54.29728
#
# Poissons Ratio (x) = 0.52842 0.39837
# Poissons Ratio (y) = 0.19339 0.20597
# Poissons Ratio (z) = 0.26655 0.37656
#
# Static dielectric constant tensor:
#      x y z
#    x 2.714480 0.000000 0.056030 
#    y 0.000000 3.214120 0.000000 
#    z 0.056030 0.000000 3.074870 
# 
# 
# High freq. dielectric constant tensor:
#      x y z
#    x 1.584330 0.000000 0.001430 
#    y 0.000000 1.644850 0.000000 
#    z 0.001430 0.000000 1.612570 
# 
# From -- ./inp_files/318860.got.cif
#   From: 2010.06.25/outbox.cif.g09.slc.cpg/sg12_160_cif.got.tgz:318860.got - 2010.06.28 00:19:55.
