data_PCOD8086642
_publ_section_title
;
Structure prediction by ZEFSAII (Michael W. Deem and Ramdas Pophale) SiO2 
 PCOD8086642
Probable space group: C 2/M
;
_chemical_formula_sum "Si O2"
_cell_formula_units_Z 48
_cell_length_a 18.146959
_cell_length_b 9.150318
_cell_length_c 16.199860
_cell_angle_alpha 90.000000
_cell_angle_beta 107.287947
_cell_angle_gamma 90.000000
_cell_volume 2568.469016
_symmetry_space_group_name_H-M "C 2/M"
_symmetry_group_IT_number 12
_symmetry_cell_setting 'monoclinic'
loop_
_space_group_symop_operation_xyz
x,y,z
-x,y,-z
-x,-y,-z
x,-y,z
1/2+x,1/2+y,z
1/2-x,1/2+y,-z
1/2-x,1/2-y,-z
1/2+x,1/2-y,z
loop_
_atom_site_type_symbol
_atom_site_label
_atom_site_fract_x
_atom_site_fract_y
_atom_site_fract_z
Si Si1 0.727245 0.170218 0.250597
Si Si2 0.982895 0.331167 0.588798
Si Si3 0.358885 0.834848 0.085475
Si Si4 0.600364 0.329135 0.743796
Si Si5 0.817815 0.164875 0.919113
Si Si6 0.809579 0.329549 0.578148
O O1 0.817440 0.205607 0.270173
O O2 0.675896 0.258177 0.167621
O O3 0.701520 0.224674 0.331924
O O4 0.710259 0.000000 0.230928
O O5 0.000709 0.500000 0.615740
O O6 0.894908 0.290305 0.577230
O O7 0.000000 0.295476 0.500000
O O8 0.035181 0.228089 0.661482
O O9 0.408165 0.751792 0.171408
O O10 0.269825 0.833643 0.080232
O O11 0.389840 0.000000 0.087345
O O12 0.370200 0.752488 0.002148
O O13 0.589191 0.500000 0.755702
O O14 0.849165 0.000000 0.922644
O O15 0.791917 0.500000 0.565927
O O16 0.750000 0.250000 0.500000
#
# Coordination Sequence:
#
# PCOD8086642 Si02
#       6
#     8   8   8   8   8   8
#     4   9  18  32  49  72 102 134 168 206 250 297
#     4  10  21  36  53  74 101 132 166 205 251 302
#     4   9  16  27  45  70 102 136 167 203 247 293
#     4  10  19  31  50  75 102 132 168 209 249 293
#     4   9  16  26  44  72 102 132 168 207 246 290
#     4  10  21  36  54  75 100 131 167 207 250 299
#
# _framework density 18.688175000000001
#
# number of rings (size 3 to 8) (size 9 to 14) (size 15 to 20)
#    0.000    2.500    0.000    2.500    0.000    6.333 
#    0.000    0.000    0.000    1.000    0.000    7.000 
#    0.000    0.000    0.000    0.000    0.000    0.000 
#
# Total GULP energy -297659.057780 kJ/mol
# GULP energy per Si atom -12402.460741 kJ/mol
# Density = 1.864564 g / cm^3
# Si number density = 18.688175 Si / 1000 Ang^3
#
#
#
# Elastic Constant Matrix: (Units=GPa)
#
#
# Indices 1 2 3 4 5 6 
#
# 1 62.6140 41.7730 63.2158 0.0000 -6.8048 0.0000
# 2 41.7730 118.0930 89.9180 0.0000 1.7537 0.0000
# 3 63.2158 89.9180 182.5581 0.0000 -9.9974 0.0000
# 4 0.0000 0.0000 0.0000 44.1636 0.0000 5.7858
# 5 -6.8048 1.7537 -9.9974 0.0000 23.8903 0.0000
# 6 0.0000 0.0000 0.0000 5.7858 0.0000 17.1564
#
#
#
# Elastic Compliance Matrix: (Units=1/GPa)
#
#
# Indices 1 2 3 4 5 6 
#
# 1 0.026058 -0.004202 -0.006684 0.000000 0.004934 0.000000
# 2 -0.004202 0.014587 -0.005991 0.000000 -0.004775 0.000000
# 3 -0.006684 -0.005991 0.010913 0.000000 0.003103 0.000000
# 4 0.000000 0.000000 0.000000 0.023690 0.000000 -0.007989
# 5 0.004934 -0.004775 0.003103 0.000000 0.044912 0.000000
# 6 0.000000 0.000000 0.000000 -0.007989 0.000000 0.060982
#
#
# Mechanical properties :
#
#
# Convention : Reuss Voigt Hill
#
# Bulk Modulus (GPa) = 56.16457 83.67540 69.91998
# Shear Modulus (GPa) = 22.64190 28.26595 25.45392
#
# Velocity S-wave (km/s) = 3.48453 3.89331 3.69458
# Velocity P-wave (km/s) = 6.80500 8.06736 7.46292
#
# Compressibility (1/GPa) = 0.01780482
#
# Stress axis : x y z
#
# Youngs Moduli (GPa) = 38.37572 68.55474 91.63452
#
# Poissons Ratio (x) = 0.28805 0.61245
# Poissons Ratio (y) = 0.16125 0.54900
# Poissons Ratio (z) = 0.25649 0.41072
#
# Static dielectric constant tensor:
#      x y z
#    x 3.109490 0.000000 -0.150320 
#    y 0.000000 3.505940 0.000000 
#    z -0.150320 0.000000 3.625900 
# 
# 
# High freq. dielectric constant tensor:
#      x y z
#    x 1.684730 0.000000 -0.003260 
#    y 0.000000 1.731320 0.000000 
#    z -0.003260 0.000000 1.742750 
# 
# From -- ./inp_files/229843.got.cif
#   From: 2010.06.25/outbox.cif.g09.slc.cpg/sg12_115_cif.got.tgz:229843.got - 2010.06.28 00:19:55.
