data_PCOD8086320
_publ_section_title
;
Structure prediction by ZEFSAII (Michael W. Deem and Ramdas Pophale) SiO2 
 PCOD8086320
Probable space group: C 2/M
;
_chemical_formula_sum "Si O2"
_cell_formula_units_Z 56
_cell_length_a 10.863178
_cell_length_b 22.817860
_cell_length_c 12.575673
_cell_angle_alpha 90.000000
_cell_angle_beta 79.265259
_cell_angle_gamma 90.000000
_cell_volume 3062.637662
_symmetry_space_group_name_H-M "C 2/M"
_symmetry_group_IT_number 12
_symmetry_cell_setting 'monoclinic'
loop_
_space_group_symop_operation_xyz
x,y,z
-x,y,-z
-x,-y,-z
x,-y,z
1/2+x,1/2+y,z
1/2-x,1/2+y,-z
1/2-x,1/2-y,-z
1/2+x,1/2-y,z
loop_
_atom_site_type_symbol
_atom_site_label
_atom_site_fract_x
_atom_site_fract_y
_atom_site_fract_z
Si Si1 0.796767 0.172505 0.884999
Si Si2 0.390403 0.739509 0.436885
Si Si3 0.786826 0.565197 0.386072
Si Si4 0.915345 0.065218 0.767889
Si Si5 0.597609 0.206126 0.075992
Si Si6 0.591149 0.166538 0.739616
Si Si7 0.596036 0.396553 0.575253
O O1 0.885474 0.114554 0.862824
O O2 0.873213 0.232912 0.869574
O O3 0.709462 0.171652 0.796922
O O4 0.718063 0.172586 0.008072
O O5 0.500000 0.759203 0.500000
O O6 0.250000 0.750000 0.500000
O O7 0.412320 0.774424 0.326238
O O8 0.406606 0.672245 0.405400
O O9 0.843422 0.500000 0.381610
O O10 0.682544 0.570860 0.312214
O O11 0.898549 0.609957 0.338613
O O12 0.731604 0.581742 0.511606
O O13 0.053741 0.074522 0.694028
O O14 0.908823 0.000000 0.820462
O O15 0.536239 0.161863 0.171280
O O16 0.500000 0.222398 0.000000
O O17 0.500000 0.416449 0.500000
#
# Coordination Sequence:
#
# PCOD8086320 Si02
#       7
#     8   8   8   8   8   8   8
#     4   9  18  32  50  71  97 122 165 211 256 307
#     4  11  22  33  50  79 111 139 170 209 259 308
#     4   9  16  27  42  65  96 130 168 202 242 296
#     4   9  16  26  45  70  96 127 161 211 260 294
#     4   9  18  32  50  71  94 127 162 206 259 310
#     4  10  19  31  49  71 100 131 164 208 253 300
#     4   9  16  27  43  67  99 130 164 204 250 298
#
# _framework density 18.284893
#
# number of rings (size 3 to 8) (size 9 to 14) (size 15 to 20)
#    0.000    2.571    1.429    1.286    4.000    1.714 
#    0.000    0.714    0.000    5.143    0.000    0.000 
#    0.000    0.000    0.000    0.000    0.000    0.000 
#
# Total GULP energy -346996.877275 kJ/mol
# GULP energy per Si atom -12392.745617 kJ/mol
# Density = 1.824328 g / cm^3
# Si number density = 18.284893 Si / 1000 Ang^3
#
#
#
# Elastic Constant Matrix: (Units=GPa)
#
#
# Indices 1 2 3 4 5 6 
#
# 1 47.1388 20.9854 32.4358 0.0000 -24.0087 0.0000
# 2 20.9854 123.0886 73.3054 0.0000 -26.2809 0.0000
# 3 32.4358 73.3054 99.8465 0.0000 -34.1267 0.0000
# 4 0.0000 0.0000 0.0000 28.2886 0.0000 -4.0617
# 5 -24.0087 -26.2809 -34.1267 0.0000 23.8131 0.0000
# 6 0.0000 0.0000 0.0000 -4.0617 0.0000 19.8063
#
#
#
# Elastic Compliance Matrix: (Units=1/GPa)
#
#
# Indices 1 2 3 4 5 6 
#
# 1 0.044229 0.002643 -0.000138 0.000000 0.047311 0.000000
# 2 0.002643 0.014620 -0.010127 0.000000 0.004286 0.000000
# 3 -0.000138 -0.010127 0.026712 0.000000 0.026965 0.000000
# 4 0.000000 0.000000 0.000000 0.036422 0.000000 0.007469
# 5 0.047311 0.004286 0.026965 0.000000 0.133068 0.000000
# 6 0.000000 0.000000 0.000000 0.007469 0.000000 0.052021
#
#
# Mechanical properties :
#
#
# Convention : Reuss Voigt Hill
#
# Bulk Modulus (GPa) = 14.22141 58.16968 36.19554
# Shear Modulus (GPa) = 14.46108 23.93808 19.19958
#
# Velocity S-wave (km/s) = 2.81530 3.62217 3.24392
# Velocity P-wave (km/s) = 4.28514 7.02677 5.81971
#
# Compressibility (1/GPa) = 0.07031654
#
# Stress axis : x y z
#
# Youngs Moduli (GPa) = 22.60974 68.39844 37.43628
#
# Poissons Ratio (x) = -0.18079 0.00516
# Poissons Ratio (y) = -0.05976 0.37913
# Poissons Ratio (z) = 0.00312 0.69270
#
# Static dielectric constant tensor:
#      x y z
#    x 3.298220 0.000000 -0.479500 
#    y 0.000000 3.572320 0.000000 
#    z -0.479500 0.000000 3.651850 
# 
# 
# High freq. dielectric constant tensor:
#      x y z
#    x 1.668620 0.000000 -0.031350 
#    y 0.000000 1.708000 0.000000 
#    z -0.031350 0.000000 1.704930 
# 
# From -- ./inp_files/133281.got.cif
#   From: 2010.06.25/outbox.cif.g09.slc.cpg/sg12_67_cif.got.tgz:133281.got - 2010.06.28 00:19:55.
