data_PCOD8086613
_publ_section_title
;
Structure prediction by ZEFSAII (Michael W. Deem and Ramdas Pophale) SiO2 
 PCOD8086613
Probable space group: C 2/M
;
_chemical_formula_sum "Si O2"
_cell_formula_units_Z 64
_cell_length_a 34.859299
_cell_length_b 9.357277
_cell_length_c 15.715940
_cell_angle_alpha 90.000000
_cell_angle_beta 43.040039
_cell_angle_gamma 90.000000
_cell_volume 3498.783369
_symmetry_space_group_name_H-M "C 2/M"
_symmetry_group_IT_number 12
_symmetry_cell_setting 'monoclinic'
loop_
_space_group_symop_operation_xyz
x,y,z
-x,y,-z
-x,-y,-z
x,-y,z
1/2+x,1/2+y,z
1/2-x,1/2+y,-z
1/2-x,1/2-y,-z
1/2+x,1/2-y,z
loop_
_atom_site_type_symbol
_atom_site_label
_atom_site_fract_x
_atom_site_fract_y
_atom_site_fract_z
Si Si1 0.040651 0.669103 0.007122
Si Si2 0.251207 0.168067 0.680838
Si Si3 0.012744 0.670597 0.733482
Si Si4 0.633734 0.168473 0.586872
Si Si5 0.264891 0.666441 0.100003
Si Si6 0.036954 0.669894 0.362255
Si Si7 0.656249 0.168941 0.739994
Si Si8 0.836080 0.333177 0.857338
O O1 0.033365 0.500000 0.017729
O O2 0.023627 0.728407 0.127587
O O3 0.104711 0.712704 0.884655
O O4 0.000000 0.734078 0.000000
O O5 0.315033 0.213177 0.556823
O O6 0.238406 0.215210 0.797437
O O7 0.211608 0.252053 0.681105
O O8 0.242248 0.000000 0.681518
O O9 0.011813 0.500000 0.732921
O O10 0.076220 0.730238 0.640335
O O11 0.986812 0.731828 0.688161
O O12 0.642939 0.226506 0.667208
O O13 0.627474 0.000000 0.603199
O O14 0.278254 0.500000 0.069022
O O15 0.205122 0.703871 0.153850
O O16 0.315665 0.752251 0.974855
O O17 0.032775 0.500000 0.369243
O O18 0.101566 0.718927 0.268841
O O19 0.000000 0.732611 0.500000
O O20 0.667283 0.000000 0.723104
O O21 0.835945 0.500000 0.879694
#
# Coordination Sequence:
#
# PCOD8086613 Si02
#       8
#     8   8   8   8   8   8   8   8
#     4   9  15  26  44  70  98 121 152 197 245 288
#     4  10  21  33  48  70  98 132 168 200 237 287
#     4   9  16  26  43  69  98 126 156 196 244 291
#     4   9  17  30  47  68  96 131 165 196 239 293
#     4   9  19  34  50  69  96 133 166 197 239 289
#     4   9  18  28  44  73 104 127 152 197 252 293
#     4  10  19  31  50  74  99 126 161 204 244 284
#     4   9  18  33  52  74 100 125 158 203 246 287
#
# _framework density 18.292072999999998
#
# number of rings (size 3 to 8) (size 9 to 14) (size 15 to 20)
#    0.000    2.750    1.250    0.375    3.500    0.500 
#    0.000    0.000    0.000    0.750    0.000    1.750 
#    0.000    0.000    0.000    0.000    0.000    0.000 
#
# Total GULP energy -396756.625032 kJ/mol
# GULP energy per Si atom -12398.644532 kJ/mol
# Density = 1.825044 g / cm^3
# Si number density = 18.292073 Si / 1000 Ang^3
#
#
#
# Elastic Constant Matrix: (Units=GPa)
#
#
# Indices 1 2 3 4 5 6 
#
# 1 101.9734 15.9085 54.4558 0.0000 5.0714 0.0000
# 2 15.9085 15.1064 22.2981 0.0000 -2.7161 0.0000
# 3 54.4558 22.2981 139.0844 0.0000 2.4848 0.0000
# 4 0.0000 0.0000 0.0000 15.2611 0.0000 -2.4289
# 5 5.0714 -2.7161 2.4848 0.0000 34.2735 0.0000
# 6 0.0000 0.0000 0.0000 -2.4289 0.0000 18.0075
#
#
#
# Elastic Compliance Matrix: (Units=1/GPa)
#
#
# Indices 1 2 3 4 5 6 
#
# 1 0.013317 -0.008940 -0.003738 0.000000 -0.002408 0.000000
# 2 -0.008940 0.094905 -0.011888 0.000000 0.009706 0.000000
# 3 -0.003738 -0.011888 0.010580 0.000000 -0.001156 0.000000
# 4 0.000000 0.000000 0.000000 0.066963 0.000000 0.009032
# 5 -0.002408 0.009706 -0.001156 0.000000 0.030386 0.000000
# 6 0.000000 0.000000 0.000000 0.009032 0.000000 0.056751
#
#
# Mechanical properties :
#
#
# Convention : Reuss Voigt Hill
#
# Bulk Modulus (GPa) = 14.35342 49.05433 31.70387
# Shear Modulus (GPa) = 14.48197 24.40857 19.44527
#
# Velocity S-wave (km/s) = 2.81678 3.65688 3.26397
# Velocity P-wave (km/s) = 4.29451 6.68624 5.61910
#
# Compressibility (1/GPa) = 0.06966983
#
# Stress axis : x y z
#
# Youngs Moduli (GPa) = 75.09252 10.53688 94.51867
#
# Poissons Ratio (x) = 0.09420 0.35329
# Poissons Ratio (y) = 0.67131 1.12367
# Poissons Ratio (z) = 0.28068 0.12527
#
# Static dielectric constant tensor:
#      x y z
#    x 3.509210 0.000000 0.023730 
#    y 0.000000 2.769340 0.000000 
#    z 0.023730 0.000000 3.631510 
# 
# 
# High freq. dielectric constant tensor:
#      x y z
#    x 1.718620 0.000000 -0.000260 
#    y 0.000000 1.640100 0.000000 
#    z -0.000260 0.000000 1.725570 
# 
# From -- ./inp_files/250808.got.cif
#   From: 2010.06.25/outbox.cif.g09.slc.cpg/sg12_126_cif.got.tgz:250808.got - 2010.06.28 00:19:55.
