data_PCOD8086544
_publ_section_title
;
Structure prediction by ZEFSAII (Michael W. Deem and Ramdas Pophale) SiO2 
 PCOD8086544
Probable space group: C 2/M
;
_chemical_formula_sum "Si O2"
_cell_formula_units_Z 48
_cell_length_a 21.771191
_cell_length_b 17.776680
_cell_length_c 13.896338
_cell_angle_alpha 90.000000
_cell_angle_beta 31.775530
_cell_angle_gamma 90.000000
_cell_volume 2832.096886
_symmetry_space_group_name_H-M "C 2/M"
_symmetry_group_IT_number 12
_symmetry_cell_setting 'monoclinic'
loop_
_space_group_symop_operation_xyz
x,y,z
-x,y,-z
-x,-y,-z
x,-y,z
1/2+x,1/2+y,z
1/2-x,1/2+y,-z
1/2-x,1/2-y,-z
1/2+x,1/2-y,z
loop_
_atom_site_type_symbol
_atom_site_label
_atom_site_fract_x
_atom_site_fract_y
_atom_site_fract_z
Si Si1 0.914647 0.911944 0.031134
Si Si2 0.655853 0.142357 0.369901
Si Si3 0.523389 0.411238 0.266337
Si Si4 0.609526 0.307141 0.423754
Si Si5 0.241965 0.170541 0.065692
Si Si6 0.077645 0.585749 0.272146
O O1 0.973801 0.892102 0.850518
O O2 0.895025 0.000000 0.066986
O O3 0.788836 0.875436 0.215509
O O4 0.000000 0.880777 0.000000
O O5 0.628320 0.225757 0.445772
O O6 0.629746 0.134039 0.291400
O O7 0.562998 0.088483 0.548244
O O8 0.510683 0.500000 0.302946
O O9 0.412627 0.369010 0.463241
O O10 0.643069 0.381550 0.150929
O O11 0.500000 0.304721 0.500000
O O12 0.721847 0.322709 0.207012
O O13 0.250000 0.250000 0.000000
O O14 0.363962 0.125281 0.897567
O O15 0.118437 0.500000 0.229172
#
# Coordination Sequence:
#
# PCOD8086544 Si02
#       6
#     8   8   8   8   8   8
#     4  10  20  35  54  73  97 132 171 212 254 292
#     4  11  18  32  48  72 103 128 163 203 251 301
#     4  10  20  33  49  72 102 133 172 213 246 296
#     4  10  19  31  50  72 102 138 163 197 252 306
#     4  11  18  30  47  71 103 136 165 194 246 307
#     4  11  19  27  47  73 101 129 159 201 251 299
#
# _framework density 16.948573
#
# number of rings (size 3 to 8) (size 9 to 14) (size 15 to 20)
#    0.000    1.500    5.000    3.500    0.000    3.667 
#    0.000    0.833    0.000    0.000    0.000    0.000 
#    0.000    6.000    0.000    0.000    0.000    0.000 
#
# Total GULP energy -297479.188375 kJ/mol
# GULP energy per Si atom -12394.966182 kJ/mol
# Density = 1.691000 g / cm^3
# Si number density = 16.948573 Si / 1000 Ang^3
#
#
#
# Elastic Constant Matrix: (Units=GPa)
#
#
# Indices 1 2 3 4 5 6 
#
# 1 55.6775 23.5459 33.9934 0.0000 -1.9805 0.0000
# 2 23.5459 103.6626 50.3834 0.0000 6.9398 0.0000
# 3 33.9934 50.3834 127.9698 0.0000 10.4656 0.0000
# 4 0.0000 0.0000 0.0000 34.9556 0.0000 6.7715
# 5 -1.9805 6.9398 10.4656 0.0000 21.7742 0.0000
# 6 0.0000 0.0000 0.0000 6.7715 0.0000 9.2396
#
#
#
# Elastic Compliance Matrix: (Units=1/GPa)
#
#
# Indices 1 2 3 4 5 6 
#
# 1 0.022642 -0.002932 -0.005314 0.000000 0.005548 0.000000
# 2 -0.002932 0.012363 -0.003898 0.000000 -0.002333 0.000000
# 3 -0.005314 -0.003898 0.011136 0.000000 -0.004594 0.000000
# 4 0.000000 0.000000 0.000000 0.033341 0.000000 -0.024435
# 5 0.005548 -0.002333 -0.004594 0.000000 0.049382 0.000000
# 6 0.000000 0.000000 0.000000 -0.024435 0.000000 0.126138
#
#
# Mechanical properties :
#
#
# Convention : Reuss Voigt Hill
#
# Bulk Modulus (GPa) = 45.75725 55.90613 50.83169
# Shear Modulus (GPa) = 17.44743 25.15302 21.30022
#
# Velocity S-wave (km/s) = 3.21196 3.85655 3.54892
# Velocity P-wave (km/s) = 6.38842 7.27242 6.84470
#
# Compressibility (1/GPa) = 0.02185446
#
# Stress axis : x y z
#
# Youngs Moduli (GPa) = 44.16546 80.88422 89.79601
#
# Poissons Ratio (x) = 0.23711 0.47719
# Poissons Ratio (y) = 0.12947 0.35003
# Poissons Ratio (z) = 0.23470 0.31529
#
# Static dielectric constant tensor:
#      x y z
#    x 2.854460 0.000000 0.273520 
#    y 0.000000 3.270230 0.000000 
#    z 0.273520 0.000000 3.726430 
# 
# 
# High freq. dielectric constant tensor:
#      x y z
#    x 1.585930 0.000000 0.017050 
#    y 0.000000 1.664480 0.000000 
#    z 0.017050 0.000000 1.672250 
# 
# From -- ./inp_files/144954.got.cif
#   From: 2010.06.25/outbox.cif.g09.slc.cpg/sg12_73_cif.got.tgz:144954.got - 2010.06.28 00:19:55.
