data_PCOD8086231
_publ_section_title
;
Structure prediction by ZEFSAII (Michael W. Deem and Ramdas Pophale) SiO2 
 PCOD8086231
Probable space group: C 2/M
;
_chemical_formula_sum "Si O2"
_cell_formula_units_Z 56
_cell_length_a 19.193505
_cell_length_b 9.144225
_cell_length_c 27.619348
_cell_angle_alpha 90.000000
_cell_angle_beta 41.562528
_cell_angle_gamma 90.000000
_cell_volume 3215.987164
_symmetry_space_group_name_H-M "C 2/M"
_symmetry_group_IT_number 12
_symmetry_cell_setting 'monoclinic'
loop_
_space_group_symop_operation_xyz
x,y,z
-x,y,-z
-x,-y,-z
x,-y,z
1/2+x,1/2+y,z
1/2-x,1/2+y,-z
1/2-x,1/2-y,-z
1/2+x,1/2-y,z
loop_
_atom_site_type_symbol
_atom_site_label
_atom_site_fract_x
_atom_site_fract_y
_atom_site_fract_z
Si Si1 0.903404 0.329562 0.936623
Si Si2 0.876983 0.340266 0.572208
Si Si3 0.308372 0.671038 0.899354
Si Si4 0.298543 0.830826 0.806644
Si Si5 0.663880 0.825016 0.510914
Si Si6 0.446130 0.332407 0.077628
Si Si7 0.073379 0.325698 0.352275
O O1 0.910331 0.500000 0.922003
O O2 0.888594 0.246379 0.894153
O O3 0.011619 0.271993 0.902322
O O4 0.810205 0.292039 0.022696
O O5 0.824254 0.500000 0.603870
O O6 0.824824 0.266659 0.551181
O O7 0.868881 0.258971 0.628997
O O8 0.000000 0.359328 0.500000
O O9 0.330404 0.500000 0.887595
O O10 0.332595 0.735240 0.834380
O O11 0.176912 0.807650 0.859637
O O12 0.363987 0.770178 0.727074
O O13 0.324016 0.000000 0.804112
O O14 0.750000 0.750000 0.500000
O O15 0.548151 0.777407 0.589576
O O16 0.677078 0.000000 0.506249
O O17 0.476142 0.500000 0.073394
O O18 0.500000 0.281910 0.000000
O O19 0.079018 0.500000 0.354114
#
# Coordination Sequence:
#
# PCOD8086231 Si02
#       7
#     8   8   8   8   8   8   8
#     4  10  20  33  51  71  93 124 165 209 252 300
#     4   7  11  23  45  69  90 117 156 192 220 263
#     4  10  20  33  50  71  96 126 162 206 252 299
#     4  10  19  32  51  72  97 130 165 203 250 299
#     4   9  16  28  49  75 100 126 158 198 237 282
#     4  10  19  31  48  71  98 126 161 208 252 291
#     4   8  15  29  49  71  94 126 166 199 232 284
#
# _framework density 17.413004000000001
#
# number of rings (size 3 to 8) (size 9 to 14) (size 15 to 20)
#    0.000    2.857    1.429    2.571    0.000    2.000 
#    0.000    2.143    0.000    6.429    0.000    0.000 
#    0.000    0.000    0.000    0.000    0.000    0.000 
#
# Total GULP energy -346966.762794 kJ/mol
# GULP energy per Si atom -12391.670100 kJ/mol
# Density = 1.737337 g / cm^3
# Si number density = 17.413004 Si / 1000 Ang^3
#
#
#
# Elastic Constant Matrix: (Units=GPa)
#
#
# Indices 1 2 3 4 5 6 
#
# 1 144.2762 51.1012 65.5270 0.0000 27.2334 -0.0003
# 2 51.1012 51.3011 34.9291 0.0000 13.0126 -0.0005
# 3 65.5270 34.9291 110.1098 0.0000 25.1252 0.0000
# 4 0.0000 0.0000 0.0000 12.9293 0.0000 3.2893
# 5 27.2334 13.0126 25.1252 0.0000 28.7870 0.0000
# 6 -0.0003 -0.0005 0.0000 3.2893 0.0000 32.6030
#
#
#
# Elastic Compliance Matrix: (Units=1/GPa)
#
#
# Indices 1 2 3 4 5 6 
#
# 1 0.012622 -0.008915 -0.003594 0.000000 -0.004774 0.000000
# 2 -0.008915 0.031860 -0.004295 0.000000 -0.002219 0.000000
# 3 -0.003594 -0.004295 0.014190 0.000000 -0.007044 0.000000
# 4 0.000000 0.000000 0.000000 0.079381 0.000000 -0.008009
# 5 -0.004774 -0.002219 -0.007044 0.000000 0.046405 0.000000
# 6 0.000000 0.000000 0.000000 -0.008009 0.000000 0.031480
#
#
# Mechanical properties :
#
#
# Convention : Reuss Voigt Hill
#
# Bulk Modulus (GPa) = 39.89666 67.64463 53.77064
# Shear Modulus (GPa) = 19.38714 25.13918 22.26316
#
# Velocity S-wave (km/s) = 3.34034 3.80373 3.57954
# Velocity P-wave (km/s) = 6.15133 7.63038 6.93042
#
# Compressibility (1/GPa) = 0.02506476
#
# Stress axis : x y z
#
# Youngs Moduli (GPa) = 79.22459 31.38705 70.46981
#
# Poissons Ratio (x) = 0.27982 0.25328
# Poissons Ratio (y) = 0.70629 0.30266
# Poissons Ratio (z) = 0.28475 0.13481
#
# Static dielectric constant tensor:
#      x y z
#    x 3.727150 0.000000 0.655470 
#    y 0.000000 2.922860 0.000000 
#    z 0.655470 0.000000 3.636620 
# 
# 
# High freq. dielectric constant tensor:
#      x y z
#    x 1.680250 0.000000 0.020200 
#    y 0.000000 1.640540 0.000000 
#    z 0.020200 0.000000 1.653630 
# 
# From -- ./inp_files/280149.got.cif
#   From: 2010.06.25/outbox.cif.g09.slc.cpg/sg12_141_cif.got.tgz:280149.got - 2010.06.28 00:19:55.
