data_PCOD8086380
_publ_section_title
;
Structure prediction by ZEFSAII (Michael W. Deem and Ramdas Pophale) SiO2 
 PCOD8086380
Probable space group: C 2/M
;
_chemical_formula_sum "Si O2"
_cell_formula_units_Z 56
_cell_length_a 18.865175
_cell_length_b 8.737364
_cell_length_c 23.126777
_cell_angle_alpha 90.000000
_cell_angle_beta 127.328792
_cell_angle_gamma 90.000000
_cell_volume 3031.208046
_symmetry_space_group_name_H-M "C 2/M"
_symmetry_group_IT_number 12
_symmetry_cell_setting 'monoclinic'
loop_
_space_group_symop_operation_xyz
x,y,z
-x,y,-z
-x,-y,-z
x,-y,z
1/2+x,1/2+y,z
1/2-x,1/2+y,-z
1/2-x,1/2-y,-z
1/2+x,1/2-y,z
loop_
_atom_site_type_symbol
_atom_site_label
_atom_site_fract_x
_atom_site_fract_y
_atom_site_fract_z
Si Si1 0.609520 0.677862 0.220042
Si Si2 0.232068 0.319008 0.363268
Si Si3 0.086535 0.319555 0.505627
Si Si4 0.997827 0.822673 0.062013
Si Si5 0.424079 0.180931 0.629844
Si Si6 0.658733 0.319706 0.933933
Si Si7 0.452948 0.177991 0.211839
O O1 0.594212 0.500000 0.229088
O O2 0.705860 0.736869 0.289186
O O3 0.592484 0.699452 0.142534
O O4 0.538960 0.786756 0.216100
O O5 0.227303 0.500000 0.353054
O O6 0.331266 0.269140 0.426453
O O7 0.164006 0.259101 0.379654
O O8 0.105925 0.500000 0.515839
O O9 0.073308 0.255335 0.433982
O O10 0.000000 0.278126 0.500000
O O11 0.917331 0.754955 0.060581
O O12 0.976296 0.000000 0.042409
O O13 0.000000 0.741633 0.000000
O O14 0.516670 0.228624 0.708156
O O15 0.418040 0.000000 0.625546
O O16 0.665915 0.500000 0.938160
O O17 0.632989 0.268112 0.855614
O O18 0.750000 0.250000 0.000000
O O19 0.429527 0.000000 0.197827
#
# Coordination Sequence:
#
# PCOD8086380 Si02
#       7
#     8   8   8   8   8   8   8
#     4   9  16  28  49  74  97 122 157 199 238 278
#     4  10  19  32  51  72  96 125 159 198 236 280
#     4  10  20  34  51  71  97 126 157 195 238 285
#     4   8  15  29  49  72  95 121 157 198 237 278
#     4   8  16  31  51  74  94 119 158 198 237 280
#     4  10  19  31  49  72  98 128 162 199 238 282
#     4   9  16  29  49  71  97 125 156 197 240 282
#
# _framework density 18.474481000000001
#
# number of rings (size 3 to 8) (size 9 to 14) (size 15 to 20)
#    0.000    2.857    0.000    3.857    0.000    0.286 
#    0.000    5.000    0.000   24.000    0.000    0.000 
#    0.000    0.000    0.000    0.000    0.000    0.000 
#
# Total GULP energy -346921.362419 kJ/mol
# GULP energy per Si atom -12390.048658 kJ/mol
# Density = 1.843243 g / cm^3
# Si number density = 18.474481 Si / 1000 Ang^3
#
#
#
# Elastic Constant Matrix: (Units=GPa)
#
#
# Indices 1 2 3 4 5 6 
#
# 1 67.6986 24.8294 65.4556 0.0000 1.5742 0.0000
# 2 24.8294 51.8186 46.3518 0.0000 2.7856 0.0000
# 3 65.4556 46.3518 198.7376 0.0000 7.4286 0.0000
# 4 0.0000 0.0000 0.0000 31.3184 0.0000 7.0281
# 5 1.5742 2.7856 7.4286 0.0000 26.7558 0.0000
# 6 0.0000 0.0000 0.0000 7.0281 0.0000 16.6475
#
#
#
# Elastic Compliance Matrix: (Units=1/GPa)
#
#
# Indices 1 2 3 4 5 6 
#
# 1 0.022798 -0.005341 -0.006299 0.000000 0.000964 0.000000
# 2 -0.005341 0.025662 -0.004181 0.000000 -0.001197 0.000000
# 3 -0.006299 -0.004181 0.008136 0.000000 -0.001453 0.000000
# 4 0.000000 0.000000 0.000000 0.035272 0.000000 -0.014891
# 5 0.000964 -0.001197 -0.001453 0.000000 0.037846 0.000000
# 6 0.000000 0.000000 0.000000 -0.014891 0.000000 0.066356
#
#
# Mechanical properties :
#
#
# Convention : Reuss Voigt Hill
#
# Bulk Modulus (GPa) = 40.07550 65.72537 52.90043
# Shear Modulus (GPa) = 21.18370 27.05219 24.11794
#
# Velocity S-wave (km/s) = 3.38989 3.83077 3.61705
# Velocity P-wave (km/s) = 6.08780 7.43101 6.79269
#
# Compressibility (1/GPa) = 0.02495290
#
# Stress axis : x y z
#
# Youngs Moduli (GPa) = 43.86293 38.96830 122.91214
#
# Poissons Ratio (x) = 0.20814 0.77423
# Poissons Ratio (y) = 0.23429 0.51392
# Poissons Ratio (z) = 0.27629 0.16294
#
# Static dielectric constant tensor:
#      x y z
#    x 3.217070 0.000000 -0.202270 
#    y 0.000000 3.218470 0.000000 
#    z -0.202270 0.000000 4.106490 
# 
# 
# High freq. dielectric constant tensor:
#      x y z
#    x 1.666490 0.000000 0.002450 
#    y 0.000000 1.698550 0.000000 
#    z 0.002450 0.000000 1.745930 
# 
# From -- ./inp_files/345635.got.cif
#   From: 2010.06.25/outbox.cif.g09.slc.cpg/sg12_173_cif.got.tgz:345635.got - 2010.06.28 00:19:55.
