data_PCOD8086444
_publ_section_title
;
Structure prediction by ZEFSAII (Michael W. Deem and Ramdas Pophale) SiO2 
 PCOD8086444
Probable space group: C 2/M
;
_chemical_formula_sum "Si O2"
_cell_formula_units_Z 56
_cell_length_a 18.828131
_cell_length_b 9.151723
_cell_length_c 28.108793
_cell_angle_alpha 90.000000
_cell_angle_beta 143.317641
_cell_angle_gamma 90.000000
_cell_volume 2893.354760
_symmetry_space_group_name_H-M "C 2/M"
_symmetry_group_IT_number 12
_symmetry_cell_setting 'monoclinic'
loop_
_space_group_symop_operation_xyz
x,y,z
-x,y,-z
-x,-y,-z
x,-y,z
1/2+x,1/2+y,z
1/2-x,1/2+y,-z
1/2-x,1/2-y,-z
1/2+x,1/2-y,z
loop_
_atom_site_type_symbol
_atom_site_label
_atom_site_fract_x
_atom_site_fract_y
_atom_site_fract_z
Si Si1 0.070853 0.329817 0.935070
Si Si2 0.252096 0.335891 0.113466
Si Si3 0.825761 0.326110 0.498723
Si Si4 0.977625 0.165603 0.181105
Si Si5 0.759092 0.170956 0.652495
Si Si6 0.902586 0.837503 0.906520
Si Si7 0.546019 0.332896 0.578155
O O1 0.051057 0.500000 0.920406
O O2 0.090239 0.264738 0.893499
O O3 0.948301 0.258906 0.887666
O O4 0.182617 0.288618 0.028084
O O5 0.211882 0.500000 0.105254
O O6 0.393499 0.326218 0.182342
O O7 0.219561 0.230094 0.139385
O O8 0.835510 0.500000 0.513559
O O9 0.750000 0.250000 0.500000
O O10 0.762925 0.292100 0.414658
O O11 0.958029 0.255127 0.566517
O O12 0.107290 0.223150 0.264641
O O13 0.983451 0.000000 0.164916
O O14 0.674957 0.256031 0.644709
O O15 0.739433 0.000000 0.650915
O O16 0.876472 0.000000 0.874050
O O17 0.000000 0.835117 0.000000
O O18 0.500000 0.327309 0.500000
O O19 0.557577 0.500000 0.602513
#
# Coordination Sequence:
#
# PCOD8086444 Si02
#       7
#     8   8   8   8   8   8   8
#     4  10  19  31  49  73  99 130 171 214 255 303
#     4   9  18  32  50  72  99 132 170 213 259 304
#     4  10  19  33  55  81 106 133 168 208 250 297
#     4  10  20  34  51  72 101 134 167 208 256 302
#     4   9  19  35  53  74 102 135 168 204 250 301
#     4   9  17  30  49  70  92 122 163 211 258 303
#     4   9  17  31  53  78 102 130 164 200 240 292
#
# _framework density 19.354696000000001
#
# number of rings (size 3 to 8) (size 9 to 14) (size 15 to 20)
#    0.000    2.571    0.000    2.143    0.000    5.714 
#    0.000    1.429    0.000    5.143    0.000    0.000 
#    0.000    0.000    0.000    0.000    0.000    0.000 
#
# Total GULP energy -347116.820534 kJ/mol
# GULP energy per Si atom -12397.029305 kJ/mol
# Density = 1.931064 g / cm^3
# Si number density = 19.354696 Si / 1000 Ang^3
#
#
#
# Elastic Constant Matrix: (Units=GPa)
#
#
# Indices 1 2 3 4 5 6 
#
# 1 125.2377 58.3997 27.7667 0.0000 28.6574 -0.0001
# 2 58.3997 99.5977 23.7708 0.0000 15.7698 -0.0001
# 3 27.7667 23.7708 44.0939 0.0000 24.4933 0.0000
# 4 0.0000 0.0000 0.0000 18.9371 0.0000 2.2699
# 5 28.6574 15.7698 24.4933 0.0000 29.4998 0.0000
# 6 -0.0001 -0.0001 0.0000 2.2699 0.0000 39.0072
#
#
#
# Elastic Compliance Matrix: (Units=1/GPa)
#
#
# Indices 1 2 3 4 5 6 
#
# 1 0.012989 -0.006210 0.000619 0.000000 -0.009812 0.000000
# 2 -0.006210 0.014547 -0.005500 0.000000 0.002822 0.000000
# 3 0.000619 -0.005500 0.044460 0.000000 -0.034576 0.000000
# 4 0.000000 0.000000 0.000000 0.053177 0.000000 -0.003095
# 5 -0.009812 0.002822 -0.034576 0.000000 0.070630 0.000000
# 6 0.000000 0.000000 0.000000 -0.003095 0.000000 0.025816
#
#
# Mechanical properties :
#
#
# Convention : Reuss Voigt Hill
#
# Bulk Modulus (GPa) = 20.07425 54.31151 37.19288
# Shear Modulus (GPa) = 19.20074 28.08828 23.64451
#
# Velocity S-wave (km/s) = 3.15309 3.81365 3.49899
# Velocity P-wave (km/s) = 4.86316 6.89303 5.96507
#
# Compressibility (1/GPa) = 0.04981506
#
# Stress axis : x y z
#
# Youngs Moduli (GPa) = 76.99045 68.74057 22.49190
#
# Poissons Ratio (x) = 0.42689 -0.01392
# Poissons Ratio (y) = 0.47812 0.12370
# Poissons Ratio (z) = -0.04766 0.37805
#
# Static dielectric constant tensor:
#      x y z
#    x 3.604360 0.000000 0.184910 
#    y 0.000000 3.628960 0.000000 
#    z 0.184910 0.000000 3.198530 
# 
# 
# High freq. dielectric constant tensor:
#      x y z
#    x 1.760400 0.000000 0.017930 
#    y 0.000000 1.758520 0.000000 
#    z 0.017930 0.000000 1.712710 
# 
# From -- ./inp_files/363190.got.cif
#   From: 2010.06.25/outbox.cif.g09.slc.cpg/sg12_182_cif.got.tgz:363190.got - 2010.06.28 00:19:55.
