data_PCOD8086445
_publ_section_title
;
Structure prediction by ZEFSAII (Michael W. Deem and Ramdas Pophale) SiO2 
 PCOD8086445
Probable space group: C 2/M
;
_chemical_formula_sum "Si O2"
_cell_formula_units_Z 64
_cell_length_a 23.979902
_cell_length_b 9.280113
_cell_length_c 19.763403
_cell_angle_alpha 90.000000
_cell_angle_beta 122.507627
_cell_angle_gamma 90.000000
_cell_volume 3708.982218
_symmetry_space_group_name_H-M "C 2/M"
_symmetry_group_IT_number 12
_symmetry_cell_setting 'monoclinic'
loop_
_space_group_symop_operation_xyz
x,y,z
-x,y,-z
-x,-y,-z
x,-y,z
1/2+x,1/2+y,z
1/2-x,1/2+y,-z
1/2-x,1/2-y,-z
1/2+x,1/2-y,z
loop_
_atom_site_type_symbol
_atom_site_label
_atom_site_fract_x
_atom_site_fract_y
_atom_site_fract_z
Si Si1 0.628697 0.830868 0.673319
Si Si2 0.654425 0.333129 0.904061
Si Si3 0.586867 0.168673 0.359723
Si Si4 0.209959 0.333746 0.351315
Si Si5 0.840215 0.334512 0.456996
Si Si6 0.953706 0.171468 0.274956
Si Si7 0.201012 0.335473 0.052676
Si Si8 0.240064 0.334278 0.221117
O O1 0.623335 0.798961 0.589762
O O2 0.568981 0.746704 0.670152
O O3 0.697980 0.771202 0.746012
O O4 0.623550 0.000000 0.686245
O O5 0.647988 0.500000 0.914922
O O6 0.595645 0.281300 0.817188
O O7 0.723252 0.292407 0.913367
O O8 0.650026 0.255810 0.974284
O O9 0.643876 0.218495 0.345174
O O10 0.609167 0.203883 0.450580
O O11 0.524850 0.267543 0.301163
O O12 0.569377 0.000000 0.339686
O O13 0.222488 0.500000 0.375185
O O14 0.273013 0.253270 0.422728
O O15 0.201327 0.304124 0.265497
O O16 0.818642 0.500000 0.445949
O O17 0.955730 0.000000 0.286286
O O18 0.187482 0.500000 0.025190
O O19 0.190302 0.305416 0.125844
O O20 0.266051 0.500000 0.234698
#
# Coordination Sequence:
#
# PCOD8086445 Si02
#       8
#     8   8   8   8   8   8   8   8
#     4  10  19  31  49  73  99 132 164 198 246 295
#     4   9  18  31  46  69  99 127 157 197 240 287
#     4  10  21  36  51  72  99 132 170 206 244 289
#     4   9  18  32  54  77  99 128 165 207 246 286
#     4   9  19  34  52  74 102 128 160 208 253 289
#     4  11  22  36  51  69  99 135 166 203 245 292
#     4   9  16  28  48  73 100 126 154 194 241 288
#     4   9  16  30  50  75 104 129 157 200 247 288
#
# _framework density 17.255407999999999
#
# number of rings (size 3 to 8) (size 9 to 14) (size 15 to 20)
#    0.000    2.500    1.250    1.125    0.000    3.500 
#    0.000    2.500    0.000    0.750    0.000    5.250 
#    0.000    0.000    0.000    0.000    0.000    0.000 
#
# Total GULP energy -396799.575471 kJ/mol
# GULP energy per Si atom -12399.986733 kJ/mol
# Density = 1.721613 g / cm^3
# Si number density = 17.255408 Si / 1000 Ang^3
#
#
#
# Elastic Constant Matrix: (Units=GPa)
#
#
# Indices 1 2 3 4 5 6 
#
# 1 70.3130 36.6059 43.3723 0.0000 9.1450 0.0000
# 2 36.6059 61.9213 43.6199 0.0000 5.8517 0.0000
# 3 43.3723 43.6199 107.3871 0.0000 -2.2368 0.0000
# 4 0.0000 0.0000 0.0000 29.4423 0.0000 3.0759
# 5 9.1450 5.8517 -2.2368 0.0000 20.6767 0.0000
# 6 0.0000 0.0000 0.0000 3.0759 0.0000 25.5917
#
#
#
# Elastic Compliance Matrix: (Units=1/GPa)
#
#
# Indices 1 2 3 4 5 6 
#
# 1 0.023790 -0.008893 -0.006177 0.000000 -0.008673 0.000000
# 2 -0.008893 0.027141 -0.007528 0.000000 -0.004562 0.000000
# 3 -0.006177 -0.007528 0.015000 0.000000 0.006485 0.000000
# 4 0.000000 0.000000 0.000000 0.034397 0.000000 -0.004134
# 5 -0.008673 -0.004562 0.006485 0.000000 0.054192 0.000000
# 6 0.000000 0.000000 0.000000 -0.004134 0.000000 0.039572
#
#
# Mechanical properties :
#
#
# Convention : Reuss Voigt Hill
#
# Bulk Modulus (GPa) = 48.22682 54.09088 51.15885
# Shear Modulus (GPa) = 20.30879 22.87702 21.59290
#
# Velocity S-wave (km/s) = 3.43440 3.64509 3.54131
# Velocity P-wave (km/s) = 6.61334 7.00934 6.81422
#
# Compressibility (1/GPa) = 0.02073535
#
# Stress axis : x y z
#
# Youngs Moduli (GPa) = 42.03394 36.84502 66.66834
#
# Poissons Ratio (x) = 0.32767 0.41181
# Poissons Ratio (y) = 0.37381 0.50185
# Poissons Ratio (z) = 0.25964 0.27735
#
# Static dielectric constant tensor:
#      x y z
#    x 3.145340 0.000000 -0.277490 
#    y 0.000000 3.222590 0.000000 
#    z -0.277490 0.000000 3.313670 
# 
# 
# High freq. dielectric constant tensor:
#      x y z
#    x 1.644350 0.000000 -0.020640 
#    y 0.000000 1.667790 0.000000 
#    z -0.020640 0.000000 1.664400 
# 
# From -- ./inp_files/324298.got.cif
#   From: 2010.06.25/outbox.cif.g09.slc.cpg/sg12_163_cif.got.tgz:324298.got - 2010.06.28 00:19:55.
