data_PCOD8086295
_publ_section_title
;
Structure prediction by ZEFSAII (Michael W. Deem and Ramdas Pophale) SiO2 
 PCOD8086295
Probable space group: C 2/M
;
_chemical_formula_sum "Si O2"
_cell_formula_units_Z 44
_cell_length_a 10.473510
_cell_length_b 21.064734
_cell_length_c 12.787935
_cell_angle_alpha 90.000000
_cell_angle_beta 59.247902
_cell_angle_gamma 90.000000
_cell_volume 2424.587038
_symmetry_space_group_name_H-M "C 2/M"
_symmetry_group_IT_number 12
_symmetry_cell_setting 'monoclinic'
loop_
_space_group_symop_operation_xyz
x,y,z
-x,y,-z
-x,-y,-z
x,-y,z
1/2+x,1/2+y,z
1/2-x,1/2+y,-z
1/2-x,1/2-y,-z
1/2+x,1/2-y,z
loop_
_atom_site_type_symbol
_atom_site_label
_atom_site_fract_x
_atom_site_fract_y
_atom_site_fract_z
Si Si1 0.700421 0.930533 0.990684
Si Si2 0.905562 0.756759 0.231984
Si Si3 0.431627 0.797484 0.640038
Si Si4 0.000000 0.673490 0.000000
Si Si5 0.835961 0.569955 0.753488
Si Si6 0.516388 0.387400 0.875194
O O1 0.641429 0.873156 0.945188
O O2 0.877641 0.931173 0.905365
O O3 0.645887 0.000000 0.974675
O O4 0.643197 0.918567 0.132039
O O5 0.728184 0.762367 0.285275
O O6 0.982750 0.715878 0.109368
O O7 0.976595 0.826486 0.202557
O O8 0.949898 0.726922 0.324360
O O9 0.500000 0.781378 0.500000
O O10 0.418446 0.873760 0.657673
O O11 0.898587 0.500000 0.695288
O O12 0.661527 0.569745 0.799878
O O13 0.500000 0.361196 0.000000
#
# Coordination Sequence:
#
# PCOD8086295 Si02
#       6
#     8   8   8   4   8   8
#     4  10  19  31  48  76 112 141 168 206 263 324
#     4  11  22  36  57  82 108 139 176 221 269 317
#     4  11  23  39  56  77 107 144 183 220 261 311
#     4  12  21  32  54  80 113 136 172 214 274 322
#     4   9  18  33  53  76 102 136 179 217 258 307
#     4   9  17  30  52  78 105 137 169 212 262 318
#
# _framework density 18.14742
#
# number of rings (size 3 to 8) (size 9 to 14) (size 15 to 20)
#    0.000    1.818    2.727    2.455    0.000    4.000 
#    0.000    0.000    0.000    0.000    0.000    0.000 
#    0.000   16.000    0.000    0.000    0.000    0.000 
#
# Total GULP energy -272712.219810 kJ/mol
# GULP energy per Si atom -12396.009991 kJ/mol
# Density = 1.810612 g / cm^3
# Si number density = 18.147420 Si / 1000 Ang^3
#
#
#
# Elastic Constant Matrix: (Units=GPa)
#
#
# Indices 1 2 3 4 5 6 
#
# 1 69.8771 28.0047 8.2824 0.0000 8.3371 0.0000
# 2 28.0047 96.6516 23.5086 0.0000 6.7288 0.0000
# 3 8.2824 23.5086 59.9790 0.0000 10.3162 0.0000
# 4 0.0000 0.0000 0.0000 7.8435 0.0000 -4.7139
# 5 8.3371 6.7288 10.3162 0.0000 23.6874 0.0000
# 6 0.0000 0.0000 0.0000 -4.7139 0.0000 18.5195
#
#
#
# Elastic Compliance Matrix: (Units=1/GPa)
#
#
# Indices 1 2 3 4 5 6 
#
# 1 0.016670 -0.004576 0.000300 0.000000 -0.004698 0.000000
# 2 -0.004576 0.012736 -0.004340 0.000000 -0.000117 0.000000
# 3 0.000300 -0.004340 0.019607 0.000000 -0.007412 0.000000
# 4 0.000000 0.000000 0.000000 0.150520 0.000000 0.038313
# 5 -0.004698 -0.000117 -0.007412 0.000000 0.047131 0.000000
# 6 0.000000 0.000000 0.000000 0.038313 0.000000 0.063749
#
#
# Mechanical properties :
#
#
# Convention : Reuss Voigt Hill
#
# Bulk Modulus (GPa) = 31.46584 38.45545 34.96065
# Shear Modulus (GPa) = 14.78245 21.12423 17.95334
#
# Velocity S-wave (km/s) = 2.85717 3.41550 3.14873
# Velocity P-wave (km/s) = 5.31613 6.06554 5.70316
#
# Compressibility (1/GPa) = 0.03178050
#
# Stress axis : x y z
#
# Youngs Moduli (GPa) = 59.98916 78.51741 51.00253
#
# Poissons Ratio (x) = 0.35928 -0.01528
# Poissons Ratio (y) = 0.27450 0.22134
# Poissons Ratio (z) = -0.01797 0.34075
#
# Static dielectric constant tensor:
#      x y z
#    x 3.350060 0.000000 0.005030 
#    y 0.000000 3.385800 0.000000 
#    z 0.005030 0.000000 3.014830 
# 
# 
# High freq. dielectric constant tensor:
#      x y z
#    x 1.702980 0.000000 -0.001800 
#    y 0.000000 1.717620 0.000000 
#    z -0.001800 0.000000 1.665880 
# 
# From -- ./inp_files/131554.got.cif
#   From: 2010.06.25/outbox.cif.g09.slc.cpg/sg12_66_cif.got.tgz:131554.got - 2010.06.28 00:19:55.
