data_PCOD8086300
_publ_section_title
;
Structure prediction by ZEFSAII (Michael W. Deem and Ramdas Pophale) SiO2 
 PCOD8086300
Probable space group: C 2/M
;
_chemical_formula_sum "Si O2"
_cell_formula_units_Z 56
_cell_length_a 25.293716
_cell_length_b 8.839909
_cell_length_c 16.660949
_cell_angle_alpha 90.000000
_cell_angle_beta 123.921915
_cell_angle_gamma 90.000000
_cell_volume 3091.242092
_symmetry_space_group_name_H-M "C 2/M"
_symmetry_group_IT_number 12
_symmetry_cell_setting 'monoclinic'
loop_
_space_group_symop_operation_xyz
x,y,z
-x,y,-z
-x,-y,-z
x,-y,z
1/2+x,1/2+y,z
1/2-x,1/2+y,-z
1/2-x,1/2-y,-z
1/2+x,1/2-y,z
loop_
_atom_site_type_symbol
_atom_site_label
_atom_site_fract_x
_atom_site_fract_y
_atom_site_fract_z
Si Si1 0.900164 0.179624 0.905979
Si Si2 0.635500 0.321630 0.697439
Si Si3 0.724971 0.327411 0.557626
Si Si4 0.414662 0.328758 0.511456
Si Si5 0.476279 0.678975 0.285159
Si Si6 0.507621 0.680094 0.879367
Si Si7 0.759843 0.820530 0.752372
O O1 0.828030 0.240942 0.841501
O O2 0.941026 0.234494 0.862933
O O3 0.899994 0.000000 0.905559
O O4 0.933764 0.238694 0.015908
O O5 0.647179 0.500000 0.695550
O O6 0.598241 0.255894 0.587293
O O7 0.594375 0.283892 0.741582
O O8 0.704451 0.243430 0.763500
O O9 0.748654 0.500000 0.582935
O O10 0.750000 0.250000 0.500000
O O11 0.648716 0.319832 0.488983
O O12 0.751618 0.236891 0.655501
O O13 0.436406 0.500000 0.514055
O O14 0.471352 0.248312 0.609675
O O15 0.487264 0.500000 0.289923
O O16 0.484684 0.749744 0.203461
O O17 0.509688 0.500000 0.876824
O O18 0.756920 0.000000 0.750706
#
# Coordination Sequence:
#
# PCOD8086300 Si02
#       7
#     8   8   8   8   8   8   8
#     4   8  15  27  43  66  96 122 150 199 250 285
#     4   9  17  30  45  68  97 123 156 197 239 285
#     4  10  20  32  47  71 102 128 157 196 233 280
#     4   8  15  26  42  65  93 122 153 192 233 273
#     4   9  15  24  45  69  90 119 158 202 242 280
#     4   8  14  25  42  68  95 116 151 205 251 280
#     4  10  19  31  49  68  93 131 162 189 237 290
#
# _framework density 18.115694999999999
#
# number of rings (size 3 to 8) (size 9 to 14) (size 15 to 20)
#    0.000    3.143    0.000    3.000    2.000    1.714 
#    0.000    0.714    0.000    7.714    0.000    9.000 
#    0.000    0.000    0.000    0.000    0.000    0.000 
#
# Total GULP energy -347002.716378 kJ/mol
# GULP energy per Si atom -12392.954156 kJ/mol
# Density = 1.807446 g / cm^3
# Si number density = 18.115695 Si / 1000 Ang^3
#
#
#
# Elastic Constant Matrix: (Units=GPa)
#
#
# Indices 1 2 3 4 5 6 
#
# 1 134.5980 24.1072 83.0090 0.0000 3.4874 0.0000
# 2 24.1072 30.8296 16.4419 0.0000 4.8303 0.0000
# 3 83.0090 16.4419 109.0794 0.0000 12.8436 0.0000
# 4 0.0000 0.0000 0.0000 12.1807 0.0000 2.4848
# 5 3.4874 4.8303 12.8436 0.0000 35.0309 0.0000
# 6 0.0000 0.0000 0.0000 2.4848 0.0000 23.0829
#
#
#
# Elastic Compliance Matrix: (Units=1/GPa)
#
#
# Indices 1 2 3 4 5 6 
#
# 1 0.015383 -0.006644 -0.011112 0.000000 0.003459 0.000000
# 2 -0.006644 0.038455 -0.000202 0.000000 -0.004567 0.000000
# 3 -0.011112 -0.000202 0.018311 0.000000 -0.005579 0.000000
# 4 0.000000 0.000000 0.000000 0.083941 0.000000 -0.009036
# 5 0.003459 -0.004567 -0.005579 0.000000 0.030877 0.000000
# 6 0.000000 0.000000 0.000000 -0.009036 0.000000 0.044295
#
#
# Mechanical properties :
#
#
# Convention : Reuss Voigt Hill
#
# Bulk Modulus (GPa) = 27.60003 57.95815 42.77909
# Shear Modulus (GPa) = 17.90461 24.12215 21.01338
#
# Velocity S-wave (km/s) = 3.14721 3.65301 3.40951
# Velocity P-wave (km/s) = 5.33620 7.06084 6.25822
#
# Compressibility (1/GPa) = 0.03623184
#
# Stress axis : x y z
#
# Youngs Moduli (GPa) = 65.00672 26.00417 54.61076
#
# Poissons Ratio (x) = 0.17278 0.60684
# Poissons Ratio (y) = 0.43193 0.01105
# Poissons Ratio (z) = 0.72236 0.00526
#
# Static dielectric constant tensor:
#      x y z
#    x 3.525730 0.000000 0.082560 
#    y 0.000000 2.831070 0.000000 
#    z 0.082560 0.000000 3.586810 
# 
# 
# High freq. dielectric constant tensor:
#      x y z
#    x 1.712000 0.000000 0.003650 
#    y 0.000000 1.642070 0.000000 
#    z 0.003650 0.000000 1.695480 
# 
# From -- ./inp_files/287908.got.cif
#   From: 2010.06.25/outbox.cif.g09.slc.cpg/sg12_144_cif.got.tgz:287908.got - 2010.06.28 00:19:55.
