data_PCOD8086667
_publ_section_title
;
Structure prediction by ZEFSAII (Michael W. Deem and Ramdas Pophale) SiO2 
 PCOD8086667
Probable space group: C 2/M
;
_chemical_formula_sum "Si O2"
_cell_formula_units_Z 48
_cell_length_a 21.193422
_cell_length_b 27.797109
_cell_length_c 9.142928
_cell_angle_alpha 90.000000
_cell_angle_beta 150.730889
_cell_angle_gamma 90.000000
_cell_volume 2633.400547
_symmetry_space_group_name_H-M "C 2/M"
_symmetry_group_IT_number 12
_symmetry_cell_setting 'monoclinic'
loop_
_space_group_symop_operation_xyz
x,y,z
-x,y,-z
-x,-y,-z
x,-y,z
1/2+x,1/2+y,z
1/2-x,1/2+y,-z
1/2-x,1/2-y,-z
1/2+x,1/2-y,z
loop_
_atom_site_type_symbol
_atom_site_label
_atom_site_fract_x
_atom_site_fract_y
_atom_site_fract_z
Si Si1 0.505997 0.610111 0.838548
Si Si2 0.507509 0.283821 0.839421
Si Si3 0.004670 0.555248 0.679250
Si Si4 0.268130 0.778766 0.685869
Si Si5 0.247028 0.555659 0.647648
Si Si6 0.777943 0.608370 0.706009
O O1 0.547523 0.662972 0.866219
O O2 0.359881 0.596672 0.493184
O O3 0.500000 0.610161 0.000000
O O4 0.615476 0.572944 0.006224
O O5 0.363768 0.272061 0.487468
O O6 0.500000 0.282631 0.000000
O O7 0.609941 0.245143 0.983907
O O8 0.045099 0.500000 0.789773
O O9 0.000000 0.567472 0.500000
O O10 0.863284 0.565750 0.457190
O O11 0.109202 0.589889 0.962611
O O12 0.250000 0.750000 0.500000
O O13 0.294324 0.834861 0.710221
O O14 0.259459 0.500000 0.633159
O O15 0.209743 0.583455 0.425717
#
# Coordination Sequence:
#
# PCOD8086667 Si02
#       6
#     8   8   8   8   8   8
#     4   8  16  29  45  72 105 128 155 201 252 298
#     4   8  14  24  37  61  98 129 151 184 232 286
#     4  10  22  38  51  68 100 137 172 212 253 295
#     4   9  16  25  41  70 102 127 154 192 241 292
#     4  10  19  31  50  75  98 125 164 207 254 305
#     4  10  19  31  51  78 102 129 165 207 253 300
#
# _framework density 18.227384000000001
#
# number of rings (size 3 to 8) (size 9 to 14) (size 15 to 20)
#    0.000    2.833    0.000    4.000    0.000   10.333 
#    0.000    0.833    0.000    3.000    0.000   18.667 
#    0.000    0.000    0.000    0.000    0.000    0.000 
#
# Total GULP energy -297398.372160 kJ/mol
# GULP energy per Si atom -12391.598840 kJ/mol
# Density = 1.818590 g / cm^3
# Si number density = 18.227384 Si / 1000 Ang^3
#
#
#
# Elastic Constant Matrix: (Units=GPa)
#
#
# Indices 1 2 3 4 5 6 
#
# 1 69.8739 56.2439 59.6029 0.0000 18.5785 0.0000
# 2 56.2439 131.9007 72.8873 0.0000 25.9245 0.0000
# 3 59.6029 72.8873 90.7875 0.0000 35.9792 0.0000
# 4 0.0000 0.0000 0.0000 33.8162 0.0000 12.3344
# 5 18.5785 25.9245 35.9792 0.0000 27.2530 0.0000
# 6 0.0000 0.0000 0.0000 12.3344 0.0000 14.9257
#
#
#
# Elastic Compliance Matrix: (Units=1/GPa)
#
#
# Indices 1 2 3 4 5 6 
#
# 1 0.035631 -0.003550 -0.025701 0.000000 0.013017 0.000000
# 2 -0.003550 0.014107 -0.009723 0.000000 0.001837 0.000000
# 3 -0.025701 -0.009723 0.052610 0.000000 -0.042686 0.000000
# 4 0.000000 0.000000 0.000000 0.042331 0.000000 -0.034982
# 5 0.013017 0.001837 -0.042686 0.000000 0.082426 0.000000
# 6 0.000000 0.000000 0.000000 -0.034982 0.000000 0.095907
#
#
# Mechanical properties :
#
#
# Convention : Reuss Voigt Hill
#
# Bulk Modulus (GPa) = 40.98254 74.44780 57.71517
# Shear Modulus (GPa) = 12.22220 22.12085 17.17152
#
# Velocity S-wave (km/s) = 2.59229 3.48746 3.07265
# Velocity P-wave (km/s) = 5.61185 7.55970 6.65740
#
# Compressibility (1/GPa) = 0.02440063
#
# Stress axis : x y z
#
# Youngs Moduli (GPa) = 28.06580 70.88691 19.00779
#
# Poissons Ratio (x) = 0.25163 0.48851
# Poissons Ratio (y) = 0.09963 0.18482
# Poissons Ratio (z) = 0.72131 0.68924
#
# Static dielectric constant tensor:
#      x y z
#    x 3.116330 0.000000 0.739510 
#    y 0.000000 3.536130 0.000000 
#    z 0.739510 0.000000 4.026460 
# 
# 
# High freq. dielectric constant tensor:
#      x y z
#    x 1.656910 0.000000 0.045420 
#    y 0.000000 1.715920 0.000000 
#    z 0.045420 0.000000 1.706260 
# 
# From -- ./inp_files/91448.got.cif
#   From: 2010.06.25/outbox.cif.g09.slc.cpg/sg12_46_cif.got.tgz:91448.got - 2010.06.28 00:19:55.
