data_PCOD8086038
_publ_section_title
;
Structure prediction by ZEFSAII (Michael W. Deem and Ramdas Pophale) SiO2 
 PCOD8086038
Probable space group: C 2/M
;
_chemical_formula_sum "Si O2"
_cell_formula_units_Z 48
_cell_length_a 29.601514
_cell_length_b 9.871390
_cell_length_c 10.308411
_cell_angle_alpha 90.000000
_cell_angle_beta 77.834896
_cell_angle_gamma 90.000000
_cell_volume 2944.560361
_symmetry_space_group_name_H-M "C 2/M"
_symmetry_group_IT_number 12
_symmetry_cell_setting 'monoclinic'
loop_
_space_group_symop_operation_xyz
x,y,z
-x,y,-z
-x,-y,-z
x,-y,z
1/2+x,1/2+y,z
1/2-x,1/2+y,-z
1/2-x,1/2-y,-z
1/2+x,1/2-y,z
loop_
_atom_site_type_symbol
_atom_site_label
_atom_site_fract_x
_atom_site_fract_y
_atom_site_fract_z
Si Si1 0.394615 0.342007 0.282739
Si Si2 0.533799 0.156672 0.362529
Si Si3 0.110901 0.842047 0.413213
Si Si4 0.785405 0.149747 0.638298
Si Si5 0.025712 0.344330 0.851308
Si Si6 0.708895 0.649794 0.673428
O O1 0.405449 0.500000 0.253418
O O2 0.399023 0.305708 0.431433
O O3 0.429664 0.250901 0.180244
O O4 0.343362 0.305599 0.261824
O O5 0.500000 0.195472 0.500000
O O6 0.579059 0.249865 0.341706
O O7 0.509018 0.191429 0.243360
O O8 0.548913 0.000000 0.361577
O O9 0.163791 0.806124 0.344261
O O10 0.100687 0.000000 0.393438
O O11 0.746079 0.250108 0.716742
O O12 0.785344 0.148166 0.483776
O O13 0.773665 0.000000 0.697842
O O14 0.042134 0.500000 0.831523
O O15 0.000000 0.314112 0.000000
O O16 0.718526 0.500000 0.723221
#
# Coordination Sequence:
#
# PCOD8086038 Si02
#       6
#     8   8   8   8   8   8
#     4   9  17  29  45  66  92 121 154 189 225 270
#     4  10  19  31  47  68  90 117 156 192 224 271
#     4   9  17  28  44  67  94 122 151 186 228 269
#     4   8  14  24  37  59  90 119 147 179 218 267
#     4  10  21  35  48  65  92 122 153 192 233 270
#     4   8  14  24  38  59  88 119 148 180 220 264
#
# _framework density 16.301245000000002
#
# number of rings (size 3 to 8) (size 9 to 14) (size 15 to 20)
#    0.000    3.000    1.667    2.000    0.000    2.667 
#    0.000    3.333    0.000    0.000    0.000    1.167 
#    0.000    0.000    0.000    0.000    0.000    0.000 
#
# Total GULP energy -297533.136243 kJ/mol
# GULP energy per Si atom -12397.214010 kJ/mol
# Density = 1.626414 g / cm^3
# Si number density = 16.301245 Si / 1000 Ang^3
#
#
#
# Elastic Constant Matrix: (Units=GPa)
#
#
# Indices 1 2 3 4 5 6 
#
# 1 136.0600 88.9161 44.4737 0.0000 -19.6498 0.0000
# 2 88.9161 95.8595 36.4249 0.0000 -18.4894 0.0000
# 3 44.4737 36.4249 59.9799 0.0000 -2.9558 0.0000
# 4 0.0000 0.0000 0.0000 12.4385 0.0000 -6.0267
# 5 -19.6498 -18.4894 -2.9558 0.0000 16.7906 0.0000
# 6 0.0000 0.0000 0.0000 -6.0267 0.0000 39.0312
#
#
#
# Elastic Compliance Matrix: (Units=1/GPa)
#
#
# Indices 1 2 3 4 5 6 
#
# 1 0.019925 -0.015521 -0.005086 0.000000 0.005331 0.000000
# 2 -0.015521 0.029636 -0.005826 0.000000 0.013444 0.000000
# 3 -0.005086 -0.005826 0.023576 0.000000 -0.008217 0.000000
# 4 0.000000 0.000000 0.000000 0.086896 0.000000 0.013417
# 5 0.005331 0.013444 -0.008217 0.000000 0.079154 0.000000
# 6 0.000000 0.000000 0.000000 0.013417 0.000000 0.027692
#
#
# Mechanical properties :
#
#
# Convention : Reuss Voigt Hill
#
# Bulk Modulus (GPa) = 49.33065 70.16988 59.75026
# Shear Modulus (GPa) = 15.31376 21.79104 18.55240
#
# Velocity S-wave (km/s) = 3.06833 3.66015 3.37723
# Velocity P-wave (km/s) = 6.54831 7.81034 7.20701
#
# Compressibility (1/GPa) = 0.02027137
#
# Stress axis : x y z
#
# Youngs Moduli (GPa) = 50.18783 33.74282 42.41535
#
# Poissons Ratio (x) = 0.52373 0.21570
# Poissons Ratio (y) = 0.77898 0.24713
# Poissons Ratio (z) = 0.25523 0.19660
#
# Static dielectric constant tensor:
#      x y z
#    x 3.165020 0.000000 -0.107570 
#    y 0.000000 3.242610 0.000000 
#    z -0.107570 0.000000 2.631840 
# 
# 
# High freq. dielectric constant tensor:
#      x y z
#    x 1.632410 0.000000 -0.012740 
#    y 0.000000 1.632160 0.000000 
#    z -0.012740 0.000000 1.572110 
# 
# From -- ./inp_files/185750.got.cif
#   From: 2010.06.25/outbox.cif.g09.slc.cpg/sg12_93_cif.got.tgz:185750.got - 2010.06.28 00:19:55.
