data_PCOD8086371
_publ_section_title
;
Structure prediction by ZEFSAII (Michael W. Deem and Ramdas Pophale) SiO2 
 PCOD8086371
Probable space group: C 2/M
;
_chemical_formula_sum "Si O2"
_cell_formula_units_Z 64
_cell_length_a 20.940485
_cell_length_b 23.245213
_cell_length_c 8.852586
_cell_angle_alpha 90.000000
_cell_angle_beta 64.991691
_cell_angle_gamma 90.000000
_cell_volume 3905.141348
_symmetry_space_group_name_H-M "C 2/M"
_symmetry_group_IT_number 12
_symmetry_cell_setting 'monoclinic'
loop_
_space_group_symop_operation_xyz
x,y,z
-x,y,-z
-x,-y,-z
x,-y,z
1/2+x,1/2+y,z
1/2-x,1/2+y,-z
1/2-x,1/2-y,-z
1/2+x,1/2-y,z
loop_
_atom_site_type_symbol
_atom_site_label
_atom_site_fract_x
_atom_site_fract_y
_atom_site_fract_z
Si Si1 0.779256 0.829674 0.047620
Si Si2 0.369565 0.565080 0.303735
Si Si3 0.639927 0.229686 0.184965
Si Si4 0.869564 0.065080 0.957136
Si Si5 0.279256 0.670326 0.393869
Si Si6 0.139927 0.729686 0.535181
Si Si7 0.500000 0.622879 0.676869
Si Si8 0.000000 0.751910 0.177751
O O1 0.696902 0.820220 0.090043
O O2 0.792964 0.810430 0.207036
O O3 0.828466 0.791407 0.891897
O O4 0.799763 0.896136 0.001205
O O5 0.348870 0.500000 0.366896
O O6 0.299763 0.603864 0.399270
O O7 0.431943 0.586040 0.347986
O O8 0.395305 0.569740 0.104695
O O9 0.620378 0.231564 0.379622
O O10 0.568758 0.217201 0.164232
O O11 0.931943 0.086040 0.788127
O O12 0.848870 0.000000 0.935364
O O13 0.196902 0.679780 0.516153
O O14 0.328466 0.708593 0.451171
O O15 0.068758 0.717201 0.698252
O O16 0.500000 0.634993 0.500000
O O17 0.500000 0.683537 0.760485
O O18 0.000000 0.755037 0.000000
#
# Coordination Sequence:
#
# PCOD8086371 Si02
#       8
#     8   8   8   8   8   8   8   8
#     4   9  18  32  49  70  97 128 159 195 238 285
#     4  10  20  34  51  70  96 133 168 196 232 282
#     4  10  19  31  49  72  96 124 159 199 241 286
#     4  10  20  34  51  70  96 133 168 196 232 282
#     4   9  18  32  49  70  97 128 159 195 238 285
#     4  10  19  31  49  72  96 124 159 199 241 286
#     4  12  23  33  46  69  98 131 169 205 236 274
#     4  12  22  33  49  70  97 130 162 198 248 295
#
# _framework density 16.388650999999999
#
# number of rings (size 3 to 8) (size 9 to 14) (size 15 to 20)
#    0.000    1.750    2.500    3.375    0.000    3.000 
#    0.000    0.000    0.000    0.000    0.000    0.875 
#    0.000    7.000    0.000    0.000    0.000    0.000 
#
# Total GULP energy -396825.467602 kJ/mol
# GULP energy per Si atom -12400.795863 kJ/mol
# Density = 1.635135 g / cm^3
# Si number density = 16.388651 Si / 1000 Ang^3
#
#
#
# Elastic Constant Matrix: (Units=GPa)
#
#
# Indices 1 2 3 4 5 6 
#
# 1 124.2498 53.3283 58.1125 0.0000 -8.9272 0.0000
# 2 53.3283 82.5554 35.5210 0.0000 -12.9144 0.0000
# 3 58.1125 35.5210 102.5975 0.0000 -6.7758 0.0000
# 4 0.0000 0.0000 0.0000 17.4268 0.0000 -1.2339
# 5 -8.9272 -12.9144 -6.7758 0.0000 28.4742 0.0000
# 6 0.0000 0.0000 0.0000 -1.2339 0.0000 19.1282
#
#
#
# Elastic Compliance Matrix: (Units=1/GPa)
#
#
# Indices 1 2 3 4 5 6 
#
# 1 0.013221 -0.006242 -0.005324 0.000000 0.000047 0.000000
# 2 -0.006242 0.018036 -0.002335 0.000000 0.005668 0.000000
# 3 -0.005324 -0.002335 0.013604 0.000000 0.000509 0.000000
# 4 0.000000 0.000000 0.000000 0.057646 0.000000 0.003719
# 5 0.000047 0.005668 0.000509 0.000000 0.037826 0.000000
# 6 0.000000 0.000000 0.000000 0.003719 0.000000 0.052519
#
#
# Mechanical properties :
#
#
# Convention : Reuss Voigt Hill
#
# Bulk Modulus (GPa) = 58.61709 67.03625 62.82667
# Shear Modulus (GPa) = 22.09050 23.83523 22.96287
#
# Velocity S-wave (km/s) = 3.67538 3.81776 3.74725
# Velocity P-wave (km/s) = 7.33865 7.77346 7.55918
#
# Compressibility (1/GPa) = 0.01705987
#
# Stress axis : x y z
#
# Youngs Moduli (GPa) = 75.63692 55.44324 73.50516
#
# Poissons Ratio (x) = 0.34609 0.39137
# Poissons Ratio (y) = 0.47214 0.17160
# Poissons Ratio (z) = 0.40272 0.12944
#
# Static dielectric constant tensor:
#      x y z
#    x 3.272480 0.000000 -0.049590 
#    y 0.000000 2.983810 0.000000 
#    z -0.049590 0.000000 3.204100 
# 
# 
# High freq. dielectric constant tensor:
#      x y z
#    x 1.631210 0.000000 0.004440 
#    y 0.000000 1.598240 0.000000 
#    z 0.004440 0.000000 1.637330 
# 
# From -- ./inp_files/90399.got.cif
#   From: 2010.06.25/outbox.cif.g09.slc.cpg/sg12_46_cif.got.tgz:90399.got - 2010.06.28 00:19:55.
