data_PCOD8086212
_publ_section_title
;
Structure prediction by ZEFSAII (Michael W. Deem and Ramdas Pophale) SiO2 
 PCOD8086212
Probable space group: C 2/M
;
_chemical_formula_sum "Si O2"
_cell_formula_units_Z 56
_cell_length_a 19.816743
_cell_length_b 9.512826
_cell_length_c 30.704589
_cell_angle_alpha 90.000000
_cell_angle_beta 30.650700
_cell_angle_gamma 90.000000
_cell_volume 2950.851782
_symmetry_space_group_name_H-M "C 2/M"
_symmetry_group_IT_number 12
_symmetry_cell_setting 'monoclinic'
loop_
_space_group_symop_operation_xyz
x,y,z
-x,y,-z
-x,-y,-z
x,-y,z
1/2+x,1/2+y,z
1/2-x,1/2+y,-z
1/2-x,1/2-y,-z
1/2+x,1/2-y,z
loop_
_atom_site_type_symbol
_atom_site_label
_atom_site_fract_x
_atom_site_fract_y
_atom_site_fract_z
Si Si1 0.997634 0.840059 0.585677
Si Si2 0.791885 0.338524 0.221623
Si Si3 0.311980 0.836729 0.569879
Si Si4 0.133436 0.164190 0.903719
Si Si5 0.623358 0.161889 0.732570
Si Si6 0.415583 0.656207 0.369962
Si Si7 0.409222 0.838454 0.784390
O O1 0.853274 0.791895 0.681785
O O2 0.047832 0.737452 0.519177
O O3 0.099084 0.827144 0.570023
O O4 0.993413 0.000000 0.570291
O O5 0.789821 0.500000 0.206977
O O6 0.843752 0.242982 0.154099
O O7 0.890723 0.317430 0.207826
O O8 0.241986 0.759415 0.649096
O O9 0.223215 0.814835 0.576176
O O10 0.335462 0.000000 0.568330
O O11 0.252311 0.193635 0.872223
O O12 0.121393 0.000000 0.899284
O O13 0.000000 0.221368 0.000000
O O14 0.482819 0.205531 0.788516
O O15 0.659790 0.000000 0.701406
O O16 0.465544 0.500000 0.330561
O O17 0.529883 0.758744 0.290292
O O18 0.435600 0.000000 0.759964
#
# Coordination Sequence:
#
# PCOD8086212 Si02
#       7
#     8   8   8   8   8   8   8
#     4  10  19  31  48  71 103 139 176 220 263 302
#     4  10  21  37  57  79 104 138 177 218 260 306
#     4  10  20  31  47  74 105 141 180 219 258 301
#     4  10  21  37  58  84 110 134 164 209 266 321
#     4   9  19  36  55  75 104 142 181 215 254 304
#     4   9  17  30  48  72 103 135 175 221 260 301
#     4   9  17  32  55  78 102 137 174 210 255 311
#
# _framework density 18.977571000000001
#
# number of rings (size 3 to 8) (size 9 to 14) (size 15 to 20)
#    0.000    2.429    1.429    0.857    0.000    3.143 
#    0.000    3.571    0.000    0.000    0.000    0.000 
#    0.000    0.000    0.000    0.000    0.000    0.000 
#
# Total GULP energy -347121.689957 kJ/mol
# GULP energy per Si atom -12397.203213 kJ/mol
# Density = 1.893438 g / cm^3
# Si number density = 18.977571 Si / 1000 Ang^3
#
#
#
# Elastic Constant Matrix: (Units=GPa)
#
#
# Indices 1 2 3 4 5 6 
#
# 1 75.2729 32.3109 46.4446 -0.0023 6.4221 -0.0183
# 2 32.3109 76.9244 62.6237 -0.0015 1.5093 0.0042
# 3 46.4446 62.6237 124.2848 0.0008 -5.8065 0.0037
# 4 -0.0023 -0.0015 0.0008 27.7336 -0.0001 5.3304
# 5 6.4221 1.5093 -5.8065 -0.0001 17.8103 -0.0022
# 6 -0.0183 0.0042 0.0037 5.3304 -0.0022 21.0696
#
#
#
# Elastic Compliance Matrix: (Units=1/GPa)
#
#
# Indices 1 2 3 4 5 6 
#
# 1 0.018982 -0.002890 -0.006038 -0.000002 -0.008568 0.000018
# 2 -0.002890 0.023040 -0.010735 0.000003 -0.004410 -0.000006
# 3 -0.006038 -0.010735 0.016101 -0.000001 0.008336 -0.000005
# 4 -0.000002 0.000003 -0.000001 0.037900 -0.000001 -0.009588
# 5 -0.008568 -0.004410 0.008336 -0.000001 0.062328 -0.000001
# 6 0.000018 -0.000006 -0.000005 -0.009588 -0.000001 0.049888
#
#
# Mechanical properties :
#
#
# Convention : Reuss Voigt Hill
#
# Bulk Modulus (GPa) = 53.19952 62.13785 57.66868
# Shear Modulus (GPa) = 19.69830 22.32955 21.01392
#
# Velocity S-wave (km/s) = 3.22526 3.43392 3.33123
# Velocity P-wave (km/s) = 6.47792 6.96680 6.72680
#
# Compressibility (1/GPa) = 0.01879716
#
# Stress axis : x y z
#
# Youngs Moduli (GPa) = 52.68220 43.40361 62.10826
#
# Poissons Ratio (x) = 0.12542 0.37499
# Poissons Ratio (y) = 0.15223 0.66675
# Poissons Ratio (z) = 0.31808 0.46595
#
# Static dielectric constant tensor:
#      x y z
#    x 3.736280 0.000000 -0.158870 
#    y 0.000000 3.469390 0.000010 
#    z -0.158870 0.000010 3.173360 
# 
# 
# High freq. dielectric constant tensor:
#      x y z
#    x 1.750330 0.000000 -0.009080 
#    y 0.000000 1.736340 0.000000 
#    z -0.009080 0.000000 1.701590 
# 
# From -- ./inp_files/281663.got.cif
#   From: 2010.06.25/outbox.cif.g09.slc.cpg/sg12_141_cif.got.tgz:281663.got - 2010.06.28 00:19:55.
