data_PCOD8086565
_publ_section_title
;
Structure prediction by ZEFSAII (Michael W. Deem and Ramdas Pophale) SiO2 
 PCOD8086565
Probable space group: C 2/M
;
_chemical_formula_sum "Si O2"
_cell_formula_units_Z 64
_cell_length_a 29.114450
_cell_length_b 9.007104
_cell_length_c 15.664260
_cell_angle_alpha 90.000000
_cell_angle_beta 61.925142
_cell_angle_gamma 90.000000
_cell_volume 3624.402344
_symmetry_space_group_name_H-M "C 2/M"
_symmetry_group_IT_number 12
_symmetry_cell_setting 'monoclinic'
loop_
_space_group_symop_operation_xyz
x,y,z
-x,y,-z
-x,-y,-z
x,-y,z
1/2+x,1/2+y,z
1/2-x,1/2+y,-z
1/2-x,1/2-y,-z
1/2+x,1/2-y,z
loop_
_atom_site_type_symbol
_atom_site_label
_atom_site_fract_x
_atom_site_fract_y
_atom_site_fract_z
Si Si1 0.865285 0.329791 0.339430
Si Si2 0.907065 0.823835 0.561479
Si Si3 0.327373 0.326855 0.888413
Si Si4 0.460939 0.828948 0.363037
Si Si5 0.232852 0.172888 0.888892
Si Si6 0.297227 0.673621 0.271277
Si Si7 0.077982 0.328052 0.272329
Si Si8 0.312176 0.827509 0.560823
O O1 0.865615 0.500000 0.312945
O O2 0.922924 0.278093 0.319119
O O3 0.848327 0.242701 0.269726
O O4 0.824379 0.297458 0.451183
O O5 0.949843 0.768300 0.456440
O O6 0.921357 0.758674 0.640091
O O7 0.849654 0.769739 0.587036
O O8 0.908345 0.000000 0.564657
O O9 0.335232 0.500000 0.863318
O O10 0.285361 0.265204 0.858020
O O11 0.381744 0.242453 0.829539
O O12 0.308851 0.295035 0.000759
O O13 0.520473 0.809883 0.281916
O O14 0.447747 0.000000 0.398080
O O15 0.207544 0.226892 0.822456
O O16 0.248488 0.000000 0.871906
O O17 0.304889 0.500000 0.268394
O O18 0.246318 0.724096 0.368399
O O19 0.091608 0.500000 0.275949
O O20 0.320572 0.000000 0.577229
#
# Coordination Sequence:
#
# PCOD8086565 Si02
#       8
#     8   8   8   8   8   8   8   8
#     4   9  18  32  48  69  98 129 164 207 247 283
#     4  11  21  31  48  76 105 130 163 206 246 287
#     4  10  20  34  53  78 104 127 160 206 248 289
#     4   9  20  37  52  68  96 135 171 202 243 294
#     4   9  19  35  53  75 105 135 160 194 246 304
#     4  10  19  31  50  73  96 129 168 200 240 295
#     4  11  21  34  53  72  96 133 170 201 244 301
#     4   9  18  32  48  69 102 138 167 197 238 292
#
# _framework density 17.658083999999999
#
# number of rings (size 3 to 8) (size 9 to 14) (size 15 to 20)
#    0.000    2.250    0.000    4.125    0.000    7.000 
#    0.000    0.000    0.000    0.750    0.000    5.250 
#    0.000    0.000    0.000    0.000    0.000    0.000 
#
# Total GULP energy -396847.962584 kJ/mol
# GULP energy per Si atom -12401.498831 kJ/mol
# Density = 1.761789 g / cm^3
# Si number density = 17.658084 Si / 1000 Ang^3
#
#
#
# Elastic Constant Matrix: (Units=GPa)
#
#
# Indices 1 2 3 4 5 6 
#
# 1 110.7710 51.2363 67.1608 0.0000 -0.7460 0.0000
# 2 51.2363 84.5000 40.5319 0.0000 -2.2602 0.0000
# 3 67.1608 40.5319 80.4525 0.0000 2.3391 0.0000
# 4 0.0000 0.0000 0.0000 25.9446 0.0000 1.5039
# 5 -0.7460 -2.2602 2.3391 0.0000 26.7569 0.0000
# 6 0.0000 0.0000 0.0000 1.5039 0.0000 28.6656
#
#
#
# Elastic Compliance Matrix: (Units=1/GPa)
#
#
# Indices 1 2 3 4 5 6 
#
# 1 0.020055 -0.005374 -0.014073 0.000000 0.001335 0.000000
# 2 -0.005374 0.017154 -0.004204 0.000000 0.001667 0.000000
# 3 -0.014073 -0.004204 0.026385 0.000000 -0.003054 0.000000
# 4 0.000000 0.000000 0.000000 0.038661 0.000000 -0.002028
# 5 0.001335 0.001667 -0.003054 0.000000 0.037819 0.000000
# 6 0.000000 0.000000 0.000000 -0.002028 0.000000 0.034991
#
#
# Mechanical properties :
#
#
# Convention : Reuss Voigt Hill
#
# Bulk Modulus (GPa) = 61.38491 65.95348 63.66919
# Shear Modulus (GPa) = 21.94927 24.05973 23.00450
#
# Velocity S-wave (km/s) = 3.52947 3.69526 3.61331
# Velocity P-wave (km/s) = 7.17273 7.45908 7.31731
#
# Compressibility (1/GPa) = 0.01629065
#
# Stress axis : x y z
#
# Youngs Moduli (GPa) = 49.86336 58.29460 37.90093
#
# Poissons Ratio (x) = 0.31328 0.53337
# Poissons Ratio (y) = 0.26797 0.15935
# Poissons Ratio (z) = 0.70172 0.24510
#
# Static dielectric constant tensor:
#      x y z
#    x 3.345460 0.000000 -0.053180 
#    y 0.000000 3.263170 0.000000 
#    z -0.053180 0.000000 3.196780 
# 
# 
# High freq. dielectric constant tensor:
#      x y z
#    x 1.682500 0.000000 -0.001060 
#    y 0.000000 1.683880 0.000000 
#    z -0.001060 0.000000 1.662060 
# 
# From -- ./inp_files/249005.got.cif
#   From: 2010.06.25/outbox.cif.g09.slc.cpg/sg12_125_cif.got.tgz:249005.got - 2010.06.28 00:19:55.
