data_PCOD8086411
_publ_section_title
;
Structure prediction by ZEFSAII (Michael W. Deem and Ramdas Pophale) SiO2 
 PCOD8086411
Probable space group: C 2/M
;
_chemical_formula_sum "Si O2"
_cell_formula_units_Z 56
_cell_length_a 28.970979
_cell_length_b 9.126715
_cell_length_c 16.237881
_cell_angle_alpha 90.000000
_cell_angle_beta 42.303850
_cell_angle_gamma 90.000000
_cell_volume 2889.762979
_symmetry_space_group_name_H-M "C 2/M"
_symmetry_group_IT_number 12
_symmetry_cell_setting 'monoclinic'
loop_
_space_group_symop_operation_xyz
x,y,z
-x,y,-z
-x,-y,-z
x,-y,z
1/2+x,1/2+y,z
1/2-x,1/2+y,-z
1/2-x,1/2-y,-z
1/2+x,1/2-y,z
loop_
_atom_site_type_symbol
_atom_site_label
_atom_site_fract_x
_atom_site_fract_y
_atom_site_fract_z
Si Si1 0.433529 0.171702 0.759932
Si Si2 0.039413 0.336872 0.862928
Si Si3 0.578232 0.672499 0.063529
Si Si4 0.919025 0.165077 0.617177
Si Si5 0.849720 0.833557 0.197241
Si Si6 0.592270 0.828974 0.529243
Si Si7 0.781284 0.333815 0.535086
O O1 0.396755 0.247343 0.886536
O O2 0.399696 0.241487 0.723324
O O3 0.514713 0.205800 0.657690
O O4 0.418147 0.000000 0.780335
O O5 0.048378 0.500000 0.812179
O O6 0.113388 0.266631 0.782710
O O7 0.997314 0.233957 0.857088
O O8 0.000000 0.348230 0.000000
O O9 0.573344 0.500000 0.085394
O O10 0.631870 0.714012 0.920337
O O11 0.885803 0.240603 0.581222
O O12 0.000000 0.164744 0.500000
O O13 0.890543 0.000000 0.663670
O O14 0.768731 0.817998 0.319424
O O15 0.875669 0.000000 0.175989
O O16 0.643327 0.778771 0.535827
O O17 0.602192 0.000000 0.496242
O O18 0.786281 0.500000 0.499164
O O19 0.750000 0.250000 0.500000
#
# Coordination Sequence:
#
# PCOD8086411 Si02
#       7
#     8   8   8   8   8   8   8
#     4  10  19  31  51  80 109 134 165 208 260 312
#     4   9  17  29  46  68  94 127 167 209 253 301
#     4  10  19  31  49  73 102 134 168 211 261 307
#     4   9  17  31  52  78 105 133 167 206 255 310
#     4   9  19  35  51  69  98 136 174 212 257 305
#     4   9  19  35  53  74 104 137 169 209 258 305
#     4  10  22  38  54  75 102 138 179 216 253 300
#
# _framework density 19.378751999999999
#
# number of rings (size 3 to 8) (size 9 to 14) (size 15 to 20)
#    0.000    2.571    0.000    1.714    2.000    5.714 
#    0.000    0.000    0.000    0.857    0.000    0.000 
#    0.000    0.000    0.000    0.000    0.000    0.000 
#
# Total GULP energy -347155.528357 kJ/mol
# GULP energy per Si atom -12398.411727 kJ/mol
# Density = 1.933464 g / cm^3
# Si number density = 19.378752 Si / 1000 Ang^3
#
#
#
# Elastic Constant Matrix: (Units=GPa)
#
#
# Indices 1 2 3 4 5 6 
#
# 1 92.4389 42.1809 22.5014 -0.0004 22.1574 -0.0001
# 2 42.1809 104.1806 27.3153 -0.0054 19.9888 0.0023
# 3 22.5014 27.3153 50.6957 -0.0023 15.9339 0.0012
# 4 -0.0004 -0.0054 -0.0023 22.9601 0.0013 10.8738
# 5 22.1574 19.9888 15.9339 0.0013 32.4779 -0.0004
# 6 -0.0001 0.0023 0.0012 10.8738 -0.0004 34.1315
#
#
#
# Elastic Compliance Matrix: (Units=1/GPa)
#
#
# Indices 1 2 3 4 5 6 
#
# 1 0.014818 -0.004161 -0.002320 -0.000001 -0.006410 0.000001
# 2 -0.004161 0.012971 -0.004168 0.000004 -0.003099 -0.000002
# 3 -0.002320 -0.004168 0.025653 0.000003 -0.008438 -0.000002
# 4 -0.000001 0.000004 0.000003 0.051293 -0.000005 -0.016341
# 5 -0.006410 -0.003099 -0.008438 -0.000005 0.041210 0.000003
# 6 0.000001 -0.000002 -0.000002 -0.016341 0.000003 0.034505
#
#
# Mechanical properties :
#
#
# Convention : Reuss Voigt Hill
#
# Bulk Modulus (GPa) = 31.11057 47.92339 39.51698
# Shear Modulus (GPa) = 23.53354 28.26840 25.90097
#
# Velocity S-wave (km/s) = 3.48860 3.82348 3.65987
# Velocity P-wave (km/s) = 5.68471 6.65399 6.18836
#
# Compressibility (1/GPa) = 0.03214342
#
# Stress axis : x y z
#
# Youngs Moduli (GPa) = 67.48521 77.09505 38.98191
#
# Poissons Ratio (x) = 0.32082 0.09045
# Poissons Ratio (y) = 0.28083 0.16246
# Poissons Ratio (z) = 0.15658 0.32131
#
# Static dielectric constant tensor:
#      x y z
#    x 3.431370 0.000000 0.180910 
#    y 0.000000 3.665670 0.000000 
#    z 0.180910 0.000000 3.465120 
# 
# 
# High freq. dielectric constant tensor:
#      x y z
#    x 1.733490 0.000000 0.024870 
#    y 0.000000 1.759640 0.000000 
#    z 0.024870 0.000000 1.737180 
# 
# From -- ./inp_files/291823.got.cif
#   From: 2010.06.25/outbox.cif.g09.slc.cpg/sg12_146_cif.got.tgz:291823.got - 2010.06.28 00:19:55.
