data_PCOD8086723
_publ_section_title
;
Structure prediction by ZEFSAII (Michael W. Deem and Ramdas Pophale) SiO2 
 PCOD8086723
Probable space group: C 2/M
;
_chemical_formula_sum "Si O2"
_cell_formula_units_Z 48
_cell_length_a 11.835427
_cell_length_b 27.217332
_cell_length_c 9.316834
_cell_angle_alpha 90.000000
_cell_angle_beta 126.741277
_cell_angle_gamma 90.000000
_cell_volume 2405.012370
_symmetry_space_group_name_H-M "C 2/M"
_symmetry_group_IT_number 12
_symmetry_cell_setting 'monoclinic'
loop_
_space_group_symop_operation_xyz
x,y,z
-x,y,-z
-x,-y,-z
x,-y,z
1/2+x,1/2+y,z
1/2-x,1/2+y,-z
1/2-x,1/2-y,-z
1/2+x,1/2-y,z
loop_
_atom_site_type_symbol
_atom_site_label
_atom_site_fract_x
_atom_site_fract_y
_atom_site_fract_z
Si Si1 0.128960 0.056441 0.498972
Si Si2 0.970022 0.778364 0.138567
Si Si3 0.239555 0.350519 0.936648
Si Si4 0.654844 0.105428 0.152147
Si Si5 0.429799 0.822539 0.679714
Si Si6 0.818895 0.137449 0.687709
O O1 0.271398 0.063595 0.697961
O O2 0.145523 0.087095 0.365635
O O3 0.000000 0.074936 0.500000
O O4 0.110068 0.000000 0.440429
O O5 0.026739 0.734875 0.283149
O O6 0.054706 0.826168 0.252300
O O7 0.805514 0.796245 0.024764
O O8 0.000000 0.760970 0.000000
O O9 0.318469 0.373375 0.858327
O O10 0.076589 0.349817 0.769419
O O11 0.250559 0.385417 0.083965
O O12 0.643023 0.157473 0.229203
O O13 0.500000 0.084894 0.000000
O O14 0.326882 0.835527 0.469532
#
# Coordination Sequence:
#
# PCOD8086723 Si02
#       6
#     8   8   8   8   8   8
#     4  10  21  39  60  79 101 133 173 217 269 326
#     4  10  19  31  50  77 109 144 181 215 252 302
#     4  10  19  33  53  77 110 142 174 217 259 300
#     4   9  19  35  56  78 107 141 177 216 258 312
#     4  10  19  33  51  76 109 147 180 208 250 306
#     4  10  21  35  53  78 108 137 173 221 267 307
#
# _framework density 19.958317999999998
#
# number of rings (size 3 to 8) (size 9 to 14) (size 15 to 20)
#    0.000    2.167    0.000    4.000    0.000    1.667 
#    0.000    5.833    0.000   19.500    0.000    0.000 
#    0.000    0.000    0.000    0.000    0.000    0.000 
#
# Total GULP energy -297438.479528 kJ/mol
# GULP energy per Si atom -12393.269980 kJ/mol
# Density = 1.991289 g / cm^3
# Si number density = 19.958318 Si / 1000 Ang^3
#
#
#
# Elastic Constant Matrix: (Units=GPa)
#
#
# Indices 1 2 3 4 5 6 
#
# 1 72.2551 27.2591 21.1964 0.0000 -12.8451 0.0000
# 2 27.2591 81.1622 29.3295 0.0000 -15.1920 0.0000
# 3 21.1964 29.3295 61.7457 0.0000 -4.6897 0.0000
# 4 0.0000 0.0000 0.0000 21.5089 0.0000 4.2493
# 5 -12.8451 -15.1920 -4.6897 0.0000 33.9374 0.0000
# 6 0.0000 0.0000 0.0000 4.2493 0.0000 18.2446
#
#
#
# Elastic Compliance Matrix: (Units=1/GPa)
#
#
# Indices 1 2 3 4 5 6 
#
# 1 0.017075 -0.003527 -0.003856 0.000000 0.004351 0.000000
# 2 -0.003527 0.016799 -0.006366 0.000000 0.005305 0.000000
# 3 -0.003856 -0.006366 0.020430 0.000000 -0.001486 0.000000
# 4 0.000000 0.000000 0.000000 0.048735 0.000000 -0.011351
# 5 0.004351 0.005305 -0.001486 0.000000 0.033283 0.000000
# 6 0.000000 0.000000 0.000000 -0.011351 0.000000 0.057454
#
#
# Mechanical properties :
#
#
# Convention : Reuss Voigt Hill
#
# Bulk Modulus (GPa) = 37.30394 41.19255 39.24825
# Shear Modulus (GPa) = 21.71939 23.89672 22.80805
#
# Velocity S-wave (km/s) = 3.30242 3.46400 3.38418
# Velocity P-wave (km/s) = 5.76826 6.05666 5.91422
#
# Compressibility (1/GPa) = 0.02680682
#
# Stress axis : x y z
#
# Youngs Moduli (GPa) = 58.56475 59.52693 48.94736
#
# Poissons Ratio (x) = 0.20995 0.18873
# Poissons Ratio (y) = 0.20656 0.31160
# Poissons Ratio (z) = 0.22581 0.37894
#
# Static dielectric constant tensor:
#      x y z
#    x 3.723460 0.000000 0.143790 
#    y 0.000000 3.183180 0.000000 
#    z 0.143790 0.000000 3.718950 
# 
# 
# High freq. dielectric constant tensor:
#      x y z
#    x 1.786170 0.000000 0.011950 
#    y 0.000000 1.738700 0.000000 
#    z 0.011950 0.000000 1.788580 
# 
# From -- ./inp_files/52417.got.cif
#   From: 2010.06.25/outbox.cif.g09.slc.cpg/sg12_27_cif.got.tgz:52417.got - 2010.06.28 00:19:55.
