data_PCOD8086049
_publ_section_title
;
Structure prediction by ZEFSAII (Michael W. Deem and Ramdas Pophale) SiO2 
 PCOD8086049
Probable space group: C 2/M
;
_chemical_formula_sum "Si O2"
_cell_formula_units_Z 40
_cell_length_a 25.793259
_cell_length_b 9.764972
_cell_length_c 8.722349
_cell_angle_alpha 90.000000
_cell_angle_beta 83.317232
_cell_angle_gamma 90.000000
_cell_volume 2181.975560
_symmetry_space_group_name_H-M "C 2/M"
_symmetry_group_IT_number 12
_symmetry_cell_setting 'monoclinic'
loop_
_space_group_symop_operation_xyz
x,y,z
-x,y,-z
-x,-y,-z
x,-y,z
1/2+x,1/2+y,z
1/2-x,1/2+y,-z
1/2-x,1/2-y,-z
1/2+x,1/2-y,z
loop_
_atom_site_type_symbol
_atom_site_label
_atom_site_fract_x
_atom_site_fract_y
_atom_site_fract_z
Si Si1 0.795585 0.000000 0.163949
Si Si2 0.567554 0.500000 0.330620
Si Si3 0.337332 0.000000 0.286006
Si Si4 0.271347 0.500000 0.817077
Si Si5 0.652498 0.705393 0.348499
Si Si6 0.315345 0.000000 0.643565
Si Si7 0.545469 0.500000 0.693871
Si Si8 0.130397 0.205433 0.709262
O O1 0.828139 0.136109 0.191753
O O2 0.742969 0.000000 0.277731
O O3 0.783718 0.000000 0.990440
O O4 0.602378 0.635178 0.284122
O O5 0.549615 0.500000 0.510746
O O6 0.516036 0.500000 0.240084
O O7 0.311181 0.000000 0.461867
O O8 0.373714 0.866481 0.250828
O O9 0.290896 0.000000 0.179112
O O10 0.294611 0.636278 0.730913
O O11 0.653178 0.866505 0.308477
O O12 0.650432 0.678663 0.530455
O O13 0.573527 0.636077 0.751243
#
# Coordination Sequence:
#
# PCOD8086049 Si02
#       8
#     4   4   4   4   8   4   4   8
#     4  11  21  31  46  69  96 127 160 192 228 271
#     4   8  14  28  50  71  91 118 153 192 231 272
#     4  10  19  31  47  68  96 128 158 188 227 276
#     4  11  21  31  46  69  96 127 160 192 228 271
#     4   9  18  32  49  69  94 125 158 190 228 276
#     4  10  19  31  47  68  96 128 158 188 227 276
#     4   8  14  28  50  71  91 118 153 192 231 272
#     4   9  18  32  49  69  94 125 158 190 228 276
#
# _framework density 18.33201
#
# number of rings (size 3 to 8) (size 9 to 14) (size 15 to 20)
#    0.000    2.600    0.000    4.200    0.000    6.400 
#    0.000    1.000    0.000   15.600    0.000    0.000 
#    0.000   14.400    0.000    0.000    0.000    0.000 
#
# Total GULP energy -247947.801133 kJ/mol
# GULP energy per Si atom -12397.390057 kJ/mol
# Density = 1.829029 g / cm^3
# Si number density = 18.332010 Si / 1000 Ang^3
#
#
#
# Elastic Constant Matrix: (Units=GPa)
#
#
# Indices 1 2 3 4 5 6 
#
# 1 126.5515 70.2957 16.4101 0.0000 26.1179 0.0000
# 2 70.2957 181.2459 27.2445 0.0000 17.8110 0.0000
# 3 16.4101 27.2445 37.1573 0.0000 18.1375 0.0000
# 4 0.0000 0.0000 0.0000 7.6077 0.0000 -0.2730
# 5 26.1179 17.8110 18.1375 0.0000 13.6950 0.0000
# 6 0.0000 0.0000 0.0000 -0.2730 0.0000 8.4881
#
#
#
# Elastic Compliance Matrix: (Units=1/GPa)
#
#
# Indices 1 2 3 4 5 6 
#
# 1 0.024585 -0.006478 0.035828 0.000000 -0.085910 0.000000
# 2 -0.006478 0.008074 -0.011213 0.000000 0.016704 0.000000
# 3 0.035828 -0.011213 0.128830 0.000000 -0.224365 0.000000
# 4 0.000000 0.000000 0.000000 0.131597 0.000000 0.004233
# 5 -0.085910 0.016704 -0.224365 0.000000 0.512280 0.000000
# 6 0.000000 0.000000 0.000000 0.004233 0.000000 0.117948
#
#
# Mechanical properties :
#
#
# Convention : Reuss Voigt Hill
#
# Bulk Modulus (GPa) = 5.05659 63.65060 34.35359
# Shear Modulus (GPa) = 5.24680 21.35846 13.30263
#
# Velocity S-wave (km/s) = 1.69361 3.41705 2.69671
# Velocity P-wave (km/s) = 2.56685 7.09681 5.33636
#
# Compressibility (1/GPa) = 0.19776168
#
# Stress axis : x y z
#
# Youngs Moduli (GPa) = 40.67530 123.85580 7.76218
#
# Poissons Ratio (x) = 0.80238 -0.27810
# Poissons Ratio (y) = 0.26351 0.08704
# Poissons Ratio (z) = -1.45730 1.38876
#
# Static dielectric constant tensor:
#      x y z
#    x 3.461500 0.000000 0.098910 
#    y 0.000000 3.647780 0.000000 
#    z 0.098910 0.000000 3.084940 
# 
# 
# High freq. dielectric constant tensor:
#      x y z
#    x 1.691250 0.000000 0.008800 
#    y 0.000000 1.718820 0.000000 
#    z 0.008800 0.000000 1.680700 
# 
# From -- ./inp_files/101174.got.cif
#   From: 2010.06.25/outbox.cif.g09.slc.cpg/sg12_51_cif.got.tgz:101174.got - 2010.06.28 00:19:55.
