data_PCOD8086198
_publ_section_title
;
Structure prediction by ZEFSAII (Michael W. Deem and Ramdas Pophale) SiO2 
 PCOD8086198
Probable space group: C 2/M
;
_chemical_formula_sum "Si O2"
_cell_formula_units_Z 60
_cell_length_a 28.019214
_cell_length_b 18.881179
_cell_length_c 6.790336
_cell_angle_alpha 90.000000
_cell_angle_beta 94.888633
_cell_angle_gamma 90.000000
_cell_volume 3579.262704
_symmetry_space_group_name_H-M "C 2/M"
_symmetry_group_IT_number 12
_symmetry_cell_setting 'monoclinic'
loop_
_space_group_symop_operation_xyz
x,y,z
-x,y,-z
-x,-y,-z
x,-y,z
1/2+x,1/2+y,z
1/2-x,1/2+y,-z
1/2-x,1/2-y,-z
1/2+x,1/2-y,z
loop_
_atom_site_type_symbol
_atom_site_label
_atom_site_fract_x
_atom_site_fract_y
_atom_site_fract_z
Si Si1 0.209503 0.809143 0.008407
Si Si2 0.642051 0.208208 0.801295
Si Si3 0.000000 0.637335 0.000000
Si Si4 0.457133 0.800526 0.364820
Si Si5 0.856911 0.579719 0.928728
Si Si6 0.432949 0.921080 0.658269
Si Si7 0.737864 0.822525 0.601810
Si Si8 0.747936 0.080798 0.246980
O O1 0.219007 0.839933 0.229026
O O2 0.250000 0.750000 0.000000
O O3 0.158495 0.769937 0.959701
O O4 0.212378 0.871464 0.847888
O O5 0.595276 0.237142 0.664006
O O6 0.685192 0.186628 0.673768
O O7 0.624428 0.137699 0.909427
O O8 0.972999 0.687626 0.146240
O O9 0.036072 0.587833 0.132280
O O10 0.500000 0.758729 0.500000
O O11 0.449323 0.872593 0.485144
O O12 0.870931 0.500000 0.004117
O O13 0.878859 0.593853 0.717821
O O14 0.799867 0.586842 0.898741
O O15 0.438196 0.000000 0.577613
O O16 0.750000 0.750000 0.500000
O O17 0.737729 0.889704 0.459853
O O18 0.765977 0.000000 0.269401
#
# Coordination Sequence:
#
# PCOD8086198 Si02
#       8
#     8   8   4   8   8   8   8   8
#     4  10  19  34  53  75  99 135 175 205 252 318
#     4  11  19  35  55  68 101 137 177 217 259 306
#     4  10  19  34  46  62  90 122 171 226 270 294
#     4  10  22  34  48  71  92 128 173 221 271 306
#     4  10  19  31  48  70  99 135 175 218 257 298
#     4  10  20  32  46  64  89 127 176 218 263 308
#     4  11  19  33  55  78 100 136 182 210 251 316
#     4  11  21  34  50  78 110 134 168 219 256 298
#
# _framework density 16.763228000000002
#
# number of rings (size 3 to 8) (size 9 to 14) (size 15 to 20)
#    0.000    1.600    6.667    1.000    0.000    4.533 
#    0.000    0.000    0.000    0.000    0.000    0.000 
#    0.000    0.533    0.000    1.800    0.000    0.000 
#
# Total GULP energy -371749.136431 kJ/mol
# GULP energy per Si atom -12391.637881 kJ/mol
# Density = 1.672507 g / cm^3
# Si number density = 16.763228 Si / 1000 Ang^3
#
#
#
# Elastic Constant Matrix: (Units=GPa)
#
#
# Indices 1 2 3 4 5 6 
#
# 1 82.1628 25.6779 36.3614 0.0000 16.8689 0.0000
# 2 25.6779 65.0301 23.2328 0.0000 1.2010 0.0000
# 3 36.3614 23.2328 87.3886 0.0000 3.6265 0.0000
# 4 0.0000 0.0000 0.0000 24.4327 0.0000 -1.2283
# 5 16.8689 1.2010 3.6265 0.0000 34.3642 0.0000
# 6 0.0000 0.0000 0.0000 -1.2283 0.0000 16.7300
#
#
#
# Elastic Compliance Matrix: (Units=1/GPa)
#
#
# Indices 1 2 3 4 5 6 
#
# 1 0.017909 -0.004840 -0.005833 0.000000 -0.008006 0.000000
# 2 -0.004840 0.018300 -0.002936 0.000000 0.002046 0.000000
# 3 -0.005833 -0.002936 0.014591 0.000000 0.001426 0.000000
# 4 0.000000 0.000000 0.000000 0.041080 0.000000 0.003016
# 5 -0.008006 0.002046 0.001426 0.000000 0.032808 0.000000
# 6 0.000000 0.000000 0.000000 0.003016 0.000000 0.059994
#
#
# Mechanical properties :
#
#
# Convention : Reuss Voigt Hill
#
# Bulk Modulus (GPa) = 42.40426 45.01397 43.70912
# Shear Modulus (GPa) = 22.75201 25.05934 23.90568
#
# Velocity S-wave (km/s) = 3.68809 3.87059 3.78044
# Velocity P-wave (km/s) = 6.59446 6.84736 6.72210
#
# Compressibility (1/GPa) = 0.02358253
#
# Stress axis : x y z
#
# Youngs Moduli (GPa) = 55.83932 54.64555 68.53322
#
# Poissons Ratio (x) = 0.26447 0.39973
# Poissons Ratio (y) = 0.27025 0.20123
# Poissons Ratio (z) = 0.32569 0.16045
#
# Static dielectric constant tensor:
#      x y z
#    x 3.509380 0.000000 0.165350 
#    y 0.000000 2.951040 0.000000 
#    z 0.165350 0.000000 3.558230 
# 
# 
# High freq. dielectric constant tensor:
#      x y z
#    x 1.635500 0.000000 0.000610 
#    y 0.000000 1.598040 0.000000 
#    z 0.000610 0.000000 1.658060 
# 
# From -- ./inp_files/32266.got.cif
#   From: 2010.06.25/outbox.cif.g09.slc.cpg/sg12_17_cif.got.tgz:32266.got - 2010.06.28 00:19:55.
