data_PCOD8086911
_publ_section_title
;
Structure prediction by ZEFSAII (Michael W. Deem and Ramdas Pophale) SiO2 
 PCOD8086911
Probable space group: C 2/M
;
_chemical_formula_sum "Si O2"
_cell_formula_units_Z 56
_cell_length_a 20.346342
_cell_length_b 8.973458
_cell_length_c 19.546555
_cell_angle_alpha 90.000000
_cell_angle_beta 121.615629
_cell_angle_gamma 90.000000
_cell_volume 3039.092220
_symmetry_space_group_name_H-M "C 2/M"
_symmetry_group_IT_number 12
_symmetry_cell_setting 'monoclinic'
loop_
_space_group_symop_operation_xyz
x,y,z
-x,y,-z
-x,-y,-z
x,-y,z
1/2+x,1/2+y,z
1/2-x,1/2+y,-z
1/2-x,1/2-y,-z
1/2+x,1/2-y,z
loop_
_atom_site_type_symbol
_atom_site_label
_atom_site_fract_x
_atom_site_fract_y
_atom_site_fract_z
Si Si1 0.003261 0.175298 0.659640
Si Si2 0.578691 0.167785 0.501384
Si Si3 0.788463 0.325408 0.084746
Si Si4 0.037240 0.326811 0.813190
Si Si5 0.343064 0.675824 0.337267
Si Si6 0.211273 0.824409 0.183307
Si Si7 0.048585 0.672805 0.093063
O O1 0.992601 0.234175 0.730862
O O2 0.087712 0.220558 0.676686
O O3 0.935428 0.249785 0.578123
O O4 0.991018 0.000000 0.650543
O O5 0.500000 0.167111 0.500000
O O6 0.642293 0.256807 0.579586
O O7 0.607981 0.000000 0.503731
O O8 0.786921 0.500000 0.071579
O O9 0.875505 0.267771 0.138600
O O10 0.741749 0.276544 0.125885
O O11 0.750000 0.250000 0.000000
O O12 0.032735 0.500000 0.790866
O O13 0.002307 0.295234 0.868187
O O14 0.335536 0.500000 0.340088
O O15 0.262602 0.742567 0.267867
O O16 0.123532 0.773746 0.140998
O O17 0.217783 0.000000 0.198865
O O18 0.072743 0.500000 0.100602
O O19 0.000000 0.721654 0.000000
#
# Coordination Sequence:
#
# PCOD8086911 Si02
#       7
#     8   8   8   8   8   8   8
#     4  10  19  31  51  81 113 145 182 227 273 323
#     4   9  17  29  49  77 112 149 181 221 270 324
#     4  10  21  35  54  79 106 138 178 226 279 328
#     4  10  20  36  56  78 108 145 184 227 274 331
#     4  10  19  32  52  80 113 147 184 225 271 326
#     4  11  22  36  56  81 111 144 182 231 279 329
#     4  10  22  40  60  79 106 147 190 230 277 334
#
# _framework density 18.426556000000001
#
# number of rings (size 3 to 8) (size 9 to 14) (size 15 to 20)
#    0.000    2.000    1.429    2.571    0.000    6.571 
#    0.000    0.000    0.000    0.857    0.000    0.000 
#    0.000    0.000    0.000    0.000    0.000    0.000 
#
# Total GULP energy -347301.073036 kJ/mol
# GULP energy per Si atom -12403.609751 kJ/mol
# Density = 1.838462 g / cm^3
# Si number density = 18.426556 Si / 1000 Ang^3
#
#
#
# Elastic Constant Matrix: (Units=GPa)
#
#
# Indices 1 2 3 4 5 6 
#
# 1 45.8013 28.4366 23.2494 0.0000 -0.1005 0.0000
# 2 28.4366 82.9245 61.2695 0.0000 2.1854 0.0000
# 3 23.2494 61.2695 156.4033 0.0000 0.4600 0.0000
# 4 0.0000 0.0000 0.0000 40.8752 0.0000 1.8994
# 5 -0.1005 2.1854 0.4600 0.0000 25.9362 0.0000
# 6 0.0000 0.0000 0.0000 1.8994 0.0000 24.3979
#
#
#
# Elastic Compliance Matrix: (Units=1/GPa)
#
#
# Indices 1 2 3 4 5 6 
#
# 1 0.027795 -0.009148 -0.000551 0.000000 0.000888 0.000000
# 2 -0.009148 0.020027 -0.006481 0.000000 -0.001608 0.000000
# 3 -0.000551 -0.006481 0.009013 0.000000 0.000384 0.000000
# 4 0.000000 0.000000 0.000000 0.024554 0.000000 -0.001911
# 5 0.000888 -0.001608 0.000384 0.000000 0.038688 0.000000
# 6 0.000000 0.000000 0.000000 -0.001911 0.000000 0.041136
#
#
# Mechanical properties :
#
#
# Convention : Reuss Voigt Hill
#
# Bulk Modulus (GPa) = 40.85636 56.78223 48.81929
# Shear Modulus (GPa) = 24.78562 29.72010 27.25286
#
# Velocity S-wave (km/s) = 3.67154 4.02044 3.84995
# Velocity P-wave (km/s) = 6.33990 7.24115 6.80546
#
# Compressibility (1/GPa) = 0.02447600
#
# Stress axis : x y z
#
# Youngs Moduli (GPa) = 35.97828 49.93274 110.94782
#
# Poissons Ratio (x) = 0.45678 0.06110
# Poissons Ratio (y) = 0.32913 0.71903
# Poissons Ratio (z) = 0.01981 0.32360
#
# Static dielectric constant tensor:
#      x y z
#    x 3.172160 0.000000 0.030640 
#    y 0.000000 3.405800 0.000000 
#    z 0.030640 0.000000 3.560070 
# 
# 
# High freq. dielectric constant tensor:
#      x y z
#    x 1.680140 0.000000 0.001290 
#    y 0.000000 1.720150 0.000000 
#    z 0.001290 0.000000 1.732160 
# 
# From -- ./inp_files/281026.got.cif
#   From: 2010.06.25/outbox.cif.g09.slc.cpg/sg12_141_cif.got.tgz:281026.got - 2010.06.28 00:19:55.
