data_PCOD8086197
_publ_section_title
;
Structure prediction by ZEFSAII (Michael W. Deem and Ramdas Pophale) SiO2 
 PCOD8086197
Probable space group: C 2/M
;
_chemical_formula_sum "Si O2"
_cell_formula_units_Z 56
_cell_length_a 31.615691
_cell_length_b 9.259928
_cell_length_c 18.258268
_cell_angle_alpha 90.000000
_cell_angle_beta 35.446936
_cell_angle_gamma 90.000000
_cell_volume 3099.984057
_symmetry_space_group_name_H-M "C 2/M"
_symmetry_group_IT_number 12
_symmetry_cell_setting 'monoclinic'
loop_
_space_group_symop_operation_xyz
x,y,z
-x,y,-z
-x,-y,-z
x,-y,z
1/2+x,1/2+y,z
1/2-x,1/2+y,-z
1/2-x,1/2-y,-z
1/2+x,1/2-y,z
loop_
_atom_site_type_symbol
_atom_site_label
_atom_site_fract_x
_atom_site_fract_y
_atom_site_fract_z
Si Si1 0.934129 0.166756 0.544806
Si Si2 0.551320 0.338310 0.124756
Si Si3 0.325910 0.170227 0.410169
Si Si4 0.470950 0.162035 0.123013
Si Si5 0.326890 0.663188 0.820571
Si Si6 0.841401 0.666599 0.936942
Si Si7 0.909882 0.165293 0.417068
O O1 0.860299 0.188859 0.693961
O O2 0.917746 0.233645 0.487762
O O3 0.000000 0.237890 0.500000
O O4 0.954829 0.000000 0.502308
O O5 0.579197 0.500000 0.071694
O O6 0.519501 0.278980 0.094701
O O7 0.618972 0.240116 0.051277
O O8 0.491304 0.332190 0.272250
O O9 0.250000 0.250000 0.500000
O O10 0.384719 0.195955 0.260725
O O11 0.357319 0.235409 0.441802
O O12 0.310811 0.000000 0.442188
O O13 0.485684 0.000000 0.132001
O O14 0.500000 0.174275 0.000000
O O15 0.339517 0.500000 0.830175
O O16 0.365872 0.764822 0.825137
O O17 0.242725 0.699730 0.931057
O O18 0.861680 0.500000 0.906658
O O19 0.879335 0.000000 0.460928
#
# Coordination Sequence:
#
# PCOD8086197 Si02
#       7
#     8   8   8   8   8   8   8
#     4   9  16  29  51  76 100 129 169 214 254 297
#     4  10  19  32  53  77 101 132 168 209 256 309
#     4  10  20  36  58  81 108 142 177 219 270 324
#     4   9  19  37  58  80 105 135 175 221 264 312
#     4   9  18  32  49  70  97 130 170 213 253 298
#     4  10  19  31  48  70  99 135 170 207 253 307
#     4   9  18  33  54  78 103 134 175 216 255 309
#
# _framework density 18.064609999999998
#
# number of rings (size 3 to 8) (size 9 to 14) (size 15 to 20)
#    0.000    2.571    0.000    2.143    0.000    4.286 
#    2.571    0.714    0.000    1.714    0.000    0.000 
#    0.000    0.000    0.000    0.000    0.000    0.000 
#
# Total GULP energy -347055.890729 kJ/mol
# GULP energy per Si atom -12394.853240 kJ/mol
# Density = 1.802349 g / cm^3
# Si number density = 18.064610 Si / 1000 Ang^3
#
#
#
# Elastic Constant Matrix: (Units=GPa)
#
#
# Indices 1 2 3 4 5 6 
#
# 1 114.9197 62.2562 56.8471 -0.0018 0.1584 0.0026
# 2 62.2562 97.6082 36.4983 -0.0051 -9.5323 0.0066
# 3 56.8471 36.4983 79.7642 -0.0080 9.0156 0.0080
# 4 -0.0018 -0.0051 -0.0080 20.8083 -0.0015 -2.0014
# 5 0.1584 -9.5323 9.0156 -0.0015 24.6745 0.0020
# 6 0.0026 0.0066 0.0080 -2.0014 0.0020 33.2865
#
#
#
# Elastic Compliance Matrix: (Units=1/GPa)
#
#
# Indices 1 2 3 4 5 6 
#
# 1 0.017192 -0.007681 -0.008751 -0.000004 0.000120 0.000002
# 2 -0.007681 0.017126 -0.003250 0.000003 0.007853 -0.000002
# 3 -0.008751 -0.003250 0.021275 0.000006 -0.008973 -0.000003
# 4 -0.000004 0.000003 0.000006 0.048337 0.000002 0.002906
# 5 0.000120 0.007853 -0.008973 0.000002 0.046839 -0.000002
# 6 0.000002 -0.000002 -0.000003 0.002906 -0.000002 0.030217
#
#
# Mechanical properties :
#
#
# Convention : Reuss Voigt Hill
#
# Bulk Modulus (GPa) = 61.61956 67.05500 64.33728
# Shear Modulus (GPa) = 22.14738 24.86658 23.50698
#
# Velocity S-wave (km/s) = 3.50524 3.71419 3.61123
# Velocity P-wave (km/s) = 7.11105 7.45612 7.28563
#
# Compressibility (1/GPa) = 0.01622861
#
# Stress axis : x y z
#
# Youngs Moduli (GPa) = 58.16800 58.38943 47.00339
#
# Poissons Ratio (x) = 0.44850 0.41133
# Poissons Ratio (y) = 0.44680 0.15276
# Poissons Ratio (z) = 0.50903 0.18977
#
# Static dielectric constant tensor:
#      x y z
#    x 3.311350 -0.000010 0.002630 
#    y -0.000010 3.395700 0.000020 
#    z 0.002630 0.000020 3.369990 
# 
# 
# High freq. dielectric constant tensor:
#      x y z
#    x 1.697740 0.000000 -0.000830 
#    y 0.000000 1.691430 0.000000 
#    z -0.000830 0.000000 1.694680 
# 
# From -- ./inp_files/295077.got.cif
#   From: 2010.06.25/outbox.cif.g09.slc.cpg/sg12_148_cif.got.tgz:295077.got - 2010.06.28 00:19:55.
