data_PCOD8086612
_publ_section_title
;
Structure prediction by ZEFSAII (Michael W. Deem and Ramdas Pophale) SiO2 
 PCOD8086612
Probable space group: C 2/M
;
_chemical_formula_sum "Si O2"
_cell_formula_units_Z 64
_cell_length_a 18.599516
_cell_length_b 8.901981
_cell_length_c 34.692656
_cell_angle_alpha 90.000000
_cell_angle_beta 143.392144
_cell_angle_gamma 90.000000
_cell_volume 3425.438040
_symmetry_space_group_name_H-M "C 2/M"
_symmetry_group_IT_number 12
_symmetry_cell_setting 'monoclinic'
loop_
_space_group_symop_operation_xyz
x,y,z
-x,y,-z
-x,-y,-z
x,-y,z
1/2+x,1/2+y,z
1/2-x,1/2+y,-z
1/2-x,1/2-y,-z
1/2+x,1/2-y,z
loop_
_atom_site_type_symbol
_atom_site_label
_atom_site_fract_x
_atom_site_fract_y
_atom_site_fract_z
Si Si1 0.898217 0.321770 0.378174
Si Si2 0.173333 0.678056 0.000209
Si Si3 0.398092 0.177735 0.876622
Si Si4 0.694850 0.822126 0.744287
Si Si5 0.251310 0.324259 0.115728
Si Si6 0.236229 0.821691 0.377738
Si Si7 0.828256 0.678656 0.500030
Si Si8 0.464218 0.676581 0.259837
O O1 0.899695 0.500000 0.381707
O O2 0.835120 0.268454 0.311752
O O3 0.823302 0.254461 0.382093
O O4 0.034943 0.261993 0.437912
O O5 0.186798 0.500000 0.004658
O O6 0.035992 0.727932 0.934683
O O7 0.250000 0.750000 0.000000
O O8 0.222477 0.746909 0.061717
O O9 0.326048 0.255832 0.810849
O O10 0.342764 0.237073 0.893105
O O11 0.381280 0.000000 0.865423
O O12 0.590672 0.761185 0.727255
O O13 0.698692 0.000000 0.749390
O O14 0.230522 0.500000 0.102771
O O15 0.387201 0.286285 0.188118
O O16 0.277858 0.763718 0.437388
O O17 0.099813 0.766786 0.311110
O O18 0.242693 0.000000 0.379229
O O19 0.820641 0.500000 0.500360
O O20 0.750000 0.750000 0.500000
O O21 0.458602 0.500000 0.266694
#
# Coordination Sequence:
#
# PCOD8086612 Si02
#       8
#     8   8   8   8   8   8   8   8
#     4   9  18  31  48  73 101 128 162 202 241 283
#     4  10  20  33  50  73 100 128 159 198 244 290
#     4   9  18  34  54  72  93 126 168 205 234 277
#     4  10  19  31  50  74  99 126 157 199 247 289
#     4   8  15  30  52  72  90 121 164 201 230 271
#     4   9  17  30  50  74  97 127 166 200 233 281
#     4  10  19  32  52  74  98 128 162 203 244 284
#     4   9  17  31  52  74  95 123 162 202 235 280
#
# _framework density 18.68374
#
# number of rings (size 3 to 8) (size 9 to 14) (size 15 to 20)
#    0.000    2.750    0.000    2.625    0.000    4.500 
#    0.000    5.625    0.000    9.000    0.000    0.000 
#    0.000    0.000    0.000    0.000    0.000    0.000 
#
# Total GULP energy -396743.375307 kJ/mol
# GULP energy per Si atom -12398.230478 kJ/mol
# Density = 1.864122 g / cm^3
# Si number density = 18.683740 Si / 1000 Ang^3
#
#
#
# Elastic Constant Matrix: (Units=GPa)
#
#
# Indices 1 2 3 4 5 6 
#
# 1 162.1474 27.2027 117.8209 0.0000 3.4538 0.0000
# 2 27.2027 24.5265 33.2358 0.0000 0.9666 -0.0001
# 3 117.8209 33.2358 192.8413 0.0000 5.8514 0.0000
# 4 0.0000 0.0000 0.0000 21.7606 0.0000 -0.6843
# 5 3.4538 0.9666 5.8514 0.0000 29.3681 0.0000
# 6 0.0000 -0.0001 0.0000 -0.6843 0.0000 26.7994
#
#
#
# Elastic Compliance Matrix: (Units=1/GPa)
#
#
# Indices 1 2 3 4 5 6 
#
# 1 0.011411 -0.004186 -0.006252 0.000000 0.000041 0.000000
# 2 -0.004186 0.054732 -0.006877 0.000000 0.000061 0.000000
# 3 -0.006252 -0.006877 0.010223 0.000000 -0.001075 0.000000
# 4 0.000000 0.000000 0.000000 0.045992 0.000000 0.001174
# 5 0.000041 0.000061 -0.001075 0.000000 0.034258 0.000000
# 6 0.000000 0.000000 0.000000 0.001174 0.000000 0.037344
#
#
# Mechanical properties :
#
#
# Convention : Reuss Voigt Hill
#
# Bulk Modulus (GPa) = 23.96008 81.78153 52.87081
# Shear Modulus (GPa) = 20.61834 29.00269 24.81051
#
# Velocity S-wave (km/s) = 3.32557 3.94419 3.64802
# Velocity P-wave (km/s) = 5.25335 8.03796 6.78994
#
# Compressibility (1/GPa) = 0.04173608
#
# Stress axis : x y z
#
# Youngs Moduli (GPa) = 87.63152 18.27088 97.81697
#
# Poissons Ratio (x) = 0.07649 0.61153
# Poissons Ratio (y) = 0.36686 0.67269
# Poissons Ratio (z) = 0.54786 0.12565
#
# Static dielectric constant tensor:
#      x y z
#    x 3.545750 0.000000 -0.009330 
#    y 0.000000 2.998810 0.000000 
#    z -0.009330 0.000000 3.820940 
# 
# 
# High freq. dielectric constant tensor:
#      x y z
#    x 1.727810 0.000000 0.002260 
#    y 0.000000 1.678740 0.000000 
#    z 0.002260 0.000000 1.745220 
# 
# From -- ./inp_files/378446.got.cif
#   From: 2010.06.25/outbox.cif.g09.slc.cpg/sg12_190_cif.got.tgz:378446.got - 2010.06.28 00:19:55.
