data_PCOD8086191
_publ_section_title
;
Structure prediction by ZEFSAII (Michael W. Deem and Ramdas Pophale) SiO2 
 PCOD8086191
Probable space group: C 2/M
;
_chemical_formula_sum "Si O2"
_cell_formula_units_Z 64
_cell_length_a 20.695129
_cell_length_b 9.507309
_cell_length_c 19.892296
_cell_angle_alpha 90.000000
_cell_angle_beta 102.607468
_cell_angle_gamma 90.000000
_cell_volume 3819.537520
_symmetry_space_group_name_H-M "C 2/M"
_symmetry_group_IT_number 12
_symmetry_cell_setting 'monoclinic'
loop_
_space_group_symop_operation_xyz
x,y,z
-x,y,-z
-x,-y,-z
x,-y,z
1/2+x,1/2+y,z
1/2-x,1/2+y,-z
1/2-x,1/2-y,-z
1/2+x,1/2-y,z
loop_
_atom_site_type_symbol
_atom_site_label
_atom_site_fract_x
_atom_site_fract_y
_atom_site_fract_z
Si Si1 0.550205 0.833235 0.918988
Si Si2 0.432221 0.167190 0.225792
Si Si3 0.841581 0.663147 0.559737
Si Si4 0.693985 0.661115 0.568910
Si Si5 0.592003 0.832916 0.068888
Si Si6 0.321022 0.832581 0.792950
Si Si7 0.322952 0.665172 0.280764
Si Si8 0.578939 0.833430 0.295993
O O1 0.578374 0.782116 0.853847
O O2 0.475970 0.774683 0.913779
O O3 0.546051 0.000000 0.916753
O O4 0.596991 0.782269 0.991914
O O5 0.379725 0.246685 0.258765
O O6 0.504588 0.218185 0.266087
O O7 0.423488 0.000000 0.231999
O O8 0.849193 0.500000 0.544031
O O9 0.771425 0.695869 0.578718
O O10 0.849797 0.746999 0.492131
O O11 0.898006 0.714450 0.624486
O O12 0.679884 0.500000 0.548188
O O13 0.672526 0.697439 0.639291
O O14 0.654060 0.780159 0.127679
O O15 0.589728 0.000000 0.070268
O O16 0.246948 0.777728 0.763701
O O17 0.371117 0.769949 0.748438
O O18 0.320943 0.000000 0.787523
O O19 0.332049 0.500000 0.268077
O O20 0.582687 0.000000 0.291061
#
# Coordination Sequence:
#
# PCOD8086191 Si02
#       8
#     8   8   8   8   8   8   8   8
#     4   8  13  22  39  68  99 119 143 191 243 271
#     4  10  19  31  48  70  98 126 152 190 237 277
#     4   9  16  28  49  73  92 111 147 198 238 269
#     4   9  17  30  47  68  93 120 150 187 232 276
#     4   8  12  20  40  70  96 115 147 196 238 267
#     4   9  14  25  46  69  91 119 159 197 225 264
#     4  10  20  33  48  67  95 129 159 186 224 280
#     4   9  15  27  48  72  92 116 155 198 233 265
#
# _framework density 16.755956000000001
#
# number of rings (size 3 to 8) (size 9 to 14) (size 15 to 20)
#    0.000    3.000    2.500    0.750    0.000    0.500 
#    0.000    1.875    0.000    4.500    0.000    1.750 
#    0.000    0.000    0.000    0.000    0.000    0.000 
#
# Total GULP energy -396571.838490 kJ/mol
# GULP energy per Si atom -12392.869953 kJ/mol
# Density = 1.671782 g / cm^3
# Si number density = 16.755956 Si / 1000 Ang^3
#
#
#
# Elastic Constant Matrix: (Units=GPa)
#
#
# Indices 1 2 3 4 5 6 
#
# 1 107.5747 30.6232 77.6651 0.0000 4.5881 0.0000
# 2 30.6232 26.7537 41.6527 0.0000 -1.4518 0.0000
# 3 77.6651 41.6527 161.3041 0.0000 10.6154 0.0000
# 4 0.0000 0.0000 0.0000 15.7176 0.0000 -3.7708
# 5 4.5881 -1.4518 10.6154 0.0000 28.0956 0.0000
# 6 0.0000 0.0000 0.0000 -3.7708 0.0000 20.4488
#
#
#
# Elastic Compliance Matrix: (Units=1/GPa)
#
#
# Indices 1 2 3 4 5 6 
#
# 1 0.015871 -0.010840 -0.004753 0.000000 -0.001356 0.000000
# 2 -0.010840 0.072523 -0.014225 0.000000 0.010892 0.000000
# 3 -0.004753 -0.014225 0.012469 0.000000 -0.004670 0.000000
# 4 0.000000 0.000000 0.000000 0.066568 0.000000 0.012275
# 5 -0.001356 0.010892 -0.004670 0.000000 0.038142 0.000000
# 6 0.000000 0.000000 0.000000 0.012275 0.000000 0.051166
#
#
# Mechanical properties :
#
#
# Convention : Reuss Voigt Hill
#
# Bulk Modulus (GPa) = 24.25599 66.16830 45.21214
# Shear Modulus (GPa) = 15.14612 22.56515 18.85564
#
# Velocity S-wave (km/s) = 3.00980 3.67371 3.35820
# Velocity P-wave (km/s) = 5.15616 7.58749 6.48676
#
# Compressibility (1/GPa) = 0.04122692
#
# Stress axis : x y z
#
# Youngs Moduli (GPa) = 63.00708 13.78869 80.20100
#
# Poissons Ratio (x) = 0.14947 0.38123
# Poissons Ratio (y) = 0.68299 1.14085
# Poissons Ratio (z) = 0.29950 0.19614
#
# Static dielectric constant tensor:
#      x y z
#    x 3.051270 0.000000 0.231620 
#    y 0.000000 2.634340 0.000000 
#    z 0.231620 0.000000 3.565300 
# 
# 
# High freq. dielectric constant tensor:
#      x y z
#    x 1.625270 0.000000 0.012860 
#    y 0.000000 1.586720 0.000000 
#    z 0.012860 0.000000 1.665720 
# 
# From -- ./inp_files/276500.got.cif
#   From: 2010.06.25/outbox.cif.g09.slc.cpg/sg12_139_cif.got.tgz:276500.got - 2010.06.28 00:19:55.
