data_PCOD8086756
_publ_section_title
;
Structure prediction by ZEFSAII (Michael W. Deem and Ramdas Pophale) SiO2 
 PCOD8086756
Probable space group: C 2/M
;
_chemical_formula_sum "Si O2"
_cell_formula_units_Z 64
_cell_length_a 29.686328
_cell_length_b 11.572662
_cell_length_c 9.885919
_cell_angle_alpha 90.000000
_cell_angle_beta 95.646054
_cell_angle_gamma 90.000000
_cell_volume 3379.829194
_symmetry_space_group_name_H-M "C 2/M"
_symmetry_group_IT_number 12
_symmetry_cell_setting 'monoclinic'
loop_
_space_group_symop_operation_xyz
x,y,z
-x,y,-z
-x,-y,-z
x,-y,z
1/2+x,1/2+y,z
1/2-x,1/2+y,-z
1/2-x,1/2-y,-z
1/2+x,1/2-y,z
loop_
_atom_site_type_symbol
_atom_site_label
_atom_site_fract_x
_atom_site_fract_y
_atom_site_fract_z
Si Si1 0.229316 0.628499 0.650878
Si Si2 0.817682 0.254921 0.593781
Si Si3 0.141423 0.372261 0.141523
Si Si4 0.962064 0.869356 0.715183
Si Si5 0.550002 0.778933 0.029337
Si Si6 0.105706 0.134020 0.519621
Si Si7 0.563786 0.367943 0.773424
Si Si8 0.218799 0.362918 0.954737
O O1 0.248564 0.500000 0.642560
O O2 0.192221 0.647295 0.521952
O O3 0.271015 0.714676 0.645311
O O4 0.207590 0.647747 0.792284
O O5 0.849547 0.293633 0.725706
O O6 0.843726 0.154949 0.519476
O O7 0.152957 0.500000 0.193717
O O8 0.088819 0.368920 0.082109
O O9 0.173005 0.339534 0.023968
O O10 0.954434 0.817898 0.859638
O O11 0.931106 0.807180 0.592223
O O12 0.014424 0.860975 0.689231
O O13 0.945438 0.000000 0.724462
O O14 0.500000 0.838750 0.000000
O O15 0.567428 0.716847 0.900107
O O16 0.098916 0.180048 0.670786
O O17 0.095157 0.000000 0.525469
O O18 0.574289 0.500000 0.822229
O O19 0.236286 0.500000 0.987787
O O20 0.250000 0.250000 0.000000
#
# Coordination Sequence:
#
# PCOD8086756 Si02
#       8
#     8   8   8   8   8   8   8   8
#     4  10  22  39  60  83 113 150 188 235 289 347
#     4  11  21  37  59  81 114 144 190 232 287 342
#     4  11  23  39  60  83 110 148 197 241 293 349
#     4   9  16  30  52  77 108 145 181 222 278 337
#     4  10  20  35  55  81 111 150 192 238 283 335
#     4  10  19  31  50  80 111 144 182 226 273 338
#     4   9  18  31  49  78 114 146 178 222 278 337
#     4  10  21  41  64  91 121 154 196 242 299 359
#
# _framework density 18.935867999999999
#
# number of rings (size 3 to 8) (size 9 to 14) (size 15 to 20)
#    0.000    2.000    2.500    1.500    1.750    3.250 
#    0.000    1.875    0.000    0.000    0.000    1.750 
#    0.000    0.000    0.000    0.000    0.000    0.000 
#
# Total GULP energy -396444.145355 kJ/mol
# GULP energy per Si atom -12388.879542 kJ/mol
# Density = 1.889277 g / cm^3
# Si number density = 18.935868 Si / 1000 Ang^3
#
#
#
# Elastic Constant Matrix: (Units=GPa)
#
#
# Indices 1 2 3 4 5 6 
#
# 1 85.4407 19.7420 44.1496 0.0000 -5.8585 0.0000
# 2 19.7420 55.3632 28.3394 0.0000 -0.8060 0.0000
# 3 44.1496 28.3394 125.3312 0.0000 -11.1259 0.0000
# 4 0.0000 0.0000 0.0000 21.8928 0.0000 0.4660
# 5 -5.8585 -0.8060 -11.1259 0.0000 33.6092 0.0000
# 6 0.0000 0.0000 0.0000 0.4660 0.0000 26.5823
#
#
#
# Elastic Compliance Matrix: (Units=1/GPa)
#
#
# Indices 1 2 3 4 5 6 
#
# 1 0.014753 -0.002977 -0.004432 0.000000 0.001033 0.000000
# 2 -0.002977 0.021065 -0.003828 0.000000 -0.001281 0.000000
# 3 -0.004432 -0.003828 0.010642 0.000000 0.002658 0.000000
# 4 0.000000 0.000000 0.000000 0.045694 0.000000 -0.000801
# 5 0.001033 -0.001281 0.002658 0.000000 0.030783 0.000000
# 6 0.000000 0.000000 0.000000 -0.000801 0.000000 0.037633
#
#
# Mechanical properties :
#
#
# Convention : Reuss Voigt Hill
#
# Bulk Modulus (GPa) = 41.69244 50.06635 45.87939
# Shear Modulus (GPa) = 26.17260 28.01047 27.09153
#
# Velocity S-wave (km/s) = 3.72179 3.85025 3.78656
# Velocity P-wave (km/s) = 6.36667 6.80171 6.58778
#
# Compressibility (1/GPa) = 0.02398516
#
# Stress axis : x y z
#
# Youngs Moduli (GPa) = 67.78334 47.47209 93.96988
#
# Poissons Ratio (x) = 0.14133 0.41648
# Poissons Ratio (y) = 0.20179 0.35973
# Poissons Ratio (z) = 0.30042 0.18173
#
# Static dielectric constant tensor:
#      x y z
#    x 3.488130 0.000000 -0.048520 
#    y 0.000000 3.352040 0.000000 
#    z -0.048520 0.000000 3.658430 
# 
# 
# High freq. dielectric constant tensor:
#      x y z
#    x 1.728840 0.000000 -0.009850 
#    y 0.000000 1.708660 0.000000 
#    z -0.009850 0.000000 1.753880 
# 
# From -- ./inp_files/110479.got.cif
#   From: 2010.06.25/outbox.cif.g09.slc.cpg/sg12_56_cif.got.tgz:110479.got - 2010.06.28 00:19:55.
