data_PCOD8086780
_publ_section_title
;
Structure prediction by ZEFSAII (Michael W. Deem and Ramdas Pophale) SiO2 
 PCOD8086780
Probable space group: C 2/M
;
_chemical_formula_sum "Si O2"
_cell_formula_units_Z 48
_cell_length_a 29.377896
_cell_length_b 9.189503
_cell_length_c 16.196203
_cell_angle_alpha 90.000000
_cell_angle_beta 37.254885
_cell_angle_gamma 90.000000
_cell_volume 2646.920968
_symmetry_space_group_name_H-M "C 2/M"
_symmetry_group_IT_number 12
_symmetry_cell_setting 'monoclinic'
loop_
_space_group_symop_operation_xyz
x,y,z
-x,y,-z
-x,-y,-z
x,-y,z
1/2+x,1/2+y,z
1/2-x,1/2+y,-z
1/2-x,1/2-y,-z
1/2+x,1/2-y,z
loop_
_atom_site_type_symbol
_atom_site_label
_atom_site_fract_x
_atom_site_fract_y
_atom_site_fract_z
Si Si1 0.893401 0.172320 0.097982
Si Si2 0.973828 0.328146 0.624949
Si Si3 0.234300 0.327104 0.267965
Si Si4 0.595404 0.827211 0.578143
Si Si5 0.695876 0.828375 0.140668
Si Si6 0.051095 0.827839 0.805239
O O1 0.815637 0.239085 0.175407
O O2 0.905518 0.222329 0.174733
O O3 0.889682 0.000000 0.101913
O O4 0.963680 0.221674 0.939566
O O5 0.984518 0.500000 0.604104
O O6 0.888030 0.284667 0.765358
O O7 0.000000 0.259570 0.500000
O O8 0.025640 0.268703 0.624058
O O9 0.236874 0.500000 0.263067
O O10 0.172365 0.275413 0.423449
O O11 0.211722 0.270109 0.210034
O O12 0.591344 0.753753 0.672766
O O13 0.592952 0.000000 0.592505
O O14 0.708888 0.000000 0.116841
O O15 0.750000 0.750000 0.000000
O O16 0.057127 0.000000 0.782904
#
# Coordination Sequence:
#
# PCOD8086780 Si02
#       6
#     8   8   8   8   8   8
#     4   8  16  32  51  70  95 128 164 197 234 286
#     4   9  16  31  51  70  96 130 163 192 230 284
#     4   9  17  31  51  72  94 127 168 199 228 283
#     4  10  19  31  51  75  97 125 162 200 237 282
#     4  10  20  33  51  74  99 127 160 199 239 282
#     4   9  18  33  52  72  96 127 160 198 243 287
#
# _framework density 18.134277000000001
#
# number of rings (size 3 to 8) (size 9 to 14) (size 15 to 20)
#    0.000    2.833    1.667    1.000    2.333    0.667 
#    0.000    2.500    0.000    3.000    0.000    0.000 
#    0.000    0.000    0.000    0.000    0.000    0.000 
#
# Total GULP energy -297524.736445 kJ/mol
# GULP energy per Si atom -12396.864019 kJ/mol
# Density = 1.809300 g / cm^3
# Si number density = 18.134277 Si / 1000 Ang^3
#
#
#
# Elastic Constant Matrix: (Units=GPa)
#
#
# Indices 1 2 3 4 5 6 
#
# 1 99.7432 15.4622 57.6849 0.0007 -10.3600 -0.0002
# 2 15.4622 19.3303 29.0537 0.0038 2.5754 -0.0026
# 3 57.6849 29.0537 145.8115 0.0012 5.6614 -0.0011
# 4 0.0007 0.0038 0.0012 27.6850 -0.0008 8.0559
# 5 -10.3600 2.5754 5.6614 -0.0008 39.2396 0.0003
# 6 -0.0002 -0.0026 -0.0011 8.0559 0.0003 16.7678
#
#
#
# Elastic Compliance Matrix: (Units=1/GPa)
#
#
# Indices 1 2 3 4 5 6 
#
# 1 0.014007 -0.004606 -0.004806 0.000001 0.004694 -0.000001
# 2 -0.004606 0.075657 -0.013086 -0.000015 -0.004294 0.000018
# 3 -0.004806 -0.013086 0.011447 0.000002 -0.002061 -0.000002
# 4 0.000001 -0.000015 0.000002 0.041991 0.000002 -0.020174
# 5 0.004694 -0.004294 -0.002061 0.000002 0.027303 -0.000002
# 6 -0.000001 0.000018 -0.000002 -0.020174 -0.000002 0.069331
#
#
# Mechanical properties :
#
#
# Convention : Reuss Voigt Hill
#
# Bulk Modulus (GPa) = 17.82060 52.14299 34.98179
# Shear Modulus (GPa) = 16.47794 27.58410 22.03102
#
# Velocity S-wave (km/s) = 3.01767 3.90436 3.48930
# Velocity P-wave (km/s) = 4.68937 7.01011 5.96372
#
# Compressibility (1/GPa) = 0.05611484
#
# Stress axis : x y z
#
# Youngs Moduli (GPa) = 71.39511 13.21748 87.36023
#
# Poissons Ratio (x) = 0.06088 0.41982
# Poissons Ratio (y) = 0.32886 1.14321
# Poissons Ratio (z) = 0.34310 0.17297
#
# Static dielectric constant tensor:
#      x y z
#    x 3.786350 0.000000 -0.222310 
#    y 0.000000 2.746420 0.000000 
#    z -0.222310 0.000000 3.462550 
# 
# 
# High freq. dielectric constant tensor:
#      x y z
#    x 1.714940 0.000000 -0.003590 
#    y 0.000000 1.640800 0.000000 
#    z -0.003590 0.000000 1.714520 
# 
# From -- ./inp_files/212675.got.cif
#   From: 2010.06.25/outbox.cif.g09.slc.cpg/sg12_107_cif.got.tgz:212675.got - 2010.06.28 00:19:55.
