data_PCOD8086981
_publ_section_title
;
Structure prediction by ZEFSAII (Michael W. Deem and Ramdas Pophale) SiO2 
 PCOD8086981
Probable space group: C 2/M
;
_chemical_formula_sum "Si O2"
_cell_formula_units_Z 64
_cell_length_a 23.068558
_cell_length_b 9.099227
_cell_length_c 22.585186
_cell_angle_alpha 90.000000
_cell_angle_beta 47.898062
_cell_angle_gamma 90.000000
_cell_volume 3517.427139
_symmetry_space_group_name_H-M "C 2/M"
_symmetry_group_IT_number 12
_symmetry_cell_setting 'monoclinic'
loop_
_space_group_symop_operation_xyz
x,y,z
-x,y,-z
-x,-y,-z
x,-y,z
1/2+x,1/2+y,z
1/2-x,1/2+y,-z
1/2-x,1/2-y,-z
1/2+x,1/2-y,z
loop_
_atom_site_type_symbol
_atom_site_label
_atom_site_fract_x
_atom_site_fract_y
_atom_site_fract_z
Si Si1 0.403293 0.170721 0.636339
Si Si2 0.540289 0.331265 0.607778
Si Si3 0.632241 0.327022 0.094928
Si Si4 0.283542 0.828016 0.064376
Si Si5 0.662986 0.331166 0.427008
Si Si6 0.533270 0.673851 0.746278
Si Si7 0.315559 0.672698 0.289833
Si Si8 0.236967 0.168068 0.802852
O O1 0.477752 0.228241 0.619699
O O2 0.394804 0.256625 0.580654
O O3 0.327962 0.197847 0.728746
O O4 0.413488 0.000000 0.614086
O O5 0.510452 0.500000 0.626444
O O6 0.623573 0.316418 0.518405
O O7 0.550709 0.274553 0.667594
O O8 0.629335 0.500000 0.085103
O O9 0.697567 0.287064 0.098998
O O10 0.549909 0.263657 0.174815
O O11 0.650713 0.248684 0.020463
O O12 0.292757 0.772324 0.124809
O O13 0.298895 0.000000 0.052343
O O14 0.674567 0.500000 0.400716
O O15 0.746566 0.253005 0.372381
O O16 0.530258 0.500000 0.751531
O O17 0.602207 0.732268 0.741575
O O18 0.304011 0.500000 0.308947
O O19 0.312043 0.707971 0.222435
O O20 0.222705 0.000000 0.831422
#
# Coordination Sequence:
#
# PCOD8086981 Si02
#       8
#     8   8   8   8   8   8   8   8
#     4  10  20  33  51  76 105 135 169 211 255 301
#     4  10  20  33  51  76 104 134 169 210 257 308
#     4   9  18  33  53  76 102 131 162 200 247 299
#     4  10  19  31  52  80 105 130 160 197 247 304
#     4  10  20  33  50  74 104 136 169 209 258 306
#     4   9  18  35  56  74  97 134 176 212 251 301
#     4   9  19  36  55  73  97 133 176 217 251 292
#     4   9  18  32  50  73  99 129 167 207 247 293
#
# _framework density 18.195115999999999
#
# number of rings (size 3 to 8) (size 9 to 14) (size 15 to 20)
#    0.000    2.500    0.000    3.000    0.000    7.000 
#    0.000    2.500    0.000    3.750    0.000    0.000 
#    0.000    0.000    0.000    0.000    0.000    0.000 
#
# Total GULP energy -396867.867799 kJ/mol
# GULP energy per Si atom -12402.120869 kJ/mol
# Density = 1.815370 g / cm^3
# Si number density = 18.195116 Si / 1000 Ang^3
#
#
#
# Elastic Constant Matrix: (Units=GPa)
#
#
# Indices 1 2 3 4 5 6 
#
# 1 111.6027 35.2926 71.3582 -0.0002 -6.6039 0.0004
# 2 35.2926 65.4249 50.9261 -0.0010 1.9982 0.0016
# 3 71.3582 50.9261 138.2960 0.0000 10.0740 0.0002
# 4 -0.0002 -0.0010 0.0000 28.0704 0.0002 -1.6051
# 5 -6.6039 1.9982 10.0740 0.0002 16.5599 -0.0005
# 6 0.0004 0.0016 0.0002 -1.6051 -0.0005 20.1968
#
#
#
# Elastic Compliance Matrix: (Units=1/GPa)
#
#
# Indices 1 2 3 4 5 6 
#
# 1 0.015457 -0.002573 -0.007848 0.000000 0.011249 0.000000
# 2 -0.002573 0.021940 -0.006784 0.000001 0.000454 -0.000002
# 3 -0.007848 -0.006784 0.014593 0.000000 -0.011189 0.000000
# 4 0.000000 0.000001 0.000000 0.035787 0.000000 0.002844
# 5 0.011249 0.000454 -0.011189 0.000000 0.071624 0.000002
# 6 0.000000 -0.000002 0.000000 0.002844 0.000002 0.049739
#
#
# Mechanical properties :
#
#
# Convention : Reuss Voigt Hill
#
# Bulk Modulus (GPa) = 56.88254 70.05306 63.46780
# Shear Modulus (GPa) = 20.04716 23.48188 21.76452
#
# Velocity S-wave (km/s) = 3.32292 3.59633 3.46233
# Velocity P-wave (km/s) = 6.78622 7.47191 7.13730
#
# Compressibility (1/GPa) = 0.01758009
#
# Stress axis : x y z
#
# Youngs Moduli (GPa) = 64.69372 45.57902 68.52435
#
# Poissons Ratio (x) = 0.11729 0.53775
# Poissons Ratio (y) = 0.16648 0.46489
# Poissons Ratio (z) = 0.50769 0.30922
#
# Static dielectric constant tensor:
#      x y z
#    x 3.373020 0.000000 -0.011940 
#    y 0.000000 3.243890 0.000000 
#    z -0.011940 0.000000 3.417510 
# 
# 
# High freq. dielectric constant tensor:
#      x y z
#    x 1.693980 0.000000 0.003810 
#    y 0.000000 1.695370 0.000000 
#    z 0.003810 0.000000 1.709020 
# 
# From -- ./inp_files/324166.got.cif
#   From: 2010.06.25/outbox.cif.g09.slc.cpg/sg12_163_cif.got.tgz:324166.got - 2010.06.28 00:19:55.
