data_PCOD8086087
_publ_section_title
;
Structure prediction by ZEFSAII (Michael W. Deem and Ramdas Pophale) SiO2 
 PCOD8086087
Probable space group: C 2/M
;
_chemical_formula_sum "Si O2"
_cell_formula_units_Z 56
_cell_length_a 23.763412
_cell_length_b 9.526785
_cell_length_c 14.778963
_cell_angle_alpha 90.000000
_cell_angle_beta 71.026210
_cell_angle_gamma 90.000000
_cell_volume 3164.007799
_symmetry_space_group_name_H-M "C 2/M"
_symmetry_group_IT_number 12
_symmetry_cell_setting 'monoclinic'
loop_
_space_group_symop_operation_xyz
x,y,z
-x,y,-z
-x,-y,-z
x,-y,z
1/2+x,1/2+y,z
1/2-x,1/2+y,-z
1/2-x,1/2-y,-z
1/2+x,1/2-y,z
loop_
_atom_site_type_symbol
_atom_site_label
_atom_site_fract_x
_atom_site_fract_y
_atom_site_fract_z
Si Si1 0.189692 0.162962 0.841746
Si Si2 0.420982 0.333568 0.626900
Si Si3 0.446352 0.665261 0.416443
Si Si4 0.010837 0.341994 0.099806
Si Si5 0.323387 0.839604 0.782799
Si Si6 0.910263 0.165296 0.243154
Si Si7 0.354213 0.161886 0.966929
O O1 0.257771 0.190033 0.777281
O O2 0.148967 0.213868 0.778791
O O3 0.178579 0.000000 0.869254
O O4 0.174336 0.246854 0.939655
O O5 0.412473 0.500000 0.640782
O O6 0.485382 0.282040 0.629930
O O7 0.415874 0.281081 0.524969
O O8 0.369605 0.261349 0.710713
O O9 0.450851 0.500000 0.423052
O O10 0.406643 0.711168 0.350755
O O11 0.998855 0.500000 0.141310
O O12 0.968081 0.235368 0.171655
O O13 0.077730 0.294159 0.085850
O O14 0.000000 0.332148 0.000000
O O15 0.319440 0.809423 0.892112
O O16 0.343203 0.000000 0.755372
O O17 0.919653 0.000000 0.229974
O O18 0.350436 0.000000 0.999429
#
# Coordination Sequence:
#
# PCOD8086087 Si02
#       7
#     8   8   8   8   8   8   8
#     4  10  21  34  48  69  99 132 165 201 235 278
#     4   9  17  33  56  77  96 122 159 201 242 288
#     4   8  16  32  54  78 100 121 153 201 249 286
#     4  10  19  31  47  70 100 127 155 198 245 285
#     4  10  21  35  49  70 100 130 162 201 243 281
#     4  10  19  32  51  73  98 130 163 196 239 288
#     4  10  20  34  51  69  95 132 165 199 243 286
#
# _framework density 17.699071
#
# number of rings (size 3 to 8) (size 9 to 14) (size 15 to 20)
#    0.000    2.429    1.429    2.143    0.000    2.000 
#    0.000    2.857    0.000    0.000    0.000    0.000 
#    0.000    0.000    0.000    0.000    0.000    0.000 
#
# Total GULP energy -347134.692267 kJ/mol
# GULP energy per Si atom -12397.667581 kJ/mol
# Density = 1.765879 g / cm^3
# Si number density = 17.699071 Si / 1000 Ang^3
#
#
#
# Elastic Constant Matrix: (Units=GPa)
#
#
# Indices 1 2 3 4 5 6 
#
# 1 94.1325 31.5828 53.2740 0.0000 7.4436 0.0000
# 2 31.5828 43.9305 42.3423 0.0000 -2.9674 0.0000
# 3 53.2740 42.3423 95.5646 0.0000 5.1292 0.0000
# 4 0.0000 0.0000 0.0000 22.5710 0.0000 -2.7355
# 5 7.4436 -2.9674 5.1292 0.0000 15.9213 0.0000
# 6 0.0000 0.0000 0.0000 -2.7355 0.0000 23.6778
#
#
#
# Elastic Compliance Matrix: (Units=1/GPa)
#
#
# Indices 1 2 3 4 5 6 
#
# 1 0.016885 -0.006861 -0.005984 0.000000 -0.007245 0.000000
# 2 -0.006861 0.045496 -0.017259 0.000000 0.017247 0.000000
# 3 -0.005984 -0.017259 0.021847 0.000000 -0.007457 0.000000
# 4 0.000000 0.000000 0.000000 0.044934 0.000000 0.005191
# 5 -0.007245 0.017247 -0.007457 0.000000 0.071813 0.000000
# 6 0.000000 0.000000 0.000000 0.005191 0.000000 0.042833
#
#
# Mechanical properties :
#
#
# Convention : Reuss Voigt Hill
#
# Bulk Modulus (GPa) = 41.63156 54.22510 47.92833
# Shear Modulus (GPa) = 16.02448 19.52924 17.77686
#
# Velocity S-wave (km/s) = 3.01223 3.32536 3.17266
# Velocity P-wave (km/s) = 5.97252 6.74150 6.36862
#
# Compressibility (1/GPa) = 0.02402024
#
# Stress axis : x y z
#
# Youngs Moduli (GPa) = 59.22527 21.98009 45.77195
#
# Poissons Ratio (x) = 0.15079 0.27390
# Poissons Ratio (y) = 0.40632 0.78999
# Poissons Ratio (z) = 0.35441 0.37936
#
# Static dielectric constant tensor:
#      x y z
#    x 3.576920 0.000000 0.273890 
#    y 0.000000 3.133290 0.000000 
#    z 0.273890 0.000000 3.180650 
# 
# 
# High freq. dielectric constant tensor:
#      x y z
#    x 1.694010 0.000000 0.011340 
#    y 0.000000 1.667200 0.000000 
#    z 0.011340 0.000000 1.675300 
# 
# From -- ./inp_files/237354.got.cif
#   From: 2010.06.25/outbox.cif.g09.slc.cpg/sg12_119_cif.got.tgz:237354.got - 2010.06.28 00:19:55.
