data_PCOD8086783
_publ_section_title
;
Structure prediction by ZEFSAII (Michael W. Deem and Ramdas Pophale) SiO2 
 PCOD8086783
Probable space group: C 2/M
;
_chemical_formula_sum "Si O2"
_cell_formula_units_Z 64
_cell_length_a 28.953606
_cell_length_b 8.991356
_cell_length_c 25.521563
_cell_angle_alpha 90.000000
_cell_angle_beta 32.775721
_cell_angle_gamma 90.000000
_cell_volume 3596.788040
_symmetry_space_group_name_H-M "C 2/M"
_symmetry_group_IT_number 12
_symmetry_cell_setting 'monoclinic'
loop_
_space_group_symop_operation_xyz
x,y,z
-x,y,-z
-x,-y,-z
x,-y,z
1/2+x,1/2+y,z
1/2-x,1/2+y,-z
1/2-x,1/2-y,-z
1/2+x,1/2-y,z
loop_
_atom_site_type_symbol
_atom_site_label
_atom_site_fract_x
_atom_site_fract_y
_atom_site_fract_z
Si Si1 0.777608 0.327572 0.892612
Si Si2 0.787110 0.673756 0.342699
Si Si3 0.870091 0.168910 0.437208
Si Si4 0.436230 0.173815 0.273488
Si Si5 0.872402 0.673216 0.908864
Si Si6 0.692510 0.824158 0.343411
Si Si7 0.156806 0.175081 0.273562
Si Si8 0.460979 0.329621 0.455047
O O1 0.770897 0.500000 0.883992
O O2 0.844040 0.300687 0.876198
O O3 0.809722 0.234771 0.813089
O O4 0.684658 0.268981 0.997405
O O5 0.776333 0.500000 0.339384
O O6 0.719552 0.718800 0.452036
O O7 0.881485 0.712644 0.273798
O O8 0.768933 0.767330 0.307784
O O9 0.888450 0.267673 0.369857
O O10 0.944735 0.191445 0.408736
O O11 0.865750 0.000000 0.422007
O O12 0.531705 0.236964 0.176248
O O13 0.442455 0.000000 0.276106
O O14 0.864767 0.500000 0.931525
O O15 0.707998 0.754341 0.271459
O O16 0.600535 0.775029 0.452830
O O17 0.696344 0.000000 0.335883
O O18 0.057408 0.215484 0.375054
O O19 0.172502 0.000000 0.260774
O O20 0.441759 0.500000 0.489927
#
# Coordination Sequence:
#
# PCOD8086783 Si02
#       8
#     8   8   8   8   8   8   8   8
#     4  10  20  34  53  78 107 134 163 202 246 297
#     4   9  19  35  50  68  99 137 173 208 250 297
#     4   9  17  29  46  71 104 135 165 202 244 296
#     4  10  19  31  51  75  99 131 171 211 248 294
#     4   9  19  35  53  76 105 134 164 201 249 300
#     4  11  22  34  50  73 101 133 171 213 251 289
#     4  11  21  34  54  75 100 135 170 205 249 300
#     4   9  19  34  50  72 103 138 171 202 244 298
#
# _framework density 17.793652999999999
#
# number of rings (size 3 to 8) (size 9 to 14) (size 15 to 20)
#    0.000    2.250    0.000    4.125    0.000    6.000 
#    0.000    0.000    0.000    0.750    0.000    5.250 
#    0.000    0.000    0.000    0.000    0.000    0.000 
#
# Total GULP energy -396863.954785 kJ/mol
# GULP energy per Si atom -12401.998587 kJ/mol
# Density = 1.775315 g / cm^3
# Si number density = 17.793653 Si / 1000 Ang^3
#
#
#
# Elastic Constant Matrix: (Units=GPa)
#
#
# Indices 1 2 3 4 5 6 
#
# 1 104.9500 52.9064 53.8697 -0.0018 -9.8695 -0.0015
# 2 52.9064 80.9319 46.8242 -0.0182 3.1764 0.0118
# 3 53.8697 46.8242 65.3502 0.0174 -6.5085 -0.0048
# 4 -0.0018 -0.0182 0.0174 29.0091 -0.0012 7.3333
# 5 -9.8695 3.1764 -6.5085 -0.0012 26.9568 -0.0011
# 6 -0.0015 0.0118 -0.0048 7.3333 -0.0011 24.5309
#
#
#
# Elastic Compliance Matrix: (Units=1/GPa)
#
#
# Indices 1 2 3 4 5 6 
#
# 1 0.018404 -0.006394 -0.010086 0.000003 0.005057 0.000002
# 2 -0.006394 0.024421 -0.013061 0.000028 -0.008372 -0.000024
# 3 -0.010086 -0.013061 0.033567 -0.000034 0.005951 0.000023
# 4 0.000003 0.000028 -0.000034 0.037290 -0.000009 -0.011148
# 5 0.005057 -0.008372 0.005951 -0.000009 0.041371 0.000010
# 6 0.000002 -0.000024 0.000023 -0.011148 0.000010 0.044097
#
#
# Mechanical properties :
#
#
# Convention : Reuss Voigt Hill
#
# Bulk Modulus (GPa) = 57.76855 62.04804 59.90830
# Shear Modulus (GPa) = 18.93911 22.60816 20.77363
#
# Velocity S-wave (km/s) = 3.26601 3.56838 3.42054
# Velocity P-wave (km/s) = 6.83804 7.20586 7.02435
#
# Compressibility (1/GPa) = 0.01731046
#
# Stress axis : x y z
#
# Youngs Moduli (GPa) = 54.33521 40.94777 29.79087
#
# Poissons Ratio (x) = 0.26183 0.30047
# Poissons Ratio (y) = 0.34743 0.38910
# Poissons Ratio (z) = 0.54802 0.53482
#
# Static dielectric constant tensor:
#      x y z
#    x 3.474140 -0.000020 -0.127230 
#    y -0.000020 3.236420 0.000030 
#    z -0.127230 0.000030 3.151860 
# 
# 
# High freq. dielectric constant tensor:
#      x y z
#    x 1.693300 0.000000 -0.000770 
#    y 0.000000 1.687860 0.000000 
#    z -0.000770 0.000000 1.665180 
# 
# From -- ./inp_files/353262.got.cif
#   From: 2010.06.25/outbox.cif.g09.slc.cpg/sg12_177_cif.got.tgz:353262.got - 2010.06.28 00:19:55.
