data_PCOD8086853
_publ_section_title
;
Structure prediction by ZEFSAII (Michael W. Deem and Ramdas Pophale) SiO2 
 PCOD8086853
Probable space group: C 2/M
;
_chemical_formula_sum "Si O2"
_cell_formula_units_Z 56
_cell_length_a 19.068497
_cell_length_b 8.749040
_cell_length_c 28.179960
_cell_angle_alpha 90.000000
_cell_angle_beta 140.993593
_cell_angle_gamma 90.000000
_cell_volume 2959.027532
_symmetry_space_group_name_H-M "C 2/M"
_symmetry_group_IT_number 12
_symmetry_cell_setting 'monoclinic'
loop_
_space_group_symop_operation_xyz
x,y,z
-x,y,-z
-x,-y,-z
x,-y,z
1/2+x,1/2+y,z
1/2-x,1/2+y,-z
1/2-x,1/2-y,-z
1/2+x,1/2-y,z
loop_
_atom_site_type_symbol
_atom_site_label
_atom_site_fract_x
_atom_site_fract_y
_atom_site_fract_z
Si Si1 0.366670 0.177847 0.294428
Si Si2 0.610870 0.821481 0.585155
Si Si3 0.339178 0.176303 0.691019
Si Si4 0.083885 0.175570 0.938733
Si Si5 0.816056 0.677139 0.100491
Si Si6 0.041439 0.820975 0.746295
Si Si7 0.861538 0.675663 0.813036
O O1 0.403093 0.219543 0.366931
O O2 0.447603 0.273743 0.302851
O O3 0.238493 0.224519 0.218442
O O4 0.380769 0.000000 0.290763
O O5 0.500000 0.768723 0.500000
O O6 0.712866 0.729206 0.615855
O O7 0.635142 0.000000 0.590958
O O8 0.419461 0.275054 0.700096
O O9 0.374311 0.205048 0.763694
O O10 0.351044 0.000000 0.683118
O O11 0.125010 0.223351 0.908539
O O12 0.976697 0.273170 0.898362
O O13 0.047658 0.000000 0.917164
O O14 0.182642 0.202211 0.028696
O O15 0.846756 0.500000 0.108052
O O16 0.860936 0.731445 0.174660
O O17 0.058772 0.000000 0.761840
O O18 0.836624 0.500000 0.811526
#
# Coordination Sequence:
#
# PCOD8086853 Si02
#       7
#     8   8   8   8   8   8   8
#     4  10  21  37  58  81 112 146 179 223 277 331
#     4   9  19  38  63  89 114 142 178 220 268 325
#     4  10  20  34  56  84 112 145 184 224 269 322
#     4  10  19  31  51  78 107 142 186 232 279 325
#     4  10  20  33  50  76 109 144 184 232 280 325
#     4  12  23  36  55  80 112 147 187 229 275 329
#     4  10  19  33  54  79 109 143 186 233 273 324
#
# _framework density 18.925136999999999
#
# number of rings (size 3 to 8) (size 9 to 14) (size 15 to 20)
#    0.000    1.857    1.429    3.429    0.000    3.714 
#    0.000    1.429    0.000    4.286    0.000    0.000 
#    0.000    0.000    0.000    0.000    0.000    0.000 
#
# Total GULP energy -347322.373415 kJ/mol
# GULP energy per Si atom -12404.370479 kJ/mol
# Density = 1.888206 g / cm^3
# Si number density = 18.925137 Si / 1000 Ang^3
#
#
#
# Elastic Constant Matrix: (Units=GPa)
#
#
# Indices 1 2 3 4 5 6 
#
# 1 86.6666 29.5931 38.6739 0.0000 6.7058 0.0000
# 2 29.5931 64.3108 34.4574 0.0000 7.4183 0.0002
# 3 38.6739 34.4574 110.6232 0.0000 17.3662 0.0000
# 4 0.0000 0.0000 0.0000 26.6067 0.0000 4.3611
# 5 6.7058 7.4183 17.3662 0.0000 21.1260 0.0000
# 6 0.0000 0.0002 0.0000 4.3611 0.0000 33.5225
#
#
#
# Elastic Compliance Matrix: (Units=1/GPa)
#
#
# Indices 1 2 3 4 5 6 
#
# 1 0.014837 -0.004860 -0.003676 0.000000 0.000019 0.000000
# 2 -0.004860 0.020333 -0.004312 0.000000 -0.002053 0.000000
# 3 -0.003676 -0.004312 0.012914 0.000000 -0.007934 0.000000
# 4 0.000000 0.000000 0.000000 0.038403 0.000000 -0.004996
# 5 0.000019 -0.002053 -0.007934 0.000000 0.054572 0.000000
# 6 0.000000 0.000000 0.000000 -0.004996 0.000000 0.030481
#
#
# Mechanical properties :
#
#
# Convention : Reuss Voigt Hill
#
# Bulk Modulus (GPa) = 44.66857 51.89437 48.28147
# Shear Modulus (GPa) = 24.42620 26.84280 25.63450
#
# Velocity S-wave (km/s) = 3.59649 3.77021 3.68437
# Velocity P-wave (km/s) = 6.39534 6.81418 6.60808
#
# Compressibility (1/GPa) = 0.02238711
#
# Stress axis : x y z
#
# Youngs Moduli (GPa) = 67.39961 49.18115 77.43752
#
# Poissons Ratio (x) = 0.23901 0.28468
# Poissons Ratio (y) = 0.32755 0.33393
# Poissons Ratio (z) = 0.24777 0.21208
#
# Static dielectric constant tensor:
#      x y z
#    x 3.285900 0.000000 0.120100 
#    y 0.000000 3.506430 0.000000 
#    z 0.120100 0.000000 3.471240 
# 
# 
# High freq. dielectric constant tensor:
#      x y z
#    x 1.719850 0.000000 0.016290 
#    y 0.000000 1.747900 0.000000 
#    z 0.016290 0.000000 1.723550 
# 
# From -- ./inp_files/342347.got.cif
#   From: 2010.06.25/outbox.cif.g09.slc.cpg/sg12_172_cif.got.tgz:342347.got - 2010.06.28 00:19:55.
