data_PCOD8086578
_publ_section_title
;
Structure prediction by ZEFSAII (Michael W. Deem and Ramdas Pophale) SiO2 
 PCOD8086578
Probable space group: C 2/M
;
_chemical_formula_sum "Si O2"
_cell_formula_units_Z 64
_cell_length_a 30.078405
_cell_length_b 8.890645
_cell_length_c 23.059746
_cell_angle_alpha 90.000000
_cell_angle_beta 38.883365
_cell_angle_gamma 90.000000
_cell_volume 3870.975067
_symmetry_space_group_name_H-M "C 2/M"
_symmetry_group_IT_number 12
_symmetry_cell_setting 'monoclinic'
loop_
_space_group_symop_operation_xyz
x,y,z
-x,y,-z
-x,-y,-z
x,-y,z
1/2+x,1/2+y,z
1/2-x,1/2+y,-z
1/2-x,1/2-y,-z
1/2+x,1/2-y,z
loop_
_atom_site_type_symbol
_atom_site_label
_atom_site_fract_x
_atom_site_fract_y
_atom_site_fract_z
Si Si1 0.501517 0.822369 0.381126
Si Si2 0.149241 0.677222 0.414614
Si Si3 0.851201 0.826007 0.374882
Si Si4 0.006175 0.175642 0.251826
Si Si5 0.735843 0.675025 0.423135
Si Si6 0.216491 0.172170 0.113761
Si Si7 0.630540 0.674794 0.312998
Si Si8 0.141099 0.326694 0.086970
O O1 0.424646 0.772660 0.481676
O O2 0.513214 0.761137 0.305140
O O3 0.558350 0.754391 0.367328
O O4 0.510354 0.000000 0.371547
O O5 0.153760 0.500000 0.401942
O O6 0.213499 0.732497 0.389414
O O7 0.158849 0.754958 0.343213
O O8 0.933897 0.784026 0.291960
O O9 0.814241 0.726381 0.362912
O O10 0.819386 0.785913 0.469904
O O11 0.837971 0.000000 0.373616
O O12 0.070964 0.228517 0.145122
O O13 0.010569 0.000000 0.260947
O O14 0.736650 0.500000 0.407076
O O15 0.193195 0.201713 0.203068
O O16 0.172618 0.282796 0.117406
O O17 0.200354 0.000000 0.111219
O O18 0.300489 0.205369 0.022153
O O19 0.614037 0.500000 0.338267
O O20 0.118883 0.500000 0.111305
#
# Coordination Sequence:
#
# PCOD8086578 Si02
#       8
#     8   8   8   8   8   8   8   8
#     4  11  22  34  48  70 100 135 173 208 243 286
#     4  11  23  36  50  70 101 135 171 210 247 291
#     4   9  19  33  50  72 100 130 162 204 250 294
#     4  11  20  32  50  74 103 134 166 201 247 299
#     4  10  19  33  52  73  97 129 168 205 246 294
#     4   9  19  34  49  70  98 130 166 207 250 294
#     4  11  22  35  52  71  97 134 174 210 247 292
#     4  10  19  31  50  73  99 129 164 205 250 298
#
# _framework density 16.533301000000002
#
# number of rings (size 3 to 8) (size 9 to 14) (size 15 to 20)
#    0.000    1.750    2.500    2.625    0.000    5.500 
#    0.000    0.000    0.000    0.000    0.000    0.875 
#    0.000    7.000    0.000    0.000    0.000    0.000 
#
# Total GULP energy -396912.959541 kJ/mol
# GULP energy per Si atom -12403.529986 kJ/mol
# Density = 1.649567 g / cm^3
# Si number density = 16.533301 Si / 1000 Ang^3
#
#
#
# Elastic Constant Matrix: (Units=GPa)
#
#
# Indices 1 2 3 4 5 6 
#
# 1 101.4621 40.2597 47.1691 0.0217 -9.1558 -0.0044
# 2 40.2597 67.8140 34.7606 0.0099 -4.0152 -0.0111
# 3 47.1691 34.7606 74.8441 0.0132 -11.7211 -0.0053
# 4 0.0217 0.0099 0.0132 24.4701 -0.0212 -0.6446
# 5 -9.1558 -4.0152 -11.7211 -0.0212 21.2801 0.0003
# 6 -0.0044 -0.0111 -0.0053 -0.6446 0.0003 29.9313
#
#
#
# Elastic Compliance Matrix: (Units=1/GPa)
#
#
# Indices 1 2 3 4 5 6 
#
# 1 0.015397 -0.005519 -0.006858 -0.000006 0.001806 -0.000001
# 2 -0.005519 0.021371 -0.006772 -0.000002 -0.002072 0.000006
# 3 -0.006858 -0.006772 0.022070 0.000004 0.007928 0.000000
# 4 -0.000006 -0.000002 0.000004 0.040889 0.000040 0.000881
# 5 0.001806 -0.002072 0.007928 0.000040 0.051745 0.000001
# 6 -0.000001 0.000006 0.000000 0.000881 0.000001 0.033429
#
#
# Mechanical properties :
#
#
# Convention : Reuss Voigt Hill
#
# Bulk Modulus (GPa) = 48.68326 54.27767 51.48047
# Shear Modulus (GPa) = 21.73495 23.26502 22.49998
#
# Velocity S-wave (km/s) = 3.62970 3.75528 3.69302
# Velocity P-wave (km/s) = 6.86118 7.19051 7.02777
#
# Compressibility (1/GPa) = 0.02054094
#
# Stress axis : x y z
#
# Youngs Moduli (GPa) = 64.94912 46.79212 45.31087
#
# Poissons Ratio (x) = 0.25823 0.31072
# Poissons Ratio (y) = 0.35843 0.30685
# Poissons Ratio (z) = 0.44539 0.31688
#
# Static dielectric constant tensor:
#      x y z
#    x 3.030920 -0.000050 -0.193420 
#    y -0.000050 3.214880 0.000050 
#    z -0.193420 0.000050 3.177970 
# 
# 
# High freq. dielectric constant tensor:
#      x y z
#    x 1.619650 0.000000 -0.014270 
#    y 0.000000 1.652320 0.000000 
#    z -0.014270 0.000000 1.621010 
# 
# From -- ./inp_files/326818.got.cif
#   From: 2010.06.25/outbox.cif.g09.slc.cpg/sg12_164_cif.got.tgz:326818.got - 2010.06.28 00:19:55.
