data_PCOD8086335
_publ_section_title
;
Structure prediction by ZEFSAII (Michael W. Deem and Ramdas Pophale) SiO2 
 PCOD8086335
Probable space group: C 2/M
;
_chemical_formula_sum "Si O2"
_cell_formula_units_Z 48
_cell_length_a 27.697167
_cell_length_b 9.156565
_cell_length_c 11.432765
_cell_angle_alpha 90.000000
_cell_angle_beta 103.073983
_cell_angle_gamma 90.000000
_cell_volume 2824.316048
_symmetry_space_group_name_H-M "C 2/M"
_symmetry_group_IT_number 12
_symmetry_cell_setting 'monoclinic'
loop_
_space_group_symop_operation_xyz
x,y,z
-x,y,-z
-x,-y,-z
x,-y,z
1/2+x,1/2+y,z
1/2-x,1/2+y,-z
1/2-x,1/2-y,-z
1/2+x,1/2-y,z
loop_
_atom_site_type_symbol
_atom_site_label
_atom_site_fract_x
_atom_site_fract_y
_atom_site_fract_z
Si Si1 0.949567 0.168223 0.902005
Si Si2 0.024653 0.172961 0.339650
Si Si3 0.141684 0.672176 0.037790
Si Si4 0.735970 0.669493 0.109967
Si Si5 0.925003 0.172612 0.399589
Si Si6 0.842931 0.333775 0.222793
O O1 0.957890 0.232103 0.776175
O O2 0.909728 0.270173 0.941371
O O3 0.931358 0.000000 0.890033
O O4 0.000000 0.182496 0.000000
O O5 0.063709 0.221627 0.460769
O O6 0.969613 0.231366 0.341313
O O7 0.021104 0.000000 0.333392
O O8 0.146329 0.500000 0.059800
O O9 0.186740 0.751602 0.133238
O O10 0.145062 0.715436 0.903209
O O11 0.724518 0.500000 0.078798
O O12 0.784232 0.685028 0.220009
O O13 0.750000 0.750000 0.000000
O O14 0.872956 0.238125 0.331432
O O15 0.920841 0.000000 0.388910
O O16 0.859541 0.500000 0.248496
#
# Coordination Sequence:
#
# PCOD8086335 Si02
#       6
#     8   8   8   8   8   8
#     4  10  19  31  49  71  95 125 158 189 228 282
#     4   8  16  30  46  69  96 120 153 193 229 267
#     4  10  20  32  46  68  98 127 155 192 235 276
#     4   9  17  30  47  68  95 124 153 191 236 278
#     4   9  16  29  50  69  90 122 156 191 227 271
#     4   9  18  30  45  69  97 119 147 191 235 272
#
# _framework density 16.995263999999999
#
# number of rings (size 3 to 8) (size 9 to 14) (size 15 to 20)
#    0.000    2.833    0.000    4.000    0.000    5.667 
#    0.000    3.333    0.000    1.000    0.000    0.000 
#    0.000    0.000    0.000    0.000    0.000    0.000 
#
# Total GULP energy -297468.470854 kJ/mol
# GULP energy per Si atom -12394.519619 kJ/mol
# Density = 1.695658 g / cm^3
# Si number density = 16.995264 Si / 1000 Ang^3
#
#
#
# Elastic Constant Matrix: (Units=GPa)
#
#
# Indices 1 2 3 4 5 6 
#
# 1 93.2162 44.3416 41.8943 0.0000 14.4817 0.0000
# 2 44.3416 68.1788 32.4629 0.0000 10.2246 0.0000
# 3 41.8943 32.4629 86.3059 0.0000 9.3706 0.0000
# 4 0.0000 0.0000 0.0000 19.7352 0.0000 4.6502
# 5 14.4817 10.2246 9.3706 0.0000 26.2671 0.0000
# 6 0.0000 0.0000 0.0000 4.6502 0.0000 31.3938
#
#
#
# Elastic Compliance Matrix: (Units=1/GPa)
#
#
# Indices 1 2 3 4 5 6 
#
# 1 0.017684 -0.008468 -0.004888 0.000000 -0.004710 0.000000
# 2 -0.008468 0.022508 -0.004069 0.000000 -0.002641 0.000000
# 3 -0.004888 -0.004069 0.015631 0.000000 -0.001298 0.000000
# 4 0.000000 0.000000 0.000000 0.052503 0.000000 -0.007777
# 5 -0.004710 -0.002641 -0.001298 0.000000 0.042158 0.000000
# 6 0.000000 0.000000 0.000000 -0.007777 0.000000 0.033005
#
#
# Mechanical properties :
#
#
# Convention : Reuss Voigt Hill
#
# Bulk Modulus (GPa) = 47.67819 53.89984 50.78901
# Shear Modulus (GPa) = 22.18968 24.07936 23.13452
#
# Velocity S-wave (km/s) = 3.61728 3.76816 3.69349
# Velocity P-wave (km/s) = 6.74989 7.12148 6.93817
#
# Compressibility (1/GPa) = 0.02097395
#
# Stress axis : x y z
#
# Youngs Moduli (GPa) = 56.54788 44.42868 63.97671
#
# Poissons Ratio (x) = 0.37621 0.31270
# Poissons Ratio (y) = 0.47883 0.26032
# Poissons Ratio (z) = 0.27639 0.18078
#
# Static dielectric constant tensor:
#      x y z
#    x 3.672770 0.000000 0.106540 
#    y 0.000000 3.064220 0.000000 
#    z 0.106540 0.000000 3.191420 
# 
# 
# High freq. dielectric constant tensor:
#      x y z
#    x 1.657810 0.000000 0.017520 
#    y 0.000000 1.644120 0.000000 
#    z 0.017520 0.000000 1.630550 
# 
# From -- ./inp_files/179194.got.cif
#   From: 2010.06.25/outbox.cif.g09.slc.cpg/sg12_90_cif.got.tgz:179194.got - 2010.06.28 00:19:55.
