data_PCOD8086630
_publ_section_title
;
Structure prediction by ZEFSAII (Michael W. Deem and Ramdas Pophale) SiO2 
 PCOD8086630
Probable space group: C 2/M
;
_chemical_formula_sum "Si O2"
_cell_formula_units_Z 48
_cell_length_a 18.530104
_cell_length_b 8.700405
_cell_length_c 24.045685
_cell_angle_alpha 90.000000
_cell_angle_beta 136.075492
_cell_angle_gamma 90.000000
_cell_volume 2689.257697
_symmetry_space_group_name_H-M "C 2/M"
_symmetry_group_IT_number 12
_symmetry_cell_setting 'monoclinic'
loop_
_space_group_symop_operation_xyz
x,y,z
-x,y,-z
-x,-y,-z
x,-y,z
1/2+x,1/2+y,z
1/2-x,1/2+y,-z
1/2-x,1/2-y,-z
1/2+x,1/2-y,z
loop_
_atom_site_type_symbol
_atom_site_label
_atom_site_fract_x
_atom_site_fract_y
_atom_site_fract_z
Si Si1 0.998648 0.332509 0.168901
Si Si2 0.690415 0.681825 0.415031
Si Si3 0.224890 0.318743 0.762634
Si Si4 0.739461 0.170082 0.330223
Si Si5 0.530811 0.816400 0.729493
Si Si6 0.441937 0.815862 0.912756
O O1 0.946672 0.500000 0.133927
O O2 0.119859 0.347212 0.248983
O O3 0.947806 0.251653 0.195111
O O4 0.992561 0.250326 0.104819
O O5 0.690851 0.500000 0.417876
O O6 0.750000 0.750000 0.500000
O O7 0.751702 0.734582 0.393707
O O8 0.572462 0.741253 0.352392
O O9 0.238381 0.500000 0.767598
O O10 0.203605 0.257000 0.688788
O O11 0.325656 0.248123 0.848221
O O12 0.126919 0.267656 0.745078
O O13 0.788690 0.000000 0.365024
O O14 0.514338 0.000000 0.722894
O O15 0.436318 0.000000 0.906367
O O16 0.500000 0.757427 0.000000
#
# Coordination Sequence:
#
# PCOD8086630 Si02
#       6
#     8   8   8   8   8   8
#     4   7  12  26  47  66  88 124 164 199 240 292
#     4  11  21  34  54  78 103 131 166 205 245 293
#     4  10  19  31  50  75 101 130 167 211 254 297
#     4   9  17  32  52  72  98 131 166 203 246 299
#     4   9  18  33  51  72 100 133 168 207 252 298
#     4   9  17  30  49  71  96 131 174 215 254 299
#
# _framework density 17.848790000000001
#
# number of rings (size 3 to 8) (size 9 to 14) (size 15 to 20)
#    0.000    2.833    0.000    4.500    0.000    1.667 
#    0.000    1.667    0.000    5.000    0.000    0.000 
#    0.000    0.000    0.000    0.000    0.000    0.000 
#
# Total GULP energy -297345.942089 kJ/mol
# GULP energy per Si atom -12389.414254 kJ/mol
# Density = 1.780817 g / cm^3
# Si number density = 17.848790 Si / 1000 Ang^3
#
#
#
# Elastic Constant Matrix: (Units=GPa)
#
#
# Indices 1 2 3 4 5 6 
#
# 1 166.8076 46.0329 80.1352 0.0000 -30.1904 0.0000
# 2 46.0329 74.6522 41.1460 0.0000 -7.7604 0.0000
# 3 80.1352 41.1460 122.6210 0.0000 -30.8514 0.0000
# 4 0.0000 0.0000 0.0000 23.0230 0.0000 -1.5241
# 5 -30.1904 -7.7604 -30.8514 0.0000 27.9823 0.0000
# 6 0.0000 0.0000 0.0000 -1.5241 0.0000 24.1620
#
#
#
# Elastic Compliance Matrix: (Units=1/GPa)
#
#
# Indices 1 2 3 4 5 6 
#
# 1 0.009750 -0.003291 -0.003944 0.000000 0.005257 0.000000
# 2 -0.003291 0.017636 -0.004746 0.000000 -0.003893 0.000000
# 3 -0.003944 -0.004746 0.015117 0.000000 0.011095 0.000000
# 4 0.000000 0.000000 0.000000 0.043617 0.000000 0.002751
# 5 0.005257 -0.003893 0.011095 0.000000 0.052562 0.000000
# 6 0.000000 0.000000 0.000000 0.002751 0.000000 0.041561
#
#
# Mechanical properties :
#
#
# Convention : Reuss Voigt Hill
#
# Bulk Modulus (GPa) = 53.94116 77.63433 65.78775
# Shear Modulus (GPa) = 23.76569 28.15126 25.95847
#
# Velocity S-wave (km/s) = 3.65293 3.97572 3.81774
# Velocity P-wave (km/s) = 6.93388 8.04146 7.50812
#
# Compressibility (1/GPa) = 0.01853872
#
# Stress axis : x y z
#
# Youngs Moduli (GPa) = 102.56751 56.70078 66.14984
#
# Poissons Ratio (x) = 0.18662 0.26092
# Poissons Ratio (y) = 0.33759 0.31398
# Poissons Ratio (z) = 0.40457 0.26913
#
# Static dielectric constant tensor:
#      x y z
#    x 3.685870 0.000000 -0.536070 
#    y 0.000000 3.228540 0.000000 
#    z -0.536070 0.000000 3.291210 
# 
# 
# High freq. dielectric constant tensor:
#      x y z
#    x 1.694290 0.000000 -0.033990 
#    y 0.000000 1.678970 0.000000 
#    z -0.033990 0.000000 1.669960 
# 
# From -- ./inp_files/342054.got.cif
#   From: 2010.06.25/outbox.cif.g09.slc.cpg/sg12_172_cif.got.tgz:342054.got - 2010.06.28 00:19:55.
