data_PCOD8086550
_publ_section_title
;
Structure prediction by ZEFSAII (Michael W. Deem and Ramdas Pophale) SiO2 
 PCOD8086550
Probable space group: C 2/M
;
_chemical_formula_sum "Si O2"
_cell_formula_units_Z 64
_cell_length_a 28.791022
_cell_length_b 8.797344
_cell_length_c 14.333086
_cell_angle_alpha 90.000000
_cell_angle_beta 93.281570
_cell_angle_gamma 90.000000
_cell_volume 3624.396123
_symmetry_space_group_name_H-M "C 2/M"
_symmetry_group_IT_number 12
_symmetry_cell_setting 'monoclinic'
loop_
_space_group_symop_operation_xyz
x,y,z
-x,y,-z
-x,-y,-z
x,-y,z
1/2+x,1/2+y,z
1/2-x,1/2+y,-z
1/2-x,1/2-y,-z
1/2+x,1/2-y,z
loop_
_atom_site_type_symbol
_atom_site_label
_atom_site_fract_x
_atom_site_fract_y
_atom_site_fract_z
Si Si1 0.010435 0.319402 0.897686
Si Si2 0.272507 0.821002 0.797721
Si Si3 0.797899 0.174502 0.474958
Si Si4 0.681581 0.821064 0.716412
Si Si5 0.655452 0.675094 0.330053
Si Si6 0.388269 0.819250 0.138600
Si Si7 0.082776 0.679403 0.205442
Si Si8 0.347431 0.820747 0.945641
O O1 0.012391 0.500000 0.905593
O O2 0.059270 0.254680 0.863815
O O3 0.970369 0.270738 0.819876
O O4 0.000000 0.253459 0.000000
O O5 0.224904 0.729892 0.784423
O O6 0.306227 0.777861 0.716528
O O7 0.297128 0.772578 0.898361
O O8 0.262708 0.000000 0.791467
O O9 0.750000 0.250000 0.500000
O O10 0.819000 0.245854 0.384387
O O11 0.837063 0.194735 0.558627
O O12 0.786603 0.000000 0.453709
O O13 0.634977 0.769919 0.766367
O O14 0.684327 0.000000 0.703004
O O15 0.661882 0.500000 0.300817
O O16 0.603576 0.733811 0.298201
O O17 0.389221 0.000000 0.131609
O O18 0.357164 0.752217 0.049310
O O19 0.087206 0.500000 0.223076
O O20 0.112178 0.734472 0.119381
O O21 0.350192 0.000000 0.951169
#
# Coordination Sequence:
#
# PCOD8086550 Si02
#       8
#     8   8   8   8   8   8   8   8
#     4   9  14  25  50  80 105 133 172 214 251 292
#     4  10  19  31  50  73 100 135 175 213 246 295
#     4  11  22  36  56  76  97 129 171 216 258 307
#     4  11  22  33  48  73 106 141 171 207 259 307
#     4  10  20  33  51  75 101 128 161 207 264 314
#     4   9  17  29  46  73 108 139 172 213 253 299
#     4   9  16  27  50  81 105 129 165 209 254 298
#     4   8  14  26  44  71 102 133 168 206 248 292
#
# _framework density 17.658114999999999
#
# number of rings (size 3 to 8) (size 9 to 14) (size 15 to 20)
#    0.000    2.375    2.500    2.250    0.000    2.000 
#    0.000    0.000    0.000    9.375    0.000    5.250 
#    0.000    0.000    0.000    0.000    0.000    0.000 
#
# Total GULP energy -396645.920662 kJ/mol
# GULP energy per Si atom -12395.185021 kJ/mol
# Density = 1.761792 g / cm^3
# Si number density = 17.658115 Si / 1000 Ang^3
#
#
#
# Elastic Constant Matrix: (Units=GPa)
#
#
# Indices 1 2 3 4 5 6 
#
# 1 123.0898 28.9103 76.4066 0.0000 3.4125 0.0000
# 2 28.9103 54.4096 43.0202 0.0000 1.5403 0.0000
# 3 76.4066 43.0202 120.7344 0.0000 3.2528 0.0000
# 4 0.0000 0.0000 0.0000 20.7432 0.0000 4.9787
# 5 3.4125 1.5403 3.2528 0.0000 27.0405 0.0000
# 6 0.0000 0.0000 0.0000 4.9787 0.0000 17.9957
#
#
#
# Elastic Compliance Matrix: (Units=1/GPa)
#
#
# Indices 1 2 3 4 5 6 
#
# 1 0.013405 -0.000572 -0.008262 0.000000 -0.000665 0.000000
# 2 -0.000572 0.025616 -0.008757 0.000000 -0.000334 0.000000
# 3 -0.008262 -0.008757 0.016644 0.000000 -0.000461 0.000000
# 4 0.000000 0.000000 0.000000 0.051637 0.000000 -0.014286
# 5 -0.000665 -0.000334 -0.000461 0.000000 0.037140 0.000000
# 6 0.000000 0.000000 0.000000 -0.014286 0.000000 0.059521
#
#
# Mechanical properties :
#
#
# Convention : Reuss Voigt Hill
#
# Bulk Modulus (GPa) = 48.81723 66.10090 57.45906
# Shear Modulus (GPa) = 20.32745 23.14900 21.73822
#
# Velocity S-wave (km/s) = 3.39657 3.62464 3.51245
# Velocity P-wave (km/s) = 6.56415 7.41838 7.00430
#
# Compressibility (1/GPa) = 0.02048457
#
# Stress axis : x y z
#
# Youngs Moduli (GPa) = 74.59706 39.03799 60.08214
#
# Poissons Ratio (x) = 0.02231 0.49640
# Poissons Ratio (y) = 0.04263 0.52613
# Poissons Ratio (z) = 0.61632 0.34185
#
# Static dielectric constant tensor:
#      x y z
#    x 3.420690 0.000000 0.220400 
#    y 0.000000 3.030640 0.000000 
#    z 0.220400 0.000000 3.438200 
# 
# 
# High freq. dielectric constant tensor:
#      x y z
#    x 1.670010 0.000000 0.019090 
#    y 0.000000 1.655810 0.000000 
#    z 0.019090 0.000000 1.678100 
# 
# From -- ./inp_files/248506.got.cif
#   From: 2010.06.25/outbox.cif.g09.slc.cpg/sg12_125_cif.got.tgz:248506.got - 2010.06.28 00:19:55.
