data_PCOD8086508
_publ_section_title
;
Structure prediction by ZEFSAII (Michael W. Deem and Ramdas Pophale) SiO2 
 PCOD8086508
Probable space group: C 2/M
;
_chemical_formula_sum "Si O2"
_cell_formula_units_Z 48
_cell_length_a 23.469341
_cell_length_b 8.715789
_cell_length_c 12.289314
_cell_angle_alpha 90.000000
_cell_angle_beta 75.475335
_cell_angle_gamma 90.000000
_cell_volume 2433.483701
_symmetry_space_group_name_H-M "C 2/M"
_symmetry_group_IT_number 12
_symmetry_cell_setting 'monoclinic'
loop_
_space_group_symop_operation_xyz
x,y,z
-x,y,-z
-x,-y,-z
x,-y,z
1/2+x,1/2+y,z
1/2-x,1/2+y,-z
1/2-x,1/2-y,-z
1/2+x,1/2-y,z
loop_
_atom_site_type_symbol
_atom_site_label
_atom_site_fract_x
_atom_site_fract_y
_atom_site_fract_z
Si Si1 0.252888 0.319696 0.824477
Si Si2 0.908728 0.173802 0.265629
Si Si3 0.865355 0.819847 0.060452
Si Si4 0.722122 0.324635 0.617099
Si Si5 0.009091 0.183830 0.372619
Si Si6 0.881309 0.819675 0.815050
O O1 0.250855 0.500000 0.845327
O O2 0.200872 0.244498 0.920192
O O3 0.243488 0.281129 0.703970
O O4 0.316602 0.249722 0.825836
O O5 0.900040 0.250463 0.148971
O O6 0.848188 0.182247 0.361136
O O7 0.958387 0.252856 0.317239
O O8 0.929355 0.000000 0.236457
O O9 0.857625 0.000000 0.085025
O O10 0.900006 0.783764 0.931736
O O11 0.743069 0.500000 0.623079
O O12 0.750000 0.250000 0.500000
O O13 0.070677 0.246287 0.292846
O O14 0.000000 0.246856 0.500000
O O15 0.006737 0.000000 0.375613
O O16 0.877931 0.000000 0.798049
#
# Coordination Sequence:
#
# PCOD8086508 Si02
#       6
#     8   8   8   8   8   8
#     4  10  19  31  49  76 105 132 168 208 254 308
#     4   8  16  29  46  69  98 130 162 208 257 299
#     4   9  17  32  50  73 105 131 166 214 260 305
#     4  10  20  33  51  76 103 135 171 208 253 299
#     4   9  17  28  44  69 101 133 166 209 261 304
#     4   9  18  29  46  73 102 136 170 209 257 305
#
# _framework density 19.724806999999998
#
# number of rings (size 3 to 8) (size 9 to 14) (size 15 to 20)
#    0.000    2.833    0.000    2.500    2.333    0.667 
#    0.000    4.167    0.000    0.000    0.000   23.333 
#    0.000    0.000    0.000    0.000    0.000    0.000 
#
# Total GULP energy -297398.515001 kJ/mol
# GULP energy per Si atom -12391.604792 kJ/mol
# Density = 1.967991 g / cm^3
# Si number density = 19.724807 Si / 1000 Ang^3
#
#
#
# Elastic Constant Matrix: (Units=GPa)
#
#
# Indices 1 2 3 4 5 6 
#
# 1 121.9409 11.0034 75.9531 0.0000 11.8276 0.0000
# 2 11.0034 20.9135 9.6467 0.0000 -3.0323 0.0000
# 3 75.9531 9.6467 144.0655 0.0000 -15.8256 0.0000
# 4 0.0000 0.0000 0.0000 18.3273 0.0000 -1.8687
# 5 11.8276 -3.0323 -15.8256 0.0000 31.2953 0.0000
# 6 0.0000 0.0000 0.0000 -1.8687 0.0000 17.1938
#
#
#
# Elastic Compliance Matrix: (Units=1/GPa)
#
#
# Indices 1 2 3 4 5 6 
#
# 1 0.015264 -0.005506 -0.008864 0.000000 -0.010785 0.000000
# 2 -0.005506 0.051649 0.000236 0.000000 0.007205 0.000000
# 3 -0.008864 0.000236 0.012673 0.000000 0.009781 0.000000
# 4 0.000000 0.000000 0.000000 0.055175 0.000000 0.005997
# 5 -0.010785 0.007205 0.009781 0.000000 0.041674 0.000000
# 6 0.000000 0.000000 0.000000 0.005997 0.000000 0.058812
#
#
# Mechanical properties :
#
#
# Convention : Reuss Voigt Hill
#
# Bulk Modulus (GPa) = 19.48618 53.34737 36.41678
# Shear Modulus (GPa) = 17.81760 26.05106 21.93433
#
# Velocity S-wave (km/s) = 3.00877 3.63812 3.33831
# Velocity P-wave (km/s) = 4.68730 6.68973 5.77595
#
# Compressibility (1/GPa) = 0.05131842
#
# Stress axis : x y z
#
# Youngs Moduli (GPa) = 65.51153 19.36149 78.90816
#
# Poissons Ratio (x) = 0.10661 0.69941
# Poissons Ratio (y) = 0.36074 -0.01863
# Poissons Ratio (z) = 0.58067 -0.00457
#
# Static dielectric constant tensor:
#      x y z
#    x 3.792660 0.000000 0.099500 
#    y 0.000000 3.082450 0.000000 
#    z 0.099500 0.000000 3.904170 
# 
# 
# High freq. dielectric constant tensor:
#      x y z
#    x 1.766850 0.000000 0.003210 
#    y 0.000000 1.707640 0.000000 
#    z 0.003210 0.000000 1.785450 
# 
# From -- ./inp_files/172203.got.cif
#   From: 2010.06.25/outbox.cif.g09.slc.cpg/sg12_87_cif.got.tgz:172203.got - 2010.06.28 00:19:55.
