data_PCOD8086727
_publ_section_title
;
Structure prediction by ZEFSAII (Michael W. Deem and Ramdas Pophale) SiO2 
 PCOD8086727
Probable space group: C 2/M
;
_chemical_formula_sum "Si O2"
_cell_formula_units_Z 64
_cell_length_a 32.542326
_cell_length_b 8.872288
_cell_length_c 24.709739
_cell_angle_alpha 90.000000
_cell_angle_beta 153.848777
_cell_angle_gamma 90.000000
_cell_volume 3144.391839
_symmetry_space_group_name_H-M "C 2/M"
_symmetry_group_IT_number 12
_symmetry_cell_setting 'monoclinic'
loop_
_space_group_symop_operation_xyz
x,y,z
-x,y,-z
-x,-y,-z
x,-y,z
1/2+x,1/2+y,z
1/2-x,1/2+y,-z
1/2-x,1/2-y,-z
1/2+x,1/2-y,z
loop_
_atom_site_type_symbol
_atom_site_label
_atom_site_fract_x
_atom_site_fract_y
_atom_site_fract_z
Si Si1 0.788484 0.177379 0.871822
Si Si2 0.060509 0.327530 0.121749
Si Si3 0.931145 0.321550 0.536511
Si Si4 0.744693 0.827018 0.278007
Si Si5 0.519100 0.824096 0.285468
Si Si6 0.006821 0.824991 0.851006
Si Si7 0.109830 0.833746 0.712410
Si Si8 0.155423 0.165242 0.888860
O O1 0.801816 0.264743 0.831442
O O2 0.694986 0.235724 0.790362
O O3 0.777738 0.000000 0.848367
O O4 0.881698 0.212767 0.016924
O O5 0.032068 0.500000 0.100342
O O6 0.169780 0.313359 0.237324
O O7 0.040918 0.227775 0.150490
O O8 0.000000 0.265888 0.000000
O O9 0.944114 0.500000 0.550303
O O10 0.833095 0.274340 0.396407
O O11 0.934366 0.265527 0.603404
O O12 0.010756 0.252612 0.591047
O O13 0.775687 0.000000 0.306587
O O14 0.552473 0.748498 0.268809
O O15 0.411378 0.777031 0.158127
O O16 0.532597 0.000000 0.295601
O O17 0.990172 0.000000 0.825850
O O18 0.121870 0.861092 0.789306
O O19 0.105552 0.000000 0.678983
O O20 0.161659 0.000000 0.925217
O O21 0.250000 0.250000 0.000000
#
# Coordination Sequence:
#
# PCOD8086727 Si02
#       8
#     8   8   8   8   8   8   8   8
#     4  11  23  37  56  87 123 156 194 243 296 347
#     4  10  21  40  64  90 120 153 190 236 294 357
#     4  10  22  41  62  85 117 157 199 244 292 343
#     4  11  23  40  64  89 115 153 196 241 292 352
#     4  10  21  37  58  82 114 156 196 239 291 347
#     4  11  23  37  60  92 124 155 192 244 296 349
#     4  10  21  36  55  81 114 155 200 243 286 342
#     4  10  19  31  50  77 111 151 195 242 291 344
#
# _framework density 20.353697
#
# number of rings (size 3 to 8) (size 9 to 14) (size 15 to 20)
#    0.000    1.625    1.250    3.375    0.000    8.250 
#    0.000    3.125    0.000    0.000    0.000    0.000 
#    0.000    0.000    0.000    0.000    0.000    0.000 
#
# Total GULP energy -396653.794150 kJ/mol
# GULP energy per Si atom -12395.431067 kJ/mol
# Density = 2.030737 g / cm^3
# Si number density = 20.353697 Si / 1000 Ang^3
#
#
#
# Elastic Constant Matrix: (Units=GPa)
#
#
# Indices 1 2 3 4 5 6 
#
# 1 77.7999 25.8610 2.4031 0.0000 0.1639 0.0000
# 2 25.8610 77.8597 17.3769 0.0000 -0.7553 0.0000
# 3 2.4031 17.3769 46.9605 0.0000 7.1648 0.0000
# 4 0.0000 0.0000 0.0000 28.4944 0.0000 0.6968
# 5 0.1639 -0.7553 7.1648 0.0000 29.6262 0.0000
# 6 0.0000 0.0000 0.0000 0.6968 0.0000 36.2095
#
#
#
# Elastic Compliance Matrix: (Units=1/GPa)
#
#
# Indices 1 2 3 4 5 6 
#
# 1 0.014511 -0.005097 0.001221 0.000000 -0.000505 0.000000
# 2 -0.005097 0.015870 -0.005895 0.000000 0.001859 0.000000
# 3 0.001221 -0.005895 0.024335 0.000000 -0.006042 0.000000
# 4 0.000000 0.000000 0.000000 0.035111 0.000000 -0.000676
# 5 -0.000505 0.001859 -0.006042 0.000000 0.035265 0.000000
# 6 0.000000 0.000000 0.000000 -0.000676 0.000000 0.027630
#
#
# Mechanical properties :
#
#
# Convention : Reuss Voigt Hill
#
# Bulk Modulus (GPa) = 28.43066 32.65578 30.54322
# Shear Modulus (GPa) = 27.17518 29.33130 28.25324
#
# Velocity S-wave (km/s) = 3.65793 3.80027 3.72978
# Velocity P-wave (km/s) = 5.64263 5.94433 5.79544
#
# Compressibility (1/GPa) = 0.03517330
#
# Stress axis : x y z
#
# Youngs Moduli (GPa) = 68.91242 63.01041 41.09251
#
# Poissons Ratio (x) = 0.32118 -0.05016
# Poissons Ratio (y) = 0.35126 0.24225
# Poissons Ratio (z) = -0.08412 0.37146
#
# Static dielectric constant tensor:
#      x y z
#    x 3.766050 0.000000 -0.068770 
#    y 0.000000 3.874430 0.000000 
#    z -0.068770 0.000000 3.420520 
# 
# 
# High freq. dielectric constant tensor:
#      x y z
#    x 1.798480 0.000000 -0.005890 
#    y 0.000000 1.806420 0.000000 
#    z -0.005890 0.000000 1.780080 
# 
# From -- ./inp_files/353432.got.cif
#   From: 2010.06.25/outbox.cif.g09.slc.cpg/sg12_177_cif.got.tgz:353432.got - 2010.06.28 00:19:55.
