data_PCOD8086851
_publ_section_title
;
Structure prediction by ZEFSAII (Michael W. Deem and Ramdas Pophale) SiO2 
 PCOD8086851
Probable space group: C 2/M
;
_chemical_formula_sum "Si O2"
_cell_formula_units_Z 64
_cell_length_a 28.123859
_cell_length_b 9.041415
_cell_length_c 13.038579
_cell_angle_alpha 90.000000
_cell_angle_beta 83.959861
_cell_angle_gamma 90.000000
_cell_volume 3297.037159
_symmetry_space_group_name_H-M "C 2/M"
_symmetry_group_IT_number 12
_symmetry_cell_setting 'monoclinic'
loop_
_space_group_symop_operation_xyz
x,y,z
-x,y,-z
-x,-y,-z
x,-y,z
1/2+x,1/2+y,z
1/2-x,1/2+y,-z
1/2-x,1/2-y,-z
1/2+x,1/2-y,z
loop_
_atom_site_type_symbol
_atom_site_label
_atom_site_fract_x
_atom_site_fract_y
_atom_site_fract_z
Si Si1 0.049218 0.329887 0.542666
Si Si2 0.912385 0.174668 0.265928
Si Si3 0.382683 0.167896 0.656169
Si Si4 0.929685 0.830796 0.822329
Si Si5 0.682921 0.325115 0.809281
Si Si6 0.983844 0.327426 0.116096
Si Si7 0.664043 0.328390 0.040879
Si Si8 0.711833 0.170505 0.218782
O O1 0.041348 0.500000 0.574883
O O2 0.060782 0.241809 0.642600
O O3 0.096296 0.309175 0.461721
O O4 0.000000 0.271590 0.500000
O O5 0.857099 0.227608 0.264314
O O6 0.937753 0.232453 0.156971
O O7 0.916928 0.000000 0.273071
O O8 0.405946 0.293888 0.719678
O O9 0.325235 0.194715 0.678038
O O10 0.394376 0.000000 0.691414
O O11 0.973126 0.717216 0.819173
O O12 0.891899 0.802643 0.921931
O O13 0.947787 0.000000 0.817635
O O14 0.678239 0.500000 0.818568
O O15 0.735412 0.273362 0.758666
O O16 0.673891 0.260836 0.925949
O O17 0.972327 0.500000 0.128600
O O18 0.000000 0.279807 0.000000
O O19 0.677337 0.500000 0.043897
O O20 0.696517 0.249608 0.117980
O O21 0.715313 0.000000 0.187784
#
# Coordination Sequence:
#
# PCOD8086851 Si02
#       8
#     8   8   8   8   8   8   8   8
#     4  10  21  38  58  78 104 137 172 219 276 327
#     4  11  23  38  57  80 106 138 178 221 266 318
#     4   9  18  33  54  78 104 136 175 220 268 316
#     4  10  19  31  51  78 107 137 172 218 265 313
#     4   9  18  33  51  73 106 144 177 215 264 315
#     4  11  23  37  53  75 106 142 176 210 253 311
#     4   9  17  30  49  76 109 142 176 214 259 308
#     4   9  17  31  52  77 105 140 182 220 258 309
#
# _framework density 19.411368
#
# number of rings (size 3 to 8) (size 9 to 14) (size 15 to 20)
#    0.000    2.250    0.000    3.000    0.000    4.250 
#    0.000    3.125    0.000    0.000    0.000    0.000 
#    0.000    0.000    0.000    0.000    0.000    0.000 
#
# Total GULP energy -396639.467479 kJ/mol
# GULP energy per Si atom -12394.983359 kJ/mol
# Density = 1.936719 g / cm^3
# Si number density = 19.411368 Si / 1000 Ang^3
#
#
#
# Elastic Constant Matrix: (Units=GPa)
#
#
# Indices 1 2 3 4 5 6 
#
# 1 141.0322 33.1682 52.2697 0.0000 3.9152 0.0000
# 2 33.1682 47.4629 29.8779 0.0000 2.6889 0.0000
# 3 52.2697 29.8779 87.1183 0.0000 -3.2196 0.0000
# 4 0.0000 0.0000 0.0000 25.4025 0.0000 -0.3931
# 5 3.9152 2.6889 -3.2196 0.0000 28.2530 0.0000
# 6 0.0000 0.0000 0.0000 -0.3931 0.0000 18.6447
#
#
#
# Elastic Compliance Matrix: (Units=1/GPa)
#
#
# Indices 1 2 3 4 5 6 
#
# 1 0.009731 -0.003832 -0.004580 0.000000 -0.001506 0.000000
# 2 -0.003832 0.028753 -0.007676 0.000000 -0.003080 0.000000
# 3 -0.004580 -0.007676 0.016981 0.000000 0.003300 0.000000
# 4 0.000000 0.000000 0.000000 0.039379 0.000000 0.000830
# 5 -0.001506 -0.003080 0.003300 0.000000 0.036272 0.000000
# 6 0.000000 0.000000 0.000000 0.000830 0.000000 0.053652
#
#
# Mechanical properties :
#
#
# Convention : Reuss Voigt Hill
#
# Bulk Modulus (GPa) = 42.93707 56.24944 49.59325
# Shear Modulus (GPa) = 22.25114 25.14657 23.69886
#
# Velocity S-wave (km/s) = 3.38937 3.60315 3.49789
# Velocity P-wave (km/s) = 6.12247 6.80814 6.47439
#
# Compressibility (1/GPa) = 0.02328990
#
# Stress axis : x y z
#
# Youngs Moduli (GPa) = 102.76449 34.77848 58.88917
#
# Poissons Ratio (x) = 0.13327 0.26971
# Poissons Ratio (y) = 0.39378 0.45203
# Poissons Ratio (z) = 0.47065 0.26696
#
# Static dielectric constant tensor:
#      x y z
#    x 3.962400 0.000000 -0.188550 
#    y 0.000000 3.380300 0.000000 
#    z -0.188550 0.000000 3.405340 
# 
# 
# High freq. dielectric constant tensor:
#      x y z
#    x 1.767300 0.000000 -0.012600 
#    y 0.000000 1.741150 0.000000 
#    z -0.012600 0.000000 1.736170 
# 
# From -- ./inp_files/187563.got.cif
#   From: 2010.06.25/outbox.cif.g09.slc.cpg/sg12_94_cif.got.tgz:187563.got - 2010.06.28 00:19:55.
