data_PCOD8086598
_publ_section_title
;
Structure prediction by ZEFSAII (Michael W. Deem and Ramdas Pophale) SiO2 
 PCOD8086598
Probable space group: C 2/M
;
_chemical_formula_sum "Si O2"
_cell_formula_units_Z 56
_cell_length_a 18.709775
_cell_length_b 8.745422
_cell_length_c 23.020126
_cell_angle_alpha 90.000000
_cell_angle_beta 127.702807
_cell_angle_gamma 90.000000
_cell_volume 2980.161380
_symmetry_space_group_name_H-M "C 2/M"
_symmetry_group_IT_number 12
_symmetry_cell_setting 'monoclinic'
loop_
_space_group_symop_operation_xyz
x,y,z
-x,y,-z
-x,-y,-z
x,-y,z
1/2+x,1/2+y,z
1/2-x,1/2+y,-z
1/2-x,1/2-y,-z
1/2+x,1/2-y,z
loop_
_atom_site_type_symbol
_atom_site_label
_atom_site_fract_x
_atom_site_fract_y
_atom_site_fract_z
Si Si1 0.671049 0.678157 0.998307
Si Si2 0.177854 0.677463 0.126907
Si Si3 0.146214 0.676557 0.287926
Si Si4 0.095551 0.319337 0.565815
Si Si5 0.760270 0.818233 0.568148
Si Si6 0.510091 0.826723 0.126245
Si Si7 0.213675 0.677432 0.725431
O O1 0.686093 0.500000 0.004237
O O2 0.574199 0.716028 0.922654
O O3 0.750000 0.750000 0.000000
O O4 0.674468 0.731716 0.065957
O O5 0.183366 0.500000 0.115299
O O6 0.089231 0.718368 0.120415
O O7 0.268370 0.724795 0.207487
O O8 0.179171 0.500000 0.299787
O O9 0.152096 0.739528 0.356988
O O10 0.045861 0.688462 0.210490
O O11 0.208064 0.790302 0.281789
O O12 0.089646 0.500000 0.556968
O O13 0.172334 0.261764 0.559897
O O14 0.120498 0.277081 0.645471
O O15 0.000000 0.243661 0.500000
O O16 0.750000 0.750000 0.500000
O O17 0.772100 0.000000 0.571973
O O18 0.478619 0.000000 0.097820
O O19 0.214526 0.500000 0.743068
#
# Coordination Sequence:
#
# PCOD8086598 Si02
#       7
#     8   8   8   8   8   8   8
#     4  12  25  39  56  78 108 142 174 213 262 316
#     4  10  20  36  58  81 107 138 174 217 262 311
#     4   9  17  31  52  76 104 136 169 212 262 309
#     4   8  15  29  49  73 100 132 170 210 253 300
#     4  10  19  31  50  74 102 136 174 217 261 311
#     4   9  19  36  58  82 106 135 173 216 262 313
#     4   9  16  28  50  78 104 132 171 217 259 304
#
# _framework density 18.790929999999999
#
# number of rings (size 3 to 8) (size 9 to 14) (size 15 to 20)
#    0.000    2.429    0.000    5.143    0.000    5.143 
#    0.000    1.429    0.000   22.286    0.000    0.000 
#    0.000    0.000    0.000    0.000    0.000    0.000 
#
# Total GULP energy -347022.951173 kJ/mol
# GULP energy per Si atom -12393.676828 kJ/mol
# Density = 1.874816 g / cm^3
# Si number density = 18.790930 Si / 1000 Ang^3
#
#
#
# Elastic Constant Matrix: (Units=GPa)
#
#
# Indices 1 2 3 4 5 6 
#
# 1 63.3344 40.7003 56.7562 0.0000 3.9212 0.0000
# 2 40.7003 99.8551 60.7508 0.0000 2.3018 0.0000
# 3 56.7562 60.7508 173.8191 0.0000 2.3732 0.0000
# 4 0.0000 0.0000 0.0000 37.2905 0.0000 -3.0582
# 5 3.9212 2.3018 2.3732 0.0000 25.6287 0.0000
# 6 0.0000 0.0000 0.0000 -3.0582 0.0000 21.9556
#
#
#
# Elastic Compliance Matrix: (Units=1/GPa)
#
#
# Indices 1 2 3 4 5 6 
#
# 1 0.025662 -0.006758 -0.005979 0.000000 -0.002766 0.000000
# 2 -0.006758 0.014512 -0.002865 0.000000 -0.000004 0.000000
# 3 -0.005979 -0.002865 0.008702 0.000000 0.000366 0.000000
# 4 0.000000 0.000000 0.000000 0.027126 0.000000 0.003778
# 5 -0.002766 -0.000004 0.000366 0.000000 0.039408 0.000000
# 6 0.000000 0.000000 0.000000 0.003778 0.000000 0.046073
#
#
# Mechanical properties :
#
#
# Convention : Reuss Voigt Hill
#
# Bulk Modulus (GPa) = 56.59194 72.60258 64.59726
# Shear Modulus (GPa) = 25.17886 28.89507 27.03696
#
# Velocity S-wave (km/s) = 3.66450 3.92562 3.79731
# Velocity P-wave (km/s) = 6.93446 7.69859 7.32649
#
# Compressibility (1/GPa) = 0.01767036
#
# Stress axis : x y z
#
# Youngs Moduli (GPa) = 38.96868 68.90648 114.91542
#
# Poissons Ratio (x) = 0.46566 0.68713
# Poissons Ratio (y) = 0.26335 0.32929
# Poissons Ratio (z) = 0.23301 0.19745
#
# Static dielectric constant tensor:
#      x y z
#    x 3.178240 0.000000 0.131240 
#    y 0.000000 3.438060 0.000000 
#    z 0.131240 0.000000 4.085530 
# 
# 
# High freq. dielectric constant tensor:
#      x y z
#    x 1.679840 0.000000 0.003660 
#    y 0.000000 1.728760 0.000000 
#    z 0.003660 0.000000 1.758280 
# 
# From -- ./inp_files/313775.got.cif
#   From: 2010.06.25/outbox.cif.g09.slc.cpg/sg12_157_cif.got.tgz:313775.got - 2010.06.28 00:19:55.
