data_PCOD8086478
_publ_section_title
;
Structure prediction by ZEFSAII (Michael W. Deem and Ramdas Pophale) SiO2 
 PCOD8086478
Probable space group: C 2/M
;
_chemical_formula_sum "Si O2"
_cell_formula_units_Z 40
_cell_length_a 20.078305
_cell_length_b 8.847877
_cell_length_c 13.997922
_cell_angle_alpha 90.000000
_cell_angle_beta 92.081470
_cell_angle_gamma 90.000000
_cell_volume 2485.095297
_symmetry_space_group_name_H-M "C 2/M"
_symmetry_group_IT_number 12
_symmetry_cell_setting 'monoclinic'
loop_
_space_group_symop_operation_xyz
x,y,z
-x,y,-z
-x,-y,-z
x,-y,z
1/2+x,1/2+y,z
1/2-x,1/2+y,-z
1/2-x,1/2-y,-z
1/2+x,1/2-y,z
loop_
_atom_site_type_symbol
_atom_site_label
_atom_site_fract_x
_atom_site_fract_y
_atom_site_fract_z
Si Si1 0.178573 0.676148 0.106796
Si Si2 0.668476 0.676197 0.908892
Si Si3 0.056375 0.328747 0.789217
Si Si4 0.515831 0.171610 0.397055
Si Si5 0.575256 0.678252 0.233359
O O1 0.162792 0.500000 0.113839
O O2 0.256689 0.712054 0.120280
O O3 0.143449 0.763136 0.191324
O O4 0.150623 0.736062 0.004790
O O5 0.657815 0.500000 0.927286
O O6 0.620254 0.732934 0.822892
O O7 0.061894 0.500000 0.828155
O O8 0.051060 0.326208 0.672689
O O9 0.988057 0.252424 0.826147
O O10 0.500000 0.242711 0.500000
O O11 0.572558 0.269753 0.345086
O O12 0.542255 0.000000 0.410502
O O13 0.571144 0.500000 0.225128
#
# Coordination Sequence:
#
# PCOD8086478 Si02
#       5
#     8   8   8   8   8
#     4  10  20  34  50  69  98 134 165 195 239 290
#     4  10  20  33  50  72  98 129 164 202 239 282
#     4   9  18  32  50  73  98 128 161 197 242 289
#     4   8  16  32  52  73  97 126 158 195 244 293
#     4  10  19  31  49  75 100 125 162 204 239 279
#
# _framework density 16.095962
#
# number of rings (size 3 to 8) (size 9 to 14) (size 15 to 20)
#    1.200    1.400    0.000    3.000    0.000    3.600 
#    0.000    4.000    0.000    1.200    0.000    0.000 
#    0.000    0.000    0.000    0.000    0.000    0.000 
#
# Total GULP energy -247854.884896 kJ/mol
# GULP energy per Si atom -12392.744245 kJ/mol
# Density = 1.605933 g / cm^3
# Si number density = 16.095962 Si / 1000 Ang^3
#
#
#
# Elastic Constant Matrix: (Units=GPa)
#
#
# Indices 1 2 3 4 5 6 
#
# 1 66.4354 39.3565 42.6342 0.0000 -13.2216 0.0000
# 2 39.3565 90.2254 33.3994 0.0000 -12.8421 0.0000
# 3 42.6342 33.3994 86.6465 0.0000 -20.7452 0.0000
# 4 0.0000 0.0000 0.0000 23.7494 0.0000 -0.1330
# 5 -13.2216 -12.8421 -20.7452 0.0000 17.4761 0.0000
# 6 0.0000 0.0000 0.0000 -0.1330 0.0000 28.9646
#
#
#
# Elastic Compliance Matrix: (Units=1/GPa)
#
#
# Indices 1 2 3 4 5 6 
#
# 1 0.026001 -0.007495 -0.009100 0.000000 0.003361 0.000000
# 2 -0.007495 0.015410 -0.001256 0.000000 0.004163 0.000000
# 3 -0.009100 -0.001256 0.020444 0.000000 0.016461 0.000000
# 4 0.000000 0.000000 0.000000 0.042107 0.000000 0.000193
# 5 0.003361 0.004163 0.016461 0.000000 0.082363 0.000000
# 6 0.000000 0.000000 0.000000 0.000193 0.000000 0.034526
#
#
# Mechanical properties :
#
#
# Convention : Reuss Voigt Hill
#
# Bulk Modulus (GPa) = 38.23435 52.67642 45.45539
# Shear Modulus (GPa) = 18.84879 22.56585 20.70732
#
# Velocity S-wave (km/s) = 3.42574 3.74833 3.59066
# Velocity P-wave (km/s) = 6.28117 7.17850 6.74478
#
# Compressibility (1/GPa) = 0.02615449
#
# Stress axis : x y z
#
# Youngs Moduli (GPa) = 38.46042 64.89360 48.91459
#
# Poissons Ratio (x) = 0.48635 0.44512
# Poissons Ratio (y) = 0.28824 0.06141
# Poissons Ratio (z) = 0.34999 0.08147
#
# Static dielectric constant tensor:
#      x y z
#    x 2.854530 0.000000 -0.036350 
#    y 0.000000 3.089860 0.000000 
#    z -0.036350 0.000000 2.916480 
# 
# 
# High freq. dielectric constant tensor:
#      x y z
#    x 1.597670 0.000000 -0.005260 
#    y 0.000000 1.634370 0.000000 
#    z -0.005260 0.000000 1.599070 
# 
# From -- ./inp_files/228909.got.cif
#   From: 2010.06.25/outbox.cif.g09.slc.cpg/sg12_115_cif.got.tgz:228909.got - 2010.06.28 00:19:55.
