data_PCOD8086338
_publ_section_title
;
Structure prediction by ZEFSAII (Michael W. Deem and Ramdas Pophale) SiO2 
 PCOD8086338
Probable space group: C 2/M
;
_chemical_formula_sum "Si O2"
_cell_formula_units_Z 64
_cell_length_a 22.857763
_cell_length_b 9.154579
_cell_length_c 20.750633
_cell_angle_alpha 90.000000
_cell_angle_beta 57.528170
_cell_angle_gamma 90.000000
_cell_volume 3663.267223
_symmetry_space_group_name_H-M "C 2/M"
_symmetry_group_IT_number 12
_symmetry_cell_setting 'monoclinic'
loop_
_space_group_symop_operation_xyz
x,y,z
-x,y,-z
-x,-y,-z
x,-y,z
1/2+x,1/2+y,z
1/2-x,1/2+y,-z
1/2-x,1/2-y,-z
1/2+x,1/2-y,z
loop_
_atom_site_type_symbol
_atom_site_label
_atom_site_fract_x
_atom_site_fract_y
_atom_site_fract_z
Si Si1 0.435577 0.336643 0.952413
Si Si2 0.355641 0.336017 0.448388
Si Si3 0.283668 0.164524 0.387787
Si Si4 0.208182 0.671527 0.323878
Si Si5 0.913709 0.163701 0.116789
Si Si6 0.074239 0.329934 0.483262
Si Si7 0.802599 0.670347 0.015372
Si Si8 0.719007 0.829849 0.823009
O O1 0.422104 0.500000 0.933476
O O2 0.514854 0.287716 0.889532
O O3 0.426901 0.336214 0.033508
O O4 0.380227 0.226716 0.953677
O O5 0.380328 0.500000 0.416841
O O6 0.346798 0.243209 0.388053
O O7 0.282956 0.340818 0.527564
O O8 0.413192 0.260166 0.459071
O O9 0.266759 0.257715 0.334594
O O10 0.306035 0.000000 0.355504
O O11 0.221319 0.500000 0.312185
O O12 0.131497 0.707715 0.395279
O O13 0.216950 0.743807 0.248005
O O14 0.852154 0.275804 0.169001
O O15 0.892519 0.000000 0.151425
O O16 0.077231 0.500000 0.499708
O O17 0.000000 0.283024 0.500000
O O18 0.800712 0.500000 0.002101
O O19 0.780725 0.706508 0.101482
O O20 0.750000 0.750000 0.000000
O O21 0.727483 0.000000 0.804614
#
# Coordination Sequence:
#
# PCOD8086338 Si02
#       8
#     8   8   8   8   8   8   8   8
#     4   8  14  26  45  68  93 118 147 186 230 275
#     4   9  16  26  43  68  94 119 150 188 231 279
#     4   9  16  27  44  66  93 121 148 185 232 279
#     4  10  19  31  49  71  95 125 159 197 244 296
#     4   8  14  26  45  68  92 119 148 181 227 280
#     4   9  18  32  49  70  96 127 165 206 246 289
#     4  10  20  32  48  70  96 128 166 206 245 287
#     4  10  20  32  47  70  98 126 157 197 245 293
#
# _framework density 17.470742999999999
#
# number of rings (size 3 to 8) (size 9 to 14) (size 15 to 20)
#    0.000    2.875    0.000    2.625    0.000    5.750 
#    0.000    2.500    0.000    1.500    0.000    3.500 
#    0.000    0.000    0.000    0.000    0.000    0.000 
#
# Total GULP energy -396668.652649 kJ/mol
# GULP energy per Si atom -12395.895395 kJ/mol
# Density = 1.743098 g / cm^3
# Si number density = 17.470743 Si / 1000 Ang^3
#
#
#
# Elastic Constant Matrix: (Units=GPa)
#
#
# Indices 1 2 3 4 5 6 
#
# 1 132.0302 69.9411 35.2321 0.0000 0.3454 0.0004
# 2 69.9411 119.0561 38.9465 0.0000 4.3083 0.0025
# 3 35.2321 38.9465 51.1454 0.0000 -1.6993 -0.0001
# 4 0.0000 0.0000 0.0000 24.9250 -0.0001 2.3530
# 5 0.3454 4.3083 -1.6993 -0.0001 14.4067 0.0001
# 6 0.0004 0.0025 -0.0001 2.3530 0.0001 30.0965
#
#
#
# Elastic Compliance Matrix: (Units=1/GPa)
#
#
# Indices 1 2 3 4 5 6 
#
# 1 0.011512 -0.005613 -0.003624 0.000000 0.000975 0.000000
# 2 -0.005613 0.014203 -0.007113 0.000000 -0.004952 -0.000001
# 3 -0.003624 -0.007113 0.027647 0.000000 0.005475 0.000001
# 4 0.000000 0.000000 0.000000 0.040419 0.000000 -0.003160
# 5 0.000975 -0.004952 0.005475 0.000000 0.071515 0.000000
# 6 0.000000 -0.000001 0.000001 -0.003160 0.000000 0.033474
#
#
# Mechanical properties :
#
#
# Convention : Reuss Voigt Hill
#
# Bulk Modulus (GPa) = 48.39779 65.60790 57.00285
# Shear Modulus (GPa) = 20.97708 24.42644 22.70176
#
# Velocity S-wave (km/s) = 3.46887 3.74322 3.60865
# Velocity P-wave (km/s) = 6.61864 7.50445 7.07542
#
# Compressibility (1/GPa) = 0.02066210
#
# Stress axis : x y z
#
# Youngs Moduli (GPa) = 86.86894 70.40888 36.17026
#
# Poissons Ratio (x) = 0.39517 0.13107
# Poissons Ratio (y) = 0.48755 0.25730
# Poissons Ratio (z) = 0.31478 0.50085
#
# Static dielectric constant tensor:
#      x y z
#    x 3.297040 0.000000 -0.097320 
#    y 0.000000 3.406020 0.000000 
#    z -0.097320 0.000000 3.062530 
# 
# 
# High freq. dielectric constant tensor:
#      x y z
#    x 1.661110 0.000000 -0.000150 
#    y 0.000000 1.685650 0.000000 
#    z -0.000150 0.000000 1.638870 
# 
# From -- ./inp_files/323654.got.cif
#   From: 2010.06.25/outbox.cif.g09.slc.cpg/sg12_162_cif.got.tgz:323654.got - 2010.06.28 00:19:55.
