data_PCOD8086931
_publ_section_title
;
Structure prediction by ZEFSAII (Michael W. Deem and Ramdas Pophale) SiO2 
 PCOD8086931
Probable space group: C 2/M
;
_chemical_formula_sum "Si O2"
_cell_formula_units_Z 56
_cell_length_a 19.828221
_cell_length_b 8.703432
_cell_length_c 21.311746
_cell_angle_alpha 90.000000
_cell_angle_beta 126.078633
_cell_angle_gamma 90.000000
_cell_volume 2972.468784
_symmetry_space_group_name_H-M "C 2/M"
_symmetry_group_IT_number 12
_symmetry_cell_setting 'monoclinic'
loop_
_space_group_symop_operation_xyz
x,y,z
-x,y,-z
-x,-y,-z
x,-y,z
1/2+x,1/2+y,z
1/2-x,1/2+y,-z
1/2-x,1/2-y,-z
1/2+x,1/2-y,z
loop_
_atom_site_type_symbol
_atom_site_label
_atom_site_fract_x
_atom_site_fract_y
_atom_site_fract_z
Si Si1 0.410435 0.318494 0.460913
Si Si2 0.659046 0.823249 0.126046
Si Si3 0.752691 0.176978 0.300423
Si Si4 0.603556 0.321627 0.285355
Si Si5 0.498097 0.180086 0.876052
Si Si6 0.176404 0.180722 0.002645
Si Si7 0.340148 0.681189 0.550477
O O1 0.500000 0.240853 0.500000
O O2 0.419057 0.500000 0.471301
O O3 0.347741 0.278090 0.369266
O O4 0.382113 0.250172 0.511598
O O5 0.734563 0.801031 0.216756
O O6 0.570872 0.769435 0.109243
O O7 0.650210 0.000000 0.100323
O O8 0.685694 0.724703 0.080707
O O9 0.695354 0.289893 0.308999
O O10 0.733058 0.000000 0.308772
O O11 0.581304 0.500000 0.264206
O O12 0.535620 0.220410 0.211495
O O13 0.604483 0.271756 0.358750
O O14 0.585040 0.265840 0.931659
O O15 0.514218 0.000000 0.889798
O O16 0.182849 0.000000 0.998845
O O17 0.250000 0.250000 0.000000
O O18 0.330648 0.500000 0.543347
O O19 0.250000 0.750000 0.500000
#
# Coordination Sequence:
#
# PCOD8086931 Si02
#       7
#     8   8   8   8   8   8   8
#     4   9  17  31  51  76 107 145 190 230 270 327
#     4   9  19  36  59  87 113 146 191 235 280 336
#     4   9  17  32  55  80 108 147 188 228 277 332
#     4  10  19  31  51  84 114 141 183 237 285 325
#     4  10  21  39  63  87 115 149 188 231 278 340
#     4  12  25  41  61  85 117 152 186 229 281 338
#     4  10  19  31  52  79 108 143 189 234 277 326
#
# _framework density 18.839559000000001
#
# number of rings (size 3 to 8) (size 9 to 14) (size 15 to 20)
#    0.000    2.143    1.429    3.429    0.000    5.143 
#    2.571    0.000    0.000    1.714    0.000    0.000 
#    0.000    0.000    0.000    0.000    0.000    0.000 
#
# Total GULP energy -347067.555444 kJ/mol
# GULP energy per Si atom -12395.269837 kJ/mol
# Density = 1.879668 g / cm^3
# Si number density = 18.839559 Si / 1000 Ang^3
#
#
#
# Elastic Constant Matrix: (Units=GPa)
#
#
# Indices 1 2 3 4 5 6 
#
# 1 137.8014 39.4109 86.1694 0.0000 1.4315 0.0000
# 2 39.4109 65.7049 41.5323 0.0000 -4.8818 0.0000
# 3 86.1694 41.5323 154.3770 0.0000 0.6239 0.0000
# 4 0.0000 0.0000 0.0000 28.4874 0.0000 -0.6402
# 5 1.4315 -4.8818 0.6239 0.0000 27.7489 0.0000
# 6 0.0000 0.0000 0.0000 -0.6402 0.0000 25.6658
#
#
#
# Elastic Compliance Matrix: (Units=1/GPa)
#
#
# Indices 1 2 3 4 5 6 
#
# 1 0.011816 -0.003620 -0.005617 0.000000 -0.001120 0.000000
# 2 -0.003620 0.019762 -0.003311 0.000000 0.003738 0.000000
# 3 -0.005617 -0.003311 0.010506 0.000000 -0.000529 0.000000
# 4 0.000000 0.000000 0.000000 0.035123 0.000000 0.000876
# 5 -0.001120 0.003738 -0.000529 0.000000 0.036765 0.000000
# 6 0.000000 0.000000 0.000000 0.000876 0.000000 0.038984
#
#
# Mechanical properties :
#
#
# Convention : Reuss Voigt Hill
#
# Bulk Modulus (GPa) = 58.86746 76.90093 67.88420
# Shear Modulus (GPa) = 27.21616 29.09846 28.15731
#
# Velocity S-wave (km/s) = 3.80495 3.93433 3.87018
# Velocity P-wave (km/s) = 7.11464 7.84513 7.48880
#
# Compressibility (1/GPa) = 0.01698731
#
# Stress axis : x y z
#
# Youngs Moduli (GPa) = 84.62895 50.60322 95.18543
#
# Poissons Ratio (x) = 0.18320 0.53466
# Poissons Ratio (y) = 0.30638 0.31514
# Poissons Ratio (z) = 0.47537 0.16754
#
# Static dielectric constant tensor:
#      x y z
#    x 3.426340 0.000000 -0.001630 
#    y 0.000000 3.330180 0.000000 
#    z -0.001630 0.000000 3.742850 
# 
# 
# High freq. dielectric constant tensor:
#      x y z
#    x 1.712660 0.000000 -0.000460 
#    y 0.000000 1.716360 0.000000 
#    z -0.000460 0.000000 1.752260 
# 
# From -- ./inp_files/314426.got.cif
#   From: 2010.06.25/outbox.cif.g09.slc.cpg/sg12_158_cif.got.tgz:314426.got - 2010.06.28 00:19:55.
