data_PCOD8086463
_publ_section_title
;
Structure prediction by ZEFSAII (Michael W. Deem and Ramdas Pophale) SiO2 
 PCOD8086463
Probable space group: C 2/M
;
_chemical_formula_sum "Si O2"
_cell_formula_units_Z 56
_cell_length_a 25.758609
_cell_length_b 8.996848
_cell_length_c 19.025636
_cell_angle_alpha 90.000000
_cell_angle_beta 132.004284
_cell_angle_gamma 90.000000
_cell_volume 3276.394524
_symmetry_space_group_name_H-M "C 2/M"
_symmetry_group_IT_number 12
_symmetry_cell_setting 'monoclinic'
loop_
_space_group_symop_operation_xyz
x,y,z
-x,y,-z
-x,-y,-z
x,-y,z
1/2+x,1/2+y,z
1/2-x,1/2+y,-z
1/2-x,1/2-y,-z
1/2+x,1/2-y,z
loop_
_atom_site_type_symbol
_atom_site_label
_atom_site_fract_x
_atom_site_fract_y
_atom_site_fract_z
Si Si1 0.995587 0.171414 0.794029
Si Si2 0.646997 0.673639 0.887245
Si Si3 0.948669 0.326104 0.890050
Si Si4 0.301834 0.323753 0.786855
Si Si5 0.349964 0.330435 0.601822
Si Si6 0.753098 0.827895 0.390956
Si Si7 0.755704 0.174739 0.897474
O O1 0.066168 0.220627 0.818623
O O2 0.985819 0.273499 0.852813
O O3 0.932964 0.193898 0.681502
O O4 0.000870 0.000000 0.823734
O O5 0.656254 0.500000 0.883251
O O6 0.681532 0.755130 0.852028
O O7 0.684760 0.724041 0.993506
O O8 0.932318 0.500000 0.870817
O O9 0.877061 0.239217 0.835399
O O10 0.000000 0.286784 0.000000
O O11 0.305803 0.500000 0.787584
O O12 0.244796 0.265485 0.679074
O O13 0.278602 0.265209 0.842128
O O14 0.329603 0.500000 0.603650
O O15 0.313612 0.220327 0.623542
O O16 0.324048 0.296008 0.499098
O O17 0.744641 0.000000 0.364383
O O18 0.745820 0.000000 0.886631
#
# Coordination Sequence:
#
# PCOD8086463 Si02
#       7
#     8   8   8   8   8   8   8
#     4  10  19  33  53  75 100 132 168 203 248 305
#     4   9  18  33  53  75  97 126 167 210 249 294
#     4  11  23  34  46  72 106 135 164 202 250 300
#     4  11  21  34  52  73 100 135 172 206 249 303
#     4   9  18  32  50  73 101 134 167 204 250 304
#     4  10  19  31  49  74 103 131 167 209 251 299
#     4   9  19  34  51  72  98 130 168 208 249 296
#
# _framework density 17.091958000000002
#
# number of rings (size 3 to 8) (size 9 to 14) (size 15 to 20)
#    0.000    2.143    1.429    2.143    0.000    4.571 
#    0.000    2.857    0.000    0.857    0.000    6.000 
#    0.000    0.000    0.000    0.000    0.000    0.000 
#
# Total GULP energy -347246.066917 kJ/mol
# GULP energy per Si atom -12401.645247 kJ/mol
# Density = 1.705306 g / cm^3
# Si number density = 17.091958 Si / 1000 Ang^3
#
#
#
# Elastic Constant Matrix: (Units=GPa)
#
#
# Indices 1 2 3 4 5 6 
#
# 1 86.3890 24.3877 41.5669 0.0000 10.7841 0.0000
# 2 24.3877 50.7405 32.0299 0.0000 0.0212 0.0000
# 3 41.5669 32.0299 97.9144 0.0000 8.5579 0.0000
# 4 0.0000 0.0000 0.0000 24.9538 0.0000 -2.0515
# 5 10.7841 0.0212 8.5579 0.0000 24.7131 0.0000
# 6 0.0000 0.0000 0.0000 -2.0515 0.0000 28.0466
#
#
#
# Elastic Compliance Matrix: (Units=1/GPa)
#
#
# Indices 1 2 3 4 5 6 
#
# 1 0.015816 -0.004601 -0.004750 0.000000 -0.005253 0.000000
# 2 -0.004601 0.026376 -0.007062 0.000000 0.004431 0.000000
# 3 -0.004750 -0.007062 0.014806 0.000000 -0.003048 0.000000
# 4 0.000000 0.000000 0.000000 0.040316 0.000000 0.002949
# 5 -0.005253 0.004431 -0.003048 0.000000 0.043808 0.000000
# 6 0.000000 0.000000 0.000000 0.002949 0.000000 0.035871
#
#
# Mechanical properties :
#
#
# Convention : Reuss Voigt Hill
#
# Bulk Modulus (GPa) = 41.37129 47.89033 44.63081
# Shear Modulus (GPa) = 22.94889 24.68000 23.81444
#
# Velocity S-wave (km/s) = 3.66822 3.80406 3.73676
# Velocity P-wave (km/s) = 6.49606 6.88292 6.69229
#
# Compressibility (1/GPa) = 0.02417135
#
# Stress axis : x y z
#
# Youngs Moduli (GPa) = 63.22883 37.91387 67.54004
#
# Poissons Ratio (x) = 0.17444 0.32081
# Poissons Ratio (y) = 0.29091 0.47697
# Poissons Ratio (z) = 0.30033 0.26775
#
# Static dielectric constant tensor:
#      x y z
#    x 3.101300 0.000000 -0.026790 
#    y 0.000000 3.217200 0.000000 
#    z -0.026790 0.000000 3.444820 
# 
# 
# High freq. dielectric constant tensor:
#      x y z
#    x 1.638260 0.000000 0.001760 
#    y 0.000000 1.663970 0.000000 
#    z 0.001760 0.000000 1.662910 
# 
# From -- ./inp_files/287373.got.cif
#   From: 2010.06.25/outbox.cif.g09.slc.cpg/sg12_144_cif.got.tgz:287373.got - 2010.06.28 00:19:55.
