data_PCOD8086288
_publ_section_title
;
Structure prediction by ZEFSAII (Michael W. Deem and Ramdas Pophale) SiO2 
 PCOD8086288
Probable space group: C 2/M
;
_chemical_formula_sum "Si O2"
_cell_formula_units_Z 48
_cell_length_a 21.211099
_cell_length_b 14.122950
_cell_length_c 9.520636
_cell_angle_alpha 90.000000
_cell_angle_beta 90.559990
_cell_angle_gamma 90.000000
_cell_volume 2851.896830
_symmetry_space_group_name_H-M "C 2/M"
_symmetry_group_IT_number 12
_symmetry_cell_setting 'monoclinic'
loop_
_space_group_symop_operation_xyz
x,y,z
-x,y,-z
-x,-y,-z
x,-y,z
1/2+x,1/2+y,z
1/2-x,1/2+y,-z
1/2-x,1/2-y,-z
1/2+x,1/2-y,z
loop_
_atom_site_type_symbol
_atom_site_label
_atom_site_fract_x
_atom_site_fract_y
_atom_site_fract_z
Si Si1 0.152952 0.803651 0.736961
Si Si2 0.205310 0.161570 0.020552
Si Si3 0.798915 0.397272 0.238351
Si Si4 0.699448 0.606474 0.472314
Si Si5 0.978041 0.110510 0.346248
Si Si6 0.392171 0.608586 0.774550
O O1 0.180574 0.867716 0.865672
O O2 0.154087 0.691570 0.779130
O O3 0.197764 0.822763 0.604333
O O4 0.081242 0.829532 0.705698
O O5 0.250000 0.250000 0.000000
O O6 0.249468 0.089067 0.107906
O O7 0.142157 0.177838 0.114100
O O8 0.834099 0.500000 0.249929
O O9 0.761166 0.376105 0.380811
O O10 0.698646 0.500000 0.532000
O O11 0.636506 0.624094 0.380617
O O12 0.000000 0.144755 0.500000
O O13 0.033591 0.130762 0.234950
O O14 0.959779 0.000000 0.350193
O O15 0.381202 0.500000 0.823450
#
# Coordination Sequence:
#
# PCOD8086288 Si02
#       6
#     8   8   8   8   8   8
#     4  11  19  29  49  75  98 126 170 203 236 288
#     4   9  19  32  47  71  97 124 161 200 243 286
#     4   9  19  34  48  66  98 134 165 200 249 290
#     4   9  16  28  48  72  98 127 158 200 246 295
#     4  10  19  31  48  75 104 129 159 197 247 297
#     4   9  17  31  48  69 103 135 153 185 249 307
#
# _framework density 16.830902999999999
#
# number of rings (size 3 to 8) (size 9 to 14) (size 15 to 20)
#    0.000    2.500    1.667    2.500    0.000    3.333 
#    0.000    1.667    0.000    0.500    0.000   10.500 
#    0.000    0.000    0.000    0.000    0.000    0.000 
#
# Total GULP energy -297315.707778 kJ/mol
# GULP energy per Si atom -12388.154491 kJ/mol
# Density = 1.679259 g / cm^3
# Si number density = 16.830903 Si / 1000 Ang^3
#
#
#
# Elastic Constant Matrix: (Units=GPa)
#
#
# Indices 1 2 3 4 5 6 
#
# 1 88.9678 39.5788 43.2451 0.0000 1.9171 0.0000
# 2 39.5788 76.1026 38.3655 0.0000 0.8037 0.0000
# 3 43.2451 38.3655 103.0688 0.0000 3.2220 0.0000
# 4 0.0000 0.0000 0.0000 17.3416 0.0000 -2.9940
# 5 1.9171 0.8037 3.2220 0.0000 25.1418 0.0000
# 6 0.0000 0.0000 0.0000 -2.9940 0.0000 24.3770
#
#
#
# Elastic Compliance Matrix: (Units=1/GPa)
#
#
# Indices 1 2 3 4 5 6 
#
# 1 0.016159 -0.006141 -0.004480 0.000000 -0.000462 0.000000
# 2 -0.006141 0.018511 -0.004327 0.000000 0.000431 0.000000
# 3 -0.004480 -0.004327 0.013231 0.000000 -0.001216 0.000000
# 4 0.000000 0.000000 0.000000 0.058914 0.000000 0.007236
# 5 -0.000462 0.000431 -0.001216 0.000000 0.039952 0.000000
# 6 0.000000 0.000000 0.000000 0.007236 0.000000 0.041911
#
#
# Mechanical properties :
#
#
# Convention : Reuss Voigt Hill
#
# Bulk Modulus (GPa) = 55.54003 56.72421 56.13212
# Shear Modulus (GPa) = 22.26435 23.16876 22.71655
#
# Velocity S-wave (km/s) = 3.64101 3.71423 3.67780
# Velocity P-wave (km/s) = 7.12365 7.22285 7.17342
#
# Compressibility (1/GPa) = 0.01800503
#
# Stress axis : x y z
#
# Youngs Moduli (GPa) = 61.88383 54.02283 75.58219
#
# Poissons Ratio (x) = 0.33174 0.33860
# Poissons Ratio (y) = 0.38001 0.32706
# Poissons Ratio (z) = 0.27723 0.23377
#
# Static dielectric constant tensor:
#      x y z
#    x 3.037700 0.000000 0.040330 
#    y 0.000000 2.977150 0.000000 
#    z 0.040330 0.000000 3.474140 
# 
# 
# High freq. dielectric constant tensor:
#      x y z
#    x 1.631520 0.000000 -0.004010 
#    y 0.000000 1.620550 0.000000 
#    z -0.004010 0.000000 1.656400 
# 
# From -- ./inp_files/85127.got.cif
#   From: 2010.06.25/outbox.cif.g09.slc.cpg/sg12_43_cif.got.tgz:85127.got - 2010.06.28 00:19:55.
