data_PCOD8086012
_publ_section_title
;
Structure prediction by ZEFSAII (Michael W. Deem and Ramdas Pophale) SiO2 
 PCOD8086012
Probable space group: C 2/M
;
_chemical_formula_sum "Si O2"
_cell_formula_units_Z 64
_cell_length_a 27.130892
_cell_length_b 9.650489
_cell_length_c 13.975440
_cell_angle_alpha 90.000000
_cell_angle_beta 96.537836
_cell_angle_gamma 90.000000
_cell_volume 3635.342987
_symmetry_space_group_name_H-M "C 2/M"
_symmetry_group_IT_number 12
_symmetry_cell_setting 'monoclinic'
loop_
_space_group_symop_operation_xyz
x,y,z
-x,y,-z
-x,-y,-z
x,-y,z
1/2+x,1/2+y,z
1/2-x,1/2+y,-z
1/2-x,1/2-y,-z
1/2+x,1/2-y,z
loop_
_atom_site_type_symbol
_atom_site_label
_atom_site_fract_x
_atom_site_fract_y
_atom_site_fract_z
Si Si1 0.141830 0.163085 0.014429
Si Si2 0.086476 0.337681 0.655346
Si Si3 0.516677 0.160169 0.288612
Si Si4 0.928170 0.152472 0.833799
Si Si5 0.338882 0.836903 0.161722
Si Si6 0.164294 0.845484 0.327637
Si Si7 0.107467 0.339460 0.449667
Si Si8 0.772256 0.835565 0.828008
O O1 0.135706 0.251762 0.917424
O O2 0.146013 0.000000 0.991709
O O3 0.092895 0.194516 0.066793
O O4 0.191039 0.217739 0.080537
O O5 0.078062 0.500000 0.640851
O O6 0.131568 0.302477 0.735359
O O7 0.098811 0.276754 0.553501
O O8 0.035036 0.275973 0.684767
O O9 0.531057 0.238929 0.193960
O O10 0.557101 0.183250 0.379886
O O11 0.511447 0.000000 0.259409
O O12 0.882601 0.147569 0.751625
O O13 0.952848 0.000000 0.844408
O O14 0.282949 0.781771 0.163938
O O15 0.340539 0.000000 0.138051
O O16 0.153459 0.743289 0.413374
O O17 0.209807 0.785349 0.273552
O O18 0.176023 0.000000 0.369765
O O19 0.122980 0.500000 0.455569
O O20 0.774892 0.000000 0.826867
#
# Coordination Sequence:
#
# PCOD8086012 Si02
#       8
#     8   8   8   8   8   8   8   8
#     4   9  17  31  49  68  91 116 144 181 224 263
#     4   9  18  31  45  64  92 121 147 181 223 262
#     4   9  16  28  48  69  87 113 150 186 218 256
#     4   8  15  28  46  67  90 114 140 178 226 267
#     4  10  19  31  47  66  89 119 153 182 214 261
#     4   8  14  27  46  67  90 113 142 180 220 262
#     4   9  16  28  47  68  89 115 148 183 220 261
#     4   8  15  29  49  69  89 117 147 177 219 267
#
# _framework density 17.604939999999999
#
# number of rings (size 3 to 8) (size 9 to 14) (size 15 to 20)
#    0.000    3.250    0.000    2.250    0.000    2.000 
#    0.000    5.625    0.000    6.750    0.000    0.000 
#    0.000    0.000    0.000    0.000    0.000    0.000 
#
# Total GULP energy -396668.611043 kJ/mol
# GULP energy per Si atom -12395.894095 kJ/mol
# Density = 1.756487 g / cm^3
# Si number density = 17.604940 Si / 1000 Ang^3
#
#
#
# Elastic Constant Matrix: (Units=GPa)
#
#
# Indices 1 2 3 4 5 6 
#
# 1 40.1729 25.4763 41.7047 0.0000 -19.2144 0.0000
# 2 25.4763 51.7531 41.6686 0.0000 -15.8319 0.0000
# 3 41.7047 41.6686 86.4367 0.0000 -29.4047 0.0000
# 4 0.0000 0.0000 0.0000 26.7581 0.0000 -9.0227
# 5 -19.2144 -15.8319 -29.4047 0.0000 29.0217 0.0000
# 6 0.0000 0.0000 0.0000 -9.0227 0.0000 18.3794
#
#
#
# Elastic Compliance Matrix: (Units=1/GPa)
#
#
# Indices 1 2 3 4 5 6 
#
# 1 0.055710 -0.008720 -0.017925 0.000000 0.013966 0.000000
# 2 -0.008720 0.033089 -0.011548 0.000000 0.000578 0.000000
# 3 -0.017925 -0.011548 0.029916 0.000000 0.012143 0.000000
# 4 0.000000 0.000000 0.000000 0.044785 0.000000 0.021986
# 5 0.013966 0.000578 0.012143 0.000000 0.056322 0.000000
# 6 0.000000 0.000000 0.000000 0.021986 0.000000 0.065202
#
#
# Mechanical properties :
#
#
# Convention : Reuss Voigt Hill
#
# Bulk Modulus (GPa) = 23.62383 44.00686 33.81535
# Shear Modulus (GPa) = 13.31488 19.46603 16.39046
#
# Velocity S-wave (km/s) = 2.75310 3.32884 3.05456
# Velocity P-wave (km/s) = 4.85326 6.31079 5.62939
#
# Compressibility (1/GPa) = 0.04233013
#
# Stress axis : x y z
#
# Youngs Moduli (GPa) = 17.94995 30.22141 33.42742
#
# Poissons Ratio (x) = 0.26353 0.59919
# Poissons Ratio (y) = 0.15652 0.38600
# Poissons Ratio (z) = 0.32176 0.34898
#
# Static dielectric constant tensor:
#      x y z
#    x 3.349660 0.000000 -0.336710 
#    y 0.000000 3.106530 0.000000 
#    z -0.336710 0.000000 3.283680 
# 
# 
# High freq. dielectric constant tensor:
#      x y z
#    x 1.670860 0.000000 -0.022950 
#    y 0.000000 1.649890 0.000000 
#    z -0.022950 0.000000 1.675110 
# 
# From -- ./inp_files/182110.got.cif
#   From: 2010.06.25/outbox.cif.g09.slc.cpg/sg12_92_cif.got.tgz:182110.got - 2010.06.28 00:19:55.
