data_PCOD8086707
_publ_section_title
;
Structure prediction by ZEFSAII (Michael W. Deem and Ramdas Pophale) SiO2 
 PCOD8086707
Probable space group: C 2/M
;
_chemical_formula_sum "Si O2"
_cell_formula_units_Z 64
_cell_length_a 22.591147
_cell_length_b 9.520604
_cell_length_c 17.512430
_cell_angle_alpha 90.000000
_cell_angle_beta 88.746127
_cell_angle_gamma 90.000000
_cell_volume 3765.695429
_symmetry_space_group_name_H-M "C 2/M"
_symmetry_group_IT_number 12
_symmetry_cell_setting 'monoclinic'
loop_
_space_group_symop_operation_xyz
x,y,z
-x,y,-z
-x,-y,-z
x,-y,z
1/2+x,1/2+y,z
1/2-x,1/2+y,-z
1/2-x,1/2-y,-z
1/2+x,1/2-y,z
loop_
_atom_site_type_symbol
_atom_site_label
_atom_site_fract_x
_atom_site_fract_y
_atom_site_fract_z
Si Si1 0.063238 0.832611 0.700596
Si Si2 0.248375 0.330054 0.079274
Si Si3 0.338989 0.346243 0.196284
Si Si4 0.138395 0.658989 0.587323
Si Si5 0.428559 0.336841 0.699246
Si Si6 0.175122 0.844016 0.191596
Si Si7 0.745780 0.748940 0.679926
Si Si8 0.643627 0.841141 0.413455
O O1 0.101064 0.773350 0.773049
O O2 0.088571 0.760109 0.624100
O O3 0.995496 0.789766 0.715015
O O4 0.071997 0.000000 0.692293
O O5 0.244424 0.500000 0.071285
O O6 0.307434 0.276810 0.123317
O O7 0.192013 0.273474 0.128589
O O8 0.250000 0.250000 0.000000
O O9 0.356926 0.500000 0.168545
O O10 0.291991 0.358311 0.267175
O O11 0.114563 0.500000 0.591473
O O12 0.201259 0.662744 0.628700
O O13 0.148279 0.709684 0.500482
O O14 0.425191 0.500000 0.677803
O O15 0.390379 0.304329 0.776249
O O16 0.404585 0.253967 0.627132
O O17 0.218688 0.850521 0.263474
O O18 0.175615 0.000000 0.154302
O O19 0.791509 0.665742 0.625779
O O20 0.620796 0.000000 0.408831
#
# Coordination Sequence:
#
# PCOD8086707 Si02
#       8
#     8   8   8   8   8   8   8   8
#     4   9  18  34  52  68  89 123 165 204 240 282
#     4  10  19  31  50  77 105 128 148 177 222 277
#     4   8  15  28  48  71  92 116 152 192 227 270
#     4  10  20  31  44  67  95 124 159 203 252 294
#     4   9  19  34  51  69  91 123 164 205 242 280
#     4   9  17  30  49  72  95 120 152 192 233 276
#     4   9  16  29  47  66  91 122 156 195 241 292
#     4  10  20  31  45  66  94 126 161 202 248 295
#
# _framework density 16.995532000000001
#
# number of rings (size 3 to 8) (size 9 to 14) (size 15 to 20)
#    0.000    2.750    0.000    1.500    0.000    5.500 
#    0.000    3.125    0.000    0.750    0.000    5.250 
#    0.000    0.000    0.000    0.000    0.000    0.000 
#
# Total GULP energy -396522.543848 kJ/mol
# GULP energy per Si atom -12391.329495 kJ/mol
# Density = 1.695685 g / cm^3
# Si number density = 16.995532 Si / 1000 Ang^3
#
#
#
# Elastic Constant Matrix: (Units=GPa)
#
#
# Indices 1 2 3 4 5 6 
#
# 1 131.3561 33.9853 61.1600 0.0000 2.5553 0.0000
# 2 33.9853 66.5904 44.5742 0.0000 -0.7115 0.0000
# 3 61.1600 44.5742 122.1155 0.0000 3.3146 0.0000
# 4 0.0000 0.0000 0.0000 24.8469 0.0000 -2.7307
# 5 2.5553 -0.7115 3.3146 0.0000 14.7012 0.0000
# 6 0.0000 0.0000 0.0000 -2.7307 0.0000 20.5648
#
#
#
# Elastic Compliance Matrix: (Units=1/GPa)
#
#
# Indices 1 2 3 4 5 6 
#
# 1 0.010215 -0.002403 -0.004213 0.000000 -0.000942 0.000000
# 2 -0.002403 0.020538 -0.006371 0.000000 0.002848 0.000000
# 3 -0.004213 -0.006371 0.012691 0.000000 -0.002437 0.000000
# 4 0.000000 0.000000 0.000000 0.040842 0.000000 0.005423
# 5 -0.000942 0.002848 -0.002437 0.000000 0.068873 0.000000
# 6 0.000000 0.000000 0.000000 0.005423 0.000000 0.049347
#
#
# Mechanical properties :
#
#
# Convention : Reuss Voigt Hill
#
# Bulk Modulus (GPa) = 57.24104 66.61124 61.92614
# Shear Modulus (GPa) = 21.33994 24.04543 22.69268
#
# Velocity S-wave (km/s) = 3.54732 3.76547 3.65802
# Velocity P-wave (km/s) = 7.10852 7.62781 7.37274
#
# Compressibility (1/GPa) = 0.01746998
#
# Stress axis : x y z
#
# Youngs Moduli (GPa) = 97.89902 48.68929 78.79840
#
# Poissons Ratio (x) = 0.11700 0.33199
# Poissons Ratio (y) = 0.23526 0.50200
# Poissons Ratio (z) = 0.41246 0.31018
#
# Static dielectric constant tensor:
#      x y z
#    x 3.302430 0.000000 0.079820 
#    y 0.000000 3.044210 0.000000 
#    z 0.079820 0.000000 3.105970 
# 
# 
# High freq. dielectric constant tensor:
#      x y z
#    x 1.648910 0.000000 0.004760 
#    y 0.000000 1.647650 0.000000 
#    z 0.004760 0.000000 1.641580 
# 
# From -- ./inp_files/287639.got.cif
#   From: 2010.06.25/outbox.cif.g09.slc.cpg/sg12_144_cif.got.tgz:287639.got - 2010.06.28 00:19:55.
