data_PCOD8086503
_publ_section_title
;
Structure prediction by ZEFSAII (Michael W. Deem and Ramdas Pophale) SiO2 
 PCOD8086503
Probable space group: C 2/M
;
_chemical_formula_sum "Si O2"
_cell_formula_units_Z 64
_cell_length_a 25.186287
_cell_length_b 9.107853
_cell_length_c 15.102763
_cell_angle_alpha 90.000000
_cell_angle_beta 106.473369
_cell_angle_gamma 90.000000
_cell_volume 3322.257377
_symmetry_space_group_name_H-M "C 2/M"
_symmetry_group_IT_number 12
_symmetry_cell_setting 'monoclinic'
loop_
_space_group_symop_operation_xyz
x,y,z
-x,y,-z
-x,-y,-z
x,-y,z
1/2+x,1/2+y,z
1/2-x,1/2+y,-z
1/2-x,1/2-y,-z
1/2+x,1/2-y,z
loop_
_atom_site_type_symbol
_atom_site_label
_atom_site_fract_x
_atom_site_fract_y
_atom_site_fract_z
Si Si1 0.194397 0.832360 0.496047
Si Si2 0.398248 0.327569 0.682090
Si Si3 0.994084 0.328516 0.234360
Si Si4 0.791410 0.168880 0.298595
Si Si5 0.317457 0.327070 0.801550
Si Si6 0.538675 0.342603 0.941065
Si Si7 0.133647 0.331261 0.803051
Si Si8 0.143918 0.328827 0.011685
O O1 0.250000 0.750000 0.500000
O O2 0.143628 0.772265 0.413795
O O3 0.179436 0.814149 0.592314
O O4 0.204904 0.000000 0.474647
O O5 0.411180 0.500000 0.680558
O O6 0.454719 0.238307 0.686050
O O7 0.371197 0.291451 0.765965
O O8 0.003634 0.500000 0.224265
O O9 0.999525 0.240968 0.146277
O O10 0.931948 0.299246 0.241434
O O11 0.735892 0.264680 0.273736
O O12 0.834377 0.223938 0.246164
O O13 0.776331 0.000000 0.271369
O O14 0.310693 0.500000 0.811192
O O15 0.317311 0.255255 0.899841
O O16 0.563448 0.500000 0.916085
O O17 0.500000 0.392056 0.000000
O O18 0.583186 0.231160 0.001064
O O19 0.146384 0.500000 0.785402
O O20 0.155700 0.297368 0.913215
O O21 0.147130 0.500000 0.034340
#
# Coordination Sequence:
#
# PCOD8086503 Si02
#       8
#     8   8   8   8   8   8   8   8
#     4  10  21  39  61  88 118 147 184 230 287 347
#     4  10  21  37  58  86 119 151 184 229 288 348
#     4  10  21  36  56  82 111 149 193 236 281 331
#     4  11  23  38  61  88 112 146 193 240 285 338
#     4  11  22  36  57  85 118 155 190 232 291 346
#     4  10  19  31  49  75 109 149 190 231 283 342
#     4   9  21  41  59  78 112 155 195 234 283 336
#     4  10  21  36  54  79 112 150 194 241 280 329
#
# _framework density 19.264011
#
# number of rings (size 3 to 8) (size 9 to 14) (size 15 to 20)
#    0.000    1.875    1.250    3.375    0.000    9.500 
#    0.000    0.625    0.000    3.750    0.000    0.000 
#    0.000    0.000    0.000    0.000    0.000    0.000 
#
# Total GULP energy -396582.463496 kJ/mol
# GULP energy per Si atom -12393.201984 kJ/mol
# Density = 1.922017 g / cm^3
# Si number density = 19.264011 Si / 1000 Ang^3
#
#
#
# Elastic Constant Matrix: (Units=GPa)
#
#
# Indices 1 2 3 4 5 6 
#
# 1 57.0787 33.5271 28.6059 0.0000 1.8948 0.0000
# 2 33.5271 102.9256 44.5090 0.0000 -2.3912 0.0000
# 3 28.6059 44.5090 97.0806 0.0000 9.4883 0.0000
# 4 0.0000 0.0000 0.0000 34.0295 0.0000 10.2829
# 5 1.8948 -2.3912 9.4883 0.0000 30.7936 0.0000
# 6 0.0000 0.0000 0.0000 10.2829 0.0000 37.6396
#
#
#
# Elastic Compliance Matrix: (Units=1/GPa)
#
#
# Indices 1 2 3 4 5 6 
#
# 1 0.022946 -0.005725 -0.004078 0.000000 -0.000600 0.000000
# 2 -0.005725 0.013774 -0.004915 0.000000 0.002936 0.000000
# 3 -0.004078 -0.004915 0.014196 0.000000 -0.004505 0.000000
# 4 0.000000 0.000000 0.000000 0.032030 0.000000 -0.008751
# 5 -0.000600 0.002936 -0.004505 0.000000 0.034127 0.000000
# 6 0.000000 0.000000 0.000000 -0.008751 0.000000 0.028958
#
#
# Mechanical properties :
#
#
# Convention : Reuss Voigt Hill
#
# Bulk Modulus (GPa) = 46.55436 52.26321 49.40879
# Shear Modulus (GPa) = 27.37790 30.52208 28.94999
#
# Velocity S-wave (km/s) = 3.77396 3.98478 3.88080
# Velocity P-wave (km/s) = 6.57338 6.95415 6.76644
#
# Compressibility (1/GPa) = 0.02148026
#
# Stress axis : x y z
#
# Youngs Moduli (GPa) = 43.58050 72.59862 70.44162
#
# Poissons Ratio (x) = 0.41562 0.28726
# Poissons Ratio (y) = 0.24950 0.34624
# Poissons Ratio (z) = 0.17772 0.35684
#
# Static dielectric constant tensor:
#      x y z
#    x 3.359220 0.000000 0.124690 
#    y 0.000000 3.569660 0.000000 
#    z 0.124690 0.000000 3.478360 
# 
# 
# High freq. dielectric constant tensor:
#      x y z
#    x 1.734770 0.000000 0.011610 
#    y 0.000000 1.763650 0.000000 
#    z 0.011610 0.000000 1.746630 
# 
# From -- ./inp_files/244185.got.cif
#   From: 2010.06.25/outbox.cif.g09.slc.cpg/sg12_123_cif.got.tgz:244185.got - 2010.06.28 00:19:55.
