data_PCOD8086848
_publ_section_title
;
Structure prediction by ZEFSAII (Michael W. Deem and Ramdas Pophale) SiO2 
 PCOD8086848
Probable space group: C 2/M
;
_chemical_formula_sum "Si O2"
_cell_formula_units_Z 56
_cell_length_a 12.862348
_cell_length_b 18.278962
_cell_length_c 14.378537
_cell_angle_alpha 90.000000
_cell_angle_beta 123.310196
_cell_angle_gamma 90.000000
_cell_volume 2825.152531
_symmetry_space_group_name_H-M "C 2/M"
_symmetry_group_IT_number 12
_symmetry_cell_setting 'monoclinic'
loop_
_space_group_symop_operation_xyz
x,y,z
-x,y,-z
-x,-y,-z
x,-y,z
1/2+x,1/2+y,z
1/2-x,1/2+y,-z
1/2-x,1/2-y,-z
1/2+x,1/2-y,z
loop_
_atom_site_type_symbol
_atom_site_label
_atom_site_fract_x
_atom_site_fract_y
_atom_site_fract_z
Si Si1 0.364993 0.705320 0.442190
Si Si2 0.554829 0.915453 0.322787
Si Si3 0.781502 0.587411 0.142675
Si Si4 0.894905 0.915981 0.784897
Si Si5 0.254213 0.848865 0.443153
Si Si6 0.671339 0.414123 0.898705
Si Si7 0.743731 0.415937 0.730425
O O1 0.500000 0.739775 0.500000
O O2 0.272590 0.774654 0.391947
O O3 0.352683 0.665183 0.534595
O O4 0.350195 0.643734 0.356288
O O5 0.416476 0.882678 0.241664
O O6 0.621194 0.873527 0.440739
O O7 0.625011 0.905065 0.258081
O O8 0.551834 0.000000 0.349871
O O9 0.787939 0.500000 0.147181
O O10 0.673729 0.617964 0.158274
O O11 0.750187 0.617438 0.024165
O O12 0.800316 0.909828 0.651787
O O13 0.030574 0.879784 0.831023
O O14 0.917098 0.000000 0.816975
O O15 0.656773 0.500000 0.904033
O O16 0.749059 0.397419 0.842895
O O17 0.696236 0.500000 0.692297
#
# Coordination Sequence:
#
# PCOD8086848 Si02
#       7
#     8   8   8   8   8   8   8
#     4  10  21  35  51  75 102 136 171 212 258 309
#     4   9  18  32  50  78 110 136 172 212 250 304
#     4   9  18  30  48  78 110 138 169 210 253 300
#     4  10  19  31  51  78 106 138 173 212 253 300
#     4  10  21  34  51  77 103 140 173 206 260 309
#     4   9  17  31  52  79 106 133 171 215 260 300
#     4   9  18  33  54  77 101 131 168 216 262 305
#
# _framework density 19.821937999999999
#
# number of rings (size 3 to 8) (size 9 to 14) (size 15 to 20)
#    0.000    2.571    0.000    1.714    2.000    3.143 
#    0.000    5.000    0.000    0.857   11.143    0.000 
#    0.000    0.000    0.000    0.000    0.000    0.000 
#
# Total GULP energy -346947.403985 kJ/mol
# GULP energy per Si atom -12390.978714 kJ/mol
# Density = 1.977682 g / cm^3
# Si number density = 19.821938 Si / 1000 Ang^3
#
#
#
# Elastic Constant Matrix: (Units=GPa)
#
#
# Indices 1 2 3 4 5 6 
#
# 1 76.4279 18.1513 44.7924 0.0000 1.3465 0.0000
# 2 18.1513 35.9134 23.8611 0.0000 -4.1313 0.0000
# 3 44.7924 23.8611 119.6469 0.0000 -0.2806 0.0000
# 4 0.0000 0.0000 0.0000 5.1681 0.0000 -3.8719
# 5 1.3465 -4.1313 -0.2806 0.0000 30.7783 0.0000
# 6 0.0000 0.0000 0.0000 -3.8719 0.0000 10.2212
#
#
#
# Elastic Compliance Matrix: (Units=1/GPa)
#
#
# Indices 1 2 3 4 5 6 
#
# 1 0.017637 -0.005421 -0.005525 0.000000 -0.001550 0.000000
# 2 -0.005421 0.034330 -0.004806 0.000000 0.004801 0.000000
# 3 -0.005525 -0.004806 0.011384 0.000000 -0.000300 0.000000
# 4 0.000000 0.000000 0.000000 0.270167 0.000000 0.102341
# 5 -0.001550 0.004801 -0.000300 0.000000 0.033200 0.000000
# 6 0.000000 0.000000 0.000000 0.102341 0.000000 0.136603
#
#
# Mechanical properties :
#
#
# Convention : Reuss Voigt Hill
#
# Bulk Modulus (GPa) = 31.40027 45.06642 38.23335
# Shear Modulus (GPa) = 9.16689 18.91241 14.03965
#
# Velocity S-wave (km/s) = 2.15283 3.09223 2.66426
# Velocity P-wave (km/s) = 4.69629 5.96105 5.36606
#
# Compressibility (1/GPa) = 0.03184686
#
# Stress axis : x y z
#
# Youngs Moduli (GPa) = 56.69784 29.12902 87.84157
#
# Poissons Ratio (x) = 0.15792 0.48536
# Poissons Ratio (y) = 0.30738 0.42213
# Poissons Ratio (z) = 0.31328 0.13998
#
# Static dielectric constant tensor:
#      x y z
#    x 3.826240 0.000000 -0.090640 
#    y 0.000000 3.219150 0.000000 
#    z -0.090640 0.000000 3.599520 
# 
# 
# High freq. dielectric constant tensor:
#      x y z
#    x 1.788310 0.000000 -0.009880 
#    y 0.000000 1.729570 0.000000 
#    z -0.009880 0.000000 1.761130 
# 
# From -- ./inp_files/206750.got.cif
#   From: 2010.06.25/outbox.cif.g09.slc.cpg/sg12_104_cif.got.tgz:206750.got - 2010.06.28 00:19:55.
