data_PCOD8086125
_publ_section_title
;
Structure prediction by ZEFSAII (Michael W. Deem and Ramdas Pophale) SiO2 
 PCOD8086125
Probable space group: C 2/M
;
_chemical_formula_sum "Si O2"
_cell_formula_units_Z 56
_cell_length_a 31.285371
_cell_length_b 8.734000
_cell_length_c 19.645910
_cell_angle_alpha 90.000000
_cell_angle_beta 143.158820
_cell_angle_gamma 90.000000
_cell_volume 3218.751964
_symmetry_space_group_name_H-M "C 2/M"
_symmetry_group_IT_number 12
_symmetry_cell_setting 'monoclinic'
loop_
_space_group_symop_operation_xyz
x,y,z
-x,y,-z
-x,-y,-z
x,-y,z
1/2+x,1/2+y,z
1/2-x,1/2+y,-z
1/2-x,1/2-y,-z
1/2+x,1/2-y,z
loop_
_atom_site_type_symbol
_atom_site_label
_atom_site_fract_x
_atom_site_fract_y
_atom_site_fract_z
Si Si1 0.099193 0.181205 0.384824
Si Si2 0.446962 0.681400 0.237758
Si Si3 0.065455 0.817805 0.626385
Si Si4 0.189052 0.822825 0.379383
Si Si5 0.295060 0.318726 0.995599
Si Si6 0.281924 0.318960 0.228965
Si Si7 0.725793 0.180797 0.635290
O O1 0.115368 0.219311 0.324887
O O2 0.154284 0.262876 0.506127
O O3 0.019616 0.244631 0.296496
O O4 0.104532 0.000000 0.406083
O O5 0.450868 0.500000 0.246505
O O6 0.439797 0.749437 0.304469
O O7 0.377638 0.732815 0.107178
O O8 0.138258 0.761638 0.684762
O O9 0.000000 0.749617 0.500000
O O10 0.062419 0.000000 0.623700
O O11 0.250000 0.750000 0.500000
O O12 0.202399 0.776103 0.317515
O O13 0.202576 0.000000 0.401853
O O14 0.286969 0.500000 0.989198
O O15 0.270717 0.258103 0.891804
O O16 0.250000 0.250000 0.000000
O O17 0.274913 0.500000 0.213049
O O18 0.261560 0.267250 0.278314
O O19 0.719299 0.000000 0.639941
#
# Coordination Sequence:
#
# PCOD8086125 Si02
#       7
#     8   8   8   8   8   8   8
#     4   9  16  30  53  77  99 130 169 201 238 294
#     4   9  17  30  50  74  97 126 165 206 243 286
#     4   9  16  27  46  71  96 122 154 195 240 285
#     4   8  15  27  46  72 101 130 161 198 239 291
#     4  11  21  36  54  72  97 130 169 210 250 289
#     4  11  21  34  52  72  96 130 173 209 243 291
#     4  10  19  31  47  74 109 135 158 198 253 298
#
# _framework density 17.398047999999999
#
# number of rings (size 3 to 8) (size 9 to 14) (size 15 to 20)
#    0.000    2.429    1.429    2.143    0.000    2.857 
#    0.000    1.429    0.000    2.571    0.000    6.000 
#    0.000    0.000    0.000    0.000    0.000    0.000 
#
# Total GULP energy -346931.273747 kJ/mol
# GULP energy per Si atom -12390.402634 kJ/mol
# Density = 1.735845 g / cm^3
# Si number density = 17.398048 Si / 1000 Ang^3
#
#
#
# Elastic Constant Matrix: (Units=GPa)
#
#
# Indices 1 2 3 4 5 6 
#
# 1 156.1485 30.2985 69.1449 0.0000 -13.8468 0.0000
# 2 30.2985 35.8080 27.5228 0.0000 0.5661 0.0000
# 3 69.1449 27.5228 126.6059 0.0000 -7.8074 0.0000
# 4 0.0000 0.0000 0.0000 23.0118 0.0000 -4.0746
# 5 -13.8468 0.5661 -7.8074 0.0000 15.9788 0.0000
# 6 0.0000 0.0000 0.0000 -4.0746 0.0000 22.6100
#
#
#
# Elastic Compliance Matrix: (Units=1/GPa)
#
#
# Indices 1 2 3 4 5 6 
#
# 1 0.009705 -0.005484 -0.003689 0.000000 0.006802 0.000000
# 2 -0.005484 0.037004 -0.005592 0.000000 -0.008795 0.000000
# 3 -0.003689 -0.005592 0.011284 0.000000 0.002515 0.000000
# 4 0.000000 0.000000 0.000000 0.044888 0.000000 0.008089
# 5 0.006802 -0.008795 0.002515 0.000000 0.070018 0.000000
# 6 0.000000 0.000000 0.000000 0.008089 0.000000 0.045686
#
#
# Mechanical properties :
#
#
# Convention : Reuss Voigt Hill
#
# Bulk Modulus (GPa) = 35.13222 63.61054 49.37138
# Shear Modulus (GPa) = 19.40991 25.09320 22.25155
#
# Velocity S-wave (km/s) = 3.34374 3.80188 3.58015
# Velocity P-wave (km/s) = 5.92828 7.47754 6.74752
#
# Compressibility (1/GPa) = 0.02846390
#
# Stress axis : x y z
#
# Youngs Moduli (GPa) = 103.04200 27.02432 88.62368
#
# Poissons Ratio (x) = 0.14820 0.32690
# Poissons Ratio (y) = 0.56508 0.49555
# Poissons Ratio (z) = 0.38008 0.15111
#
# Static dielectric constant tensor:
#      x y z
#    x -0.464690 0.000000 -0.997320 
#    y 0.000000 3.056780 0.000000 
#    z -0.997320 0.000000 2.962900 
# 
# 
# High freq. dielectric constant tensor:
#      x y z
#    x 1.688820 0.000000 -0.004090 
#    y 0.000000 1.653820 0.000000 
#    z -0.004090 0.000000 1.648860 
# 
# From -- ./inp_files/295162.got.cif
#   From: 2010.06.25/outbox.cif.g09.slc.cpg/sg12_148_cif.got.tgz:295162.got - 2010.06.28 00:19:55.
