data_PCOD8086141
_publ_section_title
;
Structure prediction by ZEFSAII (Michael W. Deem and Ramdas Pophale) SiO2 
 PCOD8086141
Probable space group: C 2/M
;
_chemical_formula_sum "Si O2"
_cell_formula_units_Z 40
_cell_length_a 20.541289
_cell_length_b 9.082355
_cell_length_c 13.649662
_cell_angle_alpha 90.000000
_cell_angle_beta 89.897003
_cell_angle_gamma 90.000000
_cell_volume 2546.521583
_symmetry_space_group_name_H-M "C 2/M"
_symmetry_group_IT_number 12
_symmetry_cell_setting 'monoclinic'
loop_
_space_group_symop_operation_xyz
x,y,z
-x,y,-z
-x,-y,-z
x,-y,z
1/2+x,1/2+y,z
1/2-x,1/2+y,-z
1/2-x,1/2-y,-z
1/2+x,1/2-y,z
loop_
_atom_site_type_symbol
_atom_site_label
_atom_site_fract_x
_atom_site_fract_y
_atom_site_fract_z
Si Si1 0.923840 0.166337 0.217576
Si Si2 0.177495 0.670753 0.099149
Si Si3 0.450793 0.826321 0.785374
Si Si4 0.692549 0.828627 0.873917
Si Si5 0.008019 0.166588 0.391489
O O1 0.856831 0.249892 0.199433
O O2 0.985068 0.250747 0.165896
O O3 0.938121 0.166258 0.335040
O O4 0.919561 0.000000 0.176550
O O5 0.193008 0.500000 0.117617
O O6 0.111452 0.720889 0.151626
O O7 0.235808 0.764765 0.145050
O O8 0.169559 0.704384 0.984395
O O9 0.442183 0.765971 0.673458
O O10 0.461024 0.000000 0.784460
O O11 0.693423 0.000000 0.849609
O O12 0.000000 0.234690 0.500000
O O13 0.035710 0.000000 0.398795
#
# Coordination Sequence:
#
# PCOD8086141 Si02
#       5
#     8   8   8   8   8
#     4   9  18  31  47  69  95 123 153 192 235 273
#     4   9  19  33  47  66  96 129 156 189 233 272
#     4   9  17  30  48  71  94 120 155 193 230 272
#     4  10  19  31  48  68  93 127 162 192 224 272
#     4   8  16  31  49  69  93 121 151 188 236 279
#
# _framework density 15.707701
#
# number of rings (size 3 to 8) (size 9 to 14) (size 15 to 20)
#    1.200    1.800    0.000    1.200    0.000    3.600 
#    0.000    4.000    0.000    1.200    0.000    0.000 
#    0.000    0.000    0.000    0.000    0.000    0.000 
#
# Total GULP energy -247826.631459 kJ/mol
# GULP energy per Si atom -12391.331573 kJ/mol
# Density = 1.567195 g / cm^3
# Si number density = 15.707701 Si / 1000 Ang^3
#
#
#
# Elastic Constant Matrix: (Units=GPa)
#
#
# Indices 1 2 3 4 5 6 
#
# 1 69.2204 40.7796 20.9700 0.0000 18.1925 0.0000
# 2 40.7796 81.2178 22.1522 0.0000 11.2931 0.0000
# 3 20.9700 22.1522 45.2901 0.0000 10.6369 0.0000
# 4 0.0000 0.0000 0.0000 22.6317 0.0000 2.3698
# 5 18.1925 11.2931 10.6369 0.0000 14.2957 0.0000
# 6 0.0000 0.0000 0.0000 2.3698 0.0000 31.1681
#
#
#
# Elastic Compliance Matrix: (Units=1/GPa)
#
#
# Indices 1 2 3 4 5 6 
#
# 1 0.027582 -0.009711 -0.001913 0.000000 -0.026005 0.000000
# 2 -0.009711 0.018292 -0.004798 0.000000 0.001478 0.000000
# 3 -0.001913 -0.004798 0.028901 0.000000 -0.015279 0.000000
# 4 0.000000 0.000000 0.000000 0.044540 0.000000 -0.003387
# 5 -0.026005 0.001478 -0.015279 0.000000 0.113246 0.000000
# 6 0.000000 0.000000 0.000000 -0.003387 0.000000 0.032342
#
#
# Mechanical properties :
#
#
# Convention : Reuss Voigt Hill
#
# Bulk Modulus (GPa) = 23.84905 40.39244 32.12075
# Shear Modulus (GPa) = 16.03988 21.07421 18.55704
#
# Velocity S-wave (km/s) = 3.19901 3.66683 3.44088
# Velocity P-wave (km/s) = 5.37223 6.61047 6.02326
#
# Compressibility (1/GPa) = 0.04193039
#
# Stress axis : x y z
#
# Youngs Moduli (GPa) = 36.25545 54.67011 34.60108
#
# Poissons Ratio (x) = 0.53091 0.06620
# Poissons Ratio (y) = 0.35208 0.16600
# Poissons Ratio (z) = 0.06937 0.26228
#
# Static dielectric constant tensor:
#      x y z
#    x 2.826300 0.000000 0.008360 
#    y 0.000000 3.029170 0.000000 
#    z 0.008360 0.000000 2.820870 
# 
# 
# High freq. dielectric constant tensor:
#      x y z
#    x 1.586330 0.000000 0.005360 
#    y 0.000000 1.616100 0.000000 
#    z 0.005360 0.000000 1.577870 
# 
# From -- ./inp_files/228917.got.cif
#   From: 2010.06.25/outbox.cif.g09.slc.cpg/sg12_115_cif.got.tgz:228917.got - 2010.06.28 00:19:55.
