data_PCOD8086024
_publ_section_title
;
Structure prediction by ZEFSAII (Michael W. Deem and Ramdas Pophale) SiO2 
 PCOD8086024
Probable space group: C 2/M
;
_chemical_formula_sum "Si O2"
_cell_formula_units_Z 56
_cell_length_a 19.858395
_cell_length_b 9.193503
_cell_length_c 24.805917
_cell_angle_alpha 90.000000
_cell_angle_beta 135.702321
_cell_angle_gamma 90.000000
_cell_volume 3162.832263
_symmetry_space_group_name_H-M "C 2/M"
_symmetry_group_IT_number 12
_symmetry_cell_setting 'monoclinic'
loop_
_space_group_symop_operation_xyz
x,y,z
-x,y,-z
-x,-y,-z
x,-y,z
1/2+x,1/2+y,z
1/2-x,1/2+y,-z
1/2-x,1/2-y,-z
1/2+x,1/2-y,z
loop_
_atom_site_type_symbol
_atom_site_label
_atom_site_fract_x
_atom_site_fract_y
_atom_site_fract_z
Si Si1 0.953276 0.171933 0.222904
Si Si2 0.712592 0.326382 0.675453
Si Si3 0.410364 0.341457 0.488044
Si Si4 0.752551 0.169047 0.057208
Si Si5 0.955489 0.671200 0.028684
Si Si6 0.431468 0.826998 0.802231
Si Si7 0.957060 0.174141 0.346923
O O1 0.844965 0.215922 0.144410
O O2 0.967254 0.229283 0.291769
O O3 0.029651 0.253999 0.229653
O O4 0.969946 0.000000 0.227468
O O5 0.706494 0.500000 0.668665
O O6 0.673918 0.261881 0.595244
O O7 0.821507 0.275317 0.748094
O O8 0.644416 0.270968 0.685379
O O9 0.500000 0.361617 0.500000
O O10 0.371335 0.500000 0.483234
O O11 0.451469 0.262486 0.565780
O O12 0.753690 0.000000 0.044120
O O13 0.750000 0.250000 0.000000
O O14 0.657339 0.210703 0.036322
O O15 0.973825 0.500000 0.038641
O O16 0.007540 0.733311 0.111988
O O17 0.000000 0.741626 0.000000
O O18 0.440168 0.000000 0.801136
O O19 0.958539 0.000000 0.349894
#
# Coordination Sequence:
#
# PCOD8086024 Si02
#       7
#     8   8   8   8   8   8   8
#     4  10  20  31  46  67  93 122 150 181 217 267
#     4   8  14  24  43  68  89 114 150 190 226 259
#     4   7  10  20  38  62  91 115 140 182 229 263
#     4  10  19  32  49  67  89 119 151 181 218 265
#     4   9  18  30  46  68  90 112 144 188 229 260
#     4  10  19  31  47  67  93 120 147 185 228 266
#     4   8  14  25  43  67  91 116 149 187 224 261
#
# _framework density 17.705649000000001
#
# number of rings (size 3 to 8) (size 9 to 14) (size 15 to 20)
#    0.000    3.143    1.429    1.714    2.000    0.000 
#    0.000    0.714    0.000    2.571    0.000    0.000 
#    0.000    3.429    0.000    0.000    0.000    0.000 
#
# Total GULP energy -346896.257252 kJ/mol
# GULP energy per Si atom -12389.152045 kJ/mol
# Density = 1.766535 g / cm^3
# Si number density = 17.705649 Si / 1000 Ang^3
#
#
#
# Elastic Constant Matrix: (Units=GPa)
#
#
# Indices 1 2 3 4 5 6 
#
# 1 108.2766 15.1881 46.0655 0.0000 -17.9254 0.0000
# 2 15.1881 9.7624 10.9062 0.0000 -2.8393 0.0000
# 3 46.0655 10.9062 103.6710 0.0000 -20.2612 0.0000
# 4 0.0000 0.0000 0.0000 10.2105 0.0000 -3.6625
# 5 -17.9254 -2.8393 -20.2612 0.0000 34.4169 0.0000
# 6 0.0000 0.0000 0.0000 -3.6625 0.0000 19.1439
#
#
#
# Elastic Compliance Matrix: (Units=1/GPa)
#
#
# Indices 1 2 3 4 5 6 
#
# 1 0.013652 -0.016091 -0.003665 0.000000 0.003625 0.000000
# 2 -0.016091 0.135263 -0.007387 0.000000 -0.001570 0.000000
# 3 -0.003665 -0.007387 0.013062 0.000000 0.005172 0.000000
# 4 0.000000 0.000000 0.000000 0.105154 0.000000 0.020117
# 5 0.003625 -0.001570 0.005172 0.000000 0.033859 0.000000
# 6 0.000000 0.000000 0.000000 0.020117 0.000000 0.056085
#
#
# Mechanical properties :
#
#
# Convention : Reuss Voigt Hill
#
# Bulk Modulus (GPa) = 9.28573 40.66997 24.97785
# Shear Modulus (GPa) = 11.17926 22.72429 16.95178
#
# Velocity S-wave (km/s) = 2.51548 3.58641 3.09758
# Velocity P-wave (km/s) = 3.70037 6.33796 5.18953
#
# Compressibility (1/GPa) = 0.10769208
#
# Stress axis : x y z
#
# Youngs Moduli (GPa) = 73.24883 7.39302 76.55701
#
# Poissons Ratio (x) = 0.11896 0.28057
# Poissons Ratio (y) = 1.17864 0.56550
# Poissons Ratio (z) = 0.26845 0.05461
#
# Static dielectric constant tensor:
#      x y z
#    x 2.948560 0.000000 -0.039090 
#    y 0.000000 2.669650 0.000000 
#    z -0.039090 0.000000 3.726900 
# 
# 
# High freq. dielectric constant tensor:
#      x y z
#    x 1.676120 0.000000 -0.002160 
#    y 0.000000 1.612040 0.000000 
#    z -0.002160 0.000000 1.706210 
# 
# From -- ./inp_files/276098.got.cif
#   From: 2010.06.25/outbox.cif.g09.slc.cpg/sg12_139_cif.got.tgz:276098.got - 2010.06.28 00:19:55.
