data_PCOD8086715
_publ_section_title
;
Structure prediction by ZEFSAII (Michael W. Deem and Ramdas Pophale) SiO2 
 PCOD8086715
Probable space group: C 2/M
;
_chemical_formula_sum "Si O2"
_cell_formula_units_Z 64
_cell_length_a 31.243919
_cell_length_b 9.175106
_cell_length_c 15.980569
_cell_angle_alpha 90.000000
_cell_angle_beta 45.755668
_cell_angle_gamma 90.000000
_cell_volume 3281.759945
_symmetry_space_group_name_H-M "C 2/M"
_symmetry_group_IT_number 12
_symmetry_cell_setting 'monoclinic'
loop_
_space_group_symop_operation_xyz
x,y,z
-x,y,-z
-x,-y,-z
x,-y,z
1/2+x,1/2+y,z
1/2-x,1/2+y,-z
1/2-x,1/2-y,-z
1/2+x,1/2-y,z
loop_
_atom_site_type_symbol
_atom_site_label
_atom_site_fract_x
_atom_site_fract_y
_atom_site_fract_z
Si Si1 0.513577 0.328555 0.573304
Si Si2 0.954917 0.173473 0.821276
Si Si3 0.676914 0.328606 0.016287
Si Si4 0.272675 0.169210 0.584632
Si Si5 0.464841 0.672121 0.132998
Si Si6 0.351783 0.336641 0.597579
Si Si7 0.338666 0.828830 0.323627
Si Si8 0.288148 0.337117 0.849245
O O1 0.500000 0.258022 0.500000
O O2 0.502361 0.500000 0.581198
O O3 0.474225 0.263971 0.703606
O O4 0.580456 0.291844 0.510545
O O5 0.887036 0.226231 0.931030
O O6 0.996556 0.229101 0.840317
O O7 0.958038 0.000000 0.813685
O O8 0.681762 0.500000 0.998761
O O9 0.683917 0.276837 0.102998
O O10 0.731684 0.255523 0.891795
O O11 0.308834 0.217984 0.616107
O O12 0.316164 0.204556 0.447815
O O13 0.211064 0.259106 0.668931
O O14 0.256116 0.000000 0.611894
O O15 0.452605 0.500000 0.155447
O O16 0.401973 0.754339 0.220156
O O17 0.500000 0.711156 0.000000
O O18 0.338936 0.500000 0.579723
O O19 0.341803 0.332730 0.710431
O O20 0.344060 0.000000 0.298065
O O21 0.264166 0.500000 0.895701
#
# Coordination Sequence:
#
# PCOD8086715 Si02
#       8
#     8   8   8   8   8   8   8   8
#     4   9  16  27  48  77 104 132 169 214 261 306
#     4   9  17  30  49  72  99 133 172 212 253 301
#     4   9  17  31  50  70  96 134 178 217 255 302
#     4  10  21  36  56  80 105 135 171 215 267 324
#     4  10  21  36  54  78 109 144 180 217 260 315
#     4  10  19  31  50  77 106 133 167 213 264 317
#     4  10  21  38  58  79 104 135 173 217 268 319
#     4   9  18  31  47  71 102 133 168 214 261 305
#
# _framework density 19.501730999999999
#
# number of rings (size 3 to 8) (size 9 to 14) (size 15 to 20)
#    0.000    2.500    0.000    2.250    0.000    7.250 
#    0.000    1.875    0.000    1.125    0.000    0.000 
#    0.000    0.000    0.000    0.000    0.000    0.000 
#
# Total GULP energy -396692.581595 kJ/mol
# GULP energy per Si atom -12396.643175 kJ/mol
# Density = 1.945734 g / cm^3
# Si number density = 19.501731 Si / 1000 Ang^3
#
#
#
# Elastic Constant Matrix: (Units=GPa)
#
#
# Indices 1 2 3 4 5 6 
#
# 1 90.3372 26.8642 32.4669 0.0000 -3.3011 0.0000
# 2 26.8642 50.0672 32.3367 0.0004 -11.4438 -0.0002
# 3 32.4669 32.3367 90.5648 0.0001 -17.5995 0.0000
# 4 0.0000 0.0004 0.0001 24.9915 0.0000 -5.5864
# 5 -3.3011 -11.4438 -17.5995 0.0000 30.9335 0.0000
# 6 0.0000 -0.0002 0.0000 -5.5864 0.0000 23.3409
#
#
#
# Elastic Compliance Matrix: (Units=1/GPa)
#
#
# Indices 1 2 3 4 5 6 
#
# 1 0.013949 -0.005882 -0.003411 0.000000 -0.002628 0.000000
# 2 -0.005882 0.029109 -0.007099 0.000000 0.006102 0.000000
# 3 -0.003411 -0.007099 0.015986 0.000000 0.006105 0.000000
# 4 0.000000 0.000000 0.000000 0.042275 0.000000 0.010118
# 5 -0.002628 0.006102 0.006105 0.000000 0.037778 0.000000
# 6 0.000000 0.000000 0.000000 0.010118 0.000000 0.045265
#
#
# Mechanical properties :
#
#
# Convention : Reuss Voigt Hill
#
# Bulk Modulus (GPa) = 38.08180 46.03386 42.05783
# Shear Modulus (GPa) = 22.13383 25.13995 23.63689
#
# Velocity S-wave (km/s) = 3.37258 3.59432 3.48521
# Velocity P-wave (km/s) = 5.89369 6.39388 6.14887
#
# Compressibility (1/GPa) = 0.02625926
#
# Stress axis : x y z
#
# Youngs Moduli (GPa) = 71.69140 34.35368 62.55564
#
# Poissons Ratio (x) = 0.20207 0.21338
# Poissons Ratio (y) = 0.42169 0.44409
# Poissons Ratio (z) = 0.24454 0.24388
#
# Static dielectric constant tensor:
#      x y z
#    x 3.613950 0.000000 -0.029280 
#    y 0.000000 3.238990 0.000000 
#    z -0.029280 0.000000 3.647040 
# 
# 
# High freq. dielectric constant tensor:
#      x y z
#    x 1.761800 0.000000 -0.007080 
#    y 0.000000 1.720970 0.000000 
#    z -0.007080 0.000000 1.766280 
# 
# From -- ./inp_files/295530.got.cif
#   From: 2010.06.25/outbox.cif.g09.slc.cpg/sg12_148_cif.got.tgz:295530.got - 2010.06.28 00:19:55.
