data_PCOD8086378
_publ_section_title
;
Structure prediction by ZEFSAII (Michael W. Deem and Ramdas Pophale) SiO2 
 PCOD8086378
Probable space group: C 2/M
;
_chemical_formula_sum "Si O2"
_cell_formula_units_Z 64
_cell_length_a 19.025873
_cell_length_b 8.945780
_cell_length_c 28.004307
_cell_angle_alpha 90.000000
_cell_angle_beta 48.910204
_cell_angle_gamma 90.000000
_cell_volume 3592.318954
_symmetry_space_group_name_H-M "C 2/M"
_symmetry_group_IT_number 12
_symmetry_cell_setting 'monoclinic'
loop_
_space_group_symop_operation_xyz
x,y,z
-x,y,-z
-x,-y,-z
x,-y,z
1/2+x,1/2+y,z
1/2-x,1/2+y,-z
1/2-x,1/2-y,-z
1/2+x,1/2-y,z
loop_
_atom_site_type_symbol
_atom_site_label
_atom_site_fract_x
_atom_site_fract_y
_atom_site_fract_z
Si Si1 0.336884 0.171607 0.645817
Si Si2 0.856584 0.326759 0.366891
Si Si3 0.897084 0.825171 0.062062
Si Si4 0.645645 0.674172 0.460636
Si Si5 0.331780 0.323458 0.993464
Si Si6 0.351439 0.177743 0.262935
Si Si7 0.960569 0.823155 0.132084
Si Si8 0.965673 0.672643 0.407291
O O1 0.372257 0.238440 0.580190
O O2 0.249891 0.260525 0.707065
O O3 0.422615 0.186271 0.644435
O O4 0.307804 0.000000 0.651267
O O5 0.878430 0.500000 0.352990
O O6 0.751111 0.296448 0.431120
O O7 0.873589 0.259590 0.306369
O O8 0.926046 0.258130 0.375433
O O9 0.891453 0.766516 0.119436
O O10 0.881510 0.000000 0.070550
O O11 0.828326 0.763272 0.050765
O O12 0.000000 0.785351 0.000000
O O13 0.627926 0.500000 0.458764
O O14 0.574365 0.731792 0.531580
O O15 0.317054 0.500000 0.998998
O O16 0.431928 0.281975 0.926186
O O17 0.250000 0.250000 0.000000
O O18 0.431466 0.237202 0.192590
O O19 0.347561 0.000000 0.263106
O O20 0.949350 0.000000 0.144288
O O21 0.934412 0.500000 0.427918
#
# Coordination Sequence:
#
# PCOD8086378 Si02
#       8
#     8   8   8   8   8   8   8   8
#     4  10  20  33  50  70  93 124 161 200 238 282
#     4   8  17  33  49  67  93 125 160 197 237 284
#     4   7  12  26  48  71  94 125 164 197 224 264
#     4  10  19  31  49  72  98 125 153 193 246 296
#     4   9  17  30  50  77 107 133 158 195 240 281
#     4  10  20  35  53  71  94 125 161 201 244 287
#     4   9  17  32  54  74  94 127 169 202 229 275
#     4  10  19  32  50  70  92 120 158 200 240 287
#
# _framework density 17.815788999999999
#
# number of rings (size 3 to 8) (size 9 to 14) (size 15 to 20)
#    0.000    2.875    0.000    4.125    0.000    3.000 
#    0.000    5.000    0.000    8.250    0.000    0.000 
#    0.000    0.000    0.000    0.000    0.000    0.000 
#
# Total GULP energy -396479.572364 kJ/mol
# GULP energy per Si atom -12389.986636 kJ/mol
# Density = 1.777524 g / cm^3
# Si number density = 17.815789 Si / 1000 Ang^3
#
#
#
# Elastic Constant Matrix: (Units=GPa)
#
#
# Indices 1 2 3 4 5 6 
#
# 1 116.8511 30.5901 36.6953 -0.0003 -10.9172 -0.0009
# 2 30.5901 58.0203 30.9747 -0.0016 -2.3052 -0.0017
# 3 36.6953 30.9747 83.1942 -0.0001 3.0333 0.0000
# 4 -0.0003 -0.0016 -0.0001 27.3388 0.0000 -1.3109
# 5 -10.9172 -2.3052 3.0333 0.0000 15.2281 0.0001
# 6 -0.0009 -0.0017 0.0000 -1.3109 0.0001 23.6410
#
#
#
# Elastic Compliance Matrix: (Units=1/GPa)
#
#
# Indices 1 2 3 4 5 6 
#
# 1 0.011580 -0.003583 -0.004086 0.000000 0.008573 0.000000
# 2 -0.003583 0.022987 -0.007062 0.000001 0.002318 0.000002
# 3 -0.004086 -0.007062 0.016719 0.000000 -0.007329 -0.000001
# 4 0.000000 0.000001 0.000000 0.036676 0.000000 0.002034
# 5 0.008573 0.002318 -0.007329 0.000000 0.073625 0.000000
# 6 0.000000 0.000002 -0.000001 0.002034 0.000000 0.042412
#
#
# Mechanical properties :
#
#
# Convention : Reuss Voigt Hill
#
# Bulk Modulus (GPa) = 45.82469 50.50953 48.16711
# Shear Modulus (GPa) = 20.76951 23.89527 22.33239
#
# Velocity S-wave (km/s) = 3.41807 3.66627 3.54434
# Velocity P-wave (km/s) = 6.43078 6.80695 6.62154
#
# Compressibility (1/GPa) = 0.02182230
#
# Stress axis : x y z
#
# Youngs Moduli (GPa) = 86.35429 43.50283 59.81170
#
# Poissons Ratio (x) = 0.15588 0.24441
# Poissons Ratio (y) = 0.30943 0.42242
# Poissons Ratio (z) = 0.35287 0.30724
#
# Static dielectric constant tensor:
#      x y z
#    x 3.783630 0.000000 0.214310 
#    y 0.000000 3.087330 0.000000 
#    z 0.214310 0.000000 3.157900 
# 
# 
# High freq. dielectric constant tensor:
#      x y z
#    x 1.699920 0.000000 0.007540 
#    y 0.000000 1.668250 0.000000 
#    z 0.007540 0.000000 1.666740 
# 
# From -- ./inp_files/378168.got.cif
#   From: 2010.06.25/outbox.cif.g09.slc.cpg/sg12_190_cif.got.tgz:378168.got - 2010.06.28 00:19:55.
