data_PCOD8086799
_publ_section_title
;
Structure prediction by ZEFSAII (Michael W. Deem and Ramdas Pophale) SiO2 
 PCOD8086799
Probable space group: C 2/M
;
_chemical_formula_sum "Si O2"
_cell_formula_units_Z 40
_cell_length_a 5.160882
_cell_length_b 44.001975
_cell_length_c 10.704046
_cell_angle_alpha 90.000000
_cell_angle_beta 118.307795
_cell_angle_gamma 90.000000
_cell_volume 2140.082112
_symmetry_space_group_name_H-M "C 2/M"
_symmetry_group_IT_number 12
_symmetry_cell_setting 'monoclinic'
loop_
_space_group_symop_operation_xyz
x,y,z
-x,y,-z
-x,-y,-z
x,-y,z
1/2+x,1/2+y,z
1/2-x,1/2+y,-z
1/2-x,1/2-y,-z
1/2+x,1/2-y,z
loop_
_atom_site_type_symbol
_atom_site_label
_atom_site_fract_x
_atom_site_fract_y
_atom_site_fract_z
Si Si1 0.666887 0.534031 0.668485
Si Si2 0.646323 0.631773 0.163713
Si Si3 0.353768 0.829791 0.836666
Si Si4 0.672354 0.731289 0.666385
Si Si5 0.833207 0.570316 0.331421
O O1 0.500000 0.532190 0.500000
O O2 0.716055 0.500000 0.732133
O O3 0.477345 0.553397 0.723177
O O4 0.979468 0.550187 0.722147
O O5 0.402708 0.645720 0.199816
O O6 0.787121 0.603066 0.262402
O O7 0.903025 0.656269 0.199942
O O8 0.500000 0.621618 0.000000
O O9 0.212632 0.800484 0.742983
O O10 0.500000 0.819831 0.000000
O O11 0.500000 0.724745 0.500000
O O12 0.487327 0.753541 0.713225
O O13 0.000000 0.574500 0.500000
#
# Coordination Sequence:
#
# PCOD8086799 Si02
#       5
#     8   8   8   8   8
#     4   9  17  30  49  74 102 129 162 207 251 292
#     4  10  21  36  52  73 103 134 165 206 252 292
#     4  10  21  36  54  75  99 133 172 204 242 294
#     4  10  21  36  54  78 106 133 162 202 252 296
#     4  10  19  31  51  76  98 128 169 205 245 298
#
# _framework density 18.690871999999999
#
# number of rings (size 3 to 8) (size 9 to 14) (size 15 to 20)
#    0.000    2.200    0.000    3.000    0.000    4.800 
#    0.000    0.000    0.000    3.600    0.000    0.000 
#    0.000    0.000    0.000    0.000    0.000    0.000 
#
# Total GULP energy -248079.155248 kJ/mol
# GULP energy per Si atom -12403.957762 kJ/mol
# Density = 1.864833 g / cm^3
# Si number density = 18.690872 Si / 1000 Ang^3
#
#
#
# Elastic Constant Matrix: (Units=GPa)
#
#
# Indices 1 2 3 4 5 6 
#
# 1 113.4148 24.2560 25.9181 0.0000 -7.3205 0.0000
# 2 24.2560 106.4718 44.5779 0.0000 1.3487 0.0000
# 3 25.9181 44.5779 35.9962 0.0000 0.2192 0.0000
# 4 0.0000 0.0000 0.0000 124.4917 0.0000 35.0933
# 5 -7.3205 1.3487 0.2192 0.0000 13.6569 0.0000
# 6 0.0000 0.0000 0.0000 35.0933 0.0000 36.7902
#
#
#
# Elastic Compliance Matrix: (Units=1/GPa)
#
#
# Indices 1 2 3 4 5 6 
#
# 1 0.011157 0.001581 -0.010027 0.000000 0.005985 0.000000
# 2 0.001581 0.019762 -0.025608 0.000000 -0.000693 0.000000
# 3 -0.010027 -0.025608 0.066737 0.000000 -0.003917 0.000000
# 4 0.000000 0.000000 0.000000 0.010987 0.000000 -0.010480
# 5 0.005985 -0.000693 -0.003917 0.000000 0.076563 0.000000
# 6 0.000000 0.000000 0.000000 -0.010480 0.000000 0.037178
#
#
# Mechanical properties :
#
#
# Convention : Reuss Voigt Hill
#
# Bulk Modulus (GPa) = 33.84334 49.48740 41.66537
# Shear Modulus (GPa) = 16.64770 45.72982 31.18876
#
# Velocity S-wave (km/s) = 2.98767 4.95172 4.08936
# Velocity P-wave (km/s) = 5.48159 7.69590 6.68112
#
# Compressibility (1/GPa) = 0.02954791
#
# Stress axis : x y z
#
# Youngs Moduli (GPa) = 89.63036 50.60135 14.98418
#
# Poissons Ratio (x) = -0.07998 0.15025
# Poissons Ratio (y) = -0.14168 0.38371
# Poissons Ratio (z) = 0.89874 1.29578
#
# Static dielectric constant tensor:
#      x y z
#    x 3.785190 0.000000 -0.028880 
#    y 0.000000 3.359880 0.000000 
#    z -0.028880 0.000000 3.164150 
# 
# 
# High freq. dielectric constant tensor:
#      x y z
#    x 1.749520 0.000000 -0.003340 
#    y 0.000000 1.734250 0.000000 
#    z -0.003340 0.000000 1.694680 
# 
# From -- ./inp_files/116174.got.cif
#   From: 2010.06.25/outbox.cif.g09.slc.cpg/sg12_59_cif.got.tgz:116174.got - 2010.06.28 00:19:55.
