data_PCOD8086080
_publ_section_title
;
Structure prediction by ZEFSAII (Michael W. Deem and Ramdas Pophale) SiO2 
 PCOD8086080
Probable space group: C 2/M
;
_chemical_formula_sum "Si O2"
_cell_formula_units_Z 56
_cell_length_a 18.954385
_cell_length_b 8.983591
_cell_length_c 18.429119
_cell_angle_alpha 90.000000
_cell_angle_beta 84.981327
_cell_angle_gamma 90.000000
_cell_volume 3126.051030
_symmetry_space_group_name_H-M "C 2/M"
_symmetry_group_IT_number 12
_symmetry_cell_setting 'monoclinic'
loop_
_space_group_symop_operation_xyz
x,y,z
-x,y,-z
-x,-y,-z
x,-y,z
1/2+x,1/2+y,z
1/2-x,1/2+y,-z
1/2-x,1/2-y,-z
1/2+x,1/2-y,z
loop_
_atom_site_type_symbol
_atom_site_label
_atom_site_fract_x
_atom_site_fract_y
_atom_site_fract_z
Si Si1 0.657456 0.168284 0.545854
Si Si2 0.553382 0.830773 0.928645
Si Si3 0.996211 0.331181 0.417617
Si Si4 0.800477 0.824846 0.595315
Si Si5 0.565899 0.675634 0.141433
Si Si6 0.827808 0.823168 0.996624
Si Si7 0.404045 0.675046 0.701938
O O1 0.586022 0.176569 0.598536
O O2 0.720516 0.233937 0.590521
O O3 0.649069 0.256709 0.471230
O O4 0.675959 0.000000 0.522111
O O5 0.510108 0.750983 0.868118
O O6 0.572687 0.000000 0.905089
O O7 0.500000 0.826758 0.000000
O O8 0.626558 0.744183 0.940415
O O9 0.025936 0.500000 0.411335
O O10 0.000000 0.272298 0.500000
O O11 0.034398 0.229205 0.356348
O O12 0.829134 0.776315 0.672158
O O13 0.806203 0.000000 0.587467
O O14 0.552987 0.500000 0.141587
O O15 0.628998 0.717415 0.080339
O O16 0.590188 0.739798 0.217509
O O17 0.819853 0.000000 0.007775
O O18 0.750000 0.750000 0.000000
O O19 0.411083 0.500000 0.706988
#
# Coordination Sequence:
#
# PCOD8086080 Si02
#       7
#     8   8   8   8   8   8   8
#     4   9  17  30  46  65  91 122 160 206 251 298
#     4   9  17  31  53  79 104 132 171 211 248 302
#     4  10  19  31  47  69  97 128 165 210 257 301
#     4   9  17  29  47  68  89 120 161 203 247 294
#     4   9  19  35  52  73 104 140 171 209 262 313
#     4  10  19  33  55  81 109 139 173 212 255 303
#     4  10  20  33  50  72  99 130 167 209 253 304
#
# _framework density 17.913974
#
# number of rings (size 3 to 8) (size 9 to 14) (size 15 to 20)
#    0.000    2.571    1.429    0.857    0.000    3.714 
#    0.000    1.429    0.000    3.429    0.000    0.000 
#    0.000    0.000    0.000    0.000    0.000    0.000 
#
# Total GULP energy -346996.226645 kJ/mol
# GULP energy per Si atom -12392.722380 kJ/mol
# Density = 1.787320 g / cm^3
# Si number density = 17.913974 Si / 1000 Ang^3
#
#
#
# Elastic Constant Matrix: (Units=GPa)
#
#
# Indices 1 2 3 4 5 6 
#
# 1 109.6625 37.3189 54.9283 0.0000 23.2065 0.0000
# 2 37.3189 44.0379 32.0870 0.0000 16.3371 0.0000
# 3 54.9283 32.0870 122.6350 0.0000 27.2388 0.0000
# 4 0.0000 0.0000 0.0000 21.0291 0.0000 2.9518
# 5 23.2065 16.3371 27.2388 0.0000 26.4476 0.0000
# 6 0.0000 0.0000 0.0000 2.9518 0.0000 28.8822
#
#
#
# Elastic Compliance Matrix: (Units=1/GPa)
#
#
# Indices 1 2 3 4 5 6 
#
# 1 0.014523 -0.008293 -0.003426 0.000000 -0.004092 0.000000
# 2 -0.008293 0.036498 -0.003169 0.000000 -0.012005 0.000000
# 3 -0.003426 -0.003169 0.012208 0.000000 -0.007610 0.000000
# 4 0.000000 0.000000 0.000000 0.048245 0.000000 -0.004931
# 5 -0.004092 -0.012005 -0.007610 0.000000 0.056654 0.000000
# 6 0.000000 0.000000 0.000000 -0.004931 0.000000 0.035127
#
#
# Mechanical properties :
#
#
# Convention : Reuss Voigt Hill
#
# Bulk Modulus (GPa) = 29.89216 58.33375 44.11296
# Shear Modulus (GPa) = 20.47654 25.40522 22.94088
#
# Velocity S-wave (km/s) = 3.38457 3.76996 3.58245
# Velocity P-wave (km/s) = 5.65654 7.18220 6.46454
#
# Compressibility (1/GPa) = 0.03345359
#
# Stress axis : x y z
#
# Youngs Moduli (GPa) = 68.85613 27.39911 81.91237
#
# Poissons Ratio (x) = 0.22721 0.28065
# Poissons Ratio (y) = 0.57101 0.25955
# Poissons Ratio (z) = 0.23592 0.08682
#
# Static dielectric constant tensor:
#      x y z
#    x 3.512890 0.000000 0.390060 
#    y 0.000000 3.293360 0.000000 
#    z 0.390060 0.000000 3.398980 
# 
# 
# High freq. dielectric constant tensor:
#      x y z
#    x 1.697180 0.000000 0.027620 
#    y 0.000000 1.689220 0.000000 
#    z 0.027620 0.000000 1.669960 
# 
# From -- ./inp_files/280374.got.cif
#   From: 2010.06.25/outbox.cif.g09.slc.cpg/sg12_141_cif.got.tgz:280374.got - 2010.06.28 00:19:55.
