data_PCOD8086219
_publ_section_title
;
Structure prediction by ZEFSAII (Michael W. Deem and Ramdas Pophale) SiO2 
 PCOD8086219
Probable space group: C 2/M
;
_chemical_formula_sum "Si O2"
_cell_formula_units_Z 64
_cell_length_a 20.068173
_cell_length_b 8.893512
_cell_length_c 20.358567
_cell_angle_alpha 90.000000
_cell_angle_beta 99.815450
_cell_angle_gamma 90.000000
_cell_volume 3580.338856
_symmetry_space_group_name_H-M "C 2/M"
_symmetry_group_IT_number 12
_symmetry_cell_setting 'monoclinic'
loop_
_space_group_symop_operation_xyz
x,y,z
-x,y,-z
-x,-y,-z
x,-y,z
1/2+x,1/2+y,z
1/2-x,1/2+y,-z
1/2-x,1/2-y,-z
1/2+x,1/2-y,z
loop_
_atom_site_type_symbol
_atom_site_label
_atom_site_fract_x
_atom_site_fract_y
_atom_site_fract_z
Si Si1 0.708214 0.674073 0.827250
Si Si2 0.837605 0.330403 0.570954
Si Si3 0.077857 0.827647 0.029986
Si Si4 0.366659 0.825864 0.836727
Si Si5 0.822740 0.169589 0.438635
Si Si6 0.647853 0.330914 0.297451
Si Si7 0.684379 0.177944 0.956904
Si Si8 0.307708 0.169052 0.307010
O O1 0.689473 0.500000 0.831620
O O2 0.788469 0.699172 0.841427
O O3 0.675511 0.766601 0.881065
O O4 0.675005 0.735200 0.754776
O O5 0.865055 0.500000 0.573946
O O6 0.857890 0.250290 0.506388
O O7 0.757475 0.328486 0.566543
O O8 0.873374 0.244128 0.637189
O O9 0.088502 0.768495 0.105360
O O10 0.102638 0.000000 0.029443
O O11 0.118678 0.725561 0.986091
O O12 0.000000 0.812107 0.000000
O O13 0.383645 0.765686 0.766975
O O14 0.386589 0.000000 0.843724
O O15 0.843999 0.255204 0.375652
O O16 0.849925 0.000000 0.439213
O O17 0.618964 0.500000 0.289991
O O18 0.728099 0.332413 0.305037
O O19 0.692174 0.000000 0.960305
O O20 0.750000 0.250000 0.000000
O O21 0.335360 0.000000 0.303271
#
# Coordination Sequence:
#
# PCOD8086219 Si02
#       8
#     8   8   8   8   8   8   8   8
#     4  10  19  31  48  71  96 124 160 204 248 294
#     4   9  15  22  32  48  72 105 148 192 233 282
#     4  11  24  40  57  77 103 134 168 208 256 308
#     4  10  19  31  49  70  94 125 160 202 248 297
#     4   9  15  22  32  47  72 108 148 189 234 284
#     4   9  16  25  38  56  81 112 150 195 239 286
#     4  12  23  36  56  79 103 132 167 210 254 302
#     4   9  16  25  37  56  82 114 151 193 239 287
#
# _framework density 17.875402000000001
#
# number of rings (size 3 to 8) (size 9 to 14) (size 15 to 20)
#    0.000    2.125    1.250    3.750    0.000    8.000 
#    0.000    0.000    0.000    0.000    0.000    0.000 
#    0.000    0.000    0.000    1.125    0.000   21.250 
#
# Total GULP energy -396850.975883 kJ/mol
# GULP energy per Si atom -12401.592996 kJ/mol
# Density = 1.783472 g / cm^3
# Si number density = 17.875402 Si / 1000 Ang^3
#
#
#
# Elastic Constant Matrix: (Units=GPa)
#
#
# Indices 1 2 3 4 5 6 
#
# 1 24.6624 25.9630 25.0110 0.0000 -1.5982 0.0000
# 2 25.9630 165.1290 78.6174 0.0000 -5.1190 0.0000
# 3 25.0110 78.6174 170.3668 0.0000 -9.9462 0.0000
# 4 0.0000 0.0000 0.0000 42.5326 0.0000 -3.1725
# 5 -1.5982 -5.1190 -9.9462 0.0000 8.4312 0.0000
# 6 0.0000 0.0000 0.0000 -3.1725 0.0000 13.3544
#
#
#
# Elastic Compliance Matrix: (Units=1/GPa)
#
#
# Indices 1 2 3 4 5 6 
#
# 1 0.051611 -0.005774 -0.004882 0.000000 0.000518 0.000000
# 2 -0.005774 0.008409 -0.003006 0.000000 0.000465 0.000000
# 3 -0.004882 -0.003006 0.008391 0.000000 0.007148 0.000000
# 4 0.000000 0.000000 0.000000 0.023935 0.000000 0.005686
# 5 0.000518 0.000465 0.007148 0.000000 0.127421 0.000000
# 6 0.000000 0.000000 0.000000 0.005686 0.000000 0.076233
#
#
# Mechanical properties :
#
#
# Convention : Reuss Voigt Hill
#
# Bulk Modulus (GPa) = 24.33863 68.81569 46.57716
# Shear Modulus (GPa) = 14.83594 28.23476 21.53535
#
# Velocity S-wave (km/s) = 2.88404 3.97864 3.47471
# Velocity P-wave (km/s) = 4.97348 7.72574 6.49702
#
# Compressibility (1/GPa) = 0.04108694
#
# Stress axis : x y z
#
# Youngs Moduli (GPa) = 19.37572 118.91809 119.17998
#
# Poissons Ratio (x) = 0.68668 0.58183
# Poissons Ratio (y) = 0.11188 0.35821
# Poissons Ratio (z) = 0.09459 0.35742
#
# Static dielectric constant tensor:
#      x y z
#    x 2.240840 0.000000 0.113230 
#    y 0.000000 3.570560 0.000000 
#    z 0.113230 0.000000 3.468810 
# 
# 
# High freq. dielectric constant tensor:
#      x y z
#    x 1.601220 0.000000 -0.009010 
#    y 0.000000 1.715210 0.000000 
#    z -0.009010 0.000000 1.714390 
# 
# From -- ./inp_files/319258.got.cif
#   From: 2010.06.25/outbox.cif.g09.slc.cpg/sg12_160_cif.got.tgz:319258.got - 2010.06.28 00:19:55.
