data_PCOD8086000
_publ_section_title
;
Structure prediction by ZEFSAII (Michael W. Deem and Ramdas Pophale) SiO2 
 PCOD8086000
Probable space group: C 2/M
;
_chemical_formula_sum "Si O2"
_cell_formula_units_Z 48
_cell_length_a 18.130388
_cell_length_b 9.304765
_cell_length_c 16.339260
_cell_angle_alpha 90.000000
_cell_angle_beta 107.183165
_cell_angle_gamma 90.000000
_cell_volume 2633.384726
_symmetry_space_group_name_H-M "C 2/M"
_symmetry_group_IT_number 12
_symmetry_cell_setting 'monoclinic'
loop_
_space_group_symop_operation_xyz
x,y,z
-x,y,-z
-x,-y,-z
x,-y,z
1/2+x,1/2+y,z
1/2-x,1/2+y,-z
1/2-x,1/2-y,-z
1/2+x,1/2-y,z
loop_
_atom_site_type_symbol
_atom_site_label
_atom_site_fract_x
_atom_site_fract_y
_atom_site_fract_z
Si Si1 0.612093 0.661706 0.096314
Si Si2 0.152187 0.662265 0.255746
Si Si3 0.975381 0.660989 0.251917
Si Si4 0.306154 0.666683 0.578223
Si Si5 0.935772 0.161185 0.093034
Si Si6 0.481505 0.335246 0.584233
O O1 0.645333 0.500000 0.114941
O O2 0.662445 0.769283 0.168653
O O3 0.525019 0.662007 0.099013
O O4 0.614106 0.713189 0.002061
O O5 0.185125 0.500000 0.265906
O O6 0.063175 0.661980 0.251362
O O7 0.200110 0.759248 0.334989
O O8 0.944909 0.500000 0.255036
O O9 0.967959 0.744978 0.334911
O O10 0.921253 0.735087 0.165495
O O11 0.281978 0.500000 0.577867
O O12 0.250000 0.750000 0.500000
O O13 0.391306 0.683110 0.570371
O O14 0.911167 0.000000 0.109791
O O15 0.500000 0.276315 0.500000
O O16 0.507497 0.500000 0.601873
#
# Coordination Sequence:
#
# PCOD8086000 Si02
#       6
#     8   8   8   8   8   8
#     4   8  13  21  33  50  73 104 140 173 207 248
#     4   9  16  25  37  55  80 109 140 173 212 256
#     4   9  16  24  36  56  81 108 138 174 215 255
#     4  10  19  31  47  65  87 114 145 181 218 258
#     4   8  13  21  33  49  73 106 140 171 205 251
#     4   9  18  32  48  64  84 114 149 181 215 257
#
# _framework density 18.227494
#
# number of rings (size 3 to 8) (size 9 to 14) (size 15 to 20)
#    0.000    3.167    0.000    2.500    0.000    5.667 
#    0.000    3.333    0.000    0.000    0.000    0.000 
#    0.000    1.333    0.000    4.000    0.000    7.667 
#
# Total GULP energy -297485.976179 kJ/mol
# GULP energy per Si atom -12395.249007 kJ/mol
# Density = 1.818601 g / cm^3
# Si number density = 18.227494 Si / 1000 Ang^3
#
#
#
# Elastic Constant Matrix: (Units=GPa)
#
#
# Indices 1 2 3 4 5 6 
#
# 1 4.7424 14.0782 16.8215 0.0000 -0.1295 0.0000
# 2 14.0782 154.0061 114.1919 0.0000 2.7657 0.0000
# 3 16.8215 114.1919 203.3943 0.0000 -0.4725 0.0000
# 4 0.0000 0.0000 0.0000 39.7702 0.0000 4.6597
# 5 -0.1295 2.7657 -0.4725 0.0000 17.4324 0.0000
# 6 0.0000 0.0000 0.0000 4.6597 0.0000 9.7090
#
#
#
# Elastic Compliance Matrix: (Units=1/GPa)
#
#
# Indices 1 2 3 4 5 6 
#
# 1 0.321667 -0.016736 -0.017196 0.000000 0.004578 0.000000
# 2 -0.016736 0.012060 -0.005392 0.000000 -0.002184 0.000000
# 3 -0.017196 -0.005392 0.009368 0.000000 0.000982 0.000000
# 4 0.000000 0.000000 0.000000 0.026643 0.000000 -0.012787
# 5 0.004578 -0.002184 0.000982 0.000000 0.057772 0.000000
# 6 0.000000 0.000000 0.000000 -0.012787 0.000000 0.109134
#
#
# Mechanical properties :
#
#
# Convention : Reuss Voigt Hill
#
# Bulk Modulus (GPa) = 3.78148 72.48067 38.13107
# Shear Modulus (GPa) = 7.10791 27.85241 17.48016
#
# Velocity S-wave (km/s) = 1.97687 3.91326 3.10013
# Velocity P-wave (km/s) = 2.69996 7.76331 5.81200
#
# Compressibility (1/GPa) = 0.26444686
#
# Stress axis : x y z
#
# Youngs Moduli (GPa) = 3.10880 82.91559 106.74313
#
# Poissons Ratio (x) = 1.38771 1.83557
# Poissons Ratio (y) = 0.05203 0.57556
# Poissons Ratio (z) = 0.05346 0.44708
#
# Static dielectric constant tensor:
#      x y z
#    x 2.636410 0.000000 -0.034420 
#    y 0.000000 3.586350 0.000000 
#    z -0.034420 0.000000 3.748610 
# 
# 
# High freq. dielectric constant tensor:
#      x y z
#    x 1.619060 0.000000 0.001670 
#    y 0.000000 1.713310 0.000000 
#    z 0.001670 0.000000 1.727640 
# 
# From -- ./inp_files/230370.got.cif
#   From: 2010.06.25/outbox.cif.g09.slc.cpg/sg12_116_cif.got.tgz:230370.got - 2010.06.28 00:19:55.
