data_PCOD8086661
_publ_section_title
;
Structure prediction by ZEFSAII (Michael W. Deem and Ramdas Pophale) SiO2 
 PCOD8086661
Probable space group: C 2/M
;
_chemical_formula_sum "Si O2"
_cell_formula_units_Z 64
_cell_length_a 19.122753
_cell_length_b 14.925656
_cell_length_c 12.800268
_cell_angle_alpha 90.000000
_cell_angle_beta 71.307084
_cell_angle_gamma 90.000000
_cell_volume 3460.728098
_symmetry_space_group_name_H-M "C 2/M"
_symmetry_group_IT_number 12
_symmetry_cell_setting 'monoclinic'
loop_
_space_group_symop_operation_xyz
x,y,z
-x,y,-z
-x,-y,-z
x,-y,z
1/2+x,1/2+y,z
1/2-x,1/2+y,-z
1/2-x,1/2-y,-z
1/2+x,1/2-y,z
loop_
_atom_site_type_symbol
_atom_site_label
_atom_site_fract_x
_atom_site_fract_y
_atom_site_fract_z
Si Si1 0.415060 0.239622 0.069810
Si Si2 0.012863 0.899844 0.376833
Si Si3 0.740719 0.398399 0.686574
Si Si4 0.686544 0.602235 0.939540
Si Si5 0.711906 0.105195 0.915206
Si Si6 0.177714 0.739523 0.470253
Si Si7 0.322931 0.600052 0.681637
Si Si8 0.901395 0.792156 0.307480
O O1 0.384967 0.333697 0.037551
O O2 0.364743 0.159395 0.048615
O O3 0.411714 0.236467 0.197075
O O4 0.500000 0.224721 0.000000
O O5 0.097899 0.900655 0.299554
O O6 0.000000 0.858402 0.500000
O O7 0.974635 0.845957 0.301781
O O8 0.979752 0.000000 0.395098
O O9 0.751528 0.500000 0.645013
O O10 0.737207 0.389716 0.812902
O O11 0.813345 0.343198 0.614151
O O12 0.665998 0.361541 0.671038
O O13 0.657987 0.500000 0.968545
O O14 0.738829 0.632886 0.009053
O O15 0.759138 0.132605 0.790723
O O16 0.693313 0.000000 0.926389
O O17 0.250000 0.750000 0.500000
O O18 0.167692 0.833955 0.418683
O O19 0.113042 0.725023 0.586976
O O20 0.304219 0.500000 0.649358
#
# Coordination Sequence:
#
# PCOD8086661 Si02
#       8
#     8   8   8   8   8   8   8   8
#     4  11  24  39  57  84 114 150 189 232 284 337
#     4  10  19  32  52  80 112 145 180 215 273 346
#     4   9  18  33  54  80 108 143 182 221 270 324
#     4   9  19  37  59  85 115 147 183 231 285 336
#     4  10  21  39  61  83 112 147 194 240 273 324
#     4  10  19  31  50  75 107 141 178 221 268 328
#     4  10  20  33  54  83 110 140 178 225 274 327
#     4  10  20  35  50  77 114 144 175 223 278 330
#
# _framework density 18.493217999999999
#
# number of rings (size 3 to 8) (size 9 to 14) (size 15 to 20)
#    0.000    2.125    1.250    3.000    1.750    3.000 
#    0.000    0.625    0.000    0.000    0.000    1.750 
#    0.000    0.000    0.000    0.000    0.000    0.000 
#
# Total GULP energy -396629.783836 kJ/mol
# GULP energy per Si atom -12394.680745 kJ/mol
# Density = 1.845113 g / cm^3
# Si number density = 18.493218 Si / 1000 Ang^3
#
#
#
# Elastic Constant Matrix: (Units=GPa)
#
#
# Indices 1 2 3 4 5 6 
#
# 1 94.0129 37.8222 42.7962 0.0000 -6.1487 0.0000
# 2 37.8222 71.8899 35.8580 0.0000 -8.7049 0.0000
# 3 42.7962 35.8580 90.0772 0.0000 -5.5418 0.0000
# 4 0.0000 0.0000 0.0000 21.6660 0.0000 2.9599
# 5 -6.1487 -8.7049 -5.5418 0.0000 31.1211 0.0000
# 6 0.0000 0.0000 0.0000 2.9599 0.0000 29.7072
#
#
#
# Elastic Compliance Matrix: (Units=1/GPa)
#
#
# Indices 1 2 3 4 5 6 
#
# 1 0.015120 -0.005388 -0.005002 0.000000 0.000589 0.000000
# 2 -0.005388 0.019700 -0.005064 0.000000 0.003544 0.000000
# 3 -0.005002 -0.005064 0.015516 0.000000 0.000358 0.000000
# 4 0.000000 0.000000 0.000000 0.046792 0.000000 -0.004662
# 5 0.000589 0.003544 0.000358 0.000000 0.033304 0.000000
# 6 0.000000 0.000000 0.000000 -0.004662 0.000000 0.034126
#
#
# Mechanical properties :
#
#
# Convention : Reuss Voigt Hill
#
# Bulk Modulus (GPa) = 51.47566 54.32587 52.90076
# Shear Modulus (GPa) = 24.75919 25.79910 25.27914
#
# Velocity S-wave (km/s) = 3.66297 3.73910 3.70123
# Velocity P-wave (km/s) = 6.76647 6.93405 6.85077
#
# Compressibility (1/GPa) = 0.01942666
#
# Stress axis : x y z
#
# Youngs Moduli (GPa) = 66.13569 50.76098 64.44854
#
# Poissons Ratio (x) = 0.27353 0.32240
# Poissons Ratio (y) = 0.35637 0.32638
# Poissons Ratio (z) = 0.33084 0.25706
#
# Static dielectric constant tensor:
#      x y z
#    x 3.313050 0.000000 -0.150660 
#    y 0.000000 3.712490 0.000000 
#    z -0.150660 0.000000 3.864930 
# 
# 
# High freq. dielectric constant tensor:
#      x y z
#    x 1.700930 0.000000 0.008270 
#    y 0.000000 1.704160 0.000000 
#    z 0.008270 0.000000 1.725720 
# 
# From -- ./inp_files/167223.got.cif
#   From: 2010.06.25/outbox.cif.g09.slc.cpg/sg12_84_cif.got.tgz:167223.got - 2010.06.28 00:19:55.
