data_PCOD8086086
_publ_section_title
;
Structure prediction by ZEFSAII (Michael W. Deem and Ramdas Pophale) SiO2 
 PCOD8086086
Probable space group: C 2/M
;
_chemical_formula_sum "Si O2"
_cell_formula_units_Z 48
_cell_length_a 23.242557
_cell_length_b 9.311586
_cell_length_c 20.465791
_cell_angle_alpha 90.000000
_cell_angle_beta 140.994053
_cell_angle_gamma 90.000000
_cell_volume 2787.812507
_symmetry_space_group_name_H-M "C 2/M"
_symmetry_group_IT_number 12
_symmetry_cell_setting 'monoclinic'
loop_
_space_group_symop_operation_xyz
x,y,z
-x,y,-z
-x,-y,-z
x,-y,z
1/2+x,1/2+y,z
1/2-x,1/2+y,-z
1/2-x,1/2-y,-z
1/2+x,1/2-y,z
loop_
_atom_site_type_symbol
_atom_site_label
_atom_site_fract_x
_atom_site_fract_y
_atom_site_fract_z
Si Si1 0.272905 0.163575 0.794242
Si Si2 0.777700 0.838824 0.922006
Si Si3 0.432705 0.668565 0.382910
Si Si4 0.045515 0.664903 0.109450
Si Si5 0.570294 0.831057 0.750931
Si Si6 0.040703 0.165727 0.848845
O O1 0.310562 0.244084 0.890729
O O2 0.169964 0.210951 0.684310
O O3 0.344415 0.187939 0.798512
O O4 0.272149 0.000000 0.815685
O O5 0.677002 0.796805 0.857573
O O6 0.776355 0.000000 0.893990
O O7 0.850247 0.820027 0.044095
O O8 0.500000 0.714398 0.500000
O O9 0.441265 0.500000 0.373965
O O10 0.461303 0.759736 0.344783
O O11 0.022056 0.500000 0.107208
O O12 0.012710 0.770974 0.136636
O O13 0.000000 0.704927 0.000000
O O14 0.515321 0.755434 0.761501
O O15 0.548047 0.000000 0.730318
O O16 0.011798 0.000000 0.814076
#
# Coordination Sequence:
#
# PCOD8086086 Si02
#       6
#     8   8   8   8   8   8
#     4   9  17  30  49  72  98 129 164 198 237 286
#     4   9  18  30  45  68  98 131 164 199 238 283
#     4   9  18  34  56  78  98 122 156 203 253 295
#     4  10  19  31  47  69  99 136 170 198 231 281
#     4  10  20  33  49  71  99 129 163 202 245 293
#     4  11  21  31  46  69 100 136 168 200 239 283
#
# _framework density 17.217801000000001
#
# number of rings (size 3 to 8) (size 9 to 14) (size 15 to 20)
#    0.000    2.333    1.667    1.500    0.000    2.667 
#    0.000    0.000    0.000    1.000    0.000    0.000 
#    0.000    0.000    0.000    0.000    0.000    0.000 
#
# Total GULP energy -297542.596163 kJ/mol
# GULP energy per Si atom -12397.608173 kJ/mol
# Density = 1.717861 g / cm^3
# Si number density = 17.217801 Si / 1000 Ang^3
#
#
#
# Elastic Constant Matrix: (Units=GPa)
#
#
# Indices 1 2 3 4 5 6 
#
# 1 90.6331 56.4344 46.4136 0.0000 -20.3975 0.0000
# 2 56.4344 93.3786 47.4821 0.0000 -21.4334 0.0000
# 3 46.4136 47.4821 83.5962 0.0000 -13.1320 0.0000
# 4 0.0000 0.0000 0.0000 22.0756 0.0000 -6.2524
# 5 -20.3975 -21.4334 -13.1320 0.0000 21.3237 0.0000
# 6 0.0000 0.0000 0.0000 -6.2524 0.0000 30.7024
#
#
#
# Elastic Compliance Matrix: (Units=1/GPa)
#
#
# Indices 1 2 3 4 5 6 
#
# 1 0.020648 -0.007545 -0.005831 0.000000 0.008576 0.000000
# 2 -0.007545 0.020529 -0.005938 0.000000 0.009760 0.000000
# 3 -0.005831 -0.005938 0.018554 0.000000 -0.000120 0.000000
# 4 0.000000 0.000000 0.000000 0.048072 0.000000 0.009790
# 5 0.008576 0.009760 -0.000120 0.000000 0.064836 0.000000
# 6 0.000000 0.000000 0.000000 0.009790 0.000000 0.034564
#
#
# Mechanical properties :
#
#
# Convention : Reuss Voigt Hill
#
# Bulk Modulus (GPa) = 47.38933 63.14088 55.26511
# Shear Modulus (GPa) = 19.77349 22.63888 21.20618
#
# Velocity S-wave (km/s) = 3.39253 3.63002 3.51328
# Velocity P-wave (km/s) = 6.55201 7.37027 6.97316
#
# Compressibility (1/GPa) = 0.02110180
#
# Stress axis : x y z
#
# Youngs Moduli (GPa) = 48.43108 48.71240 53.89818
#
# Poissons Ratio (x) = 0.36755 0.31429
# Poissons Ratio (y) = 0.36543 0.32003
# Poissons Ratio (z) = 0.28241 0.28924
#
# Static dielectric constant tensor:
#      x y z
#    x 3.159790 0.000000 0.109990 
#    y 0.000000 3.240910 0.000000 
#    z 0.109990 0.000000 3.027170 
# 
# 
# High freq. dielectric constant tensor:
#      x y z
#    x 1.658680 0.000000 -0.002390 
#    y 0.000000 1.671850 0.000000 
#    z -0.002390 0.000000 1.630780 
# 
# From -- ./inp_files/229914.got.cif
#   From: 2010.06.25/outbox.cif.g09.slc.cpg/sg12_115_cif.got.tgz:229914.got - 2010.06.28 00:19:55.
