data_PCOD8086161
_publ_section_title
;
Structure prediction by ZEFSAII (Michael W. Deem and Ramdas Pophale) SiO2 
 PCOD8086161
Probable space group: C 2/M
;
_chemical_formula_sum "Si O2"
_cell_formula_units_Z 40
_cell_length_a 27.717397
_cell_length_b 8.956978
_cell_length_c 19.527535
_cell_angle_alpha 90.000000
_cell_angle_beta 27.605034
_cell_angle_gamma 90.000000
_cell_volume 2246.430248
_symmetry_space_group_name_H-M "C 2/M"
_symmetry_group_IT_number 12
_symmetry_cell_setting 'monoclinic'
loop_
_space_group_symop_operation_xyz
x,y,z
-x,y,-z
-x,-y,-z
x,-y,z
1/2+x,1/2+y,z
1/2-x,1/2+y,-z
1/2-x,1/2-y,-z
1/2+x,1/2-y,z
loop_
_atom_site_type_symbol
_atom_site_label
_atom_site_fract_x
_atom_site_fract_y
_atom_site_fract_z
Si Si1 0.504933 0.673509 0.157386
Si Si2 0.387359 0.325737 0.439978
Si Si3 0.327218 0.675499 0.273859
Si Si4 0.087113 0.824648 0.439502
Si Si5 0.179609 0.676825 0.859317
O O1 0.532615 0.500000 0.116001
O O2 0.470952 0.715853 0.277025
O O3 0.413022 0.718536 0.221727
O O4 0.607765 0.768283 0.011723
O O5 0.356898 0.500000 0.475115
O O6 0.282458 0.233561 0.559593
O O7 0.437236 0.284328 0.450801
O O8 0.320613 0.500000 0.269818
O O9 0.360421 0.752797 0.161276
O O10 0.202474 0.767167 0.274606
O O11 0.000000 0.748583 0.500000
O O12 0.084018 0.000000 0.432059
O O13 0.174601 0.500000 0.858516
#
# Coordination Sequence:
#
# PCOD8086161 Si02
#       5
#     8   8   8   8   8
#     4  10  20  32  46  69 102 132 155 189 237 280
#     4   9  18  32  50  72  96 125 161 195 231 278
#     4  10  19  31  48  69  97 132 162 190 230 278
#     4   8  15  31  53  71  88 117 158 199 238 281
#     4  10  20  32  49  72  95 124 162 198 232 277
#
# _framework density 17.806028000000001
#
# number of rings (size 3 to 8) (size 9 to 14) (size 15 to 20)
#    0.000    2.600    0.000    3.600    0.000    4.800 
#    0.000    1.000    0.000   15.000    0.000    0.000 
#    0.000    0.000    0.000    0.000    0.000    0.000 
#
# Total GULP energy -247993.838140 kJ/mol
# GULP energy per Si atom -12399.691907 kJ/mol
# Density = 1.776550 g / cm^3
# Si number density = 17.806028 Si / 1000 Ang^3
#
#
#
# Elastic Constant Matrix: (Units=GPa)
#
#
# Indices 1 2 3 4 5 6 
#
# 1 119.0290 30.7876 77.1224 -0.0047 -4.2564 0.0016
# 2 30.7876 48.0267 40.4641 -0.0064 0.2177 0.0020
# 3 77.1224 40.4641 142.3556 -0.0161 16.2552 0.0050
# 4 -0.0047 -0.0064 -0.0161 32.2130 0.0057 3.4268
# 5 -4.2564 0.2177 16.2552 0.0057 19.6972 -0.0030
# 6 0.0016 0.0020 0.0050 3.4268 -0.0030 15.1516
#
#
#
# Elastic Compliance Matrix: (Units=1/GPa)
#
#
# Indices 1 2 3 4 5 6 
#
# 1 0.014973 -0.002384 -0.008619 -0.000005 0.010375 0.000005
# 2 -0.002384 0.028598 -0.007444 0.000001 0.005312 0.000000
# 3 -0.008619 -0.007444 0.015471 0.000008 -0.014548 -0.000008
# 4 -0.000005 0.000001 0.000008 0.031809 -0.000018 -0.007194
# 5 0.010375 0.005312 -0.014548 -0.000018 0.064957 0.000020
# 6 0.000005 0.000000 -0.000008 -0.007194 0.000020 0.067626
#
#
# Mechanical properties :
#
#
# Convention : Reuss Voigt Hill
#
# Bulk Modulus (GPa) = 45.14954 67.35105 56.25029
# Shear Modulus (GPa) = 18.67683 24.14819 21.41251
#
# Velocity S-wave (km/s) = 3.24219 3.68663 3.47153
# Velocity P-wave (km/s) = 6.27910 7.48523 6.90854
#
# Compressibility (1/GPa) = 0.02214862
#
# Stress axis : x y z
#
# Youngs Moduli (GPa) = 66.78476 34.96802 64.63625
#
# Poissons Ratio (x) = 0.08336 0.55710
# Poissons Ratio (y) = 0.15921 0.48114
# Poissons Ratio (z) = 0.57562 0.26030
#
# Static dielectric constant tensor:
#      x y z
#    x 3.442330 0.000000 0.008140 
#    y 0.000000 3.128660 0.000010 
#    z 0.008140 0.000010 3.417190 
# 
# 
# High freq. dielectric constant tensor:
#      x y z
#    x 1.676760 0.000000 0.006770 
#    y 0.000000 1.673090 0.000000 
#    z 0.006770 0.000000 1.693870 
# 
# From -- ./inp_files/151699.got.cif
#   From: 2010.06.25/outbox.cif.g09.slc.cpg/sg12_76_cif.got.tgz:151699.got - 2010.06.28 00:19:55.
