data_PCOD8086782
_publ_section_title
;
Structure prediction by ZEFSAII (Michael W. Deem and Ramdas Pophale) SiO2 
 PCOD8086782
Probable space group: C 2/M
;
_chemical_formula_sum "Si O2"
_cell_formula_units_Z 56
_cell_length_a 10.089555
_cell_length_b 18.240117
_cell_length_c 22.658453
_cell_angle_alpha 90.000000
_cell_angle_beta 131.907725
_cell_angle_gamma 90.000000
_cell_volume 3103.359571
_symmetry_space_group_name_H-M "C 2/M"
_symmetry_group_IT_number 12
_symmetry_cell_setting 'monoclinic'
loop_
_space_group_symop_operation_xyz
x,y,z
-x,y,-z
-x,-y,-z
x,-y,z
1/2+x,1/2+y,z
1/2-x,1/2+y,-z
1/2-x,1/2-y,-z
1/2+x,1/2-y,z
loop_
_atom_site_type_symbol
_atom_site_label
_atom_site_fract_x
_atom_site_fract_y
_atom_site_fract_z
Si Si1 0.401266 0.337680 0.100843
Si Si2 0.260280 0.336972 0.181642
Si Si3 0.120677 0.679299 0.352486
Si Si4 0.715352 0.163027 0.818359
Si Si5 0.867001 0.663031 0.077999
Si Si6 0.063220 0.179300 0.647514
Si Si7 0.655793 0.418989 0.500000
O O1 0.354394 0.368709 0.151501
O O2 0.600108 0.368711 0.151497
O O3 0.383396 0.250483 0.088929
O O4 0.266874 0.367938 0.011250
O O5 0.269306 0.249999 0.179536
O O6 0.352104 0.360987 0.270278
O O7 0.060967 0.368165 0.120797
O O8 0.280283 0.699445 0.353523
O O9 0.182763 0.624222 0.421778
O O10 0.958728 0.639012 0.270278
O O11 0.046646 0.749999 0.364432
O O12 0.698565 0.131834 0.879201
O O13 0.917431 0.124223 0.578222
O O14 0.500000 0.427450 0.500000
O O15 0.721573 0.500000 0.499999
#
# Coordination Sequence:
#
# PCOD8086782 Si02
#       7
#     8   8   8   8   8   8   8
#     4   9  16  22  36  55  87 130 162 187 237 273
#     4   9  16  24  37  60  90 125 159 195 229 282
#     4  10  19  31  51  75  99 129 161 199 243 287
#     4   9  16  24  37  60  90 125 159 195 229 282
#     4   9  14  24  34  55  89 124 162 193 231 279
#     4  10  19  31  51  75  99 129 161 199 243 287
#     4   9  19  36  55  75  98 123 160 204 244 289
#
# _framework density 18.04496
#
# number of rings (size 3 to 8) (size 9 to 14) (size 15 to 20)
#    0.000    2.714    1.429    1.286    6.000    3.429 
#    0.000    0.000    0.000    1.714    0.000    0.000 
#    0.000    6.857    0.000    0.000    0.000    0.000 
#
# Total GULP energy -346962.911671 kJ/mol
# GULP energy per Si atom -12391.532560 kJ/mol
# Density = 1.800389 g / cm^3
# Si number density = 18.044960 Si / 1000 Ang^3
#
#
#
# Elastic Constant Matrix: (Units=GPa)
#
#
# Indices 1 2 3 4 5 6 
#
# 1 142.4772 26.7194 80.6933 0.0000 0.0030 0.0000
# 2 26.7194 41.6590 44.0174 0.0000 0.0016 0.0000
# 3 80.6933 44.0174 185.8884 0.0000 0.0045 0.0000
# 4 0.0000 0.0000 0.0000 28.4107 0.0000 -0.0012
# 5 0.0030 0.0016 0.0045 0.0000 30.3086 0.0000
# 6 0.0000 0.0000 0.0000 -0.0012 0.0000 7.0734
#
#
#
# Elastic Compliance Matrix: (Units=1/GPa)
#
#
# Indices 1 2 3 4 5 6 
#
# 1 0.009470 -0.002308 -0.003565 0.000000 0.000000 0.000000
# 2 -0.002308 0.032577 -0.006712 0.000000 0.000000 0.000000
# 3 -0.003565 -0.006712 0.008516 0.000000 -0.000001 0.000000
# 4 0.000000 0.000000 0.000000 0.035198 0.000000 0.000006
# 5 0.000000 0.000000 -0.000001 0.000000 0.032994 0.000000
# 6 0.000000 0.000000 0.000000 0.000006 0.000000 0.141374
#
#
# Mechanical properties :
#
#
# Convention : Reuss Voigt Hill
#
# Bulk Modulus (GPa) = 39.37878 74.76496 57.07187
# Shear Modulus (GPa) = 17.02051 27.73150 22.37600
#
# Velocity S-wave (km/s) = 3.07453 3.92446 3.52520
# Velocity P-wave (km/s) = 5.87143 7.87767 6.94735
#
# Compressibility (1/GPa) = 0.02539439
#
# Stress axis : x y z
#
# Youngs Moduli (GPa) = 105.59380 30.69668 117.42125
#
# Poissons Ratio (x) = 0.07084 0.41855
# Poissons Ratio (y) = 0.24368 0.78816
# Poissons Ratio (z) = 0.37639 0.20604
#
# Static dielectric constant tensor:
#      x y z
#    x 3.537030 0.000000 0.000010 
#    y 0.000000 2.718700 0.000000 
#    z 0.000010 0.000000 3.704090 
# 
# 
# High freq. dielectric constant tensor:
#      x y z
#    x 1.704060 0.000000 0.000000 
#    y 0.000000 1.617200 0.000000 
#    z 0.000000 0.000000 1.722580 
# 
# From -- ./inp_files/301803.got.cif
#   From: 2010.06.25/outbox.cif.g09.slc.cpg/sg12_151_cif.got.tgz:301803.got - 2010.06.28 00:19:55.
