data_PCOD8086101
_publ_section_title
;
Structure prediction by ZEFSAII (Michael W. Deem and Ramdas Pophale) SiO2 
 PCOD8086101
Probable space group: C 2/M
;
_chemical_formula_sum "Si O2"
_cell_formula_units_Z 52
_cell_length_a 26.187411
_cell_length_b 14.323207
_cell_length_c 20.200603
_cell_angle_alpha 90.000000
_cell_angle_beta 158.224149
_cell_angle_gamma 90.000000
_cell_volume 2810.887891
_symmetry_space_group_name_H-M "C 2/M"
_symmetry_group_IT_number 12
_symmetry_cell_setting 'monoclinic'
loop_
_space_group_symop_operation_xyz
x,y,z
-x,y,-z
-x,-y,-z
x,-y,z
1/2+x,1/2+y,z
1/2-x,1/2+y,-z
1/2-x,1/2-y,-z
1/2+x,1/2-y,z
loop_
_atom_site_type_symbol
_atom_site_label
_atom_site_fract_x
_atom_site_fract_y
_atom_site_fract_z
Si Si1 0.200682 0.102162 0.963649
Si Si2 0.742847 0.106852 0.267220
Si Si3 0.555953 0.785040 0.944580
Si Si4 0.219105 0.609822 0.389079
Si Si5 0.456091 0.396237 0.771516
Si Si6 0.185444 0.768500 0.831596
Si Si7 0.000000 0.827332 0.500000
O O1 0.142029 0.143754 0.824546
O O2 0.078783 0.092757 0.868071
O O3 0.265795 0.000000 0.029120
O O4 0.318689 0.171913 0.132569
O O5 0.764717 0.139215 0.369427
O O6 0.886841 0.109606 0.400927
O O7 0.687799 0.000000 0.196888
O O8 0.629200 0.177815 0.099676
O O9 0.430101 0.850724 0.773422
O O10 0.498578 0.677644 0.880522
O O11 0.662295 0.789764 0.012153
O O12 0.212069 0.500000 0.385088
O O13 0.326712 0.644785 0.574243
O O14 0.426564 0.500000 0.766632
O O15 0.074628 0.757801 0.640458
#
# Coordination Sequence:
#
# PCOD8086101 Si02
#       7
#     8   8   8   8   8   8   4
#     4   9  17  32  50  68  94 125 157 194 233 274
#     4  10  20  32  49  72  97 125 153 187 235 284
#     4  10  19  31  47  70  99 126 152 190 235 277
#     4  10  19  31  48  71  97 123 154 189 231 284
#     4   9  18  32  51  71  90 122 163 196 228 269
#     4   9  19  31  47  72  95 122 159 192 232 281
#     4  10  19  32  49  70  98 122 153 198 231 268
#
# _framework density 18.499493000000001
#
# number of rings (size 3 to 8) (size 9 to 14) (size 15 to 20)
#    0.000    2.462    0.000    2.538    0.000    6.154 
#    0.000    0.385    0.000    2.769    0.000    0.000 
#    0.000    0.000    0.000    0.000    0.000    0.000 
#
# Total GULP energy -322237.263110 kJ/mol
# GULP energy per Si atom -12393.740889 kJ/mol
# Density = 1.845739 g / cm^3
# Si number density = 18.499493 Si / 1000 Ang^3
#
#
#
# Elastic Constant Matrix: (Units=GPa)
#
#
# Indices 1 2 3 4 5 6 
#
# 1 39.4037 33.0557 30.8065 -0.0001 -13.0597 -0.0001
# 2 33.0557 87.2698 56.9304 -0.0005 -15.1300 -0.0003
# 3 30.8065 56.9304 100.8464 -0.0001 -18.1194 -0.0001
# 4 -0.0001 -0.0005 -0.0001 23.5732 -0.0001 -3.2474
# 5 -13.0597 -15.1300 -18.1194 -0.0001 20.3166 -0.0001
# 6 -0.0001 -0.0003 -0.0001 -3.2474 -0.0001 24.0971
#
#
#
# Elastic Compliance Matrix: (Units=1/GPa)
#
#
# Indices 1 2 3 4 5 6 
#
# 1 0.042955 -0.010796 -0.004180 0.000000 0.015843 0.000000
# 2 -0.010796 0.021328 -0.008497 0.000000 0.001365 0.000000
# 3 -0.004180 -0.008497 0.017112 0.000000 0.006247 0.000000
# 4 0.000000 0.000000 0.000000 0.043224 0.000000 0.005825
# 5 0.015843 0.001365 0.006247 0.000000 0.065993 0.000000
# 6 0.000000 0.000000 0.000000 0.005825 0.000000 0.042284
#
#
# Mechanical properties :
#
#
# Convention : Reuss Voigt Hill
#
# Bulk Modulus (GPa) = 29.02967 52.12278 40.57623
# Shear Modulus (GPa) = 17.16306 20.71251 18.93779
#
# Velocity S-wave (km/s) = 3.04922 3.34971 3.20299
# Velocity P-wave (km/s) = 5.30313 6.57246 5.97161
#
# Compressibility (1/GPa) = 0.03444751
#
# Stress axis : x y z
#
# Youngs Moduli (GPa) = 23.28043 46.88769 58.43847
#
# Poissons Ratio (x) = 0.50622 0.24429
# Poissons Ratio (y) = 0.25134 0.49653
# Poissons Ratio (z) = 0.09732 0.39839
#
# Static dielectric constant tensor:
#      x y z
#    x 3.318990 0.000000 -0.079100 
#    y 0.000000 3.781630 0.000000 
#    z -0.079100 0.000000 3.485890 
# 
# 
# High freq. dielectric constant tensor:
#      x y z
#    x 1.702520 0.000000 -0.000220 
#    y 0.000000 1.711910 0.000000 
#    z -0.000220 0.000000 1.715710 
# 
# From -- ./inp_files/316475.got.cif
#   From: 2010.06.25/outbox.cif.g09.slc.cpg/sg12_159_cif.got.tgz:316475.got - 2010.06.28 00:19:55.
