data_PCOD8086090
_publ_section_title
;
Structure prediction by ZEFSAII (Michael W. Deem and Ramdas Pophale) SiO2 
 PCOD8086090
Probable space group: C 2/M
;
_chemical_formula_sum "Si O2"
_cell_formula_units_Z 64
_cell_length_a 21.873319
_cell_length_b 9.579250
_cell_length_c 18.759232
_cell_angle_alpha 90.000000
_cell_angle_beta 114.797176
_cell_angle_gamma 90.000000
_cell_volume 3568.211125
_symmetry_space_group_name_H-M "C 2/M"
_symmetry_group_IT_number 12
_symmetry_cell_setting 'monoclinic'
loop_
_space_group_symop_operation_xyz
x,y,z
-x,y,-z
-x,-y,-z
x,-y,z
1/2+x,1/2+y,z
1/2-x,1/2+y,-z
1/2-x,1/2-y,-z
1/2+x,1/2-y,z
loop_
_atom_site_type_symbol
_atom_site_label
_atom_site_fract_x
_atom_site_fract_y
_atom_site_fract_z
Si Si1 0.427308 0.335790 0.137978
Si Si2 0.802822 0.842203 0.988146
Si Si3 0.959167 0.165187 0.549210
Si Si4 0.962838 0.165710 0.912217
Si Si5 0.186026 0.160213 0.170282
Si Si6 0.790207 0.839009 0.307309
Si Si7 0.695490 0.662731 0.519750
Si Si8 0.576766 0.665607 0.706335
O O1 0.424188 0.500000 0.146556
O O2 0.374820 0.288022 0.051545
O O3 0.499210 0.291365 0.141676
O O4 0.415944 0.268088 0.210634
O O5 0.792776 0.000000 0.008368
O O6 0.750000 0.750000 0.000000
O O7 0.789803 0.827098 0.898603
O O8 0.882254 0.220288 0.524223
O O9 0.000000 0.224368 0.500000
O O10 0.004475 0.211059 0.638957
O O11 0.952906 0.000000 0.536325
O O12 0.888507 0.225842 0.865206
O O13 0.957790 0.000000 0.921057
O O14 0.000000 0.229384 0.000000
O O15 0.231258 0.250695 0.243871
O O16 0.187791 0.000000 0.197510
O O17 0.784305 0.819100 0.388466
O O18 0.861982 0.781554 0.313435
O O19 0.781093 0.000000 0.280919
O O20 0.699428 0.500000 0.498254
O O21 0.750000 0.750000 0.500000
O O22 0.579185 0.500000 0.709857
#
# Coordination Sequence:
#
# PCOD8086090 Si02
#       8
#     8   8   8   8   8   8   8   8
#     4   9  16  26  44  70  96 125 165 211 255 300
#     4  10  19  31  47  70 100 133 167 207 255 306
#     4   9  15  29  53  78 104 136 178 225 268 312
#     4   9  15  28  47  67  97 133 167 210 262 307
#     4  10  20  32  51  76 103 137 174 214 263 316
#     4  10  20  35  53  76 108 142 172 213 269 320
#     4  10  21  36  57  83 114 147 177 220 275 328
#     4   9  16  27  48  76 100 128 174 224 263 303
#
# _framework density 17.936157999999999
#
# number of rings (size 3 to 8) (size 9 to 14) (size 15 to 20)
#    0.000    2.500    2.500    0.750    0.000    3.000 
#    0.000    2.500    0.000    2.250    0.000    3.500 
#    0.000    0.000    0.000    0.000    0.000    0.000 
#
# Total GULP energy -396511.214974 kJ/mol
# GULP energy per Si atom -12390.975468 kJ/mol
# Density = 1.789533 g / cm^3
# Si number density = 17.936158 Si / 1000 Ang^3
#
#
#
# Elastic Constant Matrix: (Units=GPa)
#
#
# Indices 1 2 3 4 5 6 
#
# 1 142.0176 37.5361 52.1929 0.0000 11.7076 0.0000
# 2 37.5361 32.8824 33.1021 0.0000 6.5143 0.0000
# 3 52.1929 33.1021 113.5331 0.0000 12.0117 0.0000
# 4 0.0000 0.0000 0.0000 22.0863 0.0000 0.2720
# 5 11.7076 6.5143 12.0117 0.0000 36.1040 0.0000
# 6 0.0000 0.0000 0.0000 0.2720 0.0000 22.4923
#
#
#
# Elastic Compliance Matrix: (Units=1/GPa)
#
#
# Indices 1 2 3 4 5 6 
#
# 1 0.010388 -0.009851 -0.001798 0.000000 -0.000993 0.000000
# 2 -0.009851 0.052876 -0.010589 0.000000 -0.002823 0.000000
# 3 -0.001798 -0.010589 0.012913 0.000000 -0.001802 0.000000
# 4 0.000000 0.000000 0.000000 0.045284 0.000000 -0.000548
# 5 -0.000993 -0.002823 -0.001802 0.000000 0.029129 0.000000
# 6 0.000000 0.000000 0.000000 -0.000548 0.000000 0.044466
#
#
# Mechanical properties :
#
#
# Convention : Reuss Voigt Hill
#
# Bulk Modulus (GPa) = 31.54631 59.34393 45.44512
# Shear Modulus (GPa) = 19.99208 27.17663 23.58436
#
# Velocity S-wave (km/s) = 3.34222 3.89676 3.63010
# Velocity P-wave (km/s) = 5.70265 7.30783 6.55456
#
# Compressibility (1/GPa) = 0.03169943
#
# Stress axis : x y z
#
# Youngs Moduli (GPa) = 96.26717 18.91216 77.44236
#
# Poissons Ratio (x) = 0.18630 0.13926
# Poissons Ratio (y) = 0.94833 0.82007
# Poissons Ratio (z) = 0.17311 0.20027
#
# Static dielectric constant tensor:
#      x y z
#    x 3.472500 0.000000 -0.025470 
#    y 0.000000 2.787150 0.000000 
#    z -0.025470 0.000000 3.308910 
# 
# 
# High freq. dielectric constant tensor:
#      x y z
#    x 1.707910 0.000000 0.002550 
#    y 0.000000 1.626000 0.000000 
#    z 0.002550 0.000000 1.706040 
# 
# From -- ./inp_files/320010.got.cif
#   From: 2010.06.25/outbox.cif.g09.slc.cpg/sg12_161_cif.got.tgz:320010.got - 2010.06.28 00:19:55.
