data_PCOD8086423
_publ_section_title
;
Structure prediction by ZEFSAII (Michael W. Deem and Ramdas Pophale) SiO2 
 PCOD8086423
Probable space group: C 2/M
;
_chemical_formula_sum "Si O2"
_cell_formula_units_Z 64
_cell_length_a 14.776039
_cell_length_b 9.139304
_cell_length_c 30.087239
_cell_angle_alpha 90.000000
_cell_angle_beta 120.453457
_cell_angle_gamma 90.000000
_cell_volume 3502.527007
_symmetry_space_group_name_H-M "C 2/M"
_symmetry_group_IT_number 12
_symmetry_cell_setting 'monoclinic'
loop_
_space_group_symop_operation_xyz
x,y,z
-x,y,-z
-x,-y,-z
x,-y,z
1/2+x,1/2+y,z
1/2-x,1/2+y,-z
1/2-x,1/2-y,-z
1/2+x,1/2-y,z
loop_
_atom_site_type_symbol
_atom_site_label
_atom_site_fract_x
_atom_site_fract_y
_atom_site_fract_z
Si Si1 0.143911 0.668333 0.246290
Si Si2 0.820928 0.171360 0.575130
Si Si3 0.000485 0.670029 0.872398
Si Si4 0.333192 0.673133 0.232435
Si Si5 0.437803 0.673318 0.691967
Si Si6 0.109652 0.171927 0.505189
Si Si7 0.711644 0.672358 0.946435
Si Si8 0.806492 0.672265 0.879501
O O1 0.146017 0.500000 0.261372
O O2 0.253061 0.715762 0.251335
O O3 0.048508 0.695899 0.188327
O O4 0.135763 0.767324 0.287532
O O5 0.884302 0.210950 0.545794
O O6 0.709202 0.251227 0.552799
O O7 0.894373 0.225064 0.633620
O O8 0.797157 0.000000 0.571384
O O9 0.031217 0.500000 0.887014
O O10 0.099453 0.773151 0.902607
O O11 0.919172 0.725435 0.889952
O O12 0.344133 0.500000 0.231835
O O13 0.446158 0.741813 0.272003
O O14 0.288175 0.737473 0.174490
O O15 0.439576 0.500000 0.695176
O O16 0.000000 0.228130 0.500000
O O17 0.120559 0.000000 0.516209
O O18 0.707548 0.500000 0.953671
O O19 0.793340 0.714563 0.927680
O O20 0.750000 0.750000 0.000000
O O21 0.802478 0.500000 0.870958
#
# Coordination Sequence:
#
# PCOD8086423 Si02
#       8
#     8   8   8   8   8   8   8   8
#     4   9  18  32  52  76 100 128 165 205 243 284
#     4   9  19  33  48  73 104 131 162 203 252 296
#     4   9  18  35  55  74  97 127 165 207 245 286
#     4   8  15  30  51  73  96 128 166 198 234 287
#     4  10  19  31  49  73 105 137 163 197 241 294
#     4   9  18  34  55  74  93 125 171 215 249 287
#     4  11  22  35  52  75 100 128 163 203 248 298
#     4   8  16  32  53  72  94 129 167 196 234 293
#
# _framework density 18.272521000000001
#
# number of rings (size 3 to 8) (size 9 to 14) (size 15 to 20)
#    0.000    2.875    0.000    2.625    0.000    3.750 
#    0.000    6.875    0.000    2.250    0.000    0.000 
#    0.000    0.000    0.000    0.000    0.000    0.000 
#
# Total GULP energy -396679.400640 kJ/mol
# GULP energy per Si atom -12396.231270 kJ/mol
# Density = 1.823093 g / cm^3
# Si number density = 18.272521 Si / 1000 Ang^3
#
#
#
# Elastic Constant Matrix: (Units=GPa)
#
#
# Indices 1 2 3 4 5 6 
#
# 1 81.3442 27.9262 22.3695 0.0000 -9.5502 0.0000
# 2 27.9262 33.6433 32.1536 0.0000 -3.6057 0.0000
# 3 22.3695 32.1536 71.4370 0.0000 -16.2422 0.0000
# 4 0.0000 0.0000 0.0000 28.0159 0.0000 -0.0990
# 5 -9.5502 -3.6057 -16.2422 0.0000 21.4663 0.0000
# 6 0.0000 0.0000 0.0000 -0.0990 0.0000 28.0206
#
#
#
# Elastic Compliance Matrix: (Units=1/GPa)
#
#
# Indices 1 2 3 4 5 6 
#
# 1 0.018508 -0.018899 0.004664 0.000000 0.008588 0.000000
# 2 -0.018899 0.073651 -0.031802 0.000000 -0.020099 0.000000
# 3 0.004664 -0.031802 0.031534 0.000000 0.020593 0.000000
# 4 0.000000 0.000000 0.000000 0.035694 0.000000 0.000126
# 5 0.008588 -0.020099 0.020593 0.000000 0.062610 0.000000
# 6 0.000000 0.000000 0.000000 0.000126 0.000000 0.035688
#
#
# Mechanical properties :
#
#
# Convention : Reuss Voigt Hill
#
# Bulk Modulus (GPa) = 31.62803 39.03591 35.33197
# Shear Modulus (GPa) = 13.87736 22.43225 18.15480
#
# Velocity S-wave (km/s) = 2.75883 3.50758 3.15549
# Velocity P-wave (km/s) = 5.24355 6.14929 5.71439
#
# Compressibility (1/GPa) = 0.03161752
#
# Stress axis : x y z
#
# Youngs Moduli (GPa) = 54.03212 13.57758 31.71199
#
# Poissons Ratio (x) = 0.25661 -0.14790
# Poissons Ratio (y) = 1.02117 1.00850
# Poissons Ratio (z) = -0.25199 0.43179
#
# Static dielectric constant tensor:
#      x y z
#    x 3.591620 0.000000 -0.081560 
#    y 0.000000 3.045860 0.000000 
#    z -0.081560 0.000000 3.659580 
# 
# 
# High freq. dielectric constant tensor:
#      x y z
#    x 1.716640 0.000000 -0.003210 
#    y 0.000000 1.677560 0.000000 
#    z -0.003210 0.000000 1.709710 
# 
# From -- ./inp_files/375110.got.cif
#   From: 2010.06.25/outbox.cif.g09.slc.cpg/sg12_188_cif.got.tgz:375110.got - 2010.06.28 00:19:55.
