data_PCOD8086215
_publ_section_title
;
Structure prediction by ZEFSAII (Michael W. Deem and Ramdas Pophale) SiO2 
 PCOD8086215
Probable space group: C 2/M
;
_chemical_formula_sum "Si O2"
_cell_formula_units_Z 48
_cell_length_a 23.590327
_cell_length_b 8.919839
_cell_length_c 13.739684
_cell_angle_alpha 90.000000
_cell_angle_beta 109.066231
_cell_angle_gamma 90.000000
_cell_volume 2732.527879
_symmetry_space_group_name_H-M "C 2/M"
_symmetry_group_IT_number 12
_symmetry_cell_setting 'monoclinic'
loop_
_space_group_symop_operation_xyz
x,y,z
-x,y,-z
-x,-y,-z
x,-y,z
1/2+x,1/2+y,z
1/2-x,1/2+y,-z
1/2-x,1/2-y,-z
1/2+x,1/2-y,z
loop_
_atom_site_type_symbol
_atom_site_label
_atom_site_fract_x
_atom_site_fract_y
_atom_site_fract_z
Si Si1 0.011830 0.677179 0.614498
Si Si2 0.429665 0.331116 0.083102
Si Si3 0.140640 0.829076 0.143101
Si Si4 0.249526 0.176811 0.892905
Si Si5 0.131875 0.675395 0.786388
Si Si6 0.550825 0.673621 0.249639
O O1 0.007805 0.500000 0.614597
O O2 0.078123 0.730160 0.685275
O O3 0.000000 0.740617 0.500000
O O4 0.959740 0.736731 0.656587
O O5 0.415345 0.500000 0.112587
O O6 0.386468 0.213997 0.113506
O O7 0.498326 0.289674 0.142943
O O8 0.415981 0.318313 0.961558
O O9 0.192917 0.718943 0.139077
O O10 0.113840 0.780884 0.233535
O O11 0.165008 0.000000 0.159591
O O12 0.192793 0.234785 0.798043
O O13 0.246455 0.000000 0.905216
O O14 0.250000 0.250000 0.000000
O O15 0.144490 0.500000 0.782851
O O16 0.551702 0.500000 0.277619
#
# Coordination Sequence:
#
# PCOD8086215 Si02
#       6
#     8   8   8   8   8   8
#     4   9  19  36  57  79 103 131 164 210 265 310
#     4   9  16  28  47  70 101 137 168 201 244 298
#     4  10  19  31  48  71 104 141 171 204 247 299
#     4  12  23  34  49  71 103 141 178 211 245 292
#     4  10  19  32  51  75 102 133 172 212 250 297
#     4   9  18  31  49  76 104 132 168 208 254 303
#
# _framework density 17.566151999999999
#
# number of rings (size 3 to 8) (size 9 to 14) (size 15 to 20)
#    0.000    2.167    1.667    2.500    0.000    3.667 
#    0.000    0.000    0.000    6.000    0.000    0.000 
#    0.000    0.000    0.000    0.000    0.000    0.000 
#
# Total GULP energy -297514.411873 kJ/mol
# GULP energy per Si atom -12396.433828 kJ/mol
# Density = 1.752617 g / cm^3
# Si number density = 17.566152 Si / 1000 Ang^3
#
#
#
# Elastic Constant Matrix: (Units=GPa)
#
#
# Indices 1 2 3 4 5 6 
#
# 1 114.7528 43.0304 50.0478 0.0000 -11.5891 0.0000
# 2 43.0304 71.7597 30.3498 0.0000 -2.4509 0.0000
# 3 50.0478 30.3498 85.7111 0.0000 -12.5708 0.0000
# 4 0.0000 0.0000 0.0000 19.6051 0.0000 -1.3831
# 5 -11.5891 -2.4509 -12.5708 0.0000 18.4362 0.0000
# 6 0.0000 0.0000 0.0000 -1.3831 0.0000 30.9657
#
#
#
# Elastic Compliance Matrix: (Units=1/GPa)
#
#
# Indices 1 2 3 4 5 6 
#
# 1 0.013611 -0.005783 -0.005286 0.000000 0.004183 0.000000
# 2 -0.005783 0.018912 -0.003871 0.000000 -0.003761 0.000000
# 3 -0.005286 -0.003871 0.017291 0.000000 0.007952 0.000000
# 4 0.000000 0.000000 0.000000 0.051168 0.000000 0.002285
# 5 0.004183 -0.003761 0.007952 0.000000 0.061793 0.000000
# 6 0.000000 0.000000 0.000000 0.002285 0.000000 0.032396
#
#
# Mechanical properties :
#
#
# Convention : Reuss Voigt Hill
#
# Bulk Modulus (GPa) = 50.16992 57.67551 53.92272
# Shear Modulus (GPa) = 21.57991 23.72111 22.65051
#
# Velocity S-wave (km/s) = 3.50879 3.67875 3.59477
# Velocity P-wave (km/s) = 6.71104 7.13785 6.92773
#
# Compressibility (1/GPa) = 0.01993226
#
# Stress axis : x y z
#
# Youngs Moduli (GPa) = 73.47040 52.87623 57.83328
#
# Poissons Ratio (x) = 0.30579 0.30573
# Poissons Ratio (y) = 0.42488 0.22390
# Poissons Ratio (z) = 0.38840 0.20471
#
# Static dielectric constant tensor:
#      x y z
#    x 3.367530 0.000000 0.089450 
#    y 0.000000 3.199200 0.000000 
#    z 0.089450 0.000000 3.164050 
# 
# 
# High freq. dielectric constant tensor:
#      x y z
#    x 1.679570 0.000000 0.000930 
#    y 0.000000 1.675120 0.000000 
#    z 0.000930 0.000000 1.644390 
# 
# From -- ./inp_files/230396.got.cif
#   From: 2010.06.25/outbox.cif.g09.slc.cpg/sg12_116_cif.got.tgz:230396.got - 2010.06.28 00:19:55.
