data_PCOD8086177
_publ_section_title
;
Structure prediction by ZEFSAII (Michael W. Deem and Ramdas Pophale) SiO2 
 PCOD8086177
Probable space group: C 2/M
;
_chemical_formula_sum "Si O2"
_cell_formula_units_Z 56
_cell_length_a 18.659386
_cell_length_b 9.412836
_cell_length_c 22.989758
_cell_angle_alpha 90.000000
_cell_angle_beta 128.156267
_cell_angle_gamma 90.000000
_cell_volume 3175.092339
_symmetry_space_group_name_H-M "C 2/M"
_symmetry_group_IT_number 12
_symmetry_cell_setting 'monoclinic'
loop_
_space_group_symop_operation_xyz
x,y,z
-x,y,-z
-x,-y,-z
x,-y,z
1/2+x,1/2+y,z
1/2-x,1/2+y,-z
1/2-x,1/2-y,-z
1/2+x,1/2-y,z
loop_
_atom_site_type_symbol
_atom_site_label
_atom_site_fract_x
_atom_site_fract_y
_atom_site_fract_z
Si Si1 0.613325 0.843805 0.206146
Si Si2 0.236759 0.332190 0.370921
Si Si3 0.087527 0.334055 0.505484
Si Si4 0.009134 0.836236 0.069499
Si Si5 0.427586 0.168533 0.633171
Si Si6 0.662526 0.333945 0.934801
Si Si7 0.442365 0.158944 0.205150
O O1 0.699897 0.794759 0.287825
O O2 0.594830 0.738373 0.143578
O O3 0.527292 0.849764 0.204990
O O4 0.631136 0.000000 0.188782
O O5 0.252737 0.500000 0.385862
O O6 0.330213 0.250310 0.425056
O O7 0.165015 0.274795 0.383147
O O8 0.112138 0.500000 0.516873
O O9 0.068254 0.276676 0.430746
O O10 0.000000 0.301619 0.500000
O O11 0.915431 0.809727 0.056458
O O12 0.035517 0.000000 0.080323
O O13 0.000000 0.773578 0.000000
O O14 0.518631 0.218811 0.713673
O O15 0.426675 0.000000 0.636778
O O16 0.684770 0.500000 0.937417
O O17 0.632262 0.268000 0.857541
O O18 0.750000 0.250000 0.000000
O O19 0.399561 0.000000 0.190054
#
# Coordination Sequence:
#
# PCOD8086177 Si02
#       7
#     8   8   8   8   8   8   8
#     4   8  15  28  47  70  92 117 152 192 232 271
#     4   9  17  31  51  71  90 117 156 196 230 268
#     4  10  20  32  46  68  98 127 153 184 227 278
#     4   9  18  32  49  70  95 122 153 189 229 273
#     4   8  15  30  51  71  90 117 155 194 230 271
#     4  10  19  31  48  70  96 123 153 190 229 272
#     4   8  14  28  49  68  89 119 154 192 231 269
#
# _framework density 17.637283
#
# number of rings (size 3 to 8) (size 9 to 14) (size 15 to 20)
#    0.000    3.143    0.000    2.571    0.000    1.714 
#    0.000    4.286    0.000    6.857    0.000    0.000 
#    0.000    0.000    0.000    0.000    0.000    0.000 
#
# Total GULP energy -347071.061053 kJ/mol
# GULP energy per Si atom -12395.395038 kJ/mol
# Density = 1.759714 g / cm^3
# Si number density = 17.637283 Si / 1000 Ang^3
#
#
#
# Elastic Constant Matrix: (Units=GPa)
#
#
# Indices 1 2 3 4 5 6 
#
# 1 55.0205 37.2407 59.8115 0.0000 -0.6592 0.0000
# 2 37.2407 77.8973 79.4084 0.0000 6.4754 0.0000
# 3 59.8115 79.4084 187.3875 0.0000 3.5072 0.0000
# 4 0.0000 0.0000 0.0000 34.1650 0.0000 4.8100
# 5 -0.6592 6.4754 3.5072 0.0000 26.3218 0.0000
# 6 0.0000 0.0000 0.0000 4.8100 0.0000 16.7185
#
#
#
# Elastic Compliance Matrix: (Units=1/GPa)
#
#
# Indices 1 2 3 4 5 6 
#
# 1 0.030909 -0.008732 -0.006236 0.000000 0.003753 0.000000
# 2 -0.008732 0.025562 -0.007943 0.000000 -0.005449 0.000000
# 3 -0.006236 -0.007943 0.010686 0.000000 0.000374 0.000000
# 4 0.000000 0.000000 0.000000 0.030505 0.000000 -0.008777
# 5 0.003753 -0.005449 0.000374 0.000000 0.039376 0.000000
# 6 0.000000 0.000000 0.000000 -0.008777 0.000000 0.062339
#
#
# Mechanical properties :
#
#
# Convention : Reuss Voigt Hill
#
# Bulk Modulus (GPa) = 46.87104 74.80294 60.83699
# Shear Modulus (GPa) = 19.81680 25.03071 22.42375
#
# Velocity S-wave (km/s) = 3.35561 3.77131 3.56952
# Velocity P-wave (km/s) = 6.45339 7.84012 7.18031
#
# Compressibility (1/GPa) = 0.02133513
#
# Stress axis : x y z
#
# Youngs Moduli (GPa) = 32.35313 39.12005 93.58132
#
# Poissons Ratio (x) = 0.34161 0.58353
# Poissons Ratio (y) = 0.28252 0.74334
# Poissons Ratio (z) = 0.20174 0.31074
#
# Static dielectric constant tensor:
#      x y z
#    x 2.995920 0.000000 -0.171390 
#    y 0.000000 3.221410 0.000000 
#    z -0.171390 0.000000 3.748120 
# 
# 
# High freq. dielectric constant tensor:
#      x y z
#    x 1.645200 0.000000 -0.001180 
#    y 0.000000 1.665950 0.000000 
#    z -0.001180 0.000000 1.700090 
# 
# From -- ./inp_files/342221.got.cif
#   From: 2010.06.25/outbox.cif.g09.slc.cpg/sg12_172_cif.got.tgz:342221.got - 2010.06.28 00:19:55.
