data_PCOD8086052
_publ_section_title
;
Structure prediction by ZEFSAII (Michael W. Deem and Ramdas Pophale) SiO2 
 PCOD8086052
Probable space group: C 2/M
;
_chemical_formula_sum "Si O2"
_cell_formula_units_Z 56
_cell_length_a 20.538683
_cell_length_b 8.954115
_cell_length_c 22.264478
_cell_angle_alpha 90.000000
_cell_angle_beta 51.333616
_cell_angle_gamma 90.000000
_cell_volume 3197.024569
_symmetry_space_group_name_H-M "C 2/M"
_symmetry_group_IT_number 12
_symmetry_cell_setting 'monoclinic'
loop_
_space_group_symop_operation_xyz
x,y,z
-x,y,-z
-x,-y,-z
x,-y,z
1/2+x,1/2+y,z
1/2-x,1/2+y,-z
1/2-x,1/2-y,-z
1/2+x,1/2-y,z
loop_
_atom_site_type_symbol
_atom_site_label
_atom_site_fract_x
_atom_site_fract_y
_atom_site_fract_z
Si Si1 0.995924 0.665329 0.637476
Si Si2 0.257083 0.823382 0.188488
Si Si3 0.385718 0.177716 0.806745
Si Si4 0.839712 0.825286 0.949481
Si Si5 0.327674 0.167143 0.658694
Si Si6 0.404866 0.672470 0.043437
Si Si7 0.083896 0.833010 0.490260
O O1 0.034815 0.500000 0.618072
O O2 0.967756 0.719578 0.720074
O O3 0.913592 0.662975 0.644862
O O4 0.065275 0.771832 0.568000
O O5 0.197473 0.744154 0.174764
O O6 0.238102 0.767849 0.267014
O O7 0.350951 0.777612 0.118030
O O8 0.244566 0.000000 0.192434
O O9 0.397676 0.249902 0.865141
O O10 0.373865 0.000000 0.817463
O O11 0.829514 0.000000 0.942214
O O12 0.750000 0.750000 0.000000
O O13 0.884595 0.793321 0.986104
O O14 0.344173 0.236579 0.583391
O O15 0.291881 0.000000 0.671570
O O16 0.386446 0.500000 0.069835
O O17 0.500000 0.714996 0.000000
O O18 0.000000 0.828018 0.500000
O O19 0.117801 0.000000 0.477293
#
# Coordination Sequence:
#
# PCOD8086052 Si02
#       7
#     8   8   8   8   8   8   8
#     4   8  15  25  37  55  83 121 157 191 234 285
#     4  11  20  30  47  70  95 123 161 207 250 292
#     4  10  19  31  47  68  96 128 164 202 243 294
#     4  11  21  33  53  76  99 127 164 208 250 296
#     4   9  16  26  40  57  84 122 160 195 235 290
#     4  10  22  39  55  71  97 133 168 203 249 303
#     4   9  15  22  34  55  84 117 154 195 237 283
#
# _framework density 17.516286000000001
#
# number of rings (size 3 to 8) (size 9 to 14) (size 15 to 20)
#    0.000    2.286    1.429    3.857    0.000    6.571 
#    0.000    0.000    0.000    0.000    0.000    0.000 
#    0.000    1.143    0.000    3.429    0.000    6.143 
#
# Total GULP energy -347158.290516 kJ/mol
# GULP energy per Si atom -12398.510376 kJ/mol
# Density = 1.747642 g / cm^3
# Si number density = 17.516286 Si / 1000 Ang^3
#
#
#
# Elastic Constant Matrix: (Units=GPa)
#
#
# Indices 1 2 3 4 5 6 
#
# 1 48.6090 28.4762 34.7890 0.0001 1.0797 0.0001
# 2 28.4762 125.9676 75.7376 0.0005 6.3350 -0.0005
# 3 34.7890 75.7376 157.5338 0.0000 17.9157 -0.0002
# 4 0.0001 0.0005 0.0000 38.7133 0.0000 3.9025
# 5 1.0797 6.3350 17.9157 0.0000 12.6703 0.0000
# 6 0.0001 -0.0005 -0.0002 3.9025 0.0000 12.7184
#
#
#
# Elastic Compliance Matrix: (Units=1/GPa)
#
#
# Indices 1 2 3 4 5 6 
#
# 1 0.025802 -0.003226 -0.004863 0.000000 0.006290 0.000000
# 2 -0.003226 0.011631 -0.005064 0.000000 0.001619 0.000000
# 3 -0.004863 -0.005064 0.011345 0.000000 -0.013096 0.000000
# 4 0.000000 0.000000 0.000000 0.026655 0.000000 -0.008179
# 5 0.006290 0.001619 -0.013096 0.000000 0.096097 0.000000
# 6 0.000000 0.000000 0.000000 -0.008179 0.000000 0.081136
#
#
# Mechanical properties :
#
#
# Convention : Reuss Voigt Hill
#
# Bulk Modulus (GPa) = 44.49376 67.79067 56.14222
# Shear Modulus (GPa) = 17.45430 25.69423 21.57426
#
# Velocity S-wave (km/s) = 3.16010 3.83414 3.51332
# Velocity P-wave (km/s) = 6.22668 7.64110 6.96986
#
# Compressibility (1/GPa) = 0.02247506
#
# Stress axis : x y z
#
# Youngs Moduli (GPa) = 38.75618 85.97914 88.14078
#
# Poissons Ratio (x) = 0.27733 0.42860
# Poissons Ratio (y) = 0.12501 0.44631
# Poissons Ratio (z) = 0.18846 0.43536
#
# Static dielectric constant tensor:
#      x y z
#    x 2.684760 0.000000 0.221850 
#    y 0.000000 3.407190 0.000000 
#    z 0.221850 0.000000 3.672340 
# 
# 
# High freq. dielectric constant tensor:
#      x y z
#    x 1.595060 0.000000 0.016070 
#    y 0.000000 1.690050 0.000000 
#    z 0.016070 0.000000 1.698500 
# 
# From -- ./inp_files/345471.got.cif
#   From: 2010.06.25/outbox.cif.g09.slc.cpg/sg12_173_cif.got.tgz:345471.got - 2010.06.28 00:19:55.
