data_PCOD8086433
_publ_section_title
;
Structure prediction by ZEFSAII (Michael W. Deem and Ramdas Pophale) SiO2 
 PCOD8086433
Probable space group: C 2/M
;
_chemical_formula_sum "Si O2"
_cell_formula_units_Z 48
_cell_length_a 14.423095
_cell_length_b 9.194027
_cell_length_c 24.049113
_cell_angle_alpha 90.000000
_cell_angle_beta 53.280361
_cell_angle_gamma 90.000000
_cell_volume 2556.260822
_symmetry_space_group_name_H-M "C 2/M"
_symmetry_group_IT_number 12
_symmetry_cell_setting 'monoclinic'
loop_
_space_group_symop_operation_xyz
x,y,z
-x,y,-z
-x,-y,-z
x,-y,z
1/2+x,1/2+y,z
1/2-x,1/2+y,-z
1/2-x,1/2-y,-z
1/2+x,1/2-y,z
loop_
_atom_site_type_symbol
_atom_site_label
_atom_site_fract_x
_atom_site_fract_y
_atom_site_fract_z
Si Si1 0.014981 0.669464 0.757595
Si Si2 0.359734 0.171290 0.396190
Si Si3 0.408239 0.661039 0.983420
Si Si4 0.240979 0.673059 0.134131
Si Si5 0.903218 0.170393 0.490947
Si Si6 0.079039 0.330869 0.855317
O O1 0.998731 0.500000 0.753182
O O2 0.080166 0.735956 0.680838
O O3 0.090600 0.697567 0.785397
O O4 0.887464 0.736677 0.811968
O O5 0.223838 0.208980 0.440105
O O6 0.421274 0.247390 0.426328
O O7 0.378178 0.000000 0.396062
O O8 0.394378 0.500000 0.961851
O O9 0.453283 0.773651 0.921009
O O10 0.500000 0.654038 0.000000
O O11 0.288045 0.714814 0.055256
O O12 0.249205 0.500000 0.138395
O O13 0.316565 0.744967 0.155024
O O14 0.000000 0.224547 0.500000
O O15 0.917293 0.000000 0.474445
O O16 0.086618 0.500000 0.867752
#
# Coordination Sequence:
#
# PCOD8086433 Si02
#       6
#     8   8   8   8   8   8
#     4   9  19  34  50  70  99 133 162 194 243 293
#     4   9  18  34  53  73 100 131 163 196 231 284
#     4   8  15  29  48  67  91 126 164 202 245 291
#     4   9  18  34  51  66  92 131 168 200 242 295
#     4   9  18  33  54  78 102 128 157 194 241 284
#     4  10  19  31  49  73  98 124 161 208 249 285
#
# _framework density 18.777425999999998
#
# number of rings (size 3 to 8) (size 9 to 14) (size 15 to 20)
#    0.000    3.000    0.000    1.500    0.000    5.333 
#    0.000    5.833    0.000    0.000    0.000    0.000 
#    0.000    0.000    0.000    0.000    0.000    0.000 
#
# Total GULP energy -297499.509293 kJ/mol
# GULP energy per Si atom -12395.812887 kJ/mol
# Density = 1.873469 g / cm^3
# Si number density = 18.777426 Si / 1000 Ang^3
#
#
#
# Elastic Constant Matrix: (Units=GPa)
#
#
# Indices 1 2 3 4 5 6 
#
# 1 69.7204 12.1159 21.6057 0.0000 2.5405 0.0000
# 2 12.1159 33.9848 18.2069 0.0000 5.1451 0.0000
# 3 21.6057 18.2069 109.0259 0.0000 8.5714 0.0000
# 4 0.0000 0.0000 0.0000 24.1544 0.0000 5.9553
# 5 2.5405 5.1451 8.5714 0.0000 24.5009 0.0000
# 6 0.0000 0.0000 0.0000 5.9553 0.0000 20.0238
#
#
#
# Elastic Compliance Matrix: (Units=1/GPa)
#
#
# Indices 1 2 3 4 5 6 
#
# 1 0.015848 -0.004372 -0.002420 0.000000 0.000121 0.000000
# 2 -0.004372 0.034138 -0.004428 0.000000 -0.005166 0.000000
# 3 -0.002420 -0.004428 0.010590 0.000000 -0.002524 0.000000
# 4 0.000000 0.000000 0.000000 0.044676 0.000000 -0.013287
# 5 0.000121 -0.005166 -0.002524 0.000000 0.042770 0.000000
# 6 0.000000 0.000000 0.000000 -0.013287 0.000000 0.053892
#
#
# Mechanical properties :
#
#
# Convention : Reuss Voigt Hill
#
# Bulk Modulus (GPa) = 26.22242 35.17645 30.69944
# Shear Modulus (GPa) = 21.09108 24.45602 22.77355
#
# Velocity S-wave (km/s) = 3.35507 3.61281 3.48633
# Velocity P-wave (km/s) = 5.38553 6.01476 5.70882
#
# Compressibility (1/GPa) = 0.03813530
#
# Stress axis : x y z
#
# Youngs Moduli (GPa) = 63.09831 29.29274 94.43174
#
# Poissons Ratio (x) = 0.12807 0.22854
# Poissons Ratio (y) = 0.27586 0.41818
# Poissons Ratio (z) = 0.15271 0.12972
#
# Static dielectric constant tensor:
#      x y z
#    x 3.330890 0.000000 -0.151070 
#    y 0.000000 3.240120 0.000000 
#    z -0.151070 0.000000 3.859790 
# 
# 
# High freq. dielectric constant tensor:
#      x y z
#    x 1.723590 0.000000 -0.002200 
#    y 0.000000 1.706860 0.000000 
#    z -0.002200 0.000000 1.731800 
# 
# From -- ./inp_files/339204.got.cif
#   From: 2010.06.25/outbox.cif.g09.slc.cpg/sg12_170_cif.got.tgz:339204.got - 2010.06.28 00:19:55.
