data_PCOD8086987
_publ_section_title
;
Structure prediction by ZEFSAII (Michael W. Deem and Ramdas Pophale) SiO2 
 PCOD8086987
Probable space group: C 2/M
;
_chemical_formula_sum "Si O2"
_cell_formula_units_Z 56
_cell_length_a 31.151462
_cell_length_b 8.983396
_cell_length_c 20.071673
_cell_angle_alpha 90.000000
_cell_angle_beta 149.331059
_cell_angle_gamma 90.000000
_cell_volume 2865.088653
_symmetry_space_group_name_H-M "C 2/M"
_symmetry_group_IT_number 12
_symmetry_cell_setting 'monoclinic'
loop_
_space_group_symop_operation_xyz
x,y,z
-x,y,-z
-x,-y,-z
x,-y,z
1/2+x,1/2+y,z
1/2-x,1/2+y,-z
1/2-x,1/2-y,-z
1/2+x,1/2-y,z
loop_
_atom_site_type_symbol
_atom_site_label
_atom_site_fract_x
_atom_site_fract_y
_atom_site_fract_z
Si Si1 0.980110 0.332117 0.045786
Si Si2 0.471128 0.675063 0.656734
Si Si3 0.944138 0.824083 0.364739
Si Si4 0.308189 0.825944 0.479565
Si Si5 0.742582 0.322593 0.917563
Si Si6 0.101601 0.176150 0.944784
Si Si7 0.666241 0.164957 0.336911
O O1 0.942128 0.500000 0.987826
O O2 0.917711 0.229504 0.005703
O O3 0.067503 0.337594 0.199386
O O4 0.000000 0.261768 0.000000
O O5 0.457516 0.500000 0.636543
O O6 0.519864 0.734972 0.657149
O O7 0.379725 0.750814 0.530679
O O8 0.525019 0.721471 0.793559
O O9 0.845860 0.778042 0.235851
O O10 0.000000 0.755284 0.500000
O O11 0.952203 0.000000 0.378010
O O12 0.322712 0.771144 0.574326
O O13 0.212945 0.763197 0.341322
O O14 0.311535 0.000000 0.471272
O O15 0.750397 0.500000 0.935932
O O16 0.750000 0.250000 0.000000
O O17 0.814665 0.259830 0.966252
O O18 0.117263 0.000000 0.964588
O O19 0.704609 0.000000 0.382629
#
# Coordination Sequence:
#
# PCOD8086987 Si02
#       7
#     8   8   8   8   8   8   8
#     4  10  21  39  60  82 111 150 198 245 292 348
#     4  10  19  34  57  83 110 144 189 235 284 343
#     4   9  19  38  61  85 114 150 193 240 289 346
#     4  10  19  31  52  80 107 138 179 226 279 330
#     4  11  21  37  63  93 122 155 200 248 298 354
#     4  11  22  37  59  88 118 151 196 244 297 354
#     4   9  18  33  52  76 105 139 180 227 277 329
#
# _framework density 19.545642000000001
#
# number of rings (size 3 to 8) (size 9 to 14) (size 15 to 20)
#    0.000    2.000    2.857    1.286    0.000    2.000 
#    2.571    0.000    0.000    3.000    0.000    0.000 
#    0.000    0.000    0.000    0.000    0.000    0.000 
#
# Total GULP energy -347026.710612 kJ/mol
# GULP energy per Si atom -12393.811093 kJ/mol
# Density = 1.950116 g / cm^3
# Si number density = 19.545642 Si / 1000 Ang^3
#
#
#
# Elastic Constant Matrix: (Units=GPa)
#
#
# Indices 1 2 3 4 5 6 
#
# 1 136.7132 49.2758 40.2275 0.0000 13.2855 0.0000
# 2 49.2758 73.1818 31.9999 0.0000 12.7544 0.0000
# 3 40.2275 31.9999 66.6280 0.0000 10.2717 0.0000
# 4 0.0000 0.0000 0.0000 23.1685 0.0000 7.6825
# 5 13.2855 12.7544 10.2717 0.0000 38.3939 0.0000
# 6 0.0000 0.0000 0.0000 7.6825 0.0000 33.1141
#
#
#
# Elastic Compliance Matrix: (Units=1/GPa)
#
#
# Indices 1 2 3 4 5 6 
#
# 1 0.010347 -0.005243 -0.003594 0.000000 -0.000877 0.000000
# 2 -0.005243 0.020465 -0.006149 0.000000 -0.003339 0.000000
# 3 -0.003594 -0.006149 0.020469 0.000000 -0.002190 0.000000
# 4 0.000000 0.000000 0.000000 0.046759 0.000000 -0.010848
# 5 -0.000877 -0.003339 -0.002190 0.000000 0.028045 0.000000
# 6 0.000000 0.000000 0.000000 -0.010848 0.000000 0.032715
#
#
# Mechanical properties :
#
#
# Convention : Reuss Voigt Hill
#
# Bulk Modulus (GPa) = 46.92467 57.72550 52.32509
# Shear Modulus (GPa) = 25.52643 29.26995 27.39819
#
# Velocity S-wave (km/s) = 3.61777 3.87398 3.74806
# Velocity P-wave (km/s) = 6.44289 7.04330 6.74978
#
# Compressibility (1/GPa) = 0.02131075
#
# Stress axis : x y z
#
# Youngs Moduli (GPa) = 96.64706 48.86320 48.85336
#
# Poissons Ratio (x) = 0.25617 0.17558
# Poissons Ratio (y) = 0.50667 0.30040
# Poissons Ratio (z) = 0.34735 0.30046
#
# Static dielectric constant tensor:
#      x y z
#    x 3.658590 0.000000 0.135910 
#    y 0.000000 3.506190 0.000000 
#    z 0.135910 0.000000 3.783400 
# 
# 
# High freq. dielectric constant tensor:
#      x y z
#    x 1.762730 0.000000 0.018970 
#    y 0.000000 1.745730 0.000000 
#    z 0.018970 0.000000 1.755210 
# 
# From -- ./inp_files/280863.got.cif
#   From: 2010.06.25/outbox.cif.g09.slc.cpg/sg12_141_cif.got.tgz:280863.got - 2010.06.28 00:19:55.
