data_PCOD8086390
_publ_section_title
;
Structure prediction by ZEFSAII (Michael W. Deem and Ramdas Pophale) SiO2 
 PCOD8086390
Probable space group: C 2/M
;
_chemical_formula_sum "Si O2"
_cell_formula_units_Z 56
_cell_length_a 18.005025
_cell_length_b 14.017857
_cell_length_c 13.973239
_cell_angle_alpha 90.000000
_cell_angle_beta 63.176546
_cell_angle_gamma 90.000000
_cell_volume 3147.259665
_symmetry_space_group_name_H-M "C 2/M"
_symmetry_group_IT_number 12
_symmetry_cell_setting 'monoclinic'
loop_
_space_group_symop_operation_xyz
x,y,z
-x,y,-z
-x,-y,-z
x,-y,z
1/2+x,1/2+y,z
1/2-x,1/2+y,-z
1/2-x,1/2-y,-z
1/2+x,1/2-y,z
loop_
_atom_site_type_symbol
_atom_site_label
_atom_site_fract_x
_atom_site_fract_y
_atom_site_fract_z
Si Si1 0.915718 0.106479 0.092885
Si Si2 0.049805 0.705837 0.378393
Si Si3 0.768643 0.106353 0.028055
Si Si4 0.906005 0.606753 0.348088
Si Si5 0.807688 0.222667 0.826200
Si Si6 0.180167 0.249628 0.739600
Si Si7 0.189596 0.395383 0.406013
O O1 0.893084 0.176813 0.191647
O O2 0.929404 0.000000 0.126165
O O3 0.845807 0.106621 0.053536
O O4 0.000000 0.147402 0.000000
O O5 0.106994 0.781832 0.286516
O O6 0.110812 0.624021 0.383070
O O7 0.000000 0.750874 0.500000
O O8 0.987214 0.661049 0.338377
O O9 0.803351 0.136824 0.903932
O O10 0.730341 0.000000 0.042318
O O11 0.698093 0.177159 0.111391
O O12 0.930379 0.500000 0.299734
O O13 0.862231 0.661925 0.287453
O O14 0.837322 0.600250 0.469585
O O15 0.728148 0.210152 0.803856
O O16 0.243608 0.188778 0.638067
O O17 0.225537 0.500000 0.354360
#
# Coordination Sequence:
#
# PCOD8086390 Si02
#       7
#     8   8   8   8   8   8   8
#     4   9  18  31  49  72  94 118 156 206 252 283
#     4   9  18  32  52  75 101 131 166 209 251 291
#     4   9  18  33  52  73  96 128 168 207 245 289
#     4  10  20  31  47  74 104 134 161 196 245 296
#     4   9  19  33  52  75  98 132 169 203 245 298
#     4  10  19  31  49  72  99 130 161 199 244 294
#     4   9  17  32  52  73  97 126 168 208 243 286
#
# _framework density 17.793256
#
# number of rings (size 3 to 8) (size 9 to 14) (size 15 to 20)
#    0.000    2.714    0.000    1.286    2.000    6.286 
#    0.000    0.000    0.000    0.857    0.000    0.000 
#    0.000    0.000    0.000    0.000    0.000    0.000 
#
# Total GULP energy -347040.283541 kJ/mol
# GULP energy per Si atom -12394.295841 kJ/mol
# Density = 1.775276 g / cm^3
# Si number density = 17.793256 Si / 1000 Ang^3
#
#
#
# Elastic Constant Matrix: (Units=GPa)
#
#
# Indices 1 2 3 4 5 6 
#
# 1 48.8276 29.8923 22.2954 0.0000 -0.2260 0.0000
# 2 29.8923 60.6559 24.3363 0.0000 12.3924 0.0000
# 3 22.2954 24.3363 83.8940 0.0000 -2.7264 0.0000
# 4 0.0000 0.0000 0.0000 20.9660 0.0000 3.1801
# 5 -0.2260 12.3924 -2.7264 0.0000 30.1971 0.0000
# 6 0.0000 0.0000 0.0000 3.1801 0.0000 19.4028
#
#
#
# Elastic Compliance Matrix: (Units=1/GPa)
#
#
# Indices 1 2 3 4 5 6 
#
# 1 0.031612 -0.015340 -0.003750 0.000000 0.006193 0.000000
# 2 -0.015340 0.028354 -0.004544 0.000000 -0.012161 0.000000
# 3 -0.003750 -0.004544 0.014336 0.000000 0.003131 0.000000
# 4 0.000000 0.000000 0.000000 0.048912 0.000000 -0.008017
# 5 0.006193 -0.012161 0.003131 0.000000 0.038436 0.000000
# 6 0.000000 0.000000 0.000000 -0.008017 0.000000 0.052853
#
#
# Mechanical properties :
#
#
# Convention : Reuss Voigt Hill
#
# Bulk Modulus (GPa) = 36.98860 38.49171 37.74016
# Shear Modulus (GPa) = 18.46508 21.90339 20.18424
#
# Velocity S-wave (km/s) = 3.22492 3.51236 3.37170
# Velocity P-wave (km/s) = 5.89066 6.17484 6.03442
#
# Compressibility (1/GPa) = 0.02703535
#
# Stress axis : x y z
#
# Youngs Moduli (GPa) = 31.63328 35.26874 69.75364
#
# Poissons Ratio (x) = 0.54102 0.26158
# Poissons Ratio (y) = 0.48525 0.31693
# Poissons Ratio (z) = 0.11863 0.16024
#
# Static dielectric constant tensor:
#      x y z
#    x 3.143530 0.000000 -0.093480 
#    y 0.000000 3.341030 0.000000 
#    z -0.093480 0.000000 3.485000 
# 
# 
# High freq. dielectric constant tensor:
#      x y z
#    x 1.677420 0.000000 -0.003090 
#    y 0.000000 1.669410 0.000000 
#    z -0.003090 0.000000 1.692280 
# 
# From -- ./inp_files/224673.got.cif
#   From: 2010.06.25/outbox.cif.g09.slc.cpg/sg12_113_cif.got.tgz:224673.got - 2010.06.28 00:19:55.
