data_PCOD8086239
_publ_section_title
;
Structure prediction by ZEFSAII (Michael W. Deem and Ramdas Pophale) SiO2 
 PCOD8086239
Probable space group: C 2/M
;
_chemical_formula_sum "Si O2"
_cell_formula_units_Z 64
_cell_length_a 22.897636
_cell_length_b 9.279522
_cell_length_c 21.170357
_cell_angle_alpha 90.000000
_cell_angle_beta 51.865180
_cell_angle_gamma 90.000000
_cell_volume 3538.149914
_symmetry_space_group_name_H-M "C 2/M"
_symmetry_group_IT_number 12
_symmetry_cell_setting 'monoclinic'
loop_
_space_group_symop_operation_xyz
x,y,z
-x,y,-z
-x,-y,-z
x,-y,z
1/2+x,1/2+y,z
1/2-x,1/2+y,-z
1/2-x,1/2-y,-z
1/2+x,1/2-y,z
loop_
_atom_site_type_symbol
_atom_site_label
_atom_site_fract_x
_atom_site_fract_y
_atom_site_fract_z
Si Si1 0.793132 0.829749 0.915087
Si Si2 0.746384 0.329981 0.685649
Si Si3 0.022435 0.829498 0.387595
Si Si4 0.941330 0.663886 0.088464
Si Si5 0.546406 0.670881 0.232867
Si Si6 0.919955 0.168537 0.225568
Si Si7 0.773399 0.335465 0.174500
Si Si8 0.116920 0.829865 0.442861
O O1 0.879845 0.781067 0.854843
O O2 0.759361 0.783333 0.870179
O O3 0.784477 0.000000 0.932017
O O4 0.750000 0.750000 0.000000
O O5 0.758339 0.500000 0.681999
O O6 0.666598 0.290491 0.707970
O O7 0.755718 0.264172 0.749424
O O8 0.806826 0.257940 0.599098
O O9 0.044271 0.762408 0.305080
O O10 0.080872 0.777104 0.400893
O O11 0.938584 0.785435 0.463362
O O12 0.025889 0.000000 0.383346
O O13 0.959031 0.500000 0.095459
O O14 0.952215 0.758789 0.142337
O O15 0.861379 0.678401 0.110005
O O16 0.000000 0.725388 0.000000
O O17 0.547528 0.500000 0.238071
O O18 0.470866 0.723660 0.249300
O O19 0.929321 0.000000 0.209849
O O20 0.748540 0.500000 0.205658
O O21 0.133355 0.000000 0.432205
#
# Coordination Sequence:
#
# PCOD8086239 Si02
#       8
#     8   8   8   8   8   8   8   8
#     4  10  21  34  51  74  98 126 160 201 247 292
#     4  10  19  31  48  72 100 129 161 202 245 286
#     4   8  15  29  52  79  99 124 165 204 238 285
#     4   9  18  31  49  70  92 121 158 203 251 289
#     4   9  17  32  51  70  97 131 165 200 241 289
#     4   9  19  33  48  68  94 130 169 199 236 288
#     4   9  18  33  50  69  94 125 163 202 241 289
#     4   9  16  29  53  80 101 123 160 206 244 285
#
# _framework density 18.088550999999999
#
# number of rings (size 3 to 8) (size 9 to 14) (size 15 to 20)
#    0.000    2.875    0.000    1.875    1.750    3.250 
#    0.000    1.875    0.000    2.250    0.000    0.000 
#    0.000    0.000    0.000    0.000    0.000    0.000 
#
# Total GULP energy -396670.469479 kJ/mol
# GULP energy per Si atom -12395.952171 kJ/mol
# Density = 1.804738 g / cm^3
# Si number density = 18.088551 Si / 1000 Ang^3
#
#
#
# Elastic Constant Matrix: (Units=GPa)
#
#
# Indices 1 2 3 4 5 6 
#
# 1 92.8667 24.1163 53.6622 0.0002 -0.5236 -0.0002
# 2 24.1163 30.9637 28.4499 0.0000 -5.7604 -0.0002
# 3 53.6622 28.4499 123.0830 0.0000 -17.4464 -0.0001
# 4 0.0002 0.0000 0.0000 24.9361 -0.0001 -1.3490
# 5 -0.5236 -5.7604 -17.4464 -0.0001 25.3840 0.0002
# 6 -0.0002 -0.0002 -0.0001 -1.3490 0.0002 17.1651
#
#
#
# Elastic Compliance Matrix: (Units=1/GPa)
#
#
# Indices 1 2 3 4 5 6 
#
# 1 0.016367 -0.008263 -0.006031 0.000000 -0.005683 0.000000
# 2 -0.008263 0.045396 -0.006043 0.000000 0.005978 0.000000
# 3 -0.006031 -0.006043 0.013228 0.000000 0.007596 0.000000
# 4 0.000000 0.000000 0.000000 0.040274 0.000000 0.003165
# 5 -0.005683 0.005978 0.007596 0.000000 0.045855 -0.000001
# 6 0.000000 0.000000 0.000000 0.003165 -0.000001 0.058506
#
#
# Mechanical properties :
#
#
# Convention : Reuss Voigt Hill
#
# Bulk Modulus (GPa) = 29.14112 51.04113 40.09113
# Shear Modulus (GPa) = 18.39996 22.87604 20.63800
#
# Velocity S-wave (km/s) = 3.19284 3.56008 3.38145
# Velocity P-wave (km/s) = 5.45322 6.72142 6.12026
#
# Compressibility (1/GPa) = 0.03431577
#
# Stress axis : x y z
#
# Youngs Moduli (GPa) = 61.09832 22.02821 75.59923
#
# Poissons Ratio (x) = 0.18202 0.45596
# Poissons Ratio (y) = 0.50486 0.45686
# Poissons Ratio (z) = 0.36850 0.13312
#
# Static dielectric constant tensor:
#      x y z
#    x 3.528830 0.000000 -0.075860 
#    y 0.000000 3.040400 0.000000 
#    z -0.075860 0.000000 3.511500 
# 
# 
# High freq. dielectric constant tensor:
#      x y z
#    x 1.700360 0.000000 -0.015230 
#    y 0.000000 1.666420 0.000000 
#    z -0.015230 0.000000 1.704410 
# 
# From -- ./inp_files/324162.got.cif
#   From: 2010.06.25/outbox.cif.g09.slc.cpg/sg12_163_cif.got.tgz:324162.got - 2010.06.28 00:19:55.
