data_PCOD8086150
_publ_section_title
;
Structure prediction by ZEFSAII (Michael W. Deem and Ramdas Pophale) SiO2 
 PCOD8086150
Probable space group: C 2/M
;
_chemical_formula_sum "Si O2"
_cell_formula_units_Z 48
_cell_length_a 19.100554
_cell_length_b 8.914909
_cell_length_c 18.646843
_cell_angle_alpha 90.000000
_cell_angle_beta 123.315888
_cell_angle_gamma 90.000000
_cell_volume 2653.354353
_symmetry_space_group_name_H-M "C 2/M"
_symmetry_group_IT_number 12
_symmetry_cell_setting 'monoclinic'
loop_
_space_group_symop_operation_xyz
x,y,z
-x,y,-z
-x,-y,-z
x,-y,z
1/2+x,1/2+y,z
1/2-x,1/2+y,-z
1/2-x,1/2-y,-z
1/2+x,1/2-y,z
loop_
_atom_site_type_symbol
_atom_site_label
_atom_site_fract_x
_atom_site_fract_y
_atom_site_fract_z
Si Si1 0.271519 0.176781 0.750550
Si Si2 0.644546 0.827231 0.405231
Si Si3 0.054576 0.673774 0.218896
Si Si4 0.235949 0.175630 0.102770
Si Si5 0.877946 0.323119 0.069960
Si Si6 0.205545 0.671122 0.583879
O O1 0.362686 0.235923 0.775041
O O2 0.248044 0.253541 0.811257
O O3 0.201363 0.224532 0.651978
O O4 0.269301 0.000000 0.758818
O O5 0.561970 0.799762 0.309552
O O6 0.712142 0.708164 0.415820
O O7 0.629398 0.803476 0.482762
O O8 0.675475 0.000000 0.409197
O O9 0.047710 0.500000 0.197497
O O10 0.968976 0.746783 0.141053
O O11 0.316306 0.217194 0.100379
O O12 0.222824 0.000000 0.103459
O O13 0.152664 0.244810 0.020152
O O14 0.880371 0.500000 0.057533
O O15 0.207830 0.500000 0.611701
#
# Coordination Sequence:
#
# PCOD8086150 Si02
#       6
#     8   8   8   8   8   8
#     4  10  19  31  48  69  94 122 153 189 227 268
#     4   8  14  25  42  65  93 123 152 183 221 267
#     4   8  15  29  49  71  91 117 155 190 221 262
#     4  10  20  33  49  69  92 118 151 189 229 274
#     4   9  18  34  53  68  87 119 155 188 224 271
#     4   9  15  24  41  66  95 122 150 185 224 266
#
# _framework density 18.090308
#
# number of rings (size 3 to 8) (size 9 to 14) (size 15 to 20)
#    0.000    3.000    0.000    2.500    0.000    2.000 
#    0.000    7.500    0.000    1.000    0.000    7.000 
#    0.000    0.000    0.000    0.000    0.000    0.000 
#
# Total GULP energy -297335.163221 kJ/mol
# GULP energy per Si atom -12388.965134 kJ/mol
# Density = 1.804913 g / cm^3
# Si number density = 18.090308 Si / 1000 Ang^3
#
#
#
# Elastic Constant Matrix: (Units=GPa)
#
#
# Indices 1 2 3 4 5 6 
#
# 1 21.2998 14.0676 13.7347 0.0000 -11.0964 0.0000
# 2 14.0676 38.3338 22.7455 0.0000 -8.7252 0.0000
# 3 13.7347 22.7455 99.4240 0.0000 -30.6709 0.0000
# 4 0.0000 0.0000 0.0000 32.7522 0.0000 -5.8033
# 5 -11.0964 -8.7252 -30.6709 0.0000 21.3654 0.0000
# 6 0.0000 0.0000 0.0000 -5.8033 0.0000 16.0583
#
#
#
# Elastic Compliance Matrix: (Units=1/GPa)
#
#
# Indices 1 2 3 4 5 6 
#
# 1 0.080355 -0.024291 0.007665 0.000000 0.042817 0.000000
# 2 -0.024291 0.037752 -0.007927 0.000000 -0.008579 0.000000
# 3 0.007665 -0.007927 0.019818 0.000000 0.029194 0.000000
# 4 0.000000 0.000000 0.000000 0.032621 0.000000 0.011789
# 5 0.042817 -0.008579 0.029194 0.000000 0.107448 0.000000
# 6 0.000000 0.000000 0.000000 0.011789 0.000000 0.066534
#
#
# Mechanical properties :
#
#
# Convention : Reuss Voigt Hill
#
# Bulk Modulus (GPa) = 11.25881 28.90593 20.08237
# Shear Modulus (GPa) = 11.81358 21.26915 16.54137
#
# Velocity S-wave (km/s) = 2.55823 3.43260 3.02715
# Velocity P-wave (km/s) = 3.86823 5.63238 4.83151
#
# Compressibility (1/GPa) = 0.08881930
#
# Stress axis : x y z
#
# Youngs Moduli (GPa) = 12.44470 26.48870 50.45792
#
# Poissons Ratio (x) = 0.64344 -0.38676
# Poissons Ratio (y) = 0.30229 0.40000
# Poissons Ratio (z) = -0.09539 0.20999
#
# Static dielectric constant tensor:
#      x y z
#    x 2.996160 0.000000 0.082410 
#    y 0.000000 3.216420 0.000000 
#    z 0.082410 0.000000 3.886870 
# 
# 
# High freq. dielectric constant tensor:
#      x y z
#    x 1.639950 0.000000 -0.006550 
#    y 0.000000 1.690530 0.000000 
#    z -0.006550 0.000000 1.728760 
# 
# From -- ./inp_files/274036.got.cif
#   From: 2010.06.25/outbox.cif.g09.slc.cpg/sg12_138_cif.got.tgz:274036.got - 2010.06.28 00:19:55.
