data_PCOD8086942
_publ_section_title
;
Structure prediction by ZEFSAII (Michael W. Deem and Ramdas Pophale) SiO2 
 PCOD8086942
Probable space group: C 2/M
;
_chemical_formula_sum "Si O2"
_cell_formula_units_Z 64
_cell_length_a 23.439039
_cell_length_b 15.108182
_cell_length_c 15.858248
_cell_angle_alpha 90.000000
_cell_angle_beta 41.416301
_cell_angle_gamma 90.000000
_cell_volume 3714.955709
_symmetry_space_group_name_H-M "C 2/M"
_symmetry_group_IT_number 12
_symmetry_cell_setting 'monoclinic'
loop_
_space_group_symop_operation_xyz
x,y,z
-x,y,-z
-x,-y,-z
x,-y,z
1/2+x,1/2+y,z
1/2-x,1/2+y,-z
1/2-x,1/2-y,-z
1/2+x,1/2-y,z
loop_
_atom_site_type_symbol
_atom_site_label
_atom_site_fract_x
_atom_site_fract_y
_atom_site_fract_z
Si Si1 0.131335 0.321115 0.150397
Si Si2 0.946748 0.751353 0.142709
Si Si3 0.963559 0.166967 0.668812
Si Si4 0.970893 0.098799 0.845484
Si Si5 0.300509 0.190498 0.198344
Si Si6 0.203991 0.179108 0.939542
Si Si7 0.938246 0.599209 0.928378
Si Si8 0.623796 0.603671 0.393748
O O1 0.061277 0.269933 0.286335
O O2 0.208346 0.364309 0.120740
O O3 0.090015 0.397619 0.138719
O O4 0.168217 0.248983 0.045622
O O5 0.847502 0.731480 0.228874
O O6 0.959246 0.833924 0.191801
O O7 0.980781 0.663220 0.150157
O O8 0.000000 0.773813 0.000000
O O9 0.967401 0.110265 0.749313
O O10 0.890458 0.123046 0.689830
O O11 0.056268 0.162167 0.521461
O O12 0.001846 0.000000 0.833060
O O13 0.873936 0.110698 0.990681
O O14 0.270254 0.273194 0.175638
O O15 0.218766 0.132980 0.317351
O O16 0.363263 0.126799 0.075900
O O17 0.966994 0.500000 0.918030
O O18 0.609963 0.500000 0.427701
#
# Coordination Sequence:
#
# PCOD8086942 Si02
#       8
#     8   8   8   8   8   8   8   8
#     4   9  16  30  51  69 102 132 168 201 259 311
#     4  10  19  35  50  73 107 136 176 212 252 314
#     4  10  19  35  52  76 108 139 164 212 262 313
#     4  11  20  33  55  77 107 141 170 214 263 307
#     4  10  19  33  48  71 107 139 166 211 256 301
#     4   9  16  30  47  72 100 134 163 202 251 318
#     4  10  19  31  52  77 103 135 169 209 260 315
#     4  11  21  32  51  82 107 133 175 211 259 321
#
# _framework density 17.227661000000001
#
# number of rings (size 3 to 8) (size 9 to 14) (size 15 to 20)
#    0.000    2.000    6.250    1.875    1.750    3.500 
#    0.000    0.625    0.000    0.000    0.000    2.625 
#    0.000    0.000    0.000    0.000    0.000    0.000 
#
# Total GULP energy -396662.850903 kJ/mol
# GULP energy per Si atom -12395.714091 kJ/mol
# Density = 1.718845 g / cm^3
# Si number density = 17.227661 Si / 1000 Ang^3
#
#
#
# Elastic Constant Matrix: (Units=GPa)
#
#
# Indices 1 2 3 4 5 6 
#
# 1 118.4368 42.8791 29.5575 0.0000 -11.1051 0.0000
# 2 42.8791 88.2074 23.4223 0.0000 -0.0278 0.0000
# 3 29.5575 23.4223 51.9841 0.0000 -6.9380 0.0000
# 4 0.0000 0.0000 0.0000 17.1699 0.0000 1.7741
# 5 -11.1051 -0.0278 -6.9380 0.0000 20.8617 0.0000
# 6 0.0000 0.0000 0.0000 1.7741 0.0000 13.0743
#
#
#
# Elastic Compliance Matrix: (Units=1/GPa)
#
#
# Indices 1 2 3 4 5 6 
#
# 1 0.011512 -0.004576 -0.003837 0.000000 0.004846 0.000000
# 2 -0.004576 0.014777 -0.004582 0.000000 -0.003940 0.000000
# 3 -0.003837 -0.004582 0.024288 0.000000 0.006029 0.000000
# 4 0.000000 0.000000 0.000000 0.059070 0.000000 -0.008015
# 5 0.004846 -0.003940 0.006029 0.000000 0.052514 0.000000
# 6 0.000000 0.000000 0.000000 -0.008015 0.000000 0.077573
#
#
# Mechanical properties :
#
#
# Convention : Reuss Voigt Hill
#
# Bulk Modulus (GPa) = 40.67292 50.03846 45.35569
# Shear Modulus (GPa) = 18.25362 21.07247 19.66305
#
# Velocity S-wave (km/s) = 3.25861 3.50119 3.38207
# Velocity P-wave (km/s) = 6.14966 6.74188 6.45257
#
# Compressibility (1/GPa) = 0.02458638
#
# Stress axis : x y z
#
# Youngs Moduli (GPa) = 86.86676 67.67412 41.17342
#
# Poissons Ratio (x) = 0.30966 0.15799
# Poissons Ratio (y) = 0.39748 0.18866
# Poissons Ratio (z) = 0.33332 0.31009
#
# Static dielectric constant tensor:
#      x y z
#    x 3.587220 0.000000 0.019250 
#    y 0.000000 3.010500 0.000000 
#    z 0.019250 0.000000 2.935250 
# 
# 
# High freq. dielectric constant tensor:
#      x y z
#    x 1.678160 0.000000 0.000790 
#    y 0.000000 1.642850 0.000000 
#    z 0.000790 0.000000 1.623280 
# 
# From -- ./inp_files/240696.got.cif
#   From: 2010.06.25/outbox.cif.g09.slc.cpg/sg12_121_cif.got.tgz:240696.got - 2010.06.28 00:19:55.
