data_PCOD8086479
_publ_section_title
;
Structure prediction by ZEFSAII (Michael W. Deem and Ramdas Pophale) SiO2 
 PCOD8086479
Probable space group: C 2/M
;
_chemical_formula_sum "Si O2"
_cell_formula_units_Z 64
_cell_length_a 26.262804
_cell_length_b 13.878298
_cell_length_c 16.199635
_cell_angle_alpha 90.000000
_cell_angle_beta 34.959932
_cell_angle_gamma 90.000000
_cell_volume 3383.294212
_symmetry_space_group_name_H-M "C 2/M"
_symmetry_group_IT_number 12
_symmetry_cell_setting 'monoclinic'
loop_
_space_group_symop_operation_xyz
x,y,z
-x,y,-z
-x,-y,-z
x,-y,z
1/2+x,1/2+y,z
1/2-x,1/2+y,-z
1/2-x,1/2-y,-z
1/2+x,1/2-y,z
loop_
_atom_site_type_symbol
_atom_site_label
_atom_site_fract_x
_atom_site_fract_y
_atom_site_fract_z
Si Si1 0.645659 0.112677 0.660548
Si Si2 0.995170 0.106551 0.344696
Si Si3 0.394908 0.392903 0.956353
Si Si4 0.043560 0.706770 0.359192
Si Si5 0.964868 0.779000 0.136977
Si Si6 0.846950 0.112454 0.413053
Si Si7 0.308257 0.112482 0.752282
Si Si8 0.102606 0.613204 0.535613
O O1 0.567750 0.167841 0.814267
O O2 0.743563 0.137494 0.565986
O O3 0.643601 0.149382 0.567907
O O4 0.624557 0.000000 0.696660
O O5 0.023664 0.179010 0.379615
O O6 0.906976 0.144178 0.412203
O O7 0.976543 0.000000 0.406778
O O8 0.080743 0.101911 0.171955
O O9 0.413858 0.500000 0.970427
O O10 0.294132 0.363669 0.102305
O O11 0.451275 0.305621 0.918632
O O12 0.145989 0.675968 0.235259
O O13 0.000000 0.664053 0.500000
O O14 0.997065 0.655923 0.342360
O O15 0.880351 0.839988 0.282847
O O16 0.000000 0.805467 0.000000
O O17 0.860943 0.000000 0.380133
O O18 0.336262 0.146265 0.622723
O O19 0.329931 0.000000 0.737596
O O20 0.094450 0.500000 0.549511
#
# Coordination Sequence:
#
# PCOD8086479 Si02
#       8
#     8   8   8   8   8   8   8   8
#     4  10  21  37  56  78 105 146 187 217 257 312
#     4   9  18  34  52  71 100 137 173 214 261 309
#     4   9  19  35  52  74 105 137 169 212 271 324
#     4  10  19  31  49  75 101 133 169 218 263 308
#     4  11  22  33  51  81 110 143 173 220 266 319
#     4   9  19  36  57  80 105 137 181 225 268 317
#     4   9  18  32  51  77 106 133 166 213 268 319
#     4   9  17  30  52  77 102 129 167 217 263 311
#
# _framework density 18.916474000000001
#
# number of rings (size 3 to 8) (size 9 to 14) (size 15 to 20)
#    0.000    2.500    0.000    3.375    1.750    3.500 
#    2.250    0.000    0.000    0.750    0.000    0.000 
#    0.000    0.000    0.000    0.000    0.000    0.000 
#
# Total GULP energy -396520.995802 kJ/mol
# GULP energy per Si atom -12391.281119 kJ/mol
# Density = 1.887342 g / cm^3
# Si number density = 18.916474 Si / 1000 Ang^3
#
#
#
# Elastic Constant Matrix: (Units=GPa)
#
#
# Indices 1 2 3 4 5 6 
#
# 1 68.6173 32.3933 34.2272 0.0000 -14.8341 0.0000
# 2 32.3933 41.5622 21.5905 0.0000 -13.0507 0.0000
# 3 34.2272 21.5905 66.2598 0.0000 -22.1115 0.0000
# 4 0.0000 0.0000 0.0000 27.5764 0.0000 -3.9663
# 5 -14.8341 -13.0507 -22.1115 0.0000 26.2923 0.0000
# 6 0.0000 0.0000 0.0000 -3.9663 0.0000 32.5270
#
#
#
# Elastic Compliance Matrix: (Units=1/GPa)
#
#
# Indices 1 2 3 4 5 6 
#
# 1 0.026407 -0.016291 -0.008423 0.000000 -0.000271 0.000000
# 2 -0.016291 0.040613 -0.001610 0.000000 0.009613 0.000000
# 3 -0.008423 -0.001610 0.025183 0.000000 0.015627 0.000000
# 4 0.000000 0.000000 0.000000 0.036910 0.000000 0.004501
# 5 -0.000271 0.009613 0.015627 0.000000 0.055795 0.000000
# 6 0.000000 0.000000 0.000000 0.004501 0.000000 0.031293
#
#
# Mechanical properties :
#
#
# Convention : Reuss Voigt Hill
#
# Bulk Modulus (GPa) = 25.28191 39.20681 32.24436
# Shear Modulus (GPa) = 17.72841 23.16103 20.44472
#
# Velocity S-wave (km/s) = 3.06468 3.50292 3.29110
# Velocity P-wave (km/s) = 5.09088 6.09359 5.61466
#
# Compressibility (1/GPa) = 0.03955397
#
# Stress axis : x y z
#
# Youngs Moduli (GPa) = 37.86816 24.62290 39.71010
#
# Poissons Ratio (x) = 0.40114 0.33448
# Poissons Ratio (y) = 0.61692 0.06393
# Poissons Ratio (z) = 0.31897 0.03964
#
# Static dielectric constant tensor:
#      x y z
#    x 3.535690 0.000000 -0.134230 
#    y 0.000000 3.506310 0.000000 
#    z -0.134230 0.000000 3.389940 
# 
# 
# High freq. dielectric constant tensor:
#      x y z
#    x 1.724620 0.000000 -0.014410 
#    y 0.000000 1.739080 0.000000 
#    z -0.014410 0.000000 1.711930 
# 
# From -- ./inp_files/240691.got.cif
#   From: 2010.06.25/outbox.cif.g09.slc.cpg/sg12_121_cif.got.tgz:240691.got - 2010.06.28 00:19:55.
