data_PCOD8086048
_publ_section_title
;
Structure prediction by ZEFSAII (Michael W. Deem and Ramdas Pophale) SiO2 
 PCOD8086048
Probable space group: C 2/M
;
_chemical_formula_sum "Si O2"
_cell_formula_units_Z 32
_cell_length_a 23.457446
_cell_length_b 9.133038
_cell_length_c 15.442990
_cell_angle_alpha 90.000000
_cell_angle_beta 142.421613
_cell_angle_gamma 90.000000
_cell_volume 2017.658870
_symmetry_space_group_name_H-M "C 2/M"
_symmetry_group_IT_number 12
_symmetry_cell_setting 'monoclinic'
loop_
_space_group_symop_operation_xyz
x,y,z
-x,y,-z
-x,-y,-z
x,-y,z
1/2+x,1/2+y,z
1/2-x,1/2+y,-z
1/2-x,1/2-y,-z
1/2+x,1/2-y,z
loop_
_atom_site_type_symbol
_atom_site_label
_atom_site_fract_x
_atom_site_fract_y
_atom_site_fract_z
Si Si1 0.441977 0.172498 0.014242
Si Si2 0.930611 0.328736 0.338808
Si Si3 0.224498 0.164906 0.129566
Si Si4 0.444210 0.335086 0.182485
O O1 0.490741 0.247939 0.157197
O O2 0.439263 0.000000 0.024935
O O3 0.500000 0.218054 0.000000
O O4 0.335292 0.233856 0.875805
O O5 0.926630 0.500000 0.311872
O O6 0.827801 0.270122 0.240642
O O7 0.968617 0.244640 0.300980
O O8 0.000000 0.292672 0.500000
O O9 0.230741 0.000000 0.175095
O O10 0.168415 0.163425 0.970065
O O11 0.484337 0.500000 0.234147
#
# Coordination Sequence:
#
# PCOD8086048 Si02
#       4
#     8   8   8   8
#     4   9  17  29  48  71  91 115 151 193 231 267
#     4  10  19  31  47  68  96 126 153 183 222 271
#     4   8  17  30  46  69  94 120 150 185 229 268
#     4   9  18  30  47  69  94 121 151 188 228 268
#
# _framework density 15.859966
#
# number of rings (size 3 to 8) (size 9 to 14) (size 15 to 20)
#    1.500    1.500    0.000    1.500    0.000    3.500 
#    0.000    0.000    0.000    1.500    0.000    0.000 
#    0.000    0.000    0.000    0.000    0.000    0.000 
#
# Total GULP energy -198208.943747 kJ/mol
# GULP energy per Si atom -12388.058984 kJ/mol
# Density = 1.582387 g / cm^3
# Si number density = 15.859966 Si / 1000 Ang^3
#
#
#
# Elastic Constant Matrix: (Units=GPa)
#
#
# Indices 1 2 3 4 5 6 
#
# 1 128.5649 68.8387 38.9682 0.0000 -18.8355 0.0000
# 2 68.8387 88.7390 29.1925 0.0000 -13.5592 0.0000
# 3 38.9682 29.1925 53.1876 0.0000 -14.1307 0.0000
# 4 0.0000 0.0000 0.0000 16.0027 0.0000 -5.7106
# 5 -18.8355 -13.5592 -14.1307 0.0000 12.1759 0.0000
# 6 0.0000 0.0000 0.0000 -5.7106 0.0000 23.8494
#
#
#
# Elastic Compliance Matrix: (Units=1/GPa)
#
#
# Indices 1 2 3 4 5 6 
#
# 1 0.015087 -0.009135 -0.003675 0.000000 0.008902 0.000000
# 2 -0.009135 0.020083 -0.003098 0.000000 0.004639 0.000000
# 3 -0.003675 -0.003098 0.030025 0.000000 0.025710 0.000000
# 4 0.000000 0.000000 0.000000 0.068328 0.000000 0.016361
# 5 0.008902 0.004639 0.025710 0.000000 0.130903 0.000000
# 6 0.000000 0.000000 0.000000 0.016361 0.000000 0.045847
#
#
# Mechanical properties :
#
#
# Convention : Reuss Voigt Hill
#
# Bulk Modulus (GPa) = 29.95828 60.49895 45.22861
# Shear Modulus (GPa) = 14.15565 19.30506 16.73036
#
# Velocity S-wave (km/s) = 2.99078 3.49265 3.25141
# Velocity P-wave (km/s) = 5.55487 7.38196 6.53261
#
# Compressibility (1/GPa) = 0.03337976
#
# Stress axis : x y z
#
# Youngs Moduli (GPa) = 66.28055 49.79323 33.30574
#
# Poissons Ratio (x) = 0.45485 0.12241
# Poissons Ratio (y) = 0.60546 0.10317
# Poissons Ratio (z) = 0.24360 0.15425
#
# Static dielectric constant tensor:
#      x y z
#    x 2.824330 0.000000 0.010900 
#    y 0.000000 3.000880 0.000000 
#    z 0.010900 0.000000 2.725170 
# 
# 
# High freq. dielectric constant tensor:
#      x y z
#    x 1.592710 0.000000 -0.004320 
#    y 0.000000 1.618130 0.000000 
#    z -0.004320 0.000000 1.572710 
# 
# From -- ./inp_files/151438.got.cif
#   From: 2010.06.25/outbox.cif.g09.slc.cpg/sg12_76_cif.got.tgz:151438.got - 2010.06.28 00:19:55.
