data_PCOD8086158
_publ_section_title
;
Structure prediction by ZEFSAII (Michael W. Deem and Ramdas Pophale) SiO2 
 PCOD8086158
Probable space group: C 2/M
;
_chemical_formula_sum "Si O2"
_cell_formula_units_Z 64
_cell_length_a 5.235984
_cell_length_b 15.106508
_cell_length_c 36.764151
_cell_angle_alpha 90.000000
_cell_angle_beta 94.302747
_cell_angle_gamma 90.000000
_cell_volume 2899.754066
_symmetry_space_group_name_H-M "C 2/M"
_symmetry_group_IT_number 12
_symmetry_cell_setting 'monoclinic'
loop_
_space_group_symop_operation_xyz
x,y,z
-x,y,-z
-x,-y,-z
x,-y,z
1/2+x,1/2+y,z
1/2-x,1/2+y,-z
1/2-x,1/2-y,-z
1/2+x,1/2-y,z
loop_
_atom_site_type_symbol
_atom_site_label
_atom_site_fract_x
_atom_site_fract_y
_atom_site_fract_z
Si Si1 0.258294 0.848707 0.515744
Si Si2 0.438116 0.105881 0.846545
Si Si3 0.801617 0.605307 0.597858
Si Si4 0.052850 0.194082 0.040155
Si Si5 0.958972 0.896581 0.886119
Si Si6 0.866930 0.894268 0.722648
Si Si7 0.324090 0.394945 0.640525
Si Si8 0.111374 0.605502 0.236121
O O1 0.500000 0.898876 0.500000
O O2 0.250000 0.750000 0.500000
O O3 0.281175 0.846462 0.559187
O O4 0.000000 0.898876 0.500000
O O5 0.700213 0.144641 0.866350
O O6 0.410469 0.140840 0.805185
O O7 0.203459 0.144573 0.867882
O O8 0.439200 0.000000 0.847627
O O9 0.798602 0.500000 0.592151
O O10 0.565160 0.638559 0.619749
O O11 0.061195 0.638566 0.619731
O O12 0.843241 0.270512 0.044616
O O13 0.022544 0.120546 0.070737
O O14 0.000000 0.150317 0.000000
O O15 0.956705 0.000000 0.879263
O O16 0.845642 0.856867 0.681508
O O17 0.627753 0.857860 0.743288
O O18 0.127467 0.857833 0.743401
O O19 0.866995 0.000000 0.722524
O O20 0.324887 0.500000 0.642112
O O21 0.111521 0.500000 0.236543
#
# Coordination Sequence:
#
# PCOD8086158 Si02
#       8
#     8   8   8   8   8   8   8   8
#     4  10  21  36  52  70  93 124 151 194 242 277
#     4   9  17  28  43  68 101 136 172 208 255 299
#     4  10  19  31  48  69  95 128 161 194 237 287
#     4  10  21  37  55  75 101 136 171 219 274 321
#     4  10  19  32  51  74 102 138 174 219 264 310
#     4   9  15  23  37  58  89 132 169 192 228 282
#     4   9  17  28  42  65  96 130 164 197 235 280
#     4   9  15  23  37  59  91 134 170 194 233 292
#
# _framework density 22.070838999999999
#
# number of rings (size 3 to 8) (size 9 to 14) (size 15 to 20)
#    0.000    2.500    0.000    3.000    0.000    6.750 
#    0.000    0.000    0.000    4.500    0.000    0.000 
#    0.000    0.000  297.500    0.000   35.000    0.000 
#
# Total GULP energy -396777.605665 kJ/mol
# GULP energy per Si atom -12399.300177 kJ/mol
# Density = 2.202061 g / cm^3
# Si number density = 22.070839 Si / 1000 Ang^3
#
#
#
# Elastic Constant Matrix: (Units=GPa)
#
#
# Indices 1 2 3 4 5 6 
#
# 1 235.8624 4.9580 111.6615 0.0000 -5.0506 0.0000
# 2 4.9580 11.7437 14.8124 0.0000 0.7561 0.0000
# 3 111.6615 14.8124 233.2985 0.0000 -4.7589 0.0000
# 4 0.0000 0.0000 0.0000 11.2469 0.0000 -0.6045
# 5 -5.0506 0.7561 -4.7589 0.0000 48.2896 0.0000
# 6 0.0000 0.0000 0.0000 -0.6045 0.0000 0.1022
#
#
#
# Elastic Compliance Matrix: (Units=1/GPa)
#
#
# Indices 1 2 3 4 5 6 
#
# 1 0.005499 0.001056 -0.002693 0.000000 0.000293 0.000000
# 2 0.001056 0.092967 -0.006448 0.000000 -0.001981 0.000000
# 3 -0.002693 -0.006448 0.005993 0.000000 0.000410 0.000000
# 4 0.000000 0.000000 0.000000 0.130379 0.000000 0.771462
# 5 0.000293 -0.001981 0.000410 0.000000 0.020810 0.000000
# 6 0.000000 0.000000 0.000000 0.771462 0.000000 14.352707
#
#
# Mechanical properties :
#
#
# Convention : Reuss Voigt Hill
#
# Bulk Modulus (GPa) = 11.32655 82.64095 46.98375
# Shear Modulus (GPa) = 0.34120 35.22593 17.78357
#
# Velocity S-wave (km/s) = 0.39361 3.99938 2.84165
# Velocity P-wave (km/s) = 2.31293 7.67147 5.66574
#
# Compressibility (1/GPa) = 0.08828812
#
# Stress axis : x y z
#
# Youngs Moduli (GPa) = 181.86161 10.75653 166.86143
#
# Poissons Ratio (x) = -0.01136 0.44933
# Poissons Ratio (y) = -0.19208 1.07600
# Poissons Ratio (z) = 0.48973 0.06936
#
# Static dielectric constant tensor:
#      x y z
#    x 2.051120 0.000000 0.085110 
#    y 0.000000 3.108440 0.000000 
#    z 0.085110 0.000000 4.120080 
# 
# 
# High freq. dielectric constant tensor:
#      x y z
#    x 1.893820 0.000000 -0.001460 
#    y 0.000000 1.808570 0.000000 
#    z -0.001460 0.000000 1.883150 
# 
# From -- ./inp_files/371603.got.cif
#   From: 2010.06.25/outbox.cif.g09.slc.cpg/sg12_186_cif.got.tgz:371603.got - 2010.06.28 00:19:55.
