data_PCOD8086193
_publ_section_title
;
Structure prediction by ZEFSAII (Michael W. Deem and Ramdas Pophale) SiO2 
 PCOD8086193
Probable space group: C 2/M
;
_chemical_formula_sum "Si O2"
_cell_formula_units_Z 64
_cell_length_a 26.222777
_cell_length_b 20.333032
_cell_length_c 8.633231
_cell_angle_alpha 90.000000
_cell_angle_beta 50.279172
_cell_angle_gamma 90.000000
_cell_volume 3540.584800
_symmetry_space_group_name_H-M "C 2/M"
_symmetry_group_IT_number 12
_symmetry_cell_setting 'monoclinic'
loop_
_space_group_symop_operation_xyz
x,y,z
-x,y,-z
-x,-y,-z
x,-y,z
1/2+x,1/2+y,z
1/2-x,1/2+y,-z
1/2-x,1/2-y,-z
1/2+x,1/2-y,z
loop_
_atom_site_type_symbol
_atom_site_label
_atom_site_fract_x
_atom_site_fract_y
_atom_site_fract_z
Si Si1 0.317635 0.572417 0.796621
Si Si2 0.577263 0.185465 0.814767
Si Si3 0.740581 0.150487 0.179527
Si Si4 0.368329 0.694357 0.105004
Si Si5 0.691277 0.634184 0.496462
Si Si6 0.071452 0.150313 0.305194
Si Si7 0.314556 0.078671 0.428426
Si Si8 0.136655 0.752429 0.419427
O O1 0.291991 0.500000 0.877689
O O2 0.333130 0.582144 0.584422
O O3 0.384822 0.584744 0.762020
O O4 0.261873 0.620889 0.973142
O O5 0.613242 0.233065 0.869718
O O6 0.615016 0.115011 0.736677
O O7 0.581830 0.220112 0.638265
O O8 0.500000 0.173183 0.000000
O O9 0.799626 0.193470 0.141913
O O10 0.714902 0.093000 0.344148
O O11 0.679606 0.196712 0.253267
O O12 0.359868 0.640454 0.259810
O O13 0.428002 0.672042 0.875713
O O14 0.764312 0.611678 0.403735
O O15 0.689733 0.705396 0.416696
O O16 0.099882 0.207805 0.358330
O O17 0.000000 0.130413 0.500000
O O18 0.322077 0.000000 0.389351
#
# Coordination Sequence:
#
# PCOD8086193 Si02
#       8
#     8   8   8   8   8   8   8   8
#     4  10  20  33  50  71  97 128 160 195 234 282
#     4  10  19  31  48  70  99 131 160 194 235 283
#     4   9  18  32  51  73  95 122 158 202 246 281
#     4   9  18  32  51  73  96 122 155 199 246 282
#     4   9  18  32  50  72  96 122 156 200 246 282
#     4  10  20  33  51  73  98 128 159 193 233 283
#     4  10  19  31  48  70  98 130 162 196 234 281
#     4   9  18  32  50  73  97 122 157 201 246 283
#
# _framework density 18.076111000000001
#
# number of rings (size 3 to 8) (size 9 to 14) (size 15 to 20)
#    0.000    2.500    0.000    2.250    0.000    9.000 
#    0.000    0.625    0.000    0.750    0.000    0.000 
#    0.000   11.000    0.000    0.000    0.000    0.000 
#
# Total GULP energy -396513.484529 kJ/mol
# GULP energy per Si atom -12391.046392 kJ/mol
# Density = 1.803497 g / cm^3
# Si number density = 18.076111 Si / 1000 Ang^3
#
#
#
# Elastic Constant Matrix: (Units=GPa)
#
#
# Indices 1 2 3 4 5 6 
#
# 1 44.1179 23.9550 31.5580 0.0000 1.4056 0.0000
# 2 23.9550 84.1629 37.6741 0.0000 -6.4583 0.0000
# 3 31.5580 37.6741 120.4711 0.0000 -3.7263 0.0000
# 4 0.0000 0.0000 0.0000 16.2872 0.0000 0.2759
# 5 1.4056 -6.4583 -3.7263 0.0000 32.8497 0.0000
# 6 0.0000 0.0000 0.0000 0.2759 0.0000 10.8223
#
#
#
# Elastic Compliance Matrix: (Units=1/GPa)
#
#
# Indices 1 2 3 4 5 6 
#
# 1 0.030534 -0.006178 -0.006166 0.000000 -0.003221 0.000000
# 2 -0.006178 0.015231 -0.003055 0.000000 0.002912 0.000000
# 3 -0.006166 -0.003055 0.010899 0.000000 0.000900 0.000000
# 4 0.000000 0.000000 0.000000 0.061425 0.000000 -0.001566
# 5 -0.003221 0.002912 0.000900 0.000000 0.031254 0.000000
# 6 0.000000 0.000000 0.000000 -0.001566 0.000000 0.092442
#
#
# Mechanical properties :
#
#
# Convention : Reuss Voigt Hill
#
# Bulk Modulus (GPa) = 38.65947 48.34733 43.50340
# Shear Modulus (GPa) = 17.78065 22.36284 20.07174
#
# Velocity S-wave (km/s) = 3.13973 3.52113 3.33588
# Velocity P-wave (km/s) = 5.88025 6.58299 6.24152
#
# Compressibility (1/GPa) = 0.02586689
#
# Stress axis : x y z
#
# Youngs Moduli (GPa) = 32.75004 65.65594 91.75049
#
# Poissons Ratio (x) = 0.40561 0.56576
# Poissons Ratio (y) = 0.20232 0.28027
# Poissons Ratio (z) = 0.20195 0.20056
#
# Static dielectric constant tensor:
#      x y z
#    x 3.167950 0.000000 0.170690 
#    y 0.000000 3.192140 0.000000 
#    z 0.170690 0.000000 3.536880 
# 
# 
# High freq. dielectric constant tensor:
#      x y z
#    x 1.679280 0.000000 0.013780 
#    y 0.000000 1.684020 0.000000 
#    z 0.013780 0.000000 1.710740 
# 
# From -- ./inp_files/99066.got.cif
#   From: 2010.06.25/outbox.cif.g09.slc.cpg/sg12_50_cif.got.tgz:99066.got - 2010.06.28 00:19:55.
