data_PCOD8086989
_publ_section_title
;
Structure prediction by ZEFSAII (Michael W. Deem and Ramdas Pophale) SiO2 
 PCOD8086989
Probable space group: C 2/M
;
_chemical_formula_sum "Si O2"
_cell_formula_units_Z 64
_cell_length_a 17.182450
_cell_length_b 24.386293
_cell_length_c 20.668318
_cell_angle_alpha 90.000000
_cell_angle_beta 156.646719
_cell_angle_gamma 90.000000
_cell_volume 3432.962212
_symmetry_space_group_name_H-M "C 2/M"
_symmetry_group_IT_number 12
_symmetry_cell_setting 'monoclinic'
loop_
_space_group_symop_operation_xyz
x,y,z
-x,y,-z
-x,-y,-z
x,-y,z
1/2+x,1/2+y,z
1/2-x,1/2+y,-z
1/2-x,1/2-y,-z
1/2+x,1/2-y,z
loop_
_atom_site_type_symbol
_atom_site_label
_atom_site_fract_x
_atom_site_fract_y
_atom_site_fract_z
Si Si1 0.805909 0.858042 0.589636
Si Si2 0.127619 0.794130 0.768629
Si Si3 0.917690 0.327874 0.236269
Si Si4 0.902567 0.937559 0.130358
Si Si5 0.590616 0.845751 0.916316
Si Si6 0.476116 0.391949 0.051531
Si Si7 0.272949 0.189030 0.334441
Si Si8 0.212263 0.813281 0.689586
O O1 0.589044 0.867159 0.395493
O O2 0.804412 0.821136 0.652569
O O3 0.925725 0.825765 0.626626
O O4 0.911885 0.915741 0.686570
O O5 0.075233 0.730229 0.721626
O O6 0.216288 0.817354 0.769950
O O7 0.282090 0.803631 0.944065
O O8 0.943280 0.318720 0.179344
O O9 0.714624 0.355070 0.097394
O O10 0.957423 0.934864 0.095974
O O11 0.862592 0.000000 0.119346
O O12 0.705911 0.903384 0.997016
O O13 0.378176 0.854392 0.787885
O O14 0.658998 0.350897 0.198944
O O15 0.500000 0.422288 0.000000
O O16 0.500000 0.174206 0.500000
O O17 0.228999 0.252032 0.286165
O O18 0.000000 0.830412 0.500000
#
# Coordination Sequence:
#
# PCOD8086989 Si02
#       8
#     8   8   8   8   8   8   8   8
#     4  10  20  34  53  75 104 140 181 221 259 311
#     4  11  20  31  50  77 112 146 173 205 255 317
#     4  11  19  32  52  79 111 142 172 207 256 315
#     4   9  21  40  58  73  97 138 182 228 275 313
#     4  10  21  35  53  77 107 141 180 217 257 313
#     4  10  19  31  52  80 108 137 173 217 261 313
#     4  10  19  32  49  76 114 152 178 202 248 312
#     4  11  20  31  50  79 113 145 176 211 254 311
#
# _framework density 18.642790999999999
#
# number of rings (size 3 to 8) (size 9 to 14) (size 15 to 20)
#    0.000    1.750    0.000    7.125    0.000    0.250 
#    0.000    2.500    0.000   19.125    0.000    0.000 
#    0.000    0.000    0.000    0.000    0.000    0.000 
#
# Total GULP energy -396855.269100 kJ/mol
# GULP energy per Si atom -12401.727159 kJ/mol
# Density = 1.860036 g / cm^3
# Si number density = 18.642791 Si / 1000 Ang^3
#
#
#
# Elastic Constant Matrix: (Units=GPa)
#
#
# Indices 1 2 3 4 5 6 
#
# 1 111.7399 21.8466 31.2117 -0.0342 2.1128 -0.0008
# 2 21.8466 78.2486 33.2679 -0.3367 10.8076 -0.0422
# 3 31.2117 33.2679 105.3177 -0.6618 3.2224 -0.0736
# 4 -0.0342 -0.3367 -0.6618 13.6779 -0.1373 2.0817
# 5 2.1128 10.8076 3.2224 -0.1373 34.9650 0.0986
# 6 -0.0008 -0.0422 -0.0736 2.0817 0.0986 12.7149
#
#
#
# Elastic Compliance Matrix: (Units=1/GPa)
#
#
# Indices 1 2 3 4 5 6 
#
# 1 0.009964 -0.001788 -0.002394 -0.000133 0.000171 0.000001
# 2 -0.001788 0.015708 -0.004298 0.000124 -0.004351 0.000041
# 3 -0.002394 -0.004298 0.011553 0.000455 0.000410 -0.000025
# 4 -0.000133 0.000124 0.000455 0.075007 0.000257 -0.012279
# 5 0.000171 -0.004351 0.000410 0.000257 0.029899 -0.000286
# 6 0.000001 0.000041 -0.000025 -0.012279 -0.000286 0.080661
#
#
# Mechanical properties :
#
#
# Convention : Reuss Voigt Hill
#
# Bulk Modulus (GPa) = 49.34853 51.99540 50.67196
# Shear Modulus (GPa) = 20.28343 26.20355 23.24349
#
# Velocity S-wave (km/s) = 3.30207 3.75315 3.53481
# Velocity P-wave (km/s) = 6.40830 6.83611 6.62566
#
# Compressibility (1/GPa) = 0.02026403
#
# Stress axis : x y z
#
# Youngs Moduli (GPa) = 100.35643 63.66263 86.56098
#
# Poissons Ratio (x) = 0.11385 0.20725
# Poissons Ratio (y) = 0.17946 0.37203
# Poissons Ratio (z) = 0.24028 0.27362
#
# Static dielectric constant tensor:
#      x y z
#    x 3.668740 -0.000090 -0.007140 
#    y -0.000090 2.886690 -0.000330 
#    z -0.007140 -0.000330 3.677610 
# 
# 
# High freq. dielectric constant tensor:
#      x y z
#    x 1.741950 -0.000010 0.000050 
#    y -0.000010 1.665490 -0.000030 
#    z 0.000050 -0.000030 1.740910 
# 
# From -- ./inp_files/90641.got.cif
#   From: 2010.06.25/outbox.cif.g09.slc.cpg/sg12_46_cif.got.tgz:90641.got - 2010.06.28 00:19:55.
