data_PCOD8086872
_publ_section_title
;
Structure prediction by ZEFSAII (Michael W. Deem and Ramdas Pophale) SiO2 
 PCOD8086872
Probable space group: C 2/M
;
_chemical_formula_sum "Si O2"
_cell_formula_units_Z 56
_cell_length_a 19.024846
_cell_length_b 8.758606
_cell_length_c 28.251771
_cell_angle_alpha 90.000000
_cell_angle_beta 140.976233
_cell_angle_gamma 90.000000
_cell_volume 2964.121455
_symmetry_space_group_name_H-M "C 2/M"
_symmetry_group_IT_number 12
_symmetry_cell_setting 'monoclinic'
loop_
_space_group_symop_operation_xyz
x,y,z
-x,y,-z
-x,-y,-z
x,-y,z
1/2+x,1/2+y,z
1/2-x,1/2+y,-z
1/2-x,1/2-y,-z
1/2+x,1/2-y,z
loop_
_atom_site_type_symbol
_atom_site_label
_atom_site_fract_x
_atom_site_fract_y
_atom_site_fract_z
Si Si1 0.038827 0.822208 0.242318
Si Si2 0.401160 0.678414 0.913723
Si Si3 0.364462 0.179304 0.795745
Si Si4 0.154375 0.326282 0.803621
Si Si5 0.816017 0.675245 0.604456
Si Si6 0.408631 0.676039 0.560077
Si Si7 0.130815 0.675939 0.680788
O O1 0.047551 0.731213 0.197792
O O2 0.140968 0.776880 0.329944
O O3 0.919544 0.784513 0.203095
O O4 0.045189 0.000000 0.234811
O O5 0.406242 0.500000 0.903071
O O6 0.413140 0.772461 0.871879
O O7 0.284488 0.715201 0.878927
O O8 0.500000 0.728931 0.000000
O O9 0.246429 0.257535 0.722090
O O10 0.347382 0.000000 0.785668
O O11 0.130082 0.500000 0.806053
O O12 0.122571 0.300287 0.732608
O O13 0.847040 0.500000 0.631319
O O14 0.682788 0.698062 0.529221
O O15 0.876840 0.720821 0.588023
O O16 0.414399 0.500000 0.579148
O O17 0.528078 0.732933 0.603072
O O18 0.124356 0.500000 0.662753
#
# Coordination Sequence:
#
# PCOD8086872 Si02
#       7
#     8   8   8   8   8   8   8
#     4  12  23  36  55  80 112 148 191 233 278 333
#     4   9  19  39  65  90 116 145 179 221 270 327
#     4  11  23  38  58  82 114 148 184 228 278 334
#     4   9  18  33  56  84 112 144 181 223 272 325
#     4  10  20  33  50  76 111 147 185 234 285 328
#     4  10  19  31  51  79 108 143 189 235 280 329
#     4  10  19  34  56  80 110 145 187 235 279 329
#
# _framework density 18.892613000000001
#
# number of rings (size 3 to 8) (size 9 to 14) (size 15 to 20)
#    0.000    1.857    1.429    4.714    0.000    4.286 
#    0.000    1.429    0.000    4.286    0.000    0.000 
#    0.000    0.000    0.000    0.000    0.000    0.000 
#
# Total GULP energy -347290.710918 kJ/mol
# GULP energy per Si atom -12403.239676 kJ/mol
# Density = 1.884961 g / cm^3
# Si number density = 18.892613 Si / 1000 Ang^3
#
#
#
# Elastic Constant Matrix: (Units=GPa)
#
#
# Indices 1 2 3 4 5 6 
#
# 1 79.5269 29.7652 33.8895 0.0000 3.7415 -0.0001
# 2 29.7652 82.1419 34.7705 0.0001 6.5025 -0.0001
# 3 33.8895 34.7705 107.1385 0.0000 19.8589 0.0000
# 4 0.0000 0.0001 0.0000 26.9803 0.0000 0.7401
# 5 3.7415 6.5025 19.8589 0.0000 22.3778 0.0000
# 6 -0.0001 -0.0001 0.0000 0.7401 0.0000 30.9078
#
#
#
# Elastic Compliance Matrix: (Units=1/GPa)
#
#
# Indices 1 2 3 4 5 6 
#
# 1 0.015751 -0.004173 -0.004027 0.000000 0.002153 0.000000
# 2 -0.004173 0.015219 -0.003505 0.000000 -0.000614 0.000000
# 3 -0.004027 -0.003505 0.013682 0.000000 -0.010450 0.000000
# 4 0.000000 0.000000 0.000000 0.037088 0.000000 -0.000888
# 5 0.002153 -0.000614 -0.010450 0.000000 0.053780 0.000000
# 6 0.000000 0.000000 0.000000 -0.000888 0.000000 0.032376
#
#
# Mechanical properties :
#
#
# Convention : Reuss Voigt Hill
#
# Bulk Modulus (GPa) = 47.07911 51.73975 49.40943
# Shear Modulus (GPa) = 25.20331 27.41198 26.30764
#
# Velocity S-wave (km/s) = 3.65640 3.81325 3.73565
# Velocity P-wave (km/s) = 6.54210 6.84350 6.69450
#
# Compressibility (1/GPa) = 0.02124084
#
# Stress axis : x y z
#
# Youngs Moduli (GPa) = 63.48751 65.70868 73.08853
#
# Poissons Ratio (x) = 0.27423 0.29432
# Poissons Ratio (y) = 0.26496 0.25618
# Poissons Ratio (z) = 0.25566 0.23032
#
# Static dielectric constant tensor:
#      x y z
#    x 3.296370 0.000000 0.221900 
#    y 0.000000 3.455100 0.000000 
#    z 0.221900 0.000000 3.514620 
# 
# 
# High freq. dielectric constant tensor:
#      x y z
#    x 1.717670 0.000000 0.018100 
#    y 0.000000 1.742720 0.000000 
#    z 0.018100 0.000000 1.724620 
# 
# From -- ./inp_files/363233.got.cif
#   From: 2010.06.25/outbox.cif.g09.slc.cpg/sg12_182_cif.got.tgz:363233.got - 2010.06.28 00:19:55.
