data_PCOD8086326
_publ_section_title
;
Structure prediction by ZEFSAII (Michael W. Deem and Ramdas Pophale) SiO2 
 PCOD8086326
Probable space group: C 2/M
;
_chemical_formula_sum "Si O2"
_cell_formula_units_Z 56
_cell_length_a 14.442914
_cell_length_b 8.867380
_cell_length_c 32.537300
_cell_angle_alpha 90.000000
_cell_angle_beta 47.070895
_cell_angle_gamma 90.000000
_cell_volume 3051.122255
_symmetry_space_group_name_H-M "C 2/M"
_symmetry_group_IT_number 12
_symmetry_cell_setting 'monoclinic'
loop_
_space_group_symop_operation_xyz
x,y,z
-x,y,-z
-x,-y,-z
x,-y,z
1/2+x,1/2+y,z
1/2-x,1/2+y,-z
1/2-x,1/2-y,-z
1/2+x,1/2-y,z
loop_
_atom_site_type_symbol
_atom_site_label
_atom_site_fract_x
_atom_site_fract_y
_atom_site_fract_z
Si Si1 0.076401 0.177080 0.351628
Si Si2 0.196209 0.821201 0.947763
Si Si3 0.478051 0.821258 0.859202
Si Si4 0.519375 0.321857 0.928726
Si Si5 0.361016 0.178874 0.266564
Si Si6 0.897888 0.178076 0.564221
Si Si7 0.369054 0.320265 0.350808
O O1 0.218780 0.229016 0.297175
O O2 0.049314 0.226497 0.406917
O O3 0.973155 0.245844 0.351512
O O4 0.065688 0.000000 0.350832
O O5 0.336620 0.752514 0.904387
O O6 0.125274 0.765213 0.928408
O O7 0.201682 0.000000 0.945273
O O8 0.118048 0.770384 0.011898
O O9 0.551869 0.759025 0.876287
O O10 0.546132 0.764510 0.797377
O O11 0.478411 0.000000 0.860468
O O12 0.524238 0.500000 0.920945
O O13 0.405133 0.258344 0.295028
O O14 0.367504 0.000000 0.271521
O O15 0.767308 0.261423 0.593505
O O16 0.000000 0.230034 0.500000
O O17 0.871620 0.000000 0.570626
O O18 0.367716 0.500000 0.350116
#
# Coordination Sequence:
#
# PCOD8086326 Si02
#       7
#     8   8   8   8   8   8   8
#     4   8  16  32  50  68  95 129 158 190 238 280
#     4   8  16  31  48  67  94 127 157 189 239 295
#     4  10  19  31  49  71  93 120 158 202 241 280
#     4   9  17  31  49  67  93 127 157 190 239 296
#     4   9  19  35  50  66  94 129 161 195 239 291
#     4   9  18  34  54  75 102 134 162 187 226 285
#     4  10  19  32  51  72  96 126 160 200 238 271
#
# _framework density 18.353902999999999
#
# number of rings (size 3 to 8) (size 9 to 14) (size 15 to 20)
#    0.000    3.000    0.000    2.571    0.000    2.571 
#    0.000    7.857    0.000    0.000    0.000    0.000 
#    0.000    0.000    0.000    0.000    0.000    0.000 
#
# Total GULP energy -347087.142287 kJ/mol
# GULP energy per Si atom -12395.969367 kJ/mol
# Density = 1.831213 g / cm^3
# Si number density = 18.353903 Si / 1000 Ang^3
#
#
#
# Elastic Constant Matrix: (Units=GPa)
#
#
# Indices 1 2 3 4 5 6 
#
# 1 129.3548 24.3425 60.0156 0.0000 12.8252 0.0000
# 2 24.3425 25.7182 27.4367 -0.0003 2.9141 -0.0001
# 3 60.0156 27.4367 138.6509 0.0000 11.5044 -0.0001
# 4 0.0000 -0.0003 0.0000 21.8000 -0.0001 3.7850
# 5 12.8252 2.9141 11.5044 -0.0001 19.2095 -0.0001
# 6 0.0000 -0.0001 -0.0001 3.7850 -0.0001 23.9268
#
#
#
# Elastic Compliance Matrix: (Units=1/GPa)
#
#
# Indices 1 2 3 4 5 6 
#
# 1 0.010791 -0.006492 -0.003020 0.000000 -0.004411 0.000000
# 2 -0.006492 0.053248 -0.007804 0.000001 0.000930 0.000000
# 3 -0.003020 -0.007804 0.010311 0.000000 -0.002975 0.000000
# 4 0.000000 0.000001 0.000000 0.047167 0.000000 -0.007461
# 5 -0.004411 0.000930 -0.002975 0.000000 0.056643 0.000000
# 6 0.000000 0.000000 0.000000 -0.007461 0.000000 0.042974
#
#
# Mechanical properties :
#
#
# Convention : Reuss Voigt Hill
#
# Bulk Modulus (GPa) = 25.17805 57.47928 41.32867
# Shear Modulus (GPa) = 18.58702 25.11588 21.85145
#
# Velocity S-wave (km/s) = 3.18575 3.70323 3.45419
# Velocity P-wave (km/s) = 5.22301 7.04772 6.20283
#
# Compressibility (1/GPa) = 0.03971713
#
# Stress axis : x y z
#
# Youngs Moduli (GPa) = 92.67009 18.78018 96.98561
#
# Poissons Ratio (x) = 0.12192 0.29293
# Poissons Ratio (y) = 0.60160 0.75687
# Poissons Ratio (z) = 0.27989 0.14656
#
# Static dielectric constant tensor:
#      x y z
#    x 3.631200 0.000000 -0.056650 
#    y 0.000000 2.983840 0.000000 
#    z -0.056650 0.000000 3.560880 
# 
# 
# High freq. dielectric constant tensor:
#      x y z
#    x 1.717000 0.000000 0.003840 
#    y 0.000000 1.677620 0.000000 
#    z 0.003840 0.000000 1.715290 
# 
# From -- ./inp_files/337842.got.cif
#   From: 2010.06.25/outbox.cif.g09.slc.cpg/sg12_169_cif.got.tgz:337842.got - 2010.06.28 00:19:55.
