data_PCOD8086854
_publ_section_title
;
Structure prediction by ZEFSAII (Michael W. Deem and Ramdas Pophale) SiO2 
 PCOD8086854
Probable space group: C 2/M
;
_chemical_formula_sum "Si O2"
_cell_formula_units_Z 56
_cell_length_a 31.786193
_cell_length_b 12.154790
_cell_length_c 9.160928
_cell_angle_alpha 90.000000
_cell_angle_beta 59.146010
_cell_angle_gamma 90.000000
_cell_volume 3038.464160
_symmetry_space_group_name_H-M "C 2/M"
_symmetry_group_IT_number 12
_symmetry_cell_setting 'monoclinic'
loop_
_space_group_symop_operation_xyz
x,y,z
-x,y,-z
-x,-y,-z
x,-y,z
1/2+x,1/2+y,z
1/2-x,1/2+y,-z
1/2-x,1/2-y,-z
1/2+x,1/2-y,z
loop_
_atom_site_type_symbol
_atom_site_label
_atom_site_fract_x
_atom_site_fract_y
_atom_site_fract_z
Si Si1 0.816529 0.872995 0.899433
Si Si2 0.844675 0.628391 0.431204
Si Si3 0.181584 0.624748 0.830617
Si Si4 0.103576 0.720545 0.153747
Si Si5 0.520088 0.872152 0.124107
Si Si6 0.927771 0.372602 0.488886
Si Si7 0.234076 0.724119 0.235029
O O1 0.868703 0.839244 0.883360
O O2 0.807821 0.785973 0.784619
O O3 0.820471 0.000000 0.841798
O O4 0.768757 0.861121 0.086899
O O5 0.854748 0.500000 0.410815
O O6 0.846425 0.673325 0.262200
O O7 0.888380 0.680901 0.448220
O O8 0.792159 0.653950 0.594146
O O9 0.195501 0.500000 0.779478
O O10 0.233407 0.682529 0.750845
O O11 0.148360 0.637833 0.034324
O O12 0.075643 0.690453 0.351897
O O13 0.064453 0.709568 0.090626
O O14 0.480225 0.857029 0.321645
O O15 0.538015 0.000000 0.087174
O O16 0.500000 0.838167 0.000000
O O17 0.917189 0.500000 0.541276
#
# Coordination Sequence:
#
# PCOD8086854 Si02
#       7
#     8   8   8   8   8   8   8
#     4  10  21  35  53  78 105 136 181 228 264 305
#     4  10  19  32  49  76 109 139 170 210 258 312
#     4  10  20  31  49  76 108 141 174 209 254 313
#     4  11  20  34  53  77 105 140 172 212 265 315
#     4  10  20  34  54  82 111 137 168 211 266 322
#     4  10  19  31  51  78 108 137 170 211 257 315
#     4  10  19  34  52  75 102 143 178 217 264 306
#
# _framework density 18.430364000000001
#
# number of rings (size 3 to 8) (size 9 to 14) (size 15 to 20)
#    0.000    1.857    1.429    3.857    0.000    3.429 
#    0.000    0.000    0.000    3.000    0.000    0.000 
#    0.000    0.000    0.000    0.000    0.000    0.000 
#
# Total GULP energy -346991.560938 kJ/mol
# GULP energy per Si atom -12392.555748 kJ/mol
# Density = 1.838842 g / cm^3
# Si number density = 18.430364 Si / 1000 Ang^3
#
#
#
# Elastic Constant Matrix: (Units=GPa)
#
#
# Indices 1 2 3 4 5 6 
#
# 1 107.6091 26.9590 14.2036 0.0000 5.9734 0.0000
# 2 26.9590 36.8306 11.7257 0.0000 3.0930 0.0000
# 3 14.2036 11.7257 70.4919 0.0000 5.0567 0.0000
# 4 0.0000 0.0000 0.0000 17.5342 0.0000 -0.0103
# 5 5.9734 3.0930 5.0567 0.0000 28.9989 0.0000
# 6 0.0000 0.0000 0.0000 -0.0103 0.0000 24.1643
#
#
#
# Elastic Compliance Matrix: (Units=1/GPa)
#
#
# Indices 1 2 3 4 5 6 
#
# 1 0.011494 -0.008017 -0.000885 0.000000 -0.001358 0.000000
# 2 -0.008017 0.034408 -0.004013 0.000000 -0.001319 0.000000
# 3 -0.000885 -0.004013 0.015178 0.000000 -0.002036 0.000000
# 4 0.000000 0.000000 0.000000 0.057032 0.000000 0.000024
# 5 -0.001358 -0.001319 -0.002036 0.000000 0.035260 0.000000
# 6 0.000000 0.000000 0.000000 0.000024 0.000000 0.041383
#
#
# Mechanical properties :
#
#
# Convention : Reuss Voigt Hill
#
# Bulk Modulus (GPa) = 28.36987 35.63425 32.00206
# Shear Modulus (GPa) = 21.52064 24.94235 23.23150
#
# Velocity S-wave (km/s) = 3.42083 3.68275 3.55421
# Velocity P-wave (km/s) = 5.57039 6.12046 5.85189
#
# Compressibility (1/GPa) = 0.03524866
#
# Stress axis : x y z
#
# Youngs Moduli (GPa) = 87.00481 29.06280 65.88481
#
# Poissons Ratio (x) = 0.23300 0.05830
# Poissons Ratio (y) = 0.69754 0.26443
# Poissons Ratio (z) = 0.07699 0.11664
#
# Static dielectric constant tensor:
#      x y z
#    x 3.676980 0.000000 0.144960 
#    y 0.000000 2.997520 0.000000 
#    z 0.144960 0.000000 3.470410 
# 
# 
# High freq. dielectric constant tensor:
#      x y z
#    x 1.727150 0.000000 0.003180 
#    y 0.000000 1.662050 0.000000 
#    z 0.003180 0.000000 1.723460 
# 
# From -- ./inp_files/103116.got.cif
#   From: 2010.06.25/outbox.cif.g09.slc.cpg/sg12_52_cif.got.tgz:103116.got - 2010.06.28 00:19:55.
