data_PCOD8086331
_publ_section_title
;
Structure prediction by ZEFSAII (Michael W. Deem and Ramdas Pophale) SiO2 
 PCOD8086331
Probable space group: C 2/M
;
_chemical_formula_sum "Si O2"
_cell_formula_units_Z 56
_cell_length_a 19.260815
_cell_length_b 9.408888
_cell_length_c 17.494145
_cell_angle_alpha 90.000000
_cell_angle_beta 79.764985
_cell_angle_gamma 90.000000
_cell_volume 3119.889876
_symmetry_space_group_name_H-M "C 2/M"
_symmetry_group_IT_number 12
_symmetry_cell_setting 'monoclinic'
loop_
_space_group_symop_operation_xyz
x,y,z
-x,y,-z
-x,-y,-z
x,-y,z
1/2+x,1/2+y,z
1/2-x,1/2+y,-z
1/2-x,1/2-y,-z
1/2+x,1/2-y,z
loop_
_atom_site_type_symbol
_atom_site_label
_atom_site_fract_x
_atom_site_fract_y
_atom_site_fract_z
Si Si1 0.080301 0.167052 0.482525
Si Si2 0.182228 0.662781 0.351630
Si Si3 0.374545 0.838814 0.931937
Si Si4 0.504845 0.659411 0.908390
Si Si5 0.700743 0.661315 0.562562
Si Si6 0.768072 0.662057 0.819719
Si Si7 0.138715 0.665822 0.889295
O O1 0.125424 0.239618 0.405988
O O2 0.118668 0.199874 0.558008
O O3 0.000000 0.226931 0.500000
O O4 0.078299 0.000000 0.464844
O O5 0.160704 0.500000 0.372733
O O6 0.265760 0.687586 0.359745
O O7 0.180190 0.695801 0.261653
O O8 0.434866 0.733532 0.889708
O O9 0.308067 0.815465 0.891208
O O10 0.403493 0.000000 0.922029
O O11 0.351365 0.802994 0.022707
O O12 0.511180 0.500000 0.873759
O O13 0.570890 0.753138 0.869324
O O14 0.500000 0.656333 0.000000
O O15 0.711217 0.500000 0.535812
O O16 0.750000 0.750000 0.500000
O O17 0.739734 0.500000 0.819381
O O18 0.704495 0.772581 0.830417
O O19 0.130774 0.500000 0.873201
#
# Coordination Sequence:
#
# PCOD8086331 Si02
#       7
#     8   8   8   8   8   8   8
#     4   9  17  30  50  74  97 121 152 193 235 276
#     4   9  18  32  49  69  95 127 158 190 233 284
#     4   9  18  32  49  69  95 128 165 206 249 290
#     4   9  17  30  49  70  91 117 153 199 247 293
#     4   8  14  27  47  68  90 118 151 183 220 271
#     4  10  20  33  48  68  98 131 162 203 250 290
#     4  10  19  31  49  71  94 125 167 208 245 290
#
# _framework density 17.949352000000001
#
# number of rings (size 3 to 8) (size 9 to 14) (size 15 to 20)
#    0.000    2.857    0.000    1.286    0.000    3.714 
#    0.000    1.429    0.000    1.714    0.000    0.000 
#    0.000    0.000    0.000    0.000    0.000    0.000 
#
# Total GULP energy -346899.495376 kJ/mol
# GULP energy per Si atom -12389.267692 kJ/mol
# Density = 1.790850 g / cm^3
# Si number density = 17.949352 Si / 1000 Ang^3
#
#
#
# Elastic Constant Matrix: (Units=GPa)
#
#
# Indices 1 2 3 4 5 6 
#
# 1 106.3949 48.8159 22.8265 0.0000 -15.6081 0.0000
# 2 48.8159 87.8184 21.8748 0.0000 -13.4821 0.0000
# 3 22.8265 21.8748 44.0648 0.0000 -8.4123 0.0000
# 4 0.0000 0.0000 0.0000 20.4456 0.0000 -5.0967
# 5 -15.6081 -13.4821 -8.4123 0.0000 16.6731 0.0000
# 6 0.0000 0.0000 0.0000 -5.0967 0.0000 32.6425
#
#
#
# Elastic Compliance Matrix: (Units=1/GPa)
#
#
# Indices 1 2 3 4 5 6 
#
# 1 0.013684 -0.005868 -0.002917 0.000000 0.006594 0.000000
# 2 -0.005868 0.016559 -0.004064 0.000000 0.005846 0.000000
# 3 -0.002917 -0.004064 0.027746 0.000000 0.007982 0.000000
# 4 0.000000 0.000000 0.000000 0.050891 0.000000 0.007946
# 5 0.006594 0.005846 0.007982 0.000000 0.074903 0.000000
# 6 0.000000 0.000000 0.000000 0.007946 0.000000 0.031876
#
#
# Mechanical properties :
#
#
# Convention : Reuss Voigt Hill
#
# Bulk Modulus (GPa) = 30.96858 47.25694 39.11276
# Shear Modulus (GPa) = 19.83166 23.60299 21.71732
#
# Velocity S-wave (km/s) = 3.32756 3.63020 3.48217
# Velocity P-wave (km/s) = 5.66165 6.62995 6.16484
#
# Compressibility (1/GPa) = 0.03229079
#
# Stress axis : x y z
#
# Youngs Moduli (GPa) = 73.07614 60.39074 36.04064
#
# Poissons Ratio (x) = 0.35437 0.10513
# Poissons Ratio (y) = 0.42880 0.14649
# Poissons Ratio (z) = 0.21317 0.24546
#
# Static dielectric constant tensor:
#      x y z
#    x 3.612200 0.000000 0.437200 
#    y 0.000000 3.401930 0.000000 
#    z 0.437200 0.000000 3.233150 
# 
# 
# High freq. dielectric constant tensor:
#      x y z
#    x 1.695040 0.000000 0.012380 
#    y 0.000000 1.700620 0.000000 
#    z 0.012380 0.000000 1.657850 
# 
# From -- ./inp_files/280255.got.cif
#   From: 2010.06.25/outbox.cif.g09.slc.cpg/sg12_141_cif.got.tgz:280255.got - 2010.06.28 00:19:55.
