data_PCOD8086826
_publ_section_title
;
Structure prediction by ZEFSAII (Michael W. Deem and Ramdas Pophale) SiO2 
 PCOD8086826
Probable space group: C 2/M
;
_chemical_formula_sum "Si O2"
_cell_formula_units_Z 40
_cell_length_a 24.160672
_cell_length_b 8.808602
_cell_length_c 20.730789
_cell_angle_alpha 90.000000
_cell_angle_beta 30.966247
_cell_angle_gamma 90.000000
_cell_volume 2270.100506
_symmetry_space_group_name_H-M "C 2/M"
_symmetry_group_IT_number 12
_symmetry_cell_setting 'monoclinic'
loop_
_space_group_symop_operation_xyz
x,y,z
-x,y,-z
-x,-y,-z
x,-y,z
1/2+x,1/2+y,z
1/2-x,1/2+y,-z
1/2-x,1/2-y,-z
1/2+x,1/2-y,z
loop_
_atom_site_type_symbol
_atom_site_label
_atom_site_fract_x
_atom_site_fract_y
_atom_site_fract_z
Si Si1 0.821987 0.676767 0.839475
Si Si2 0.499229 0.323800 0.575904
Si Si3 0.604220 0.324567 0.688478
Si Si4 0.333949 0.174836 0.505319
Si Si5 0.390767 0.823351 0.915083
O O1 0.797923 0.500000 0.856293
O O2 0.903391 0.729083 0.703270
O O3 0.872678 0.715384 0.858079
O O4 0.709844 0.765328 0.942573
O O5 0.500000 0.287178 0.500000
O O6 0.480262 0.500000 0.609295
O O7 0.614254 0.273364 0.489512
O O8 0.593166 0.500000 0.679345
O O9 0.618653 0.224368 0.610501
O O10 0.705275 0.301106 0.635344
O O11 0.497396 0.266332 0.831514
O O12 0.365964 0.000000 0.483484
O O13 0.407026 0.000000 0.911840
#
# Coordination Sequence:
#
# PCOD8086826 Si02
#       5
#     8   8   8   8   8
#     4  10  20  33  51  76 105 138 175 213 259 310
#     4  11  23  37  54  76 105 141 178 217 259 305
#     4  10  19  31  51  77 108 138 168 213 262 311
#     4  10  20  33  50  76 105 138 176 212 259 309
#     4  10  19  31  51  78 108 138 169 211 263 314
#
# _framework density 17.620365
#
# number of rings (size 3 to 8) (size 9 to 14) (size 15 to 20)
#    0.000    1.800    2.000    3.000    0.000    5.600 
#    0.000    0.000    0.000    1.200    0.000    8.400 
#    0.000    0.000    0.000    0.000    0.000    0.000 
#
# Total GULP energy -248076.810711 kJ/mol
# GULP energy per Si atom -12403.840536 kJ/mol
# Density = 1.758026 g / cm^3
# Si number density = 17.620365 Si / 1000 Ang^3
#
#
#
# Elastic Constant Matrix: (Units=GPa)
#
#
# Indices 1 2 3 4 5 6 
#
# 1 71.4061 24.2771 36.1746 -0.0013 -8.0528 0.0001
# 2 24.2771 54.8680 35.0040 -0.0032 -5.7049 0.0018
# 3 36.1746 35.0040 106.0133 -0.0017 -23.0466 0.0005
# 4 -0.0013 -0.0032 -0.0017 33.9123 0.0011 -4.8740
# 5 -8.0528 -5.7049 -23.0466 0.0011 27.0289 -0.0003
# 6 0.0001 0.0018 0.0005 -4.8740 -0.0003 25.3036
#
#
#
# Elastic Compliance Matrix: (Units=1/GPa)
#
#
# Indices 1 2 3 4 5 6 
#
# 1 0.018010 -0.005155 -0.004313 0.000000 0.000600 0.000000
# 2 -0.005155 0.024653 -0.006854 0.000002 -0.002177 -0.000001
# 3 -0.004313 -0.006854 0.015435 0.000000 0.010429 0.000000
# 4 0.000000 0.000002 0.000000 0.030327 -0.000001 0.005842
# 5 0.000600 -0.002177 0.010429 -0.000001 0.045609 0.000000
# 6 0.000000 -0.000001 0.000000 0.005842 0.000000 0.040645
#
#
# Mechanical properties :
#
#
# Convention : Reuss Voigt Hill
#
# Bulk Modulus (GPa) = 39.28730 47.02209 43.15469
# Shear Modulus (GPa) = 23.16880 26.37106 24.76993
#
# Velocity S-wave (km/s) = 3.63007 3.87282 3.75341
# Velocity P-wave (km/s) = 6.31782 6.83685 6.58245
#
# Compressibility (1/GPa) = 0.02545352
#
# Stress axis : x y z
#
# Youngs Moduli (GPa) = 55.52615 40.56326 64.78852
#
# Poissons Ratio (x) = 0.20909 0.27942
# Poissons Ratio (y) = 0.28622 0.44408
# Poissons Ratio (z) = 0.23947 0.27803
#
# Static dielectric constant tensor:
#      x y z
#    x 3.101890 0.000000 -0.353040 
#    y 0.000000 3.377060 0.000000 
#    z -0.353040 0.000000 3.312010 
# 
# 
# High freq. dielectric constant tensor:
#      x y z
#    x 1.643630 0.000000 -0.031580 
#    y 0.000000 1.701720 0.000000 
#    z -0.031580 0.000000 1.680430 
# 
# From -- ./inp_files/162729.got.cif
#   From: 2010.06.25/outbox.cif.g09.slc.cpg/sg12_82_cif.got.tgz:162729.got - 2010.06.28 00:19:55.
