data_PCOD8086632
_publ_section_title
;
Structure prediction by ZEFSAII (Michael W. Deem and Ramdas Pophale) SiO2 
 PCOD8086632
Probable space group: C 2/M
;
_chemical_formula_sum "Si O2"
_cell_formula_units_Z 56
_cell_length_a 17.806497
_cell_length_b 9.207666
_cell_length_c 19.070068
_cell_angle_alpha 90.000000
_cell_angle_beta 112.509278
_cell_angle_gamma 90.000000
_cell_volume 2888.460940
_symmetry_space_group_name_H-M "C 2/M"
_symmetry_group_IT_number 12
_symmetry_cell_setting 'monoclinic'
loop_
_space_group_symop_operation_xyz
x,y,z
-x,y,-z
-x,-y,-z
x,-y,z
1/2+x,1/2+y,z
1/2-x,1/2+y,-z
1/2-x,1/2-y,-z
1/2+x,1/2-y,z
loop_
_atom_site_type_symbol
_atom_site_label
_atom_site_fract_x
_atom_site_fract_y
_atom_site_fract_z
Si Si1 0.041536 0.666447 0.303366
Si Si2 0.303627 0.169309 0.735418
Si Si3 0.781285 0.831269 0.868619
Si Si4 0.213592 0.664456 0.589529
Si Si5 0.927112 0.831586 0.022245
Si Si6 0.602393 0.169174 0.847602
Si Si7 0.126182 0.836251 0.447157
O O1 0.045869 0.500000 0.329602
O O2 0.110341 0.697694 0.270395
O O3 0.053580 0.764995 0.376383
O O4 0.954832 0.705712 0.238949
O O5 0.311210 0.234544 0.815170
O O6 0.231703 0.250510 0.667844
O O7 0.281939 0.000000 0.731202
O O8 0.692565 0.778537 0.860715
O O9 0.781614 0.000000 0.846151
O O10 0.841096 0.802345 0.954657
O O11 0.187048 0.500000 0.597832
O O12 0.140013 0.744826 0.523111
O O13 0.292454 0.665660 0.569206
O O14 0.930943 0.750829 0.096965
O O15 0.941114 0.000000 0.043041
O O16 0.000000 0.771536 0.000000
O O17 0.600290 0.000000 0.864868
O O18 0.101650 0.000000 0.458564
#
# Coordination Sequence:
#
# PCOD8086632 Si02
#       7
#     8   8   8   8   8   8   8
#     4   9  18  32  49  72 101 132 169 211 254 300
#     4  10  19  31  50  75 101 131 170 213 253 298
#     4  10  21  36  52  73 103 136 169 206 252 304
#     4   9  16  27  45  70 102 136 167 206 255 301
#     4  10  21  36  55  79 105 132 165 208 255 301
#     4  10  21  36  54  75 101 135 172 208 248 300
#     4   9  16  26  44  72 102 132 168 209 253 300
#
# _framework density 19.387487
#
# number of rings (size 3 to 8) (size 9 to 14) (size 15 to 20)
#    0.000    2.429    0.000    2.571    0.000    6.000 
#    0.000    0.000    0.000    0.857    0.000    6.000 
#    0.000    0.000    0.000    0.000    0.000    0.000 
#
# Total GULP energy -347287.246700 kJ/mol
# GULP energy per Si atom -12403.115954 kJ/mol
# Density = 1.934336 g / cm^3
# Si number density = 19.387487 Si / 1000 Ang^3
#
#
#
# Elastic Constant Matrix: (Units=GPa)
#
#
# Indices 1 2 3 4 5 6 
#
# 1 63.8107 18.2010 16.8853 0.0000 24.1585 0.0000
# 2 18.2010 89.8910 31.3082 0.0000 10.4178 0.0000
# 3 16.8853 31.3082 57.7002 0.0000 22.8329 0.0000
# 4 0.0000 0.0000 0.0000 39.4322 0.0000 -0.9348
# 5 24.1585 10.4178 22.8329 0.0000 23.3332 0.0000
# 6 0.0000 0.0000 0.0000 -0.9348 0.0000 17.0568
#
#
#
# Elastic Compliance Matrix: (Units=1/GPa)
#
#
# Indices 1 2 3 4 5 6 
#
# 1 0.028009 -0.004415 0.007988 0.000000 -0.034845 0.000000
# 2 -0.004415 0.014464 -0.009481 0.000000 0.007391 0.000000
# 3 0.007988 -0.009481 0.035471 0.000000 -0.038748 0.000000
# 4 0.000000 0.000000 0.000000 0.025393 0.000000 0.001392
# 5 -0.034845 0.007391 -0.038748 0.000000 0.113552 0.000000
# 6 0.000000 0.000000 0.000000 0.001392 0.000000 0.058704
#
#
# Mechanical properties :
#
#
# Convention : Reuss Voigt Hill
#
# Bulk Modulus (GPa) = 15.12216 38.24342 26.68279
# Shear Modulus (GPa) = 16.15758 25.63161 20.89460
#
# Velocity S-wave (km/s) = 2.89000 3.63997 3.28645
# Velocity P-wave (km/s) = 4.35351 6.11838 5.30978
#
# Compressibility (1/GPa) = 0.06612811
#
# Stress axis : x y z
#
# Youngs Moduli (GPa) = 35.70246 69.13673 28.19211
#
# Poissons Ratio (x) = 0.30524 -0.22520
# Poissons Ratio (y) = 0.15763 0.26729
# Poissons Ratio (z) = -0.28519 0.65548
#
# Static dielectric constant tensor:
#      x y z
#    x 3.295330 0.000000 0.214040 
#    y 0.000000 3.580900 0.000000 
#    z 0.214040 0.000000 3.540810 
# 
# 
# High freq. dielectric constant tensor:
#      x y z
#    x 1.724170 0.000000 0.015190 
#    y 0.000000 1.756420 0.000000 
#    z 0.015190 0.000000 1.763830 
# 
# From -- ./inp_files/275349.got.cif
#   From: 2010.06.25/outbox.cif.g09.slc.cpg/sg12_138_cif.got.tgz:275349.got - 2010.06.28 00:19:55.
