data_PCOD8086073
_publ_section_title
;
Structure prediction by ZEFSAII (Michael W. Deem and Ramdas Pophale) SiO2 
 PCOD8086073
Probable space group: C 2/M
;
_chemical_formula_sum "Si O2"
_cell_formula_units_Z 56
_cell_length_a 19.155082
_cell_length_b 9.244762
_cell_length_c 17.750295
_cell_angle_alpha 90.000000
_cell_angle_beta 100.187840
_cell_angle_gamma 90.000000
_cell_volume 3093.736509
_symmetry_space_group_name_H-M "C 2/M"
_symmetry_group_IT_number 12
_symmetry_cell_setting 'monoclinic'
loop_
_space_group_symop_operation_xyz
x,y,z
-x,y,-z
-x,-y,-z
x,-y,z
1/2+x,1/2+y,z
1/2-x,1/2+y,-z
1/2-x,1/2-y,-z
1/2+x,1/2-y,z
loop_
_atom_site_type_symbol
_atom_site_label
_atom_site_fract_x
_atom_site_fract_y
_atom_site_fract_z
Si Si1 0.005049 0.838763 0.090420
Si Si2 0.192029 0.831720 0.652042
Si Si3 0.711706 0.335801 0.820498
Si Si4 0.869178 0.330973 0.073288
Si Si5 0.865202 0.338963 0.900661
Si Si6 0.807279 0.329806 0.561318
Si Si7 0.417495 0.328249 0.494795
O O1 0.079506 0.768612 0.128246
O O2 0.942397 0.743229 0.112724
O O3 0.000514 0.000000 0.122997
O O4 0.000000 0.838816 0.000000
O O5 0.185623 0.768716 0.735549
O O6 0.273032 0.806003 0.637782
O O7 0.129150 0.771474 0.585709
O O8 0.177952 0.000000 0.655893
O O9 0.683711 0.500000 0.828106
O O10 0.690507 0.232777 0.884361
O O11 0.796548 0.336149 0.835726
O O12 0.875602 0.500000 0.088455
O O13 0.848266 0.292227 0.983581
O O14 0.898674 0.500000 0.909511
O O15 0.813051 0.500000 0.542890
O O16 0.750000 0.250000 0.500000
O O17 0.884020 0.253058 0.562106
O O18 0.500000 0.284280 0.500000
O O19 0.409959 0.500000 0.505438
#
# Coordination Sequence:
#
# PCOD8086073 Si02
#       7
#     8   8   8   8   8   8   8
#     4   9  17  30  49  69  88 115 154 198 241 286
#     4   8  16  31  49  69  95 127 159 192 233 280
#     4  10  19  32  49  68  95 129 160 193 238 286
#     4  10  19  31  47  69  96 124 160 203 242 280
#     4   9  18  31  48  69  93 124 160 200 243 283
#     4   9  16  29  50  73  96 123 155 189 227 275
#     4   9  17  31  52  76 100 126 156 191 231 276
#
# _framework density 18.101089000000002
#
# number of rings (size 3 to 8) (size 9 to 14) (size 15 to 20)
#    0.000    2.857    0.000    2.571    0.000    3.143 
#    0.000    5.000    0.000    3.429    0.000    0.000 
#    0.000    0.000    0.000    0.000    0.000    0.000 
#
# Total GULP energy -346947.654518 kJ/mol
# GULP energy per Si atom -12390.987661 kJ/mol
# Density = 1.805989 g / cm^3
# Si number density = 18.101089 Si / 1000 Ang^3
#
#
#
# Elastic Constant Matrix: (Units=GPa)
#
#
# Indices 1 2 3 4 5 6 
#
# 1 102.4527 37.6763 21.9397 0.0000 3.8355 0.0000
# 2 37.6763 78.7497 16.4545 0.0000 -0.7833 0.0000
# 3 21.9397 16.4545 56.6916 0.0000 6.7358 0.0000
# 4 0.0000 0.0000 0.0000 15.5621 0.0000 -4.9936
# 5 3.8355 -0.7833 6.7358 0.0000 12.9669 0.0000
# 6 0.0000 0.0000 0.0000 -4.9936 0.0000 34.1889
#
#
#
# Elastic Compliance Matrix: (Units=1/GPa)
#
#
# Indices 1 2 3 4 5 6 
#
# 1 0.012463 -0.005366 -0.002973 0.000000 -0.002466 0.000000
# 2 -0.005366 0.015942 -0.003041 0.000000 0.004130 0.000000
# 3 -0.002973 -0.003041 0.020878 0.000000 -0.010150 0.000000
# 4 0.000000 0.000000 0.000000 0.067418 0.000000 0.009847
# 5 -0.002466 0.004130 -0.010150 0.000000 0.083371 0.000000
# 6 0.000000 0.000000 0.000000 0.009847 0.000000 0.030688
#
#
# Mechanical properties :
#
#
# Convention : Reuss Voigt Hill
#
# Bulk Modulus (GPa) = 37.70212 43.33724 40.51968
# Shear Modulus (GPa) = 19.05772 23.33181 21.19476
#
# Velocity S-wave (km/s) = 3.24828 3.59412 3.42557
# Velocity P-wave (km/s) = 5.91120 6.42008 6.17089
#
# Compressibility (1/GPa) = 0.02652371
#
# Stress axis : x y z
#
# Youngs Moduli (GPa) = 80.23858 62.72624 47.89650
#
# Poissons Ratio (x) = 0.33659 0.14238
# Poissons Ratio (y) = 0.43056 0.14567
# Poissons Ratio (z) = 0.23852 0.19077
#
# Static dielectric constant tensor:
#      x y z
#    x 3.504120 0.000000 -0.097160 
#    y 0.000000 3.382610 0.000000 
#    z -0.097160 0.000000 3.309380 
# 
# 
# High freq. dielectric constant tensor:
#      x y z
#    x 1.701500 0.000000 -0.007350 
#    y 0.000000 1.693160 0.000000 
#    z -0.007350 0.000000 1.666700 
# 
# From -- ./inp_files/280412.got.cif
#   From: 2010.06.25/outbox.cif.g09.slc.cpg/sg12_141_cif.got.tgz:280412.got - 2010.06.28 00:19:55.
