data_PCOD8086576
_publ_section_title
;
Structure prediction by ZEFSAII (Michael W. Deem and Ramdas Pophale) SiO2 
 PCOD8086576
Probable space group: C 2/M
;
_chemical_formula_sum "Si O2"
_cell_formula_units_Z 40
_cell_length_a 29.929727
_cell_length_b 9.047447
_cell_length_c 28.086299
_cell_angle_alpha 90.000000
_cell_angle_beta 161.401318
_cell_angle_gamma 90.000000
_cell_volume 2425.654343
_symmetry_space_group_name_H-M "C 2/M"
_symmetry_group_IT_number 12
_symmetry_cell_setting 'monoclinic'
loop_
_space_group_symop_operation_xyz
x,y,z
-x,y,-z
-x,-y,-z
x,-y,z
1/2+x,1/2+y,z
1/2-x,1/2+y,-z
1/2-x,1/2-y,-z
1/2+x,1/2-y,z
loop_
_atom_site_type_symbol
_atom_site_label
_atom_site_fract_x
_atom_site_fract_y
_atom_site_fract_z
Si Si1 0.899550 0.826537 0.358111
Si Si2 0.628434 0.332541 0.237471
Si Si3 0.895996 0.826734 0.516839
Si Si4 0.719592 0.833043 0.517628
Si Si5 0.585546 0.826014 0.039240
O O1 0.000000 0.755268 0.500000
O O2 0.963151 0.792748 0.370223
O O3 0.890205 0.000000 0.358421
O O4 0.742799 0.761457 0.202569
O O5 0.633299 0.500000 0.222875
O O6 0.763054 0.240997 0.353242
O O7 0.640703 0.331300 0.307843
O O8 0.485646 0.254091 0.077566
O O9 0.904347 0.749436 0.577531
O O10 0.870855 0.000000 0.497857
O O11 0.750000 0.750000 0.500000
O O12 0.671682 0.000000 0.458002
O O13 0.585294 0.000000 0.029068
O O14 0.500000 0.784245 0.000000
#
# Coordination Sequence:
#
# PCOD8086576 Si02
#       5
#     8   8   8   8   8
#     4   9  17  29  47  73 101 130 169 210 246 290
#     4   9  19  32  47  71 101 128 163 206 247 297
#     4   9  16  29  50  72  99 130 163 206 249 291
#     4   9  18  31  51  77 102 127 165 209 251 299
#     4  10  19  31  50  73  98 133 173 208 246 295
#
# _framework density 16.490396
#
# number of rings (size 3 to 8) (size 9 to 14) (size 15 to 20)
#    1.200    1.600    0.000    2.400    0.000    3.600 
#    0.000    2.000    0.000    5.400    0.000    0.000 
#    0.000    0.000    0.000    0.000    0.000    0.000 
#
# Total GULP energy -247787.919401 kJ/mol
# GULP energy per Si atom -12389.395970 kJ/mol
# Density = 1.645286 g / cm^3
# Si number density = 16.490396 Si / 1000 Ang^3
#
#
#
# Elastic Constant Matrix: (Units=GPa)
#
#
# Indices 1 2 3 4 5 6 
#
# 1 108.0613 51.1279 52.0602 0.0022 10.0556 0.0015
# 2 51.1279 91.4342 37.1255 -0.0004 2.7619 -0.0010
# 3 52.0602 37.1255 104.4519 0.0006 15.7995 -0.0010
# 4 0.0022 -0.0004 0.0006 21.4129 -0.0009 -6.3910
# 5 10.0556 2.7619 15.7995 -0.0009 23.7871 -0.0010
# 6 0.0015 -0.0010 -0.0010 -6.3910 -0.0010 19.1620
#
#
#
# Elastic Compliance Matrix: (Units=1/GPa)
#
#
# Indices 1 2 3 4 5 6 
#
# 1 0.014711 -0.006219 -0.004769 -0.000002 -0.002329 -0.000003
# 2 -0.006219 0.015473 -0.002808 0.000002 0.002698 0.000002
# 3 -0.004769 -0.002808 0.014001 0.000000 -0.006958 0.000001
# 4 -0.000002 0.000002 0.000000 0.051864 0.000004 0.017298
# 5 -0.002329 0.002698 -0.006958 0.000004 0.047332 0.000004
# 6 -0.000003 0.000002 0.000001 0.017298 0.000004 0.057956
#
#
# Mechanical properties :
#
#
# Convention : Reuss Voigt Hill
#
# Bulk Modulus (GPa) = 60.26848 64.95273 62.61061
# Shear Modulus (GPa) = 21.32553 23.78133 22.55343
#
# Velocity S-wave (km/s) = 3.60002 3.80166 3.70222
# Velocity P-wave (km/s) = 7.34215 7.66446 7.50503
#
# Compressibility (1/GPa) = 0.01659242
#
# Stress axis : x y z
#
# Youngs Moduli (GPa) = 67.97664 64.62845 71.42168
#
# Poissons Ratio (x) = 0.40193 0.34064
# Poissons Ratio (y) = 0.42276 0.20055
# Poissons Ratio (z) = 0.32421 0.18147
#
# Static dielectric constant tensor:
#      x y z
#    x 2.928100 0.000000 0.019410 
#    y 0.000000 3.011730 -0.000010 
#    z 0.019410 -0.000010 3.022470 
# 
# 
# High freq. dielectric constant tensor:
#      x y z
#    x 1.621240 0.000000 -0.002480 
#    y 0.000000 1.630450 0.000000 
#    z -0.002480 0.000000 1.611280 
# 
# From -- ./inp_files/101196.got.cif
#   From: 2010.06.25/outbox.cif.g09.slc.cpg/sg12_51_cif.got.tgz:101196.got - 2010.06.28 00:19:55.
