data_PCOD8086596
_publ_section_title
;
Structure prediction by ZEFSAII (Michael W. Deem and Ramdas Pophale) SiO2 
 PCOD8086596
Probable space group: C 2/M
;
_chemical_formula_sum "Si O2"
_cell_formula_units_Z 64
_cell_length_a 23.192150
_cell_length_b 9.148328
_cell_length_c 16.836997
_cell_angle_alpha 90.000000
_cell_angle_beta 84.733653
_cell_angle_gamma 90.000000
_cell_volume 3557.216029
_symmetry_space_group_name_H-M "C 2/M"
_symmetry_group_IT_number 12
_symmetry_cell_setting 'monoclinic'
loop_
_space_group_symop_operation_xyz
x,y,z
-x,y,-z
-x,-y,-z
x,-y,z
1/2+x,1/2+y,z
1/2-x,1/2+y,-z
1/2-x,1/2-y,-z
1/2+x,1/2-y,z
loop_
_atom_site_type_symbol
_atom_site_label
_atom_site_fract_x
_atom_site_fract_y
_atom_site_fract_z
Si Si1 0.860924 0.335159 0.660145
Si Si2 0.271226 0.669918 0.575236
Si Si3 0.312554 0.169298 0.267022
Si Si4 0.560402 0.673127 0.961196
Si Si5 0.865322 0.830547 0.901932
Si Si6 0.775931 0.335432 0.819512
Si Si7 0.575577 0.671791 0.781435
Si Si8 0.448005 0.668373 0.746173
O O1 0.871356 0.500000 0.628474
O O2 0.832181 0.240712 0.593749
O O3 0.819314 0.332694 0.740689
O O4 0.922011 0.264583 0.677860
O O5 0.281703 0.500000 0.556205
O O6 0.250000 0.750000 0.500000
O O7 0.223113 0.694179 0.648345
O O8 0.281510 0.246454 0.196066
O O9 0.375031 0.242060 0.272421
O O10 0.319158 0.000000 0.245678
O O11 0.553010 0.500000 0.958516
O O12 0.574403 0.732214 0.871808
O O13 0.500000 0.741576 0.000000
O O14 0.612194 0.717148 0.014172
O O15 0.807693 0.738436 0.890434
O O16 0.916683 0.797372 0.833368
O O17 0.848084 0.000000 0.901160
O O18 0.757837 0.500000 0.844684
O O19 0.588977 0.500000 0.777323
O O20 0.515199 0.707862 0.746317
O O21 0.438780 0.500000 0.724375
#
# Coordination Sequence:
#
# PCOD8086596 Si02
#       8
#     8   8   8   8   8   8   8   8
#     4   9  17  29  48  75 104 131 162 202 245 290
#     4  10  20  35  57  82 105 129 159 198 245 296
#     4  10  21  36  52  73 102 133 165 200 245 301
#     4   9  15  27  47  72  99 130 172 216 255 296
#     4   9  15  26  47  71  96 126 166 215 259 297
#     4   9  17  30  48  69  95 127 166 210 252 296
#     4  10  19  31  50  74 101 136 174 210 250 297
#     4   9  16  27  46  72 100 132 170 209 248 291
#
# _framework density 17.991599000000001
#
# number of rings (size 3 to 8) (size 9 to 14) (size 15 to 20)
#    0.000    2.625    1.250    1.500    0.000    5.000 
#    0.000    1.250    0.000    1.500    0.000    5.250 
#    0.000    0.000    0.000    0.000    0.000    0.000 
#
# Total GULP energy -396805.587152 kJ/mol
# GULP energy per Si atom -12400.174598 kJ/mol
# Density = 1.795065 g / cm^3
# Si number density = 17.991599 Si / 1000 Ang^3
#
#
#
# Elastic Constant Matrix: (Units=GPa)
#
#
# Indices 1 2 3 4 5 6 
#
# 1 113.9164 68.1346 41.5748 0.0000 24.0343 0.0000
# 2 68.1346 115.4293 49.2132 0.0000 20.8549 0.0000
# 3 41.5748 49.2132 67.2219 0.0000 28.8943 0.0000
# 4 0.0000 0.0000 0.0000 22.1058 0.0000 6.5661
# 5 24.0343 20.8549 28.8943 0.0000 27.5203 0.0000
# 6 0.0000 0.0000 0.0000 6.5661 0.0000 31.5272
#
#
#
# Elastic Compliance Matrix: (Units=1/GPa)
#
#
# Indices 1 2 3 4 5 6 
#
# 1 0.014777 -0.007039 -0.001333 0.000000 -0.006171 0.000000
# 2 -0.007039 0.015948 -0.008693 0.000000 0.003189 0.000000
# 3 -0.001333 -0.008693 0.034140 0.000000 -0.028092 0.000000
# 4 0.000000 0.000000 0.000000 0.048220 0.000000 -0.010043
# 5 -0.006171 0.003189 -0.028092 0.000000 0.068805 0.000000
# 6 0.000000 0.000000 0.000000 -0.010043 0.000000 0.033810
#
#
# Mechanical properties :
#
#
# Convention : Reuss Voigt Hill
#
# Bulk Modulus (GPa) = 32.53657 68.26809 50.40233
# Shear Modulus (GPa) = 19.22515 25.40700 22.31608
#
# Velocity S-wave (km/s) = 3.27243 3.76195 3.52570
# Velocity P-wave (km/s) = 5.69228 7.54297 6.68201
#
# Compressibility (1/GPa) = 0.03073464
#
# Stress axis : x y z
#
# Youngs Moduli (GPa) = 67.67217 62.70204 29.29123
#
# Poissons Ratio (x) = 0.44137 0.03905
# Poissons Ratio (y) = 0.47635 0.25463
# Poissons Ratio (z) = 0.09023 0.54507
#
# Static dielectric constant tensor:
#      x y z
#    x 3.312450 0.000000 0.232360 
#    y 0.000000 3.295310 0.000000 
#    z 0.232360 0.000000 3.110720 
# 
# 
# High freq. dielectric constant tensor:
#      x y z
#    x 1.694130 0.000000 0.026040 
#    y 0.000000 1.688310 0.000000 
#    z 0.026040 0.000000 1.666870 
# 
# From -- ./inp_files/287623.got.cif
#   From: 2010.06.25/outbox.cif.g09.slc.cpg/sg12_144_cif.got.tgz:287623.got - 2010.06.28 00:19:55.
