data_PCOD8086718
_publ_section_title
;
Structure prediction by ZEFSAII (Michael W. Deem and Ramdas Pophale) SiO2 
 PCOD8086718
Probable space group: C 2/M
;
_chemical_formula_sum "Si O2"
_cell_formula_units_Z 56
_cell_length_a 27.184769
_cell_length_b 9.521367
_cell_length_c 16.680898
_cell_angle_alpha 90.000000
_cell_angle_beta 139.312743
_cell_angle_gamma 90.000000
_cell_volume 2814.784782
_symmetry_space_group_name_H-M "C 2/M"
_symmetry_group_IT_number 12
_symmetry_cell_setting 'monoclinic'
loop_
_space_group_symop_operation_xyz
x,y,z
-x,y,-z
-x,-y,-z
x,-y,z
1/2+x,1/2+y,z
1/2-x,1/2+y,-z
1/2-x,1/2-y,-z
1/2+x,1/2-y,z
loop_
_atom_site_type_symbol
_atom_site_label
_atom_site_fract_x
_atom_site_fract_y
_atom_site_fract_z
Si Si1 0.785664 0.665501 0.619026
Si Si2 0.846592 0.161279 0.427425
Si Si3 0.319422 0.343376 0.063195
Si Si4 0.408664 0.653904 0.336795
Si Si5 0.519108 0.154738 0.394328
Si Si6 0.454496 0.165816 0.866977
Si Si7 0.930646 0.345240 0.124385
O O1 0.787984 0.500000 0.599166
O O2 0.750000 0.750000 0.500000
O O3 0.735300 0.692680 0.636324
O O4 0.869185 0.722972 0.746776
O O5 0.850823 0.197963 0.337084
O O6 0.907466 0.261211 0.546060
O O7 0.868532 0.000000 0.471272
O O8 0.295542 0.500000 0.005570
O O9 0.367972 0.352209 0.202406
O O10 0.363223 0.267956 0.043697
O O11 0.250000 0.250000 0.000000
O O12 0.441446 0.500000 0.396687
O O13 0.479538 0.759625 0.417722
O O14 0.461909 0.137599 0.251477
O O15 0.542368 0.000000 0.454584
O O16 0.503744 0.211329 0.851705
O O17 0.447827 0.000000 0.868658
O O18 0.500000 0.228578 0.000000
O O19 0.901470 0.500000 0.059203
#
# Coordination Sequence:
#
# PCOD8086718 Si02
#       7
#     8   8   8   8   8   8   8
#     4  10  21  37  57  82 110 142 182 227 276 326
#     4  10  20  33  51  75 104 138 174 214 260 313
#     4  10  20  34  53  76 102 133 169 210 257 313
#     4   9  19  34  50  72 103 137 173 212 257 313
#     4  10  19  31  50  77 107 138 173 213 261 318
#     4   9  18  34  58  84 107 138 186 236 273 314
#     4   9  18  33  53  76 103 137 175 216 263 314
#
# _framework density 19.894947999999999
#
# number of rings (size 3 to 8) (size 9 to 14) (size 15 to 20)
#    0.000    2.429    0.000    2.143    0.000    6.286 
#    0.000    5.000    0.000    3.429    0.000    0.000 
#    0.000    0.000    0.000    0.000    0.000    0.000 
#
# Total GULP energy -346947.019903 kJ/mol
# GULP energy per Si atom -12390.964997 kJ/mol
# Density = 1.984967 g / cm^3
# Si number density = 19.894948 Si / 1000 Ang^3
#
#
#
# Elastic Constant Matrix: (Units=GPa)
#
#
# Indices 1 2 3 4 5 6 
#
# 1 162.1220 64.1722 43.1133 0.0000 26.0693 0.0000
# 2 64.1722 113.8096 31.6555 0.0000 23.8095 0.0000
# 3 43.1133 31.6555 80.2912 0.0000 17.5626 0.0000
# 4 0.0000 0.0000 0.0000 20.1357 0.0000 5.9176
# 5 26.0693 23.8095 17.5626 0.0000 36.5109 0.0000
# 6 0.0000 0.0000 0.0000 5.9176 0.0000 24.1107
#
#
#
# Elastic Compliance Matrix: (Units=1/GPa)
#
#
# Indices 1 2 3 4 5 6 
#
# 1 0.008739 -0.003640 -0.002695 0.000000 -0.002569 0.000000
# 2 -0.003640 0.012315 -0.001914 0.000000 -0.004511 0.000000
# 3 -0.002695 -0.001914 0.015604 0.000000 -0.004334 0.000000
# 4 0.000000 0.000000 0.000000 0.053524 0.000000 -0.013137
# 5 -0.002569 -0.004511 -0.004334 0.000000 0.034250 0.000000
# 6 0.000000 0.000000 0.000000 -0.013137 0.000000 0.044700
#
#
# Mechanical properties :
#
#
# Convention : Reuss Voigt Hill
#
# Bulk Modulus (GPa) = 49.60405 70.45609 60.03007
# Shear Modulus (GPa) = 25.99412 30.63691 28.31552
#
# Velocity S-wave (km/s) = 3.61857 3.92846 3.77669
# Velocity P-wave (km/s) = 6.51505 7.48786 7.01833
#
# Compressibility (1/GPa) = 0.02015964
#
# Stress axis : x y z
#
# Youngs Moduli (GPa) = 114.42878 81.19935 64.08448
#
# Poissons Ratio (x) = 0.29560 0.17273
# Poissons Ratio (y) = 0.41656 0.12265
# Poissons Ratio (z) = 0.30842 0.15541
#
# Static dielectric constant tensor:
#      x y z
#    x 3.758670 0.000000 0.083340 
#    y 0.000000 3.877990 0.000000 
#    z 0.083340 0.000000 3.395580 
# 
# 
# High freq. dielectric constant tensor:
#      x y z
#    x 1.784590 0.000000 0.003300 
#    y 0.000000 1.762000 0.000000 
#    z 0.003300 0.000000 1.760050 
# 
# From -- ./inp_files/292546.got.cif
#   From: 2010.06.25/outbox.cif.g09.slc.cpg/sg12_147_cif.got.tgz:292546.got - 2010.06.28 00:19:55.
