data_PCOD8086112
_publ_section_title
;
Structure prediction by ZEFSAII (Michael W. Deem and Ramdas Pophale) SiO2 
 PCOD8086112
Probable space group: C 2/M
;
_chemical_formula_sum "Si O2"
_cell_formula_units_Z 64
_cell_length_a 29.142300
_cell_length_b 9.051617
_cell_length_c 25.806098
_cell_angle_alpha 90.000000
_cell_angle_beta 148.032421
_cell_angle_gamma 90.000000
_cell_volume 3604.031009
_symmetry_space_group_name_H-M "C 2/M"
_symmetry_group_IT_number 12
_symmetry_cell_setting 'monoclinic'
loop_
_space_group_symop_operation_xyz
x,y,z
-x,y,-z
-x,-y,-z
x,-y,z
1/2+x,1/2+y,z
1/2-x,1/2+y,-z
1/2-x,1/2-y,-z
1/2+x,1/2-y,z
loop_
_atom_site_type_symbol
_atom_site_label
_atom_site_fract_x
_atom_site_fract_y
_atom_site_fract_z
Si Si1 0.159876 0.170855 0.735774
Si Si2 0.210998 0.169475 0.340762
Si Si3 0.372909 0.173899 0.564015
Si Si4 0.537526 0.330003 0.437493
Si Si5 0.771298 0.327445 0.098392
Si Si6 0.063335 0.827563 0.275708
Si Si7 0.199126 0.827324 0.659595
Si Si8 0.119924 0.326804 0.897282
O O1 0.196435 0.275154 0.815152
O O2 0.203838 0.221613 0.724031
O O3 0.057479 0.194342 0.630651
O O4 0.180382 0.000000 0.768588
O O5 0.282221 0.221011 0.451132
O O6 0.115422 0.197268 0.271998
O O7 0.222347 0.255295 0.297542
O O8 0.227283 0.000000 0.343363
O O9 0.451482 0.228249 0.602702
O O10 0.378515 0.257743 0.623570
O O11 0.381904 0.000000 0.582305
O O12 0.552501 0.500000 0.435587
O O13 0.606252 0.279978 0.546972
O O14 0.749409 0.500000 0.078809
O O15 0.845328 0.291973 0.127047
O O16 0.684188 0.239996 0.001396
O O17 0.972235 0.747814 0.183594
O O18 0.049197 0.000000 0.273605
O O19 0.211606 0.000000 0.667464
O O20 0.111041 0.500000 0.898662
#
# Coordination Sequence:
#
# PCOD8086112 Si02
#       8
#     8   8   8   8   8   8   8   8
#     4  10  19  31  50  75 102 133 169 207 247 293
#     4   9  20  35  49  69 100 136 171 209 249 290
#     4  10  19  31  47  71 103 135 170 208 245 289
#     4   9  17  30  48  71 102 137 170 205 246 292
#     4  10  21  36  54  77 104 132 161 196 244 300
#     4  11  21  33  51  74 100 132 169 205 248 299
#     4   9  18  32  50  72  99 134 174 211 246 287
#     4  10  21  37  56  78 103 129 160 200 246 296
#
# _framework density 17.757894
#
# number of rings (size 3 to 8) (size 9 to 14) (size 15 to 20)
#    0.000    2.250    0.000    3.000    0.000    7.500 
#    0.000    0.000    0.000    4.500    0.000    5.250 
#    0.000    0.000    0.000    0.000    0.000    0.000 
#
# Total GULP energy -396864.562748 kJ/mol
# GULP energy per Si atom -12402.017586 kJ/mol
# Density = 1.771748 g / cm^3
# Si number density = 17.757894 Si / 1000 Ang^3
#
#
#
# Elastic Constant Matrix: (Units=GPa)
#
#
# Indices 1 2 3 4 5 6 
#
# 1 110.9628 51.6374 52.4359 0.0000 -1.9147 0.0000
# 2 51.6374 78.2200 42.0032 0.0000 -0.0029 0.0000
# 3 52.4359 42.0032 74.5832 0.0000 -0.8660 0.0000
# 4 0.0000 0.0000 0.0000 30.8490 0.0000 -0.9179
# 5 -1.9147 -0.0029 -0.8660 0.0000 26.9862 0.0000
# 6 0.0000 0.0000 0.0000 -0.9179 0.0000 31.1074
#
#
#
# Elastic Compliance Matrix: (Units=1/GPa)
#
#
# Indices 1 2 3 4 5 6 
#
# 1 0.015371 -0.006235 -0.007285 0.000000 0.000856 0.000000
# 2 -0.006235 0.020859 -0.007371 0.000000 -0.000677 0.000000
# 3 -0.007285 -0.007371 0.022684 0.000000 0.000210 0.000000
# 4 0.000000 0.000000 0.000000 0.032444 0.000000 0.000957
# 5 0.000856 -0.000677 0.000210 0.000000 0.037123 0.000000
# 6 0.000000 0.000000 0.000000 0.000957 0.000000 0.032175
#
#
# Mechanical properties :
#
#
# Convention : Reuss Voigt Hill
#
# Bulk Modulus (GPa) = 58.37726 61.76879 60.07302
# Shear Modulus (GPa) = 24.02113 25.63447 24.82780
#
# Velocity S-wave (km/s) = 3.68190 3.80353 3.74321
# Velocity P-wave (km/s) = 7.14286 7.35857 7.25152
#
# Compressibility (1/GPa) = 0.01712996
#
# Stress axis : x y z
#
# Youngs Moduli (GPa) = 65.05735 47.94096 44.08480
#
# Poissons Ratio (x) = 0.29892 0.32117
# Poissons Ratio (y) = 0.40565 0.32497
# Poissons Ratio (z) = 0.47396 0.35339
#
# Static dielectric constant tensor:
#      x y z
#    x 3.330720 0.000000 -0.025660 
#    y 0.000000 3.325500 0.000000 
#    z -0.025660 0.000000 3.129190 
# 
# 
# High freq. dielectric constant tensor:
#      x y z
#    x 1.685180 0.000000 -0.000380 
#    y 0.000000 1.692600 0.000000 
#    z -0.000380 0.000000 1.664900 
# 
# From -- ./inp_files/353444.got.cif
#   From: 2010.06.25/outbox.cif.g09.slc.cpg/sg12_177_cif.got.tgz:353444.got - 2010.06.28 00:19:55.
