data_PCOD8086023
_publ_section_title
;
Structure prediction by ZEFSAII (Michael W. Deem and Ramdas Pophale) SiO2 
 PCOD8086023
Probable space group: C 2/M
;
_chemical_formula_sum "Si O2"
_cell_formula_units_Z 40
_cell_length_a 18.567473
_cell_length_b 9.078807
_cell_length_c 13.869890
_cell_angle_alpha 90.000000
_cell_angle_beta 110.305877
_cell_angle_gamma 90.000000
_cell_volume 2192.752085
_symmetry_space_group_name_H-M "C 2/M"
_symmetry_group_IT_number 12
_symmetry_cell_setting 'monoclinic'
loop_
_space_group_symop_operation_xyz
x,y,z
-x,y,-z
-x,-y,-z
x,-y,z
1/2+x,1/2+y,z
1/2-x,1/2+y,-z
1/2-x,1/2-y,-z
1/2+x,1/2-y,z
loop_
_atom_site_type_symbol
_atom_site_label
_atom_site_fract_x
_atom_site_fract_y
_atom_site_fract_z
Si Si1 0.687076 0.828363 0.906707
Si Si2 0.913626 0.666495 0.498357
Si Si3 0.963792 0.165742 0.698286
Si Si4 0.482983 0.829587 0.099326
Si Si5 0.363780 0.666612 0.297885
O O1 0.605817 0.801556 0.919731
O O2 0.688626 0.756155 0.801499
O O3 0.706274 0.000000 0.905292
O O4 0.750000 0.750000 0.000000
O O5 0.883258 0.500000 0.494078
O O6 0.908987 0.744276 0.600371
O O7 0.858729 0.754312 0.399209
O O8 0.000000 0.667319 0.500000
O O9 0.962403 0.240310 0.802599
O O10 0.049298 0.166890 0.697287
O O11 0.932289 0.000000 0.692329
O O12 0.504787 0.000000 0.120944
O O13 0.500000 0.772055 0.000000
O O14 0.332690 0.500000 0.292628
#
# Coordination Sequence:
#
# PCOD8086023 Si02
#       5
#     8   8   8   8   8
#     4  10  19  31  47  67  92 121 153 188 226 268
#     4   9  15  23  37  58  85 116 147 180 222 269
#     4   9  16  25  39  61  88 116 146 183 226 268
#     4   9  18  32  48  66  90 121 155 189 225 266
#     4   9  16  26  40  60  87 116 147 184 225 267
#
# _framework density 18.241916
#
# number of rings (size 3 to 8) (size 9 to 14) (size 15 to 20)
#    0.000    2.800    0.000    2.400    0.000    8.400 
#    0.000    0.000    0.000    0.000    0.000    1.400 
#    0.000    0.000    0.000    0.000    0.000    0.000 
#
# Total GULP energy -247996.862460 kJ/mol
# GULP energy per Si atom -12399.843123 kJ/mol
# Density = 1.820040 g / cm^3
# Si number density = 18.241916 Si / 1000 Ang^3
#
#
#
# Elastic Constant Matrix: (Units=GPa)
#
#
# Indices 1 2 3 4 5 6 
#
# 1 12.5870 23.0228 28.7768 0.0000 -6.3865 0.0000
# 2 23.0228 172.0041 113.3316 0.0000 -6.2983 0.0000
# 3 28.7768 113.3316 208.5572 0.0000 -15.1397 0.0000
# 4 0.0000 0.0000 0.0000 45.8274 0.0000 0.3617
# 5 -6.3865 -6.2983 -15.1397 0.0000 22.8579 0.0000
# 6 0.0000 0.0000 0.0000 0.3617 0.0000 11.3998
#
#
#
# Elastic Compliance Matrix: (Units=1/GPa)
#
#
# Indices 1 2 3 4 5 6 
#
# 1 0.138495 -0.009756 -0.011760 0.000000 0.028219 0.000000
# 2 -0.009756 0.009758 -0.004159 0.000000 -0.002792 0.000000
# 3 -0.011760 -0.004159 0.008778 0.000000 0.001382 0.000000
# 4 0.000000 0.000000 0.000000 0.021826 0.000000 -0.000692
# 5 0.028219 -0.002792 0.001382 0.000000 0.051779 0.000000
# 6 0.000000 0.000000 0.000000 -0.000692 0.000000 0.087743
#
#
# Mechanical properties :
#
#
# Convention : Reuss Voigt Hill
#
# Bulk Modulus (GPa) = 9.46244 80.37896 44.92070
# Shear Modulus (GPa) = 12.34706 31.21816 21.78261
#
# Velocity S-wave (km/s) = 2.60446 4.14132 3.45932
# Velocity P-wave (km/s) = 3.77395 8.18693 6.37450
#
# Compressibility (1/GPa) = 0.10568101
#
# Stress axis : x y z
#
# Youngs Moduli (GPa) = 7.22050 102.48301 113.92390
#
# Poissons Ratio (x) = 0.99982 1.33970
# Poissons Ratio (y) = 0.07044 0.47380
# Poissons Ratio (z) = 0.08491 0.42622
#
# Static dielectric constant tensor:
#      x y z
#    x 2.733750 0.000000 -0.153670 
#    y 0.000000 3.587560 0.000000 
#    z -0.153670 0.000000 3.625110 
# 
# 
# High freq. dielectric constant tensor:
#      x y z
#    x 1.626330 0.000000 -0.008840 
#    y 0.000000 1.723860 0.000000 
#    z -0.008840 0.000000 1.727020 
# 
# From -- ./inp_files/151679.got.cif
#   From: 2010.06.25/outbox.cif.g09.slc.cpg/sg12_76_cif.got.tgz:151679.got - 2010.06.28 00:19:55.
