data_PCOD8086957
_publ_section_title
;
Structure prediction by ZEFSAII (Michael W. Deem and Ramdas Pophale) SiO2 
 PCOD8086957
Probable space group: C 2/M
;
_chemical_formula_sum "Si O2"
_cell_formula_units_Z 56
_cell_length_a 18.660289
_cell_length_b 9.084279
_cell_length_c 22.580423
_cell_angle_alpha 90.000000
_cell_angle_beta 127.116668
_cell_angle_gamma 90.000000
_cell_volume 3052.261349
_symmetry_space_group_name_H-M "C 2/M"
_symmetry_group_IT_number 12
_symmetry_cell_setting 'monoclinic'
loop_
_space_group_symop_operation_xyz
x,y,z
-x,y,-z
-x,-y,-z
x,-y,z
1/2+x,1/2+y,z
1/2-x,1/2+y,-z
1/2-x,1/2-y,-z
1/2+x,1/2-y,z
loop_
_atom_site_type_symbol
_atom_site_label
_atom_site_fract_x
_atom_site_fract_y
_atom_site_fract_z
Si Si1 0.500561 0.831621 0.070237
Si Si2 0.622641 0.334611 0.212680
Si Si3 0.272035 0.172314 0.641175
Si Si4 0.067580 0.328364 0.365892
Si Si5 0.459644 0.337292 0.222459
Si Si6 0.843476 0.173985 0.058756
Si Si7 0.920215 0.173109 0.503371
O O1 0.593058 0.758912 0.140440
O O2 0.414997 0.742018 0.049697
O O3 0.495387 0.000000 0.090286
O O4 0.500000 0.823806 0.000000
O O5 0.649910 0.500000 0.207214
O O6 0.706475 0.257984 0.287380
O O7 0.539638 0.337115 0.215559
O O8 0.341783 0.214676 0.623976
O O9 0.173754 0.223223 0.571921
O O10 0.276941 0.000000 0.657593
O O11 0.059888 0.500000 0.372963
O O12 0.067360 0.249629 0.428087
O O13 0.979961 0.276944 0.285086
O O14 0.449294 0.500000 0.245384
O O15 0.370658 0.293653 0.140969
O O16 0.838082 0.000000 0.044522
O O17 0.750000 0.250000 0.000000
O O18 0.000000 0.223716 0.500000
O O19 0.921743 0.000000 0.515223
#
# Coordination Sequence:
#
# PCOD8086957 Si02
#       7
#     8   8   8   8   8   8   8
#     4  10  20  34  53  77 106 140 176 215 260 310
#     4   9  17  30  51  77 102 130 166 212 261 302
#     4   9  18  33  53  76  99 127 167 209 250 299
#     4  10  19  31  52  78  99 124 162 210 254 292
#     4   8  16  31  50  73 100 130 165 205 250 300
#     4  10  20  34  54  79 107 140 176 216 261 308
#     4  10  21  36  52  71 100 137 168 198 245 303
#
# _framework density 18.347052000000001
#
# number of rings (size 3 to 8) (size 9 to 14) (size 15 to 20)
#    0.000    2.571    0.000    3.000    0.000    6.571 
#    0.000    1.429    0.000    3.429    0.000    0.000 
#    0.000    0.000    0.000    0.000    0.000    0.000 
#
# Total GULP energy -347173.532219 kJ/mol
# GULP energy per Si atom -12399.054722 kJ/mol
# Density = 1.830529 g / cm^3
# Si number density = 18.347052 Si / 1000 Ang^3
#
#
#
# Elastic Constant Matrix: (Units=GPa)
#
#
# Indices 1 2 3 4 5 6 
#
# 1 63.3203 40.0804 57.0786 0.0000 9.1133 0.0000
# 2 40.0804 93.9606 71.4616 0.0000 0.2765 0.0000
# 3 57.0786 71.4616 160.4240 0.0000 11.4356 0.0000
# 4 0.0000 0.0000 0.0000 37.9294 0.0000 -0.9447
# 5 9.1133 0.2765 11.4356 0.0000 21.9254 0.0000
# 6 0.0000 0.0000 0.0000 -0.9447 0.0000 21.5712
#
#
#
# Elastic Compliance Matrix: (Units=1/GPa)
#
#
# Indices 1 2 3 4 5 6 
#
# 1 0.026516 -0.006867 -0.005812 0.000000 -0.007904 0.000000
# 2 -0.006867 0.018164 -0.006060 0.000000 0.005786 0.000000
# 3 -0.005812 -0.006060 0.011241 0.000000 -0.003371 0.000000
# 4 0.000000 0.000000 0.000000 0.026394 0.000000 0.001156
# 5 -0.007904 0.005786 -0.003371 0.000000 0.050579 0.000000
# 6 0.000000 0.000000 0.000000 0.001156 0.000000 0.046409
#
#
# Mechanical properties :
#
#
# Convention : Reuss Voigt Hill
#
# Bulk Modulus (GPa) = 54.22310 72.77180 63.49745
# Shear Modulus (GPa) = 22.42851 26.22417 24.32634
#
# Velocity S-wave (km/s) = 3.50016 3.78476 3.64524
# Velocity P-wave (km/s) = 6.77887 7.67133 7.23887
#
# Compressibility (1/GPa) = 0.01844232
#
# Stress axis : x y z
#
# Youngs Moduli (GPa) = 37.71280 55.05270 88.95770
#
# Poissons Ratio (x) = 0.37807 0.51701
# Poissons Ratio (y) = 0.25899 0.53912
# Poissons Ratio (z) = 0.21918 0.33364
#
# Static dielectric constant tensor:
#      x y z
#    x 3.093120 0.000000 0.217870 
#    y 0.000000 3.555300 0.000000 
#    z 0.217870 0.000000 3.755880 
# 
# 
# High freq. dielectric constant tensor:
#      x y z
#    x 1.670240 0.000000 0.007190 
#    y 0.000000 1.720410 0.000000 
#    z 0.007190 0.000000 1.728770 
# 
# From -- ./inp_files/320217.got.cif
#   From: 2010.06.25/outbox.cif.g09.slc.cpg/sg12_161_cif.got.tgz:320217.got - 2010.06.28 00:19:55.
