data_PCOD8086776
_publ_section_title
;
Structure prediction by ZEFSAII (Michael W. Deem and Ramdas Pophale) SiO2 
 PCOD8086776
Probable space group: C 2/M
;
_chemical_formula_sum "Si O2"
_cell_formula_units_Z 64
_cell_length_a 29.888864
_cell_length_b 8.644935
_cell_length_c 30.647078
_cell_angle_alpha 90.000000
_cell_angle_beta 28.487108
_cell_angle_gamma 90.000000
_cell_volume 3776.966134
_symmetry_space_group_name_H-M "C 2/M"
_symmetry_group_IT_number 12
_symmetry_cell_setting 'monoclinic'
loop_
_space_group_symop_operation_xyz
x,y,z
-x,y,-z
-x,-y,-z
x,-y,z
1/2+x,1/2+y,z
1/2-x,1/2+y,-z
1/2-x,1/2-y,-z
1/2+x,1/2-y,z
loop_
_atom_site_type_symbol
_atom_site_label
_atom_site_fract_x
_atom_site_fract_y
_atom_site_fract_z
Si Si1 0.325327 0.320912 0.713199
Si Si2 0.876327 0.180371 0.247855
Si Si3 0.132223 0.820769 0.567116
Si Si4 0.342690 0.820149 0.366083
Si Si5 0.974144 0.318910 0.086166
Si Si6 0.136797 0.180823 0.896908
Si Si7 0.677807 0.820191 0.378018
Si Si8 0.969111 0.178983 0.433019
O O1 0.299244 0.500000 0.739485
O O2 0.246039 0.222957 0.806061
O O3 0.333377 0.279195 0.655730
O O4 0.422194 0.281795 0.654179
O O5 0.890561 0.226424 0.285864
O O6 0.953254 0.273036 0.153788
O O7 0.772462 0.229464 0.321570
O O8 0.894557 0.000000 0.226125
O O9 0.233954 0.770028 0.462075
O O10 0.105772 0.723685 0.632880
O O11 0.056018 0.782887 0.595481
O O12 0.133471 0.000000 0.579089
O O13 0.354471 0.000000 0.346279
O O14 0.960557 0.500000 0.090267
O O15 0.900811 0.227829 0.118532
O O16 0.080095 0.271081 0.983116
O O17 0.122154 0.000000 0.916503
O O18 0.590108 0.786396 0.484161
O O19 0.679217 0.000000 0.364147
O O20 0.946634 0.000000 0.463208
#
# Coordination Sequence:
#
# PCOD8086776 Si02
#       8
#     8   8   8   8   8   8   8   8
#     4  11  22  35  52  72  99 137 179 215 250 296
#     4  11  21  33  50  75 105 137 169 205 253 304
#     4   9  18  33  50  70  99 131 167 210 257 300
#     4  10  19  31  51  74  99 130 169 210 254 303
#     4  11  21  34  54  76 100 131 168 209 253 303
#     4  11  21  35  52  73 102 133 167 210 256 301
#     4  11  22  33  48  71 103 138 175 213 250 296
#     4  10  21  36  52  71  99 138 178 214 252 299
#
# _framework density 16.944818000000001
#
# number of rings (size 3 to 8) (size 9 to 14) (size 15 to 20)
#    0.000    1.500    2.500    4.875    0.000    4.500 
#    0.000    0.000    0.000    0.000    0.000    0.875 
#    0.000    0.000    0.000    0.000    0.000    0.000 
#
# Total GULP energy -396971.220684 kJ/mol
# GULP energy per Si atom -12405.350646 kJ/mol
# Density = 1.690625 g / cm^3
# Si number density = 16.944818 Si / 1000 Ang^3
#
#
#
# Elastic Constant Matrix: (Units=GPa)
#
#
# Indices 1 2 3 4 5 6 
#
# 1 78.6240 19.4210 46.9847 -0.0046 6.7476 0.0005
# 2 19.4210 65.9244 28.9861 -0.0212 3.1186 -0.0086
# 3 46.9847 28.9861 96.4770 -0.0150 8.7709 -0.0060
# 4 -0.0046 -0.0212 -0.0150 29.7792 0.0194 4.6409
# 5 6.7476 3.1186 8.7709 0.0194 23.1376 0.0059
# 6 0.0005 -0.0086 -0.0060 4.6409 0.0059 23.2167
#
#
#
# Elastic Compliance Matrix: (Units=1/GPa)
#
#
# Indices 1 2 3 4 5 6 
#
# 1 0.018187 -0.001669 -0.008175 -0.000001 -0.001980 -0.000002
# 2 -0.001669 0.017634 -0.004467 0.000010 -0.000197 0.000004
# 3 -0.008175 -0.004467 0.015968 0.000005 -0.003067 0.000002
# 4 -0.000001 0.000010 0.000005 0.034660 -0.000030 -0.006928
# 5 -0.001980 -0.000197 -0.003067 -0.000030 0.044986 -0.000006
# 6 -0.000002 0.000004 0.000002 -0.006928 -0.000006 0.044457
#
#
# Mechanical properties :
#
#
# Convention : Reuss Voigt Hill
#
# Bulk Modulus (GPa) = 43.16999 47.97877 45.57438
# Shear Modulus (GPa) = 23.55853 24.93560 24.24707
#
# Velocity S-wave (km/s) = 3.73273 3.84028 3.78688
# Velocity P-wave (km/s) = 6.64152 6.93108 6.78784
#
# Compressibility (1/GPa) = 0.02316424
#
# Stress axis : x y z
#
# Youngs Moduli (GPa) = 54.98570 56.70804 62.62696
#
# Poissons Ratio (x) = 0.09467 0.51200
# Poissons Ratio (y) = 0.09179 0.27977
# Poissons Ratio (z) = 0.44953 0.25333
#
# Static dielectric constant tensor:
#      x y z
#    x 3.065220 -0.000030 0.043570 
#    y -0.000030 3.215080 0.000060 
#    z 0.043570 0.000060 3.125670 
# 
# 
# High freq. dielectric constant tensor:
#      x y z
#    x 1.630380 0.000000 0.012390 
#    y 0.000000 1.666820 0.000010 
#    z 0.012390 0.000010 1.641390 
# 
# From -- ./inp_files/384552.got.cif
#   From: 2010.06.25/outbox.cif.g09.slc.cpg/sg12_193_cif.got.tgz:384552.got - 2010.06.28 00:19:55.
