data_PCOD8086406
_publ_section_title
;
Structure prediction by ZEFSAII (Michael W. Deem and Ramdas Pophale) SiO2 
 PCOD8086406
Probable space group: C 2/M
;
_chemical_formula_sum "Si O2"
_cell_formula_units_Z 64
_cell_length_a 20.858428
_cell_length_b 8.884824
_cell_length_c 18.730472
_cell_angle_alpha 90.000000
_cell_angle_beta 97.470216
_cell_angle_gamma 90.000000
_cell_volume 3441.734408
_symmetry_space_group_name_H-M "C 2/M"
_symmetry_group_IT_number 12
_symmetry_cell_setting 'monoclinic'
loop_
_space_group_symop_operation_xyz
x,y,z
-x,y,-z
-x,-y,-z
x,-y,z
1/2+x,1/2+y,z
1/2-x,1/2+y,-z
1/2-x,1/2-y,-z
1/2+x,1/2-y,z
loop_
_atom_site_type_symbol
_atom_site_label
_atom_site_fract_x
_atom_site_fract_y
_atom_site_fract_z
Si Si1 0.808638 0.174617 0.414186
Si Si2 0.191906 0.178752 0.034433
Si Si3 0.555373 0.678603 0.956081
Si Si4 0.293393 0.678854 0.802153
Si Si5 0.905885 0.176140 0.718295
Si Si6 0.324220 0.326245 0.575907
Si Si7 0.957958 0.821076 0.208409
Si Si8 0.342674 0.178061 0.278923
O O1 0.734240 0.224618 0.404934
O O2 0.841231 0.207733 0.496024
O O3 0.849040 0.266480 0.361457
O O4 0.811874 0.000000 0.395024
O O5 0.196237 0.236197 0.116169
O O6 0.197013 0.000000 0.030504
O O7 0.250000 0.250000 0.000000
O O8 0.124904 0.238942 0.991713
O O9 0.554235 0.500000 0.960675
O O10 0.542225 0.732352 0.873700
O O11 0.500000 0.745557 0.000000
O O12 0.294026 0.500000 0.798483
O O13 0.351177 0.746341 0.762196
O O14 0.225100 0.738313 0.762545
O O15 0.887103 0.210055 0.633169
O O16 0.976303 0.242889 0.746141
O O17 0.909160 0.000000 0.734276
O O18 0.302756 0.500000 0.582794
O O19 0.898744 0.746940 0.239877
O O20 0.951770 0.000000 0.213925
O O21 0.347923 0.000000 0.277419
#
# Coordination Sequence:
#
# PCOD8086406 Si02
#       8
#     8   8   8   8   8   8   8   8
#     4  10  19  31  52  81 107 132 168 214 257 302
#     4  10  19  31  49  73 101 130 164 208 254 301
#     4   9  17  31  52  78 103 131 169 214 260 302
#     4   9  17  30  52  75  94 129 176 210 245 302
#     4   9  16  31  54  77  99 130 173 212 246 297
#     4   9  17  32  54  79 106 135 169 208 255 306
#     4  10  20  33  53  78 105 135 172 217 257 302
#     4  11  21  35  53  73 105 143 175 210 256 312
#
# _framework density 18.595276999999999
#
# number of rings (size 3 to 8) (size 9 to 14) (size 15 to 20)
#    0.000    2.375    1.250    2.250    0.000    3.500 
#    0.000    1.875    0.000    6.750    0.000    0.000 
#    0.000    0.000    0.000    0.000    0.000    0.000 
#
# Total GULP energy -396785.369562 kJ/mol
# GULP energy per Si atom -12399.542799 kJ/mol
# Density = 1.855295 g / cm^3
# Si number density = 18.595277 Si / 1000 Ang^3
#
#
#
# Elastic Constant Matrix: (Units=GPa)
#
#
# Indices 1 2 3 4 5 6 
#
# 1 152.4573 31.4042 81.8506 0.0000 3.7329 0.0000
# 2 31.4042 29.9576 36.9309 0.0000 -2.9327 0.0000
# 3 81.8506 36.9309 158.2822 0.0000 7.1530 0.0000
# 4 0.0000 0.0000 0.0000 19.4203 0.0000 -6.4720
# 5 3.7329 -2.9327 7.1530 0.0000 32.6663 0.0000
# 6 0.0000 0.0000 0.0000 -6.4720 0.0000 25.1333
#
#
#
# Elastic Compliance Matrix: (Units=1/GPa)
#
#
# Indices 1 2 3 4 5 6 
#
# 1 0.009727 -0.005789 -0.003642 0.000000 -0.000834 0.000000
# 2 -0.005789 0.051787 -0.009423 0.000000 0.007374 0.000000
# 3 -0.003642 -0.009423 0.010523 0.000000 -0.002734 0.000000
# 4 0.000000 0.000000 0.000000 0.056326 0.000000 0.014504
# 5 -0.000834 0.007374 -0.002734 0.000000 0.031969 0.000000
# 6 0.000000 0.000000 0.000000 0.014504 0.000000 0.043523
#
#
# Mechanical properties :
#
#
# Convention : Reuss Voigt Hill
#
# Bulk Modulus (GPa) = 29.12876 71.22985 50.17930
# Shear Modulus (GPa) = 19.76237 28.14473 23.95355
#
# Velocity S-wave (km/s) = 3.26354 3.89465 3.59298
# Velocity P-wave (km/s) = 5.46805 7.65590 6.65253
#
# Compressibility (1/GPa) = 0.03433033
#
# Stress axis : x y z
#
# Youngs Moduli (GPa) = 102.80360 19.30978 95.02882
#
# Poissons Ratio (x) = 0.11179 0.34607
# Poissons Ratio (y) = 0.59515 0.89543
# Poissons Ratio (z) = 0.37438 0.18195
#
# Static dielectric constant tensor:
#      x y z
#    x 3.477180 0.000000 0.141010 
#    y 0.000000 3.049090 0.000000 
#    z 0.141010 0.000000 3.816900 
# 
# 
# High freq. dielectric constant tensor:
#      x y z
#    x 1.716340 0.000000 0.003510 
#    y 0.000000 1.680490 0.000000 
#    z 0.003510 0.000000 1.741080 
# 
# From -- ./inp_files/281393.got.cif
#   From: 2010.06.25/outbox.cif.g09.slc.cpg/sg12_141_cif.got.tgz:281393.got - 2010.06.28 00:19:55.
