data_PCOD8086819
_publ_section_title
;
Structure prediction by ZEFSAII (Michael W. Deem and Ramdas Pophale) SiO2 
 PCOD8086819
Probable space group: C 2/M
;
_chemical_formula_sum "Si O2"
_cell_formula_units_Z 56
_cell_length_a 21.449035
_cell_length_b 8.659922
_cell_length_c 15.771733
_cell_angle_alpha 90.000000
_cell_angle_beta 90.315077
_cell_angle_gamma 90.000000
_cell_volume 2929.507322
_symmetry_space_group_name_H-M "C 2/M"
_symmetry_group_IT_number 12
_symmetry_cell_setting 'monoclinic'
loop_
_space_group_symop_operation_xyz
x,y,z
-x,y,-z
-x,-y,-z
x,-y,z
1/2+x,1/2+y,z
1/2-x,1/2+y,-z
1/2-x,1/2-y,-z
1/2+x,1/2-y,z
loop_
_atom_site_type_symbol
_atom_site_label
_atom_site_fract_x
_atom_site_fract_y
_atom_site_fract_z
Si Si1 0.536708 0.677620 0.920073
Si Si2 0.296058 0.822114 0.272987
Si Si3 0.061402 0.676360 0.747396
Si Si4 0.240334 0.322443 0.120872
Si Si5 0.054234 0.183467 0.563819
Si Si6 0.154370 0.672852 0.979611
Si Si7 0.193046 0.178917 0.550012
O O1 0.518582 0.500000 0.909040
O O2 0.524088 0.757202 0.828754
O O3 0.607812 0.695868 0.948757
O O4 0.500000 0.752855 0.000000
O O5 0.364810 0.806448 0.231782
O O6 0.241887 0.748337 0.214795
O O7 0.293153 0.713975 0.353424
O O8 0.281087 0.000000 0.295239
O O9 0.042014 0.500000 0.735961
O O10 0.042080 0.759223 0.659706
O O11 0.264765 0.500000 0.119731
O O12 0.281773 0.202143 0.068614
O O13 0.170528 0.315636 0.080554
O O14 0.122361 0.242043 0.529866
O O15 0.000000 0.245129 0.500000
O O16 0.053504 0.000000 0.567442
O O17 0.129540 0.500000 0.957243
O O18 0.250000 0.250000 0.500000
O O19 0.194143 0.000000 0.530685
#
# Coordination Sequence:
#
# PCOD8086819 Si02
#       7
#     8   8   8   8   8   8   8
#     4  11  23  37  54  76 105 145 189 231 276 328
#     4  10  19  32  53  80 108 139 180 223 269 324
#     4  10  20  34  55  82 109 140 182 230 277 328
#     4  10  19  31  51  77 105 135 171 216 263 313
#     4   9  19  37  61  86 112 146 187 230 279 337
#     4  10  20  33  50  75 104 136 173 216 266 314
#     4  10  20  35  56  82 113 146 181 225 279 334
#
# _framework density 19.115841
#
# number of rings (size 3 to 8) (size 9 to 14) (size 15 to 20)
#    0.000    2.000    1.429    2.571    0.000    4.857 
#    0.000    1.429    0.000    1.714    0.000    0.000 
#    0.000    0.000    0.000    0.000    0.000    0.000 
#
# Total GULP energy -346933.651645 kJ/mol
# GULP energy per Si atom -12390.487559 kJ/mol
# Density = 1.907233 g / cm^3
# Si number density = 19.115841 Si / 1000 Ang^3
#
#
#
# Elastic Constant Matrix: (Units=GPa)
#
#
# Indices 1 2 3 4 5 6 
#
# 1 70.3808 19.4347 61.0864 0.0000 2.4611 0.0000
# 2 19.4347 50.5578 26.1609 0.0000 1.0814 0.0000
# 3 61.0864 26.1609 115.4124 0.0000 3.6274 0.0000
# 4 0.0000 0.0000 0.0000 32.2969 0.0000 -0.3697
# 5 2.4611 1.0814 3.6274 0.0000 36.4341 0.0000
# 6 0.0000 0.0000 0.0000 -0.3697 0.0000 21.2990
#
#
#
# Elastic Compliance Matrix: (Units=1/GPa)
#
#
# Indices 1 2 3 4 5 6 
#
# 1 0.026780 -0.003351 -0.013403 0.000000 -0.000375 0.000000
# 2 -0.003351 0.022828 -0.003397 0.000000 -0.000113 0.000000
# 3 -0.013403 -0.003397 0.016549 0.000000 -0.000641 0.000000
# 4 0.000000 0.000000 0.000000 0.030969 0.000000 0.000538
# 5 -0.000375 -0.000113 -0.000641 0.000000 0.027539 0.000000
# 6 0.000000 0.000000 0.000000 0.000538 0.000000 0.046960
#
#
# Mechanical properties :
#
#
# Convention : Reuss Voigt Hill
#
# Bulk Modulus (GPa) = 38.67856 49.96832 44.32344
# Shear Modulus (GPa) = 22.67115 26.65060 24.66087
#
# Velocity S-wave (km/s) = 3.44755 3.73790 3.59566
# Velocity P-wave (km/s) = 6.01042 6.69520 6.36203
#
# Compressibility (1/GPa) = 0.02585411
#
# Stress axis : x y z
#
# Youngs Moduli (GPa) = 37.34165 43.80627 60.42753
#
# Poissons Ratio (x) = 0.14680 0.80990
# Poissons Ratio (y) = 0.12513 0.20529
# Poissons Ratio (z) = 0.50048 0.14882
#
# Static dielectric constant tensor:
#      x y z
#    x 3.495730 0.000000 0.306170 
#    y 0.000000 3.559340 0.000000 
#    z 0.306170 0.000000 3.316940 
# 
# 
# High freq. dielectric constant tensor:
#      x y z
#    x 1.709510 0.000000 0.015830 
#    y 0.000000 1.749390 0.000000 
#    z 0.015830 0.000000 1.747810 
# 
# From -- ./inp_files/230850.got.cif
#   From: 2010.06.25/outbox.cif.g09.slc.cpg/sg12_116_cif.got.tgz:230850.got - 2010.06.28 00:19:55.
