data_PCOD8086593
_publ_section_title
;
Structure prediction by ZEFSAII (Michael W. Deem and Ramdas Pophale) SiO2 
 PCOD8086593
Probable space group: C 2/M
;
_chemical_formula_sum "Si O2"
_cell_formula_units_Z 40
_cell_length_a 26.657450
_cell_length_b 9.908925
_cell_length_c 10.559583
_cell_angle_alpha 90.000000
_cell_angle_beta 51.579527
_cell_angle_gamma 90.000000
_cell_volume 2185.320262
_symmetry_space_group_name_H-M "C 2/M"
_symmetry_group_IT_number 12
_symmetry_cell_setting 'monoclinic'
loop_
_space_group_symop_operation_xyz
x,y,z
-x,y,-z
-x,-y,-z
x,-y,z
1/2+x,1/2+y,z
1/2-x,1/2+y,-z
1/2-x,1/2-y,-z
1/2+x,1/2-y,z
loop_
_atom_site_type_symbol
_atom_site_label
_atom_site_fract_x
_atom_site_fract_y
_atom_site_fract_z
Si Si1 0.091360 0.351707 0.532409
Si Si2 0.256569 0.853680 0.154989
Si Si3 0.143089 0.738324 0.191770
Si Si4 0.985558 0.147879 0.670379
Si Si5 0.770927 0.659424 0.584333
O O1 0.063639 0.500000 0.603275
O O2 0.110602 0.348299 0.354292
O O3 0.152812 0.324193 0.523578
O O4 0.035940 0.247356 0.658680
O O5 0.190193 0.848314 0.180826
O O6 0.262713 0.726949 0.240341
O O7 0.257083 0.000000 0.224490
O O8 0.316022 0.855296 0.965470
O O9 0.087771 0.807773 0.194464
O O10 0.000000 0.143692 0.500000
O O11 0.995222 0.000000 0.715718
O O12 0.751606 0.500000 0.604264
O O13 0.750000 0.750000 0.500000
#
# Coordination Sequence:
#
# PCOD8086593 Si02
#       5
#     8   8   8   8   8
#     4   9  18  31  48  72  99 127 161 198 236 283
#     4  10  19  31  50  74 101 132 164 200 242 287
#     4   9  18  29  47  74 105 133 160 193 236 289
#     4   9  17  28  44  68  99 133 163 192 231 281
#     4  10  21  36  53  72  95 125 163 205 247 290
#
# _framework density 18.303953
#
# number of rings (size 3 to 8) (size 9 to 14) (size 15 to 20)
#    0.000    2.600    0.000    1.800    0.000   15.600 
#    0.000    0.000    0.000    1.200    0.000    7.000 
#    0.000    0.000    0.000    0.000    0.000    0.000 
#
# Total GULP energy -247864.860193 kJ/mol
# GULP energy per Si atom -12393.243010 kJ/mol
# Density = 1.826229 g / cm^3
# Si number density = 18.303953 Si / 1000 Ang^3
#
#
#
# Elastic Constant Matrix: (Units=GPa)
#
#
# Indices 1 2 3 4 5 6 
#
# 1 92.0722 70.8056 37.9359 0.0000 -11.6722 0.0000
# 2 70.8056 170.0572 34.8753 0.0000 -8.5194 0.0000
# 3 37.9359 34.8753 51.8756 0.0000 -13.4670 0.0000
# 4 0.0000 0.0000 0.0000 11.4508 0.0000 4.7913
# 5 -11.6722 -8.5194 -13.4670 0.0000 25.5173 0.0000
# 6 0.0000 0.0000 0.0000 4.7913 0.0000 24.7867
#
#
#
# Elastic Compliance Matrix: (Units=1/GPa)
#
#
# Indices 1 2 3 4 5 6 
#
# 1 0.019939 -0.006168 -0.009967 0.000000 0.001801 0.000000
# 2 -0.006168 0.008729 -0.001546 0.000000 -0.000723 0.000000
# 3 -0.009967 -0.001546 0.030461 0.000000 0.011001 0.000000
# 4 0.000000 0.000000 0.000000 0.095015 0.000000 -0.018366
# 5 0.001801 -0.000723 0.011001 0.000000 0.045577 0.000000
# 6 0.000000 0.000000 0.000000 -0.018366 0.000000 0.043894
#
#
# Mechanical properties :
#
#
# Convention : Reuss Voigt Hill
#
# Bulk Modulus (GPa) = 42.07376 66.80429 54.43903
# Shear Modulus (GPa) = 17.42770 23.71019 20.56894
#
# Velocity S-wave (km/s) = 3.08900 3.60301 3.35586
# Velocity P-wave (km/s) = 5.97985 7.34067 6.69492
#
# Compressibility (1/GPa) = 0.02376778
#
# Stress axis : x y z
#
# Youngs Moduli (GPa) = 50.15260 114.55856 32.82912
#
# Poissons Ratio (x) = 0.70655 0.32721
# Poissons Ratio (y) = 0.30932 0.05075
# Poissons Ratio (z) = 0.49988 0.17709
#
# Static dielectric constant tensor:
#      x y z
#    x 3.311530 0.000000 -0.269190 
#    y 0.000000 3.570660 0.000000 
#    z -0.269190 0.000000 3.108710 
# 
# 
# High freq. dielectric constant tensor:
#      x y z
#    x 1.690490 0.000000 -0.028060 
#    y 0.000000 1.723430 0.000000 
#    z -0.028060 0.000000 1.672060 
# 
# From -- ./inp_files/162520.got.cif
#   From: 2010.06.25/outbox.cif.g09.slc.cpg/sg12_82_cif.got.tgz:162520.got - 2010.06.28 00:19:55.
