data_PCOD8086429
_publ_section_title
;
Structure prediction by ZEFSAII (Michael W. Deem and Ramdas Pophale) SiO2 
 PCOD8086429
Probable space group: C 2/M
;
_chemical_formula_sum "Si O2"
_cell_formula_units_Z 32
_cell_length_a 21.726955
_cell_length_b 18.450063
_cell_length_c 14.453653
_cell_angle_alpha 90.000000
_cell_angle_beta 159.573541
_cell_angle_gamma 90.000000
_cell_volume 2022.114749
_symmetry_space_group_name_H-M "C 2/M"
_symmetry_group_IT_number 12
_symmetry_cell_setting 'monoclinic'
loop_
_space_group_symop_operation_xyz
x,y,z
-x,y,-z
-x,-y,-z
x,-y,z
1/2+x,1/2+y,z
1/2-x,1/2+y,-z
1/2-x,1/2-y,-z
1/2+x,1/2-y,z
loop_
_atom_site_type_symbol
_atom_site_label
_atom_site_fract_x
_atom_site_fract_y
_atom_site_fract_z
Si Si1 0.664503 0.828564 0.785829
Si Si2 0.455434 0.416266 0.270468
Si Si3 0.735791 0.171273 0.087850
Si Si4 0.648752 0.916240 0.138346
O O1 0.500000 0.864437 0.500000
O O2 0.613518 0.819446 0.823258
O O3 0.703024 0.750737 0.793078
O O4 0.838987 0.879750 0.023857
O O5 0.404607 0.500000 0.204820
O O6 0.662867 0.404296 0.546294
O O7 0.404510 0.378117 0.296369
O O8 0.628324 0.132320 0.017914
O O9 0.623136 0.000000 0.073862
O O10 0.500000 0.890544 0.000000
#
# Coordination Sequence:
#
# PCOD8086429 Si02
#       4
#     8   8   8   8
#     4   9  18  30  49  71  97 121 157 197 235 274
#     4   9  17  29  48  71  93 121 158 194 234 277
#     4   9  18  30  52  70  94 124 158 195 238 276
#     4  10  19  31  49  73  98 122 155 200 239 273
#
# _framework density 15.825017000000001
#
# number of rings (size 3 to 8) (size 9 to 14) (size 15 to 20)
#    1.500    1.250    0.000    3.000    0.000    2.500 
#    0.000    1.250    0.000    0.000    0.000    5.250 
#    0.000    0.000    0.000    0.000    0.000    0.000 
#
# Total GULP energy -198235.146159 kJ/mol
# GULP energy per Si atom -12389.696635 kJ/mol
# Density = 1.578900 g / cm^3
# Si number density = 15.825017 Si / 1000 Ang^3
#
#
#
# Elastic Constant Matrix: (Units=GPa)
#
#
# Indices 1 2 3 4 5 6 
#
# 1 80.7657 36.2180 47.8736 0.0000 14.2067 0.0000
# 2 36.2180 101.5120 39.0433 0.0000 9.3214 0.0000
# 3 47.8736 39.0433 89.1718 0.0000 -2.5998 0.0000
# 4 0.0000 0.0000 0.0000 10.3313 0.0000 1.2192
# 5 14.2067 9.3214 -2.5998 0.0000 27.0129 0.0000
# 6 0.0000 0.0000 0.0000 1.2192 0.0000 25.3000
#
#
#
# Elastic Compliance Matrix: (Units=1/GPa)
#
#
# Indices 1 2 3 4 5 6 
#
# 1 0.022235 -0.002545 -0.011170 0.000000 -0.011891 0.000000
# 2 -0.002545 0.012736 -0.004311 0.000000 -0.003471 0.000000
# 3 -0.011170 -0.004311 0.019368 0.000000 0.009226 0.000000
# 4 0.000000 0.000000 0.000000 0.097347 0.000000 -0.004691
# 5 -0.011891 -0.003471 0.009226 0.000000 0.045359 0.000000
# 6 0.000000 0.000000 0.000000 -0.004691 0.000000 0.039752
#
#
# Mechanical properties :
#
#
# Convention : Reuss Voigt Hill
#
# Bulk Modulus (GPa) = 54.68453 57.52436 56.10445
# Shear Modulus (GPa) = 17.92475 22.41646 20.17061
#
# Velocity S-wave (km/s) = 3.36919 3.76775 3.57403
# Velocity P-wave (km/s) = 7.05450 7.44024 7.24994
#
# Compressibility (1/GPa) = 0.01828671
#
# Stress axis : x y z
#
# Youngs Moduli (GPa) = 44.97359 78.51733 51.63275
#
# Poissons Ratio (x) = 0.19985 0.57672
# Poissons Ratio (y) = 0.11447 0.22259
# Poissons Ratio (z) = 0.50234 0.33850
#
# Static dielectric constant tensor:
#      x y z
#    x 2.673800 0.000000 -0.062470 
#    y 0.000000 3.012640 0.000000 
#    z -0.062470 0.000000 2.882980 
# 
# 
# High freq. dielectric constant tensor:
#      x y z
#    x 1.568670 0.000000 -0.012990 
#    y 0.000000 1.614470 0.000000 
#    z -0.012990 0.000000 1.597880 
# 
# From -- ./inp_files/37549.got.cif
#   From: 2010.06.25/outbox.cif.g09.slc.cpg/sg12_19_cif.got.tgz:37549.got - 2010.06.28 00:19:55.
