data_PCOD8086421
_publ_section_title
;
Structure prediction by ZEFSAII (Michael W. Deem and Ramdas Pophale) SiO2 
 PCOD8086421
Probable space group: C 2/M
;
_chemical_formula_sum "Si O2"
_cell_formula_units_Z 48
_cell_length_a 27.572053
_cell_length_b 8.810184
_cell_length_c 20.843033
_cell_angle_alpha 90.000000
_cell_angle_beta 148.225463
_cell_angle_gamma 90.000000
_cell_volume 2666.108031
_symmetry_space_group_name_H-M "C 2/M"
_symmetry_group_IT_number 12
_symmetry_cell_setting 'monoclinic'
loop_
_space_group_symop_operation_xyz
x,y,z
-x,y,-z
-x,-y,-z
x,-y,z
1/2+x,1/2+y,z
1/2-x,1/2+y,-z
1/2-x,1/2-y,-z
1/2+x,1/2-y,z
loop_
_atom_site_type_symbol
_atom_site_label
_atom_site_fract_x
_atom_site_fract_y
_atom_site_fract_z
Si Si1 0.315767 0.674320 0.886832
Si Si2 0.969253 0.825589 0.863361
Si Si3 0.524465 0.822284 0.261476
Si Si4 0.185562 0.320293 0.980849
Si Si5 0.697506 0.678034 0.500990
Si Si6 0.188955 0.678769 0.246215
O O1 0.284157 0.500000 0.853711
O O2 0.283357 0.754687 0.915660
O O3 0.268942 0.757815 0.773277
O O4 0.424599 0.691759 0.000168
O O5 0.942972 0.723280 0.772888
O O6 0.909000 0.762036 0.854065
O O7 0.943880 0.000000 0.820447
O O8 0.592099 0.737297 0.386929
O O9 0.536924 0.000000 0.284471
O O10 0.418980 0.771217 0.153749
O O11 0.195938 0.500000 0.994318
O O12 0.250000 0.250000 0.000000
O O13 0.698363 0.500000 0.491747
O O14 0.750000 0.750000 0.500000
O O15 0.743550 0.724296 0.619997
O O16 0.173689 0.500000 0.223634
#
# Coordination Sequence:
#
# PCOD8086421 Si02
#       6
#     8   8   8   8   8   8
#     4  10  21  35  52  77 106 138 178 220 268 322
#     4  10  19  31  49  73 104 142 180 218 261 313
#     4  10  20  34  53  79 108 140 180 222 265 314
#     4  10  21  38  61  85 108 135 172 222 276 326
#     4  11  22  34  51  75 108 149 188 222 259 311
#     4  11  22  33  48  73 107 146 182 218 263 314
#
# _framework density 18.003771
#
# number of rings (size 3 to 8) (size 9 to 14) (size 15 to 20)
#    0.000    1.667    1.667    3.500    0.000    8.000 
#    0.000    0.000    0.000    1.000    0.000    7.000 
#    0.000    0.000    0.000    0.000    0.000    0.000 
#
# Total GULP energy -297648.217483 kJ/mol
# GULP energy per Si atom -12402.009062 kJ/mol
# Density = 1.796279 g / cm^3
# Si number density = 18.003771 Si / 1000 Ang^3
#
#
#
# Elastic Constant Matrix: (Units=GPa)
#
#
# Indices 1 2 3 4 5 6 
#
# 1 130.2138 50.5971 57.0422 0.0000 -15.3944 0.0000
# 2 50.5971 88.9704 46.0373 0.0000 -11.8655 0.0000
# 3 57.0422 46.0373 79.1428 0.0000 -18.6892 0.0000
# 4 0.0000 0.0000 0.0000 28.9861 0.0000 -3.1144
# 5 -15.3944 -11.8655 -18.6892 0.0000 23.7577 0.0000
# 6 0.0000 0.0000 0.0000 -3.1144 0.0000 33.0341
#
#
#
# Elastic Compliance Matrix: (Units=1/GPa)
#
#
# Indices 1 2 3 4 5 6 
#
# 1 0.011893 -0.003314 -0.006405 0.000000 0.001013 0.000000
# 2 -0.003314 0.017016 -0.007381 0.000000 0.000545 0.000000
# 3 -0.006405 -0.007381 0.024188 0.000000 0.011191 0.000000
# 4 0.000000 0.000000 0.000000 0.034852 0.000000 0.003286
# 5 0.001013 0.000545 0.011191 0.000000 0.051824 0.000000
# 6 0.000000 0.000000 0.000000 0.003286 0.000000 0.030581
#
#
# Mechanical properties :
#
#
# Convention : Reuss Voigt Hill
#
# Bulk Modulus (GPa) = 52.91822 67.29779 60.10801
# Shear Modulus (GPa) = 23.71310 26.79895 25.25602
#
# Velocity S-wave (km/s) = 3.63315 3.86232 3.74949
# Velocity P-wave (km/s) = 6.85976 7.57304 7.22521
#
# Compressibility (1/GPa) = 0.01889708
#
# Stress axis : x y z
#
# Youngs Moduli (GPa) = 84.08340 58.76670 41.34297
#
# Poissons Ratio (x) = 0.19477 0.26479
# Poissons Ratio (y) = 0.27868 0.30515
# Poissons Ratio (z) = 0.53854 0.43376
#
# Static dielectric constant tensor:
#      x y z
#    x 3.166840 0.000000 -0.155710 
#    y 0.000000 3.443690 0.000000 
#    z -0.155710 0.000000 3.349650 
# 
# 
# High freq. dielectric constant tensor:
#      x y z
#    x 1.674370 0.000000 -0.018210 
#    y 0.000000 1.714960 0.000000 
#    z -0.018210 0.000000 1.688020 
# 
# From -- ./inp_files/323486.got.cif
#   From: 2010.06.25/outbox.cif.g09.slc.cpg/sg12_162_cif.got.tgz:323486.got - 2010.06.28 00:19:55.
