data_PCOD8086343
_publ_section_title
;
Structure prediction by ZEFSAII (Michael W. Deem and Ramdas Pophale) SiO2 
 PCOD8086343
Probable space group: C 2/M
;
_chemical_formula_sum "Si O2"
_cell_formula_units_Z 56
_cell_length_a 19.132922
_cell_length_b 9.327761
_cell_length_c 23.710217
_cell_angle_alpha 90.000000
_cell_angle_beta 46.900839
_cell_angle_gamma 90.000000
_cell_volume 3089.723260
_symmetry_space_group_name_H-M "C 2/M"
_symmetry_group_IT_number 12
_symmetry_cell_setting 'monoclinic'
loop_
_space_group_symop_operation_xyz
x,y,z
-x,y,-z
-x,-y,-z
x,-y,z
1/2+x,1/2+y,z
1/2-x,1/2+y,-z
1/2-x,1/2-y,-z
1/2+x,1/2-y,z
loop_
_atom_site_type_symbol
_atom_site_label
_atom_site_fract_x
_atom_site_fract_y
_atom_site_fract_z
Si Si1 0.586649 0.659829 0.908684
Si Si2 0.703853 0.833188 0.925919
Si Si3 0.387944 0.159986 0.824605
Si Si4 0.547902 0.167880 0.650726
Si Si5 0.932510 0.667222 0.487847
Si Si6 0.726750 0.330548 0.570143
Si Si7 0.032625 0.659832 0.100876
O O1 0.623101 0.500000 0.875344
O O2 0.672915 0.751780 0.886172
O O3 0.551126 0.732033 0.870651
O O4 0.500000 0.659710 0.000000
O O5 0.808689 0.777055 0.882513
O O6 0.708413 0.000000 0.910187
O O7 0.634205 0.797168 0.016555
O O8 0.445071 0.195277 0.735961
O O9 0.462564 0.166355 0.834770
O O10 0.342382 0.000000 0.846395
O O11 0.540478 0.224083 0.589981
O O12 0.626726 0.257458 0.644136
O O13 0.576515 0.000000 0.636883
O O14 0.954272 0.500000 0.475958
O O15 0.818224 0.696087 0.561604
O O16 0.000000 0.737987 0.500000
O O17 0.712454 0.500000 0.568414
O O18 0.750000 0.250000 0.500000
O O19 0.005759 0.500000 0.094545
#
# Coordination Sequence:
#
# PCOD8086343 Si02
#       7
#     8   8   8   8   8   8   8
#     4   9  17  30  49  70  91 117 154 202 250 296
#     4  10  19  31  49  71  95 126 166 208 249 295
#     4  10  20  33  48  68  98 132 164 203 251 296
#     4   9  18  32  49  69  96 129 159 192 238 287
#     4   8  14  27  49  74  95 118 152 190 226 269
#     4   9  16  28  49  72  94 122 155 191 230 279
#     4   9  18  32  49  69  94 127 166 207 250 295
#
# _framework density 18.124600000000001
#
# number of rings (size 3 to 8) (size 9 to 14) (size 15 to 20)
#    0.000    2.857    0.000    2.571    0.000    3.429 
#    0.000    1.429    0.000   12.429    0.000    0.000 
#    0.000    0.000    0.000    0.000    0.000    0.000 
#
# Total GULP energy -346975.155556 kJ/mol
# GULP energy per Si atom -12391.969841 kJ/mol
# Density = 1.808335 g / cm^3
# Si number density = 18.124600 Si / 1000 Ang^3
#
#
#
# Elastic Constant Matrix: (Units=GPa)
#
#
# Indices 1 2 3 4 5 6 
#
# 1 97.0417 39.1008 22.0512 0.0000 8.3358 0.0001
# 2 39.1008 86.9808 19.8790 0.0000 -0.3451 0.0004
# 3 22.0512 19.8790 50.8340 0.0000 8.3423 0.0000
# 4 0.0000 0.0000 0.0000 19.0042 0.0000 -6.1070
# 5 8.3358 -0.3451 8.3423 0.0000 14.4853 0.0000
# 6 0.0001 0.0004 0.0000 -6.1070 0.0000 32.7478
#
#
#
# Elastic Compliance Matrix: (Units=1/GPa)
#
#
# Indices 1 2 3 4 5 6 
#
# 1 0.013723 -0.005575 -0.002711 0.000000 -0.006468 0.000000
# 2 -0.005575 0.015050 -0.004475 0.000000 0.006144 0.000000
# 3 -0.002711 -0.004475 0.024693 0.000000 -0.012768 0.000000
# 4 0.000000 0.000000 0.000000 0.055974 0.000000 0.010438
# 5 -0.006468 0.006144 -0.012768 0.000000 0.080257 0.000000
# 6 0.000000 0.000000 0.000000 0.010438 0.000000 0.032483
#
#
# Mechanical properties :
#
#
# Convention : Reuss Voigt Hill
#
# Bulk Modulus (GPa) = 35.78674 44.10205 39.94439
# Shear Modulus (GPa) = 19.45386 23.50250 21.47818
#
# Velocity S-wave (km/s) = 3.27974 3.60490 3.44616
# Velocity P-wave (km/s) = 5.84209 6.45853 6.15803
#
# Compressibility (1/GPa) = 0.02794331
#
# Stress axis : x y z
#
# Youngs Moduli (GPa) = 72.87127 66.44468 40.49666
#
# Poissons Ratio (x) = 0.37042 0.10979
# Poissons Ratio (y) = 0.40625 0.18124
# Poissons Ratio (z) = 0.19757 0.29737
#
# Static dielectric constant tensor:
#      x y z
#    x 3.607200 0.000000 -0.082930 
#    y 0.000000 3.489010 0.000000 
#    z -0.082930 0.000000 3.194040 
# 
# 
# High freq. dielectric constant tensor:
#      x y z
#    x 1.701340 0.000000 -0.003310 
#    y 0.000000 1.694400 0.000000 
#    z -0.003310 0.000000 1.667020 
# 
# From -- ./inp_files/345476.got.cif
#   From: 2010.06.25/outbox.cif.g09.slc.cpg/sg12_173_cif.got.tgz:345476.got - 2010.06.28 00:19:55.
