data_PCOD8086324
_publ_section_title
;
Structure prediction by ZEFSAII (Michael W. Deem and Ramdas Pophale) SiO2 
 PCOD8086324
Probable space group: C 2/M
;
_chemical_formula_sum "Si O2"
_cell_formula_units_Z 56
_cell_length_a 18.612472
_cell_length_b 9.253496
_cell_length_c 25.852309
_cell_angle_alpha 90.000000
_cell_angle_beta 135.390671
_cell_angle_gamma 90.000000
_cell_volume 3126.890845
_symmetry_space_group_name_H-M "C 2/M"
_symmetry_group_IT_number 12
_symmetry_cell_setting 'monoclinic'
loop_
_space_group_symop_operation_xyz
x,y,z
-x,y,-z
-x,-y,-z
x,-y,z
1/2+x,1/2+y,z
1/2-x,1/2+y,-z
1/2-x,1/2-y,-z
1/2+x,1/2-y,z
loop_
_atom_site_type_symbol
_atom_site_label
_atom_site_fract_x
_atom_site_fract_y
_atom_site_fract_z
Si Si1 0.770508 0.167698 0.869909
Si Si2 0.955016 0.667071 0.269818
Si Si3 0.589510 0.334804 0.408716
Si Si4 0.926389 0.663299 0.011273
Si Si5 0.870596 0.663172 0.724616
Si Si6 0.085275 0.167617 0.152709
Si Si7 0.244844 0.164224 0.567052
O O1 0.655311 0.225879 0.804300
O O2 0.829495 0.195373 0.846794
O O3 0.774112 0.000000 0.887515
O O4 0.820917 0.257454 0.942514
O O5 0.946046 0.500000 0.278913
O O6 0.989510 0.744367 0.341035
O O7 0.035565 0.698632 0.265733
O O8 0.564644 0.500000 0.383239
O O9 0.686490 0.284150 0.425207
O O10 0.626025 0.314937 0.487804
O O11 0.902621 0.500000 0.016828
O O12 0.980801 0.747358 0.086102
O O13 0.000000 0.666500 0.000000
O O14 0.881263 0.500000 0.751739
O O15 0.869197 0.775456 0.770379
O O16 0.763066 0.681350 0.638131
O O17 0.057724 0.000000 0.143616
O O18 0.280664 0.000000 0.569938
#
# Coordination Sequence:
#
# PCOD8086324 Si02
#       7
#     8   8   8   8   8   8   8
#     4   9  18  33  51  69  91 120 153 188 226 269
#     4   9  18  32  48  67  94 125 152 184 230 274
#     4   9  15  24  42  67  91 116 152 193 227 264
#     4   9  17  30  49  71  92 116 150 189 226 267
#     4   9  17  30  47  67  93 122 151 185 227 272
#     4  10  19  31  49  71  93 118 151 189 227 269
#     4   8  15  27  42  62  90 123 154 186 226 268
#
# _framework density 17.909162999999999
#
# number of rings (size 3 to 8) (size 9 to 14) (size 15 to 20)
#    0.000    3.000    0.000    2.143    0.000    5.714 
#    0.000    0.714    0.000    0.857    0.000    6.000 
#    0.000    0.000    0.000    0.000    0.000    0.000 
#
# Total GULP energy -346996.381108 kJ/mol
# GULP energy per Si atom -12392.727897 kJ/mol
# Density = 1.786840 g / cm^3
# Si number density = 17.909163 Si / 1000 Ang^3
#
#
#
# Elastic Constant Matrix: (Units=GPa)
#
#
# Indices 1 2 3 4 5 6 
#
# 1 12.6456 10.4409 2.2116 0.0000 -3.0197 0.0000
# 2 10.4409 78.9753 34.9667 0.0000 -9.4165 0.0000
# 3 2.2116 34.9667 74.2067 0.0000 -15.8009 0.0000
# 4 0.0000 0.0000 0.0000 38.3527 0.0000 -0.0507
# 5 -3.0197 -9.4165 -15.8009 0.0000 18.5374 0.0000
# 6 0.0000 0.0000 0.0000 -0.0507 0.0000 15.5598
#
#
#
# Elastic Compliance Matrix: (Units=1/GPa)
#
#
# Indices 1 2 3 4 5 6 
#
# 1 0.092332 -0.013451 0.006517 0.000000 0.013763 0.000000
# 2 -0.013451 0.018026 -0.008076 0.000000 0.000082 0.000000
# 3 0.006517 -0.008076 0.020085 0.000000 0.014079 0.000000
# 4 0.000000 0.000000 0.000000 0.026074 0.000000 0.000085
# 5 0.013763 0.000082 0.014079 0.000000 0.068229 0.000000
# 6 0.000000 0.000000 0.000000 0.000085 0.000000 0.064269
#
#
# Mechanical properties :
#
#
# Convention : Reuss Voigt Hill
#
# Bulk Modulus (GPa) = 9.95784 29.00729 19.48256
# Shear Modulus (GPa) = 14.18408 22.37054 18.27731
#
# Velocity S-wave (km/s) = 2.81730 3.53811 3.19808
# Velocity P-wave (km/s) = 4.01935 5.73786 4.95370
#
# Compressibility (1/GPa) = 0.10042343
#
# Stress axis : x y z
#
# Youngs Moduli (GPa) = 10.83050 55.47629 49.78884
#
# Poissons Ratio (x) = 0.74622 -0.32448
# Poissons Ratio (y) = 0.14568 0.40207
# Poissons Ratio (z) = -0.07058 0.44800
#
# Static dielectric constant tensor:
#      x y z
#    x 2.772210 0.000000 0.139500 
#    y 0.000000 3.384880 0.000000 
#    z 0.139500 0.000000 3.784650 
# 
# 
# High freq. dielectric constant tensor:
#      x y z
#    x 1.622990 0.000000 0.007480 
#    y 0.000000 1.699580 0.000000 
#    z 0.007480 0.000000 1.718100 
# 
# From -- ./inp_files/280155.got.cif
#   From: 2010.06.25/outbox.cif.g09.slc.cpg/sg12_141_cif.got.tgz:280155.got - 2010.06.28 00:19:55.
