data_PCOD8086314
_publ_section_title
;
Structure prediction by ZEFSAII (Michael W. Deem and Ramdas Pophale) SiO2 
 PCOD8086314
Probable space group: C 2/M
;
_chemical_formula_sum "Si O2"
_cell_formula_units_Z 64
_cell_length_a 23.565306
_cell_length_b 9.151182
_cell_length_c 17.736477
_cell_angle_alpha 90.000000
_cell_angle_beta 72.013865
_cell_angle_gamma 90.000000
_cell_volume 3637.961471
_symmetry_space_group_name_H-M "C 2/M"
_symmetry_group_IT_number 12
_symmetry_cell_setting 'monoclinic'
loop_
_space_group_symop_operation_xyz
x,y,z
-x,y,-z
-x,-y,-z
x,-y,z
1/2+x,1/2+y,z
1/2-x,1/2+y,-z
1/2-x,1/2-y,-z
1/2+x,1/2-y,z
loop_
_atom_site_type_symbol
_atom_site_label
_atom_site_fract_x
_atom_site_fract_y
_atom_site_fract_z
Si Si1 0.180465 0.329424 0.659088
Si Si2 0.864562 0.173273 0.462479
Si Si3 0.514719 0.833200 0.580818
Si Si4 0.398077 0.827717 0.717099
Si Si5 0.420553 0.825208 0.186131
Si Si6 0.429595 0.840258 0.020799
Si Si7 0.813920 0.169217 0.643161
Si Si8 0.445864 0.825429 0.854079
O O1 0.171389 0.500000 0.644771
O O2 0.179448 0.241643 0.581369
O O3 0.129092 0.267723 0.735534
O O4 0.243570 0.300747 0.672743
O O5 0.930815 0.230294 0.418985
O O6 0.842802 0.227086 0.553450
O O7 0.862230 0.000000 0.456846
O O8 0.500000 0.817500 0.500000
O O9 0.457737 0.777474 0.649948
O O10 0.531106 0.000000 0.595756
O O11 0.340886 0.752777 0.703604
O O12 0.404540 0.775868 0.801332
O O13 0.389462 0.000000 0.713819
O O14 0.406252 0.761268 0.107149
O O15 0.485871 0.771084 0.186691
O O16 0.418905 0.000000 0.182273
O O17 0.399290 0.000000 0.029291
O O18 0.500000 0.858855 0.000000
O O19 0.418244 0.760302 0.944279
O O20 0.828870 0.000000 0.646857
O O21 0.447541 0.000000 0.859417
#
# Coordination Sequence:
#
# PCOD8086314 Si02
#       8
#     8   8   8   8   8   8   8   8
#     4  10  20  34  51  68  89 120 160 200 232 270
#     4  11  22  34  49  69  93 121 154 195 241 280
#     4  10  19  32  50  71  93 120 153 189 230 275
#     4  10  19  31  49  70  93 124 158 191 228 274
#     4   8  13  24  44  68  93 118 145 183 230 276
#     4   7  10  18  36  65  97 119 135 172 231 278
#     4  10  22  36  47  63  90 125 161 197 234 272
#     4   8  13  22  40  70  99 116 140 182 230 277
#
# _framework density 17.592269000000002
#
# number of rings (size 3 to 8) (size 9 to 14) (size 15 to 20)
#    0.000    2.750    1.250    3.000    0.000    3.750 
#    0.000    0.000    0.000    0.750    0.000    0.875 
#    0.000    4.000    0.000    0.000    0.000    0.000 
#
# Total GULP energy -396570.468765 kJ/mol
# GULP energy per Si atom -12392.827149 kJ/mol
# Density = 1.755223 g / cm^3
# Si number density = 17.592269 Si / 1000 Ang^3
#
#
#
# Elastic Constant Matrix: (Units=GPa)
#
#
# Indices 1 2 3 4 5 6 
#
# 1 86.1047 26.6325 48.9345 0.0000 18.1560 0.0000
# 2 26.6325 29.1849 23.0379 0.0000 7.4649 0.0000
# 3 48.9345 23.0379 113.4005 0.0000 28.7023 0.0000
# 4 0.0000 0.0000 0.0000 4.8376 0.0000 6.5752
# 5 18.1560 7.4649 28.7023 0.0000 24.2648 0.0000
# 6 0.0000 0.0000 0.0000 6.5752 0.0000 23.7945
#
#
#
# Elastic Compliance Matrix: (Units=1/GPa)
#
#
# Indices 1 2 3 4 5 6 
#
# 1 0.019108 -0.012664 -0.004339 0.000000 -0.005269 0.000000
# 2 -0.012664 0.049465 -0.004469 0.000000 -0.000456 0.000000
# 3 -0.004339 -0.004469 0.014885 0.000000 -0.012986 0.000000
# 4 0.000000 0.000000 0.000000 0.331051 0.000000 -0.091481
# 5 -0.005269 -0.000456 -0.012986 0.000000 0.060655 0.000000
# 6 0.000000 0.000000 0.000000 -0.091481 0.000000 0.067306
#
#
# Mechanical properties :
#
#
# Convention : Reuss Voigt Hill
#
# Bulk Modulus (GPa) = 24.68276 47.32223 36.00249
# Shear Modulus (GPa) = 8.34838 19.25174 13.80006
#
# Velocity S-wave (km/s) = 2.18078 3.31165 2.80382
# Velocity P-wave (km/s) = 4.51685 6.44830 5.56698
#
# Compressibility (1/GPa) = 0.04051411
#
# Stress axis : x y z
#
# Youngs Moduli (GPa) = 52.33516 20.21637 67.17967
#
# Poissons Ratio (x) = 0.25602 0.29150
# Poissons Ratio (y) = 0.66276 0.30023
# Poissons Ratio (z) = 0.22709 0.09035
#
# Static dielectric constant tensor:
#      x y z
#    x 3.107320 0.000000 0.095550 
#    y 0.000000 2.819690 0.000000 
#    z 0.095550 0.000000 3.761820 
# 
# 
# High freq. dielectric constant tensor:
#      x y z
#    x 1.660090 0.000000 0.012600 
#    y 0.000000 1.629580 0.000000 
#    z 0.012600 0.000000 1.693530 
# 
# From -- ./inp_files/287593.got.cif
#   From: 2010.06.25/outbox.cif.g09.slc.cpg/sg12_144_cif.got.tgz:287593.got - 2010.06.28 00:19:55.
