data_PCOD8086044
_publ_section_title
;
Structure prediction by ZEFSAII (Michael W. Deem and Ramdas Pophale) SiO2 
 PCOD8086044
Probable space group: C 2/M
;
_chemical_formula_sum "Si O2"
_cell_formula_units_Z 64
_cell_length_a 18.816524
_cell_length_b 8.968103
_cell_length_c 21.163754
_cell_angle_alpha 90.000000
_cell_angle_beta 92.056207
_cell_angle_gamma 90.000000
_cell_volume 3569.052719
_symmetry_space_group_name_H-M "C 2/M"
_symmetry_group_IT_number 12
_symmetry_cell_setting 'monoclinic'
loop_
_space_group_symop_operation_xyz
x,y,z
-x,y,-z
-x,-y,-z
x,-y,z
1/2+x,1/2+y,z
1/2-x,1/2+y,-z
1/2-x,1/2-y,-z
1/2+x,1/2-y,z
loop_
_atom_site_type_symbol
_atom_site_label
_atom_site_fract_x
_atom_site_fract_y
_atom_site_fract_z
Si Si1 0.454712 0.669162 0.061860
Si Si2 0.104402 0.672339 0.460500
Si Si3 0.985107 0.830269 0.645351
Si Si4 0.609529 0.824349 0.263879
Si Si5 0.778451 0.328302 0.635184
Si Si6 0.629521 0.671340 0.591546
Si Si7 0.081936 0.673830 0.122161
Si Si8 0.827433 0.676892 0.996133
O O1 0.436314 0.500000 0.080837
O O2 0.505882 0.743104 0.115757
O O3 0.500000 0.675774 0.000000
O O4 0.380612 0.758879 0.051604
O O5 0.083008 0.500000 0.462597
O O6 0.179999 0.695872 0.428939
O O7 0.106587 0.735651 0.530383
O O8 0.044573 0.756612 0.419101
O O9 0.070233 0.819167 0.644052
O O10 0.961043 0.747754 0.708427
O O11 0.958714 0.000000 0.647284
O O12 0.677770 0.758492 0.304232
O O13 0.616618 0.784039 0.190501
O O14 0.602899 0.000000 0.274765
O O15 0.767651 0.500000 0.651194
O O16 0.700783 0.255890 0.624034
O O17 0.642299 0.500000 0.570712
O O18 0.064761 0.500000 0.115447
O O19 0.139228 0.721064 0.070854
O O20 0.820495 0.500000 0.004366
O O21 0.750000 0.750000 0.000000
#
# Coordination Sequence:
#
# PCOD8086044 Si02
#       8
#     8   8   8   8   8   8   8   8
#     4   9  17  30  50  76 103 132 168 207 245 287
#     4  10  19  31  49  70  91 120 159 200 244 296
#     4  10  20  32  47  69  96 125 157 198 246 292
#     4   9  18  35  55  71  92 126 166 202 237 284
#     4   8  16  31  49  68  91 122 158 195 236 284
#     4  10  19  31  47  68  95 123 154 197 248 296
#     4   9  18  33  54  76  99 133 172 207 246 295
#     4  10  19  32  51  78 111 140 167 203 250 298
#
# _framework density 17.931930000000001
#
# number of rings (size 3 to 8) (size 9 to 14) (size 15 to 20)
#    0.000    2.625    0.000    3.000    0.000    5.000 
#    0.000    3.750    0.000    3.000    0.000    0.000 
#    0.000    0.000    0.000    0.000    0.000    0.000 
#
# Total GULP energy -396697.044411 kJ/mol
# GULP energy per Si atom -12396.782638 kJ/mol
# Density = 1.789112 g / cm^3
# Si number density = 17.931930 Si / 1000 Ang^3
#
#
#
# Elastic Constant Matrix: (Units=GPa)
#
#
# Indices 1 2 3 4 5 6 
#
# 1 116.4919 42.3967 35.3639 0.0000 -3.2836 0.0000
# 2 42.3967 73.8150 33.1321 0.0000 1.1966 0.0000
# 3 35.3639 33.1321 86.2781 0.0000 -0.5827 0.0000
# 4 0.0000 0.0000 0.0000 22.2424 0.0000 0.3061
# 5 -3.2836 1.1966 -0.5827 0.0000 10.5722 0.0000
# 6 0.0000 0.0000 0.0000 0.3061 0.0000 26.9837
#
#
#
# Elastic Compliance Matrix: (Units=1/GPa)
#
#
# Indices 1 2 3 4 5 6 
#
# 1 0.011482 -0.005510 -0.002563 0.000000 0.004049 0.000000
# 2 -0.005510 0.019064 -0.005091 0.000000 -0.004150 0.000000
# 3 -0.002563 -0.005091 0.014600 0.000000 0.000585 0.000000
# 4 0.000000 0.000000 0.000000 0.044966 0.000000 -0.000510
# 5 0.004049 -0.004150 0.000585 0.000000 0.096347 0.000000
# 6 0.000000 0.000000 0.000000 -0.000510 0.000000 0.037065
#
#
# Mechanical properties :
#
#
# Convention : Reuss Voigt Hill
#
# Bulk Modulus (GPa) = 53.13815 55.37451 54.25633
# Shear Modulus (GPa) = 19.52177 23.00582 21.26379
#
# Velocity S-wave (km/s) = 3.30306 3.58572 3.44729
# Velocity P-wave (km/s) = 6.65166 6.93474 6.79467
#
# Compressibility (1/GPa) = 0.01881887
#
# Stress axis : x y z
#
# Youngs Moduli (GPa) = 87.09462 52.45408 68.49441
#
# Poissons Ratio (x) = 0.28902 0.17555
# Poissons Ratio (y) = 0.47989 0.34868
# Poissons Ratio (z) = 0.22322 0.26702
#
# Static dielectric constant tensor:
#      x y z
#    x 3.537320 0.000000 0.186100 
#    y 0.000000 3.303000 0.000000 
#    z 0.186100 0.000000 3.226750 
# 
# 
# High freq. dielectric constant tensor:
#      x y z
#    x 1.696650 0.000000 0.008290 
#    y 0.000000 1.688980 0.000000 
#    z 0.008290 0.000000 1.672110 
# 
# From -- ./inp_files/314092.got.cif
#   From: 2010.06.25/outbox.cif.g09.slc.cpg/sg12_158_cif.got.tgz:314092.got - 2010.06.28 00:19:55.
