data_PCOD8086582
_publ_section_title
;
Structure prediction by ZEFSAII (Michael W. Deem and Ramdas Pophale) SiO2 
 PCOD8086582
Probable space group: C 2/M
;
_chemical_formula_sum "Si O2"
_cell_formula_units_Z 48
_cell_length_a 19.861436
_cell_length_b 8.878354
_cell_length_c 25.586089
_cell_angle_alpha 90.000000
_cell_angle_beta 40.450927
_cell_angle_gamma 90.000000
_cell_volume 2927.221118
_symmetry_space_group_name_H-M "C 2/M"
_symmetry_group_IT_number 12
_symmetry_cell_setting 'monoclinic'
loop_
_space_group_symop_operation_xyz
x,y,z
-x,y,-z
-x,-y,-z
x,-y,z
1/2+x,1/2+y,z
1/2-x,1/2+y,-z
1/2-x,1/2-y,-z
1/2+x,1/2-y,z
loop_
_atom_site_type_symbol
_atom_site_label
_atom_site_fract_x
_atom_site_fract_y
_atom_site_fract_z
Si Si1 0.069703 0.824158 0.343064
Si Si2 0.085093 0.669723 0.494663
Si Si3 0.437854 0.829399 0.759566
Si Si4 0.736821 0.675969 0.332334
Si Si5 0.849176 0.329577 0.917965
Si Si6 0.549838 0.321378 0.779884
O O1 0.164361 0.788288 0.325733
O O2 0.963191 0.747705 0.425659
O O3 0.100103 0.757731 0.269077
O O4 0.048684 0.000000 0.351121
O O5 0.119380 0.500000 0.488245
O O6 0.184778 0.762569 0.416288
O O7 0.000000 0.671226 0.500000
O O8 0.343332 0.828715 0.857731
O O9 0.535950 0.744644 0.728968
O O10 0.470237 0.000000 0.726141
O O11 0.757791 0.500000 0.326725
O O12 0.843658 0.762012 0.258519
O O13 0.855460 0.500000 0.935674
O O14 0.954430 0.239999 0.872272
O O15 0.750000 0.250000 0.000000
O O16 0.549130 0.500000 0.779158
#
# Coordination Sequence:
#
# PCOD8086582 Si02
#       6
#     8   8   8   8   8   8
#     4  10  19  31  50  73  99 132 167 204 245 288
#     4   9  17  29  46  68  95 130 170 205 240 286
#     4   9  19  33  50  73 101 128 161 202 244 291
#     4  10  19  32  49  72 101 131 167 206 244 287
#     4   9  18  32  53  77  99 127 160 198 240 290
#     4  10  19  32  51  74 100 129 164 201 244 292
#
# _framework density 16.397805999999999
#
# number of rings (size 3 to 8) (size 9 to 14) (size 15 to 20)
#    1.000    1.500    0.000    3.500    0.000    4.000 
#    0.000    0.833    0.000    1.000    0.000    7.000 
#    0.000    0.000    0.000    0.000    0.000    0.000 
#
# Total GULP energy -297453.893252 kJ/mol
# GULP energy per Si atom -12393.912219 kJ/mol
# Density = 1.636048 g / cm^3
# Si number density = 16.397806 Si / 1000 Ang^3
#
#
#
# Elastic Constant Matrix: (Units=GPa)
#
#
# Indices 1 2 3 4 5 6 
#
# 1 45.3303 40.6045 26.8928 -0.0002 -5.2231 0.0002
# 2 40.6045 132.2338 38.2567 -0.0007 -9.9171 0.0015
# 3 26.8928 38.2567 78.4821 -0.0002 -14.7218 0.0005
# 4 -0.0002 -0.0007 -0.0002 34.8329 -0.0001 -1.4313
# 5 -5.2231 -9.9171 -14.7218 -0.0001 25.0694 0.0001
# 6 0.0002 0.0015 0.0005 -1.4313 0.0001 27.2973
#
#
#
# Elastic Compliance Matrix: (Units=1/GPa)
#
#
# Indices 1 2 3 4 5 6 
#
# 1 0.033957 -0.008238 -0.007759 0.000000 -0.000740 0.000000
# 2 -0.008238 0.010829 -0.002218 0.000000 0.001265 0.000000
# 3 -0.007759 -0.002218 0.017997 0.000000 0.008074 0.000000
# 4 0.000000 0.000000 0.000000 0.028771 0.000000 0.001509
# 5 -0.000740 0.001265 0.008074 0.000000 0.044977 0.000000
# 6 0.000000 0.000000 0.000000 0.001509 0.000000 0.036713
#
#
# Mechanical properties :
#
#
# Convention : Reuss Voigt Hill
#
# Bulk Modulus (GPa) = 37.94862 51.95045 44.94953
# Shear Modulus (GPa) = 22.88780 27.45939 25.17359
#
# Velocity S-wave (km/s) = 3.74007 4.09660 3.92239
# Velocity P-wave (km/s) = 6.46866 7.35706 6.92712
#
# Compressibility (1/GPa) = 0.02635142
#
# Stress axis : x y z
#
# Youngs Moduli (GPa) = 29.44881 92.34812 55.56636
#
# Poissons Ratio (x) = 0.76075 0.43115
# Poissons Ratio (y) = 0.24259 0.12327
# Poissons Ratio (z) = 0.22850 0.20487
#
# Static dielectric constant tensor:
#      x y z
#    x 2.774610 0.000000 -0.009520 
#    y 0.000000 3.261950 0.000000 
#    z -0.009520 0.000000 2.978000 
# 
# 
# High freq. dielectric constant tensor:
#      x y z
#    x 1.594910 0.000000 -0.003680 
#    y 0.000000 1.655580 0.000000 
#    z -0.003680 0.000000 1.617970 
# 
# From -- ./inp_files/365023.got.cif
#   From: 2010.06.25/outbox.cif.g09.slc.cpg/sg12_183_cif.got.tgz:365023.got - 2010.06.28 00:19:55.
