data_PCOD8086569
_publ_section_title
;
Structure prediction by ZEFSAII (Michael W. Deem and Ramdas Pophale) SiO2 
 PCOD8086569
Probable space group: C 2/M
;
_chemical_formula_sum "Si O2"
_cell_formula_units_Z 64
_cell_length_a 30.292357
_cell_length_b 9.345557
_cell_length_c 14.680238
_cell_angle_alpha 90.000000
_cell_angle_beta 61.012524
_cell_angle_gamma 90.000000
_cell_volume 3635.324803
_symmetry_space_group_name_H-M "C 2/M"
_symmetry_group_IT_number 12
_symmetry_cell_setting 'monoclinic'
loop_
_space_group_symop_operation_xyz
x,y,z
-x,y,-z
-x,-y,-z
x,-y,z
1/2+x,1/2+y,z
1/2-x,1/2+y,-z
1/2-x,1/2-y,-z
1/2+x,1/2-y,z
loop_
_atom_site_type_symbol
_atom_site_label
_atom_site_fract_x
_atom_site_fract_y
_atom_site_fract_z
Si Si1 0.418077 0.333286 0.244266
Si Si2 0.081923 0.333286 0.580419
Si Si3 0.690776 0.165335 0.969357
Si Si4 0.967369 0.164713 0.868751
Si Si5 0.690776 0.334665 0.149092
Si Si6 0.378733 0.165624 0.652207
Si Si7 0.621267 0.665624 0.909672
Si Si8 0.032631 0.664713 0.303490
O O1 0.415383 0.500000 0.269019
O O2 0.396600 0.250000 0.353400
O O3 0.475662 0.286073 0.165548
O O4 0.383802 0.295142 0.191563
O O5 0.084616 0.500000 0.599786
O O6 0.116198 0.295142 0.459166
O O7 0.024338 0.286073 0.616871
O O8 0.750000 0.182485 0.894290
O O9 0.664021 0.233284 0.908509
O O10 0.675141 0.000000 0.996265
O O11 0.673052 0.250000 0.076948
O O12 0.945333 0.250000 0.804667
O O13 0.965961 0.000000 0.842662
O O14 0.932826 0.196351 0.990368
O O15 0.675141 0.500000 0.153452
O O16 0.664021 0.266716 0.263449
O O17 0.432826 0.196350 0.643979
O O18 0.363149 0.000000 0.681228
O O19 0.636851 0.500000 0.907525
O O20 0.034038 0.500000 0.274585
#
# Coordination Sequence:
#
# PCOD8086569 Si02
#       8
#     8   8   8   8   8   8   8   8
#     4   9  18  32  48  68  97 132 166 200 238 279
#     4   9  18  32  48  68  97 132 166 200 238 279
#     4  10  21  36  53  74 100 127 155 192 239 289
#     4   9  17  29  45  68  99 131 161 194 234 281
#     4  10  21  36  53  74 100 127 155 192 239 289
#     4  10  19  31  50  73  97 128 164 200 239 284
#     4  10  19  31  50  73  97 128 164 200 239 284
#     4   9  17  29  45  68  99 131 161 194 234 281
#
# _framework density 17.605031
#
# number of rings (size 3 to 8) (size 9 to 14) (size 15 to 20)
#    0.000    2.500    0.000    2.250    0.000    8.500 
#    0.000    0.000    0.000    8.250    0.000    0.000 
#    0.000    0.000    0.000    0.000    0.000    0.000 
#
# Total GULP energy -396861.318491 kJ/mol
# GULP energy per Si atom -12401.916203 kJ/mol
# Density = 1.756496 g / cm^3
# Si number density = 17.605031 Si / 1000 Ang^3
#
#
#
# Elastic Constant Matrix: (Units=GPa)
#
#
# Indices 1 2 3 4 5 6 
#
# 1 73.6368 49.9514 44.1540 0.0000 20.6763 0.0000
# 2 49.9514 89.9809 64.5967 0.0000 12.6831 0.0000
# 3 44.1540 64.5967 119.3989 0.0000 18.9548 0.0000
# 4 0.0000 0.0000 0.0000 32.2940 0.0000 3.5092
# 5 20.6763 12.6831 18.9548 0.0000 25.1881 0.0000
# 6 0.0000 0.0000 0.0000 3.5092 0.0000 28.2419
#
#
#
# Elastic Compliance Matrix: (Units=1/GPa)
#
#
# Indices 1 2 3 4 5 6 
#
# 1 0.026408 -0.011846 -0.000979 0.000000 -0.014976 0.000000
# 2 -0.011846 0.023573 -0.009122 0.000000 0.004719 0.000000
# 3 -0.000979 -0.009122 0.014554 0.000000 -0.005556 0.000000
# 4 0.000000 0.000000 0.000000 0.031389 0.000000 -0.003900
# 5 -0.014976 0.004719 -0.005556 0.000000 0.053799 0.000000
# 6 0.000000 0.000000 0.000000 -0.003900 0.000000 0.035893
#
#
# Mechanical properties :
#
#
# Convention : Reuss Voigt Hill
#
# Bulk Modulus (GPa) = 48.44700 66.71342 57.58021
# Shear Modulus (GPa) = 21.15127 25.43243 23.29185
#
# Velocity S-wave (km/s) = 3.46993 3.80493 3.64128
# Velocity P-wave (km/s) = 6.60549 7.56836 7.10326
#
# Compressibility (1/GPa) = 0.02064112
#
# Stress axis : x y z
#
# Youngs Moduli (GPa) = 37.86687 42.42152 68.70749
#
# Poissons Ratio (x) = 0.50253 0.06730
# Poissons Ratio (y) = 0.44857 0.62673
# Poissons Ratio (z) = 0.03709 0.38696
#
# Static dielectric constant tensor:
#      x y z
#    x 3.148530 0.000000 0.113040 
#    y 0.000000 3.319860 0.000000 
#    z 0.113040 0.000000 3.279060 
# 
# 
# High freq. dielectric constant tensor:
#      x y z
#    x 1.663270 0.000000 0.008270 
#    y 0.000000 1.680170 0.000000 
#    z 0.008270 0.000000 1.672830 
# 
# From -- ./inp_files/249039.got.cif
#   From: 2010.06.25/outbox.cif.g09.slc.cpg/sg12_125_cif.got.tgz:249039.got - 2010.06.28 00:19:55.
