data_PCOD8086810
_publ_section_title
;
Structure prediction by ZEFSAII (Michael W. Deem and Ramdas Pophale) SiO2 
 PCOD8086810
Probable space group: C 2/M
;
_chemical_formula_sum "Si O2"
_cell_formula_units_Z 64
_cell_length_a 18.725333
_cell_length_b 9.192446
_cell_length_c 20.753091
_cell_angle_alpha 90.000000
_cell_angle_beta 80.115929
_cell_angle_gamma 90.000000
_cell_volume 3519.240227
_symmetry_space_group_name_H-M "C 2/M"
_symmetry_group_IT_number 12
_symmetry_cell_setting 'monoclinic'
loop_
_space_group_symop_operation_xyz
x,y,z
-x,y,-z
-x,-y,-z
x,-y,z
1/2+x,1/2+y,z
1/2-x,1/2+y,-z
1/2-x,1/2-y,-z
1/2+x,1/2-y,z
loop_
_atom_site_type_symbol
_atom_site_label
_atom_site_fract_x
_atom_site_fract_y
_atom_site_fract_z
Si Si1 0.651111 0.334984 0.826425
Si Si2 0.020104 0.169560 0.928504
Si Si3 0.335033 0.167238 0.403288
Si Si4 0.312094 0.833682 0.778610
Si Si5 0.556321 0.327452 0.188207
Si Si6 0.581418 0.828918 0.486294
Si Si7 0.198758 0.329816 0.366819
Si Si8 0.570623 0.166672 0.733714
O O1 0.631779 0.500000 0.807125
O O2 0.604204 0.297482 0.897622
O O3 0.735838 0.320584 0.827757
O O4 0.631789 0.226382 0.772160
O O5 0.969317 0.227696 0.878432
O O6 0.005235 0.000000 0.937785
O O7 0.000000 0.245886 0.000000
O O8 0.368126 0.233359 0.464068
O O9 0.263828 0.253958 0.394371
O O10 0.399783 0.183178 0.342442
O O11 0.311286 0.000000 0.414863
O O12 0.363754 0.730708 0.811559
O O13 0.305626 0.775973 0.706279
O O14 0.340299 0.000000 0.774350
O O15 0.554627 0.500000 0.194450
O O16 0.502869 0.259534 0.249802
O O17 0.500000 0.760291 0.500000
O O18 0.621860 0.793326 0.412758
O O19 0.574018 0.000000 0.498948
O O20 0.215865 0.500000 0.366160
O O21 0.553680 0.000000 0.753728
#
# Coordination Sequence:
#
# PCOD8086810 Si02
#       8
#     8   8   8   8   8   8   8   8
#     4   9  17  32  53  77 105 135 170 208 247 299
#     4   8  15  31  55  78 100 133 174 208 245 299
#     4  10  20  33  53  77 101 131 169 214 258 305
#     4  10  20  33  51  77 107 136 171 212 258 304
#     4  10  21  34  52  77 106 137 170 211 256 301
#     4   9  19  34  52  73  98 131 174 215 254 304
#     4  10  20  34  55  75  98 137 173 210 255 306
#     4  10  19  31  51  77 103 133 170 212 256 304
#
# _framework density 18.185742999999999
#
# number of rings (size 3 to 8) (size 9 to 14) (size 15 to 20)
#    0.000    2.500    1.250    1.875    1.750    1.500 
#    0.000    0.625    0.000   10.125    0.000    0.000 
#    0.000    0.000    0.000    0.000    0.000    0.000 
#
# Total GULP energy -396718.771366 kJ/mol
# GULP energy per Si atom -12397.461605 kJ/mol
# Density = 1.814435 g / cm^3
# Si number density = 18.185743 Si / 1000 Ang^3
#
#
#
# Elastic Constant Matrix: (Units=GPa)
#
#
# Indices 1 2 3 4 5 6 
#
# 1 136.0575 39.0297 59.4858 0.0000 -0.6079 0.0000
# 2 39.0297 54.4566 26.4418 0.0000 -0.4498 0.0000
# 3 59.4858 26.4418 104.3843 0.0000 -10.4091 0.0000
# 4 0.0000 0.0000 0.0000 13.5491 0.0000 2.2802
# 5 -0.6079 -0.4498 -10.4091 0.0000 23.2029 0.0000
# 6 0.0000 0.0000 0.0000 2.2802 0.0000 31.8127
#
#
#
# Elastic Compliance Matrix: (Units=1/GPa)
#
#
# Indices 1 2 3 4 5 6 
#
# 1 0.011195 -0.005518 -0.005196 0.000000 -0.002145 0.000000
# 2 -0.005518 0.023754 -0.002974 0.000000 -0.001018 0.000000
# 3 -0.005196 -0.002974 0.013896 0.000000 0.006040 0.000000
# 4 0.000000 0.000000 0.000000 0.074707 0.000000 -0.005355
# 5 -0.002145 -0.001018 0.006040 0.000000 0.045732 0.000000
# 6 0.000000 0.000000 0.000000 -0.005355 0.000000 0.031818
#
#
# Mechanical properties :
#
#
# Convention : Reuss Voigt Hill
#
# Bulk Modulus (GPa) = 46.57790 60.53480 53.55635
# Shear Modulus (GPa) = 21.21933 25.04234 23.13083
#
# Velocity S-wave (km/s) = 3.41957 3.71486 3.57027
# Velocity P-wave (km/s) = 6.42333 7.19441 6.81978
#
# Compressibility (1/GPa) = 0.02146941
#
# Stress axis : x y z
#
# Youngs Moduli (GPa) = 89.32671 42.09829 71.96063
#
# Poissons Ratio (x) = 0.23232 0.37388
# Poissons Ratio (y) = 0.49294 0.21400
# Poissons Ratio (z) = 0.46411 0.12520
#
# Static dielectric constant tensor:
#      x y z
#    x 3.398090 0.000000 -0.119090 
#    y 0.000000 3.152930 0.000000 
#    z -0.119090 0.000000 3.502440 
# 
# 
# High freq. dielectric constant tensor:
#      x y z
#    x 1.710050 0.000000 -0.011070 
#    y 0.000000 1.677860 0.000000 
#    z -0.011070 0.000000 1.697270 
# 
# From -- ./inp_files/314138.got.cif
#   From: 2010.06.25/outbox.cif.g09.slc.cpg/sg12_158_cif.got.tgz:314138.got - 2010.06.28 00:19:55.
