data_PCOD8086282
_publ_section_title
;
Structure prediction by ZEFSAII (Michael W. Deem and Ramdas Pophale) SiO2 
 PCOD8086282
Probable space group: C 2/M
;
_chemical_formula_sum "Si O2"
_cell_formula_units_Z 40
_cell_length_a 20.391309
_cell_length_b 10.224444
_cell_length_c 17.612891
_cell_angle_alpha 90.000000
_cell_angle_beta 140.018999
_cell_angle_gamma 90.000000
_cell_volume 2359.452662
_symmetry_space_group_name_H-M "C 2/M"
_symmetry_group_IT_number 12
_symmetry_cell_setting 'monoclinic'
loop_
_space_group_symop_operation_xyz
x,y,z
-x,y,-z
-x,-y,-z
x,-y,z
1/2+x,1/2+y,z
1/2-x,1/2+y,-z
1/2-x,1/2-y,-z
1/2+x,1/2-y,z
loop_
_atom_site_type_symbol
_atom_site_label
_atom_site_fract_x
_atom_site_fract_y
_atom_site_fract_z
Si Si1 0.444820 0.852180 0.593423
Si Si2 0.055717 0.853999 0.125606
Si Si3 0.897742 0.646646 0.722168
Si Si4 0.768425 0.260762 0.332151
Si Si5 0.422077 0.355655 0.362098
O O1 0.396277 0.820561 0.631955
O O2 0.357512 0.841349 0.452363
O O3 0.537773 0.751249 0.662518
O O4 0.488429 0.000000 0.628648
O O5 0.028586 0.750123 0.168392
O O6 0.178720 0.856093 0.222251
O O7 0.019446 0.000000 0.116182
O O8 0.000000 0.806873 0.000000
O O9 0.938232 0.500000 0.772800
O O10 0.781929 0.659508 0.651755
O O11 0.812117 0.184801 0.297746
O O12 0.500000 0.362762 0.500000
O O13 0.413815 0.500000 0.316536
#
# Coordination Sequence:
#
# PCOD8086282 Si02
#       5
#     8   8   8   8   8
#     4  10  19  31  48  74 105 131 159 194 243 295
#     4   9  19  33  50  73  98 126 163 204 243 284
#     4   9  19  32  49  73 100 128 160 201 244 288
#     4   9  18  31  51  71  98 131 164 197 236 286
#     4   9  18  31  47  69 100 133 162 194 238 290
#
# _framework density 16.953085000000002
#
# number of rings (size 3 to 8) (size 9 to 14) (size 15 to 20)
#    1.200    1.600    0.000    1.800    0.000    6.400 
#    0.000    0.000    0.000    1.200    0.000    0.000 
#    0.000    0.000    0.000    0.000    0.000    0.000 
#
# Total GULP energy -247785.375908 kJ/mol
# GULP energy per Si atom -12389.268795 kJ/mol
# Density = 1.691450 g / cm^3
# Si number density = 16.953085 Si / 1000 Ang^3
#
#
#
# Elastic Constant Matrix: (Units=GPa)
#
#
# Indices 1 2 3 4 5 6 
#
# 1 103.0031 47.2169 18.3796 0.0000 -7.9418 0.0000
# 2 47.2169 121.8237 32.0798 0.0000 -11.7520 0.0000
# 3 18.3796 32.0798 62.8909 0.0000 -3.9361 0.0000
# 4 0.0000 0.0000 0.0000 20.6486 0.0000 -6.4632
# 5 -7.9418 -11.7520 -3.9361 0.0000 6.8880 0.0000
# 6 0.0000 0.0000 0.0000 -6.4632 0.0000 26.5423
#
#
#
# Elastic Compliance Matrix: (Units=1/GPa)
#
#
# Indices 1 2 3 4 5 6 
#
# 1 0.012171 -0.003722 -0.001221 0.000000 0.006985 0.000000
# 2 -0.003722 0.012107 -0.004215 0.000000 0.013957 0.000000
# 3 -0.001221 -0.004215 0.018532 0.000000 0.001991 0.000000
# 4 0.000000 0.000000 0.000000 0.052425 0.000000 0.012766
# 5 0.006985 0.013957 0.001991 0.000000 0.178186 0.000000
# 6 0.000000 0.000000 0.000000 0.012766 0.000000 0.040784
#
#
# Mechanical properties :
#
#
# Convention : Reuss Voigt Hill
#
# Bulk Modulus (GPa) = 40.82486 53.67449 47.24967
# Shear Modulus (GPa) = 14.67626 23.48520 19.08073
#
# Velocity S-wave (km/s) = 2.94547 3.72601 3.35849
# Velocity P-wave (km/s) = 5.97504 7.08803 6.55520
#
# Compressibility (1/GPa) = 0.02449488
#
# Stress axis : x y z
#
# Youngs Moduli (GPa) = 82.16216 82.59435 53.96102
#
# Poissons Ratio (x) = 0.30740 0.06590
# Poissons Ratio (y) = 0.30580 0.22742
# Poissons Ratio (z) = 0.10034 0.34810
#
# Static dielectric constant tensor:
#      x y z
#    x 3.107400 0.000000 -0.056460 
#    y 0.000000 3.279080 0.000000 
#    z -0.056460 0.000000 2.771800 
# 
# 
# High freq. dielectric constant tensor:
#      x y z
#    x 1.638850 0.000000 -0.008570 
#    y 0.000000 1.665330 0.000000 
#    z -0.008570 0.000000 1.611530 
# 
# From -- ./inp_files/232108.got.cif
#   From: 2010.06.25/outbox.cif.g09.slc.cpg/sg12_117_cif.got.tgz:232108.got - 2010.06.28 00:19:55.
