data_PCOD8086948
_publ_section_title
;
Structure prediction by ZEFSAII (Michael W. Deem and Ramdas Pophale) SiO2 
 PCOD8086948
Probable space group: C 2/M
;
_chemical_formula_sum "Si O2"
_cell_formula_units_Z 64
_cell_length_a 16.960430
_cell_length_b 16.956228
_cell_length_c 22.674364
_cell_angle_alpha 90.000000
_cell_angle_beta 146.887496
_cell_angle_gamma 90.000000
_cell_volume 3562.216511
_symmetry_space_group_name_H-M "C 2/M"
_symmetry_group_IT_number 12
_symmetry_cell_setting 'monoclinic'
loop_
_space_group_symop_operation_xyz
x,y,z
-x,y,-z
-x,-y,-z
x,-y,z
1/2+x,1/2+y,z
1/2-x,1/2+y,-z
1/2-x,1/2-y,-z
1/2+x,1/2-y,z
loop_
_atom_site_type_symbol
_atom_site_label
_atom_site_fract_x
_atom_site_fract_y
_atom_site_fract_z
Si Si1 0.334443 0.088111 0.197983
Si Si2 0.409011 0.854705 0.838483
Si Si3 0.609698 0.310140 0.122624
Si Si4 0.841882 0.851161 0.011386
Si Si5 0.774572 0.671817 0.938768
Si Si6 0.163606 0.911332 0.756793
Si Si7 0.562834 0.593101 0.478303
Si Si8 0.612322 0.907067 0.305241
O O1 0.255391 0.144544 0.195536
O O2 0.496736 0.117259 0.283405
O O3 0.339173 0.000000 0.227497
O O4 0.244498 0.084600 0.080597
O O5 0.343447 0.770035 0.816190
O O6 0.300088 0.918202 0.797700
O O7 0.421607 0.860095 0.775911
O O8 0.567571 0.867365 0.964889
O O9 0.513892 0.361269 0.108680
O O10 0.500000 0.291737 0.000000
O O11 0.814079 0.864595 0.062531
O O12 0.786363 0.765698 0.953203
O O13 0.690806 0.649605 0.826853
O O14 0.027675 0.877015 0.634850
O O15 0.135037 0.000000 0.762963
O O16 0.500000 0.629793 0.500000
O O17 0.544045 0.500000 0.469944
O O18 0.729127 0.617461 0.573071
O O19 0.601693 0.000000 0.285080
#
# Coordination Sequence:
#
# PCOD8086948 Si02
#       8
#     8   8   8   8   8   8   8   8
#     4  10  19  32  51  76 101 126 169 221 254 291
#     4  11  18  31  49  72 104 139 167 195 248 312
#     4   9  19  33  49  72  97 137 172 197 251 309
#     4   9  18  34  50  69 100 142 168 199 254 311
#     4  10  20  32  48  73 103 139 173 198 249 313
#     4  11  21  30  47  74 106 138 167 209 247 298
#     4   9  17  32  48  68 101 138 173 203 254 310
#     4  10  19  31  52  78 101 134 172 208 253 302
#
# _framework density 17.966342000000001
#
# number of rings (size 3 to 8) (size 9 to 14) (size 15 to 20)
#    0.000    2.125    2.500    3.000    0.000    4.250 
#    0.000    0.000    0.000    3.000    6.500    0.000 
#    0.000    4.000    0.000    0.000    0.000    0.000 
#
# Total GULP energy -396655.326851 kJ/mol
# GULP energy per Si atom -12395.478964 kJ/mol
# Density = 1.792545 g / cm^3
# Si number density = 17.966342 Si / 1000 Ang^3
#
#
#
# Elastic Constant Matrix: (Units=GPa)
#
#
# Indices 1 2 3 4 5 6 
#
# 1 129.3366 32.3105 51.6296 -0.0005 21.8240 -0.0002
# 2 32.3105 45.1917 28.4632 -0.0010 4.3935 -0.0003
# 3 51.6296 28.4632 111.7297 -0.0009 5.9112 -0.0006
# 4 -0.0005 -0.0010 -0.0009 12.7865 -0.0002 2.8575
# 5 21.8240 4.3935 5.9112 -0.0002 29.9291 -0.0002
# 6 -0.0002 -0.0003 -0.0006 2.8575 -0.0002 25.6732
#
#
#
# Elastic Compliance Matrix: (Units=1/GPa)
#
#
# Indices 1 2 3 4 5 6 
#
# 1 0.011733 -0.005389 -0.003677 0.000000 -0.007039 0.000000
# 2 -0.005389 0.029029 -0.004939 0.000002 0.000644 0.000000
# 3 -0.003677 -0.004939 0.011851 0.000000 0.001065 0.000000
# 4 0.000000 0.000002 0.000000 0.080202 0.000000 -0.008927
# 5 -0.007039 0.000644 0.001065 0.000000 0.038240 0.000000
# 6 0.000000 0.000000 0.000000 -0.008927 0.000000 0.039945
#
#
# Mechanical properties :
#
#
# Convention : Reuss Voigt Hill
#
# Bulk Modulus (GPa) = 40.64365 56.78495 48.71430
# Shear Modulus (GPa) = 20.22563 25.26807 22.74685
#
# Velocity S-wave (km/s) = 3.35886 3.75428 3.56206
# Velocity P-wave (km/s) = 6.14116 7.10407 6.64009
#
# Compressibility (1/GPa) = 0.02460409
#
# Stress axis : x y z
#
# Youngs Moduli (GPa) = 85.22680 34.44824 84.38100
#
# Poissons Ratio (x) = 0.18564 0.31024
# Poissons Ratio (y) = 0.45929 0.41676
# Poissons Ratio (z) = 0.31335 0.17014
#
# Static dielectric constant tensor:
#      x y z
#    x 3.647280 0.000000 0.226160 
#    y 0.000000 3.012510 0.000000 
#    z 0.226160 0.000000 3.249720 
# 
# 
# High freq. dielectric constant tensor:
#      x y z
#    x 1.705740 0.000000 0.017150 
#    y 0.000000 1.666970 0.000000 
#    z 0.017150 0.000000 1.666620 
# 
# From -- ./inp_files/344395.got.cif
#   From: 2010.06.25/outbox.cif.g09.slc.cpg/sg12_173_cif.got.tgz:344395.got - 2010.06.28 00:19:55.
