data_PCOD8086455
_publ_section_title
;
Structure prediction by ZEFSAII (Michael W. Deem and Ramdas Pophale) SiO2 
 PCOD8086455
Probable space group: C 2/M
;
_chemical_formula_sum "Si O2"
_cell_formula_units_Z 64
_cell_length_a 18.976970
_cell_length_b 9.022188
_cell_length_c 25.233191
_cell_angle_alpha 90.000000
_cell_angle_beta 125.158252
_cell_angle_gamma 90.000000
_cell_volume 3532.100454
_symmetry_space_group_name_H-M "C 2/M"
_symmetry_group_IT_number 12
_symmetry_cell_setting 'monoclinic'
loop_
_space_group_symop_operation_xyz
x,y,z
-x,y,-z
-x,-y,-z
x,-y,z
1/2+x,1/2+y,z
1/2-x,1/2+y,-z
1/2-x,1/2-y,-z
1/2+x,1/2-y,z
loop_
_atom_site_type_symbol
_atom_site_label
_atom_site_fract_x
_atom_site_fract_y
_atom_site_fract_z
Si Si1 0.195009 0.671793 0.811515
Si Si2 0.475529 0.827463 0.195997
Si Si3 0.192699 0.327057 0.690728
Si Si4 0.708994 0.833440 0.059704
Si Si5 0.881590 0.832755 0.066282
Si Si6 0.247787 0.673712 0.442723
Si Si7 0.854435 0.174287 0.689767
Si Si8 0.409075 0.672508 0.440056
O O1 0.220552 0.500000 0.824531
O O2 0.102227 0.699353 0.797095
O O3 0.192904 0.732862 0.750777
O O4 0.269641 0.759451 0.874749
O O5 0.452004 0.764089 0.127986
O O6 0.555146 0.736621 0.252478
O O7 0.498640 0.000000 0.200498
O O8 0.173246 0.500000 0.681104
O O9 0.284346 0.288120 0.704373
O O10 0.115223 0.250095 0.625543
O O11 0.793333 0.833820 0.060228
O O12 0.675728 0.000000 0.054864
O O13 0.634034 0.740891 0.997899
O O14 0.916167 0.000000 0.073540
O O15 0.229938 0.500000 0.441083
O O16 0.250000 0.750000 0.500000
O O17 0.170708 0.745533 0.375685
O O18 0.338548 0.707076 0.454124
O O19 0.861564 0.000000 0.682288
O O20 0.500000 0.736368 0.500000
O O21 0.416506 0.500000 0.430835
#
# Coordination Sequence:
#
# PCOD8086455 Si02
#       8
#     8   8   8   8   8   8   8   8
#     4   9  18  32  49  72 100 128 162 203 245 289
#     4  10  19  31  49  74 102 129 162 205 247 289
#     4   9  19  35  53  72  96 130 167 199 236 287
#     4   9  16  26  43  69  98 128 162 200 245 292
#     4   9  16  27  44  67  97 131 164 200 244 291
#     4  10  20  35  54  75 100 129 162 200 242 289
#     4  10  20  35  53  72  98 132 167 200 239 290
#     4   9  19  35  53  74  99 127 160 199 243 288
#
# _framework density 18.119529
#
# number of rings (size 3 to 8) (size 9 to 14) (size 15 to 20)
#    0.000    2.625    0.000    1.875    0.000    6.250 
#    0.000    2.500    0.000    0.750    0.000    5.250 
#    0.000    0.000    0.000    0.000    0.000    0.000 
#
# Total GULP energy -396857.050766 kJ/mol
# GULP energy per Si atom -12401.782836 kJ/mol
# Density = 1.807829 g / cm^3
# Si number density = 18.119529 Si / 1000 Ang^3
#
#
#
# Elastic Constant Matrix: (Units=GPa)
#
#
# Indices 1 2 3 4 5 6 
#
# 1 37.0396 32.7754 55.3897 0.0000 -5.4467 0.0000
# 2 32.7754 98.2947 73.3641 0.0000 -5.9445 0.0000
# 3 55.3897 73.3641 184.2614 0.0000 -14.3833 0.0000
# 4 0.0000 0.0000 0.0000 42.7774 0.0000 1.6605
# 5 -5.4467 -5.9445 -14.3833 0.0000 25.3605 0.0000
# 6 0.0000 0.0000 0.0000 1.6605 0.0000 19.0528
#
#
#
# Elastic Compliance Matrix: (Units=1/GPa)
#
#
# Indices 1 2 3 4 5 6 
#
# 1 0.053544 -0.008302 -0.012602 0.000000 0.002406 0.000000
# 2 -0.008302 0.015763 -0.003799 0.000000 -0.000243 0.000000
# 3 -0.012602 -0.003799 0.010931 0.000000 0.002602 0.000000
# 4 0.000000 0.000000 0.000000 0.023456 0.000000 -0.002044
# 5 0.002406 -0.000243 0.002602 0.000000 0.041367 0.000000
# 6 0.000000 0.000000 0.000000 -0.002044 0.000000 0.052664
#
#
# Mechanical properties :
#
#
# Convention : Reuss Voigt Hill
#
# Bulk Modulus (GPa) = 32.43545 71.40603 51.92074
# Shear Modulus (GPa) = 19.42430 27.97588 23.70009
#
# Velocity S-wave (km/s) = 3.27771 3.93359 3.62053
# Velocity P-wave (km/s) = 5.68016 7.75401 6.79665
#
# Compressibility (1/GPa) = 0.03083047
#
# Stress axis : x y z
#
# Youngs Moduli (GPa) = 18.67624 63.44062 91.48198
#
# Poissons Ratio (x) = 0.52671 1.15286
# Poissons Ratio (y) = 0.15506 0.34756
# Poissons Ratio (z) = 0.23536 0.24102
#
# Static dielectric constant tensor:
#      x y z
#    x 3.071030 0.000000 -0.040630 
#    y 0.000000 3.462670 0.000000 
#    z -0.040630 0.000000 3.623490 
# 
# 
# High freq. dielectric constant tensor:
#      x y z
#    x 1.663890 0.000000 -0.000870 
#    y 0.000000 1.711780 0.000000 
#    z -0.000870 0.000000 1.717460 
# 
# From -- ./inp_files/346256.got.cif
#   From: 2010.06.25/outbox.cif.g09.slc.cpg/sg12_174_cif.got.tgz:346256.got - 2010.06.28 00:19:55.
