data_PCOD8086768
_publ_section_title
;
Structure prediction by ZEFSAII (Michael W. Deem and Ramdas Pophale) SiO2 
 PCOD8086768
Probable space group: C 2/M
;
_chemical_formula_sum "Si O2"
_cell_formula_units_Z 64
_cell_length_a 19.516882
_cell_length_b 19.527112
_cell_length_c 9.909102
_cell_angle_alpha 90.000000
_cell_angle_beta 58.352405
_cell_angle_gamma 90.000000
_cell_volume 3214.851994
_symmetry_space_group_name_H-M "C 2/M"
_symmetry_group_IT_number 12
_symmetry_cell_setting 'monoclinic'
loop_
_space_group_symop_operation_xyz
x,y,z
-x,y,-z
-x,-y,-z
x,-y,z
1/2+x,1/2+y,z
1/2-x,1/2+y,-z
1/2-x,1/2-y,-z
1/2+x,1/2-y,z
loop_
_atom_site_type_symbol
_atom_site_label
_atom_site_fract_x
_atom_site_fract_y
_atom_site_fract_z
Si Si1 0.479496 0.921256 0.667933
Si Si2 0.180603 0.371310 0.233596
Si Si3 0.748696 0.925124 0.425972
Si Si4 0.910343 0.719037 0.112862
Si Si5 0.819712 0.798660 0.973239
Si Si6 0.669819 0.706170 0.575701
Si Si7 0.398116 0.078123 0.233589
Si Si8 0.595745 0.272130 0.375541
O O1 0.500000 0.887539 0.500000
O O2 0.384533 0.908391 0.797115
O O3 0.535315 0.891929 0.729534
O O4 0.501948 0.000000 0.638639
O O5 0.191436 0.416411 0.355748
O O6 0.269904 0.365963 0.073484
O O7 0.139140 0.300311 0.317543
O O8 0.816963 0.867267 0.366051
O O9 0.690916 0.921484 0.614614
O O10 0.790296 0.000000 0.376478
O O11 0.859027 0.759197 0.056569
O O12 0.893109 0.747578 0.279616
O O13 0.898156 0.635853 0.115507
O O14 0.000000 0.741236 0.000000
O O15 0.750000 0.750000 0.000000
O O16 0.883232 0.813734 0.785716
O O17 0.750000 0.750000 0.500000
O O18 0.637662 0.690664 0.458849
O O19 0.418962 0.000000 0.160879
O O20 0.500000 0.267478 0.500000
#
# Coordination Sequence:
#
# PCOD8086768 Si02
#       8
#     8   8   8   8   8   8   8   8
#     4  10  19  31  50  83 125 165 197 232 283 360
#     4  11  19  33  57  85 125 159 196 244 301 354
#     4  11  21  36  62  91 122 162 206 251 302 360
#     4  12  24  38  62  89 123 162 202 256 303 354
#     4  10  23  38  54  87 122 158 197 253 307 348
#     4  12  21  40  64  92 118 157 206 257 295 356
#     4  10  22  36  55  88 129 171 206 237 292 371
#     4  11  23  37  61  90 120 158 200 251 307 366
#
# _framework density 19.907603999999999
#
# number of rings (size 3 to 8) (size 9 to 14) (size 15 to 20)
#    0.000    1.125    5.000    2.250    5.250    0.250 
#    0.000    0.000    0.000    2.250    0.000    0.000 
#    0.000    0.000    0.000    0.000    0.000    0.000 
#
# Total GULP energy -396517.426637 kJ/mol
# GULP energy per Si atom -12391.169582 kJ/mol
# Density = 1.986229 g / cm^3
# Si number density = 19.907604 Si / 1000 Ang^3
#
#
#
# Elastic Constant Matrix: (Units=GPa)
#
#
# Indices 1 2 3 4 5 6 
#
# 1 77.0837 30.5261 31.8449 0.0000 -5.2451 0.0000
# 2 30.5261 77.3259 21.5758 0.0000 -7.6774 0.0000
# 3 31.8449 21.5758 102.8126 0.0000 -16.4964 0.0000
# 4 0.0000 0.0000 0.0000 9.8340 0.0000 -1.9658
# 5 -5.2451 -7.6774 -16.4964 0.0000 32.4280 0.0000
# 6 0.0000 0.0000 0.0000 -1.9658 0.0000 29.0140
#
#
#
# Elastic Compliance Matrix: (Units=1/GPa)
#
#
# Indices 1 2 3 4 5 6 
#
# 1 0.016847 -0.005559 -0.004165 0.000000 -0.000710 0.000000
# 2 -0.005559 0.015684 -0.001217 0.000000 0.002195 0.000000
# 3 -0.004165 -0.001217 0.012106 0.000000 0.005196 0.000000
# 4 0.000000 0.000000 0.000000 0.103084 0.000000 0.006984
# 5 -0.000710 0.002195 0.005196 0.000000 0.033886 0.000000
# 6 0.000000 0.000000 0.000000 0.006984 0.000000 0.034939
#
#
# Mechanical properties :
#
#
# Convention : Reuss Voigt Hill
#
# Bulk Modulus (GPa) = 43.94948 47.23508 45.59228
# Shear Modulus (GPa) = 20.32404 25.80690 23.06547
#
# Velocity S-wave (km/s) = 3.19865 3.60437 3.40755
# Velocity P-wave (km/s) = 5.98051 6.41098 6.19948
#
# Compressibility (1/GPa) = 0.02275340
#
# Stress axis : x y z
#
# Youngs Moduli (GPa) = 59.35841 63.75759 82.60428
#
# Poissons Ratio (x) = 0.35442 0.34409
# Poissons Ratio (y) = 0.32997 0.10057
# Poissons Ratio (z) = 0.24726 0.07762
#
# Static dielectric constant tensor:
#      x y z
#    x 4.220460 0.000000 -2.043350 
#    y 0.000000 3.672230 0.000000 
#    z -2.043350 0.000000 11.397840 
# 
# 
# High freq. dielectric constant tensor:
#      x y z
#    x 1.773600 0.000000 0.003110 
#    y 0.000000 1.748810 0.000000 
#    z 0.003110 0.000000 1.774510 
# 
# From -- ./inp_files/89563.got.cif
#   From: 2010.06.25/outbox.cif.g09.slc.cpg/sg12_45_cif.got.tgz:89563.got - 2010.06.28 00:19:55.
