data_PCOD8086110
_publ_section_title
;
Structure prediction by ZEFSAII (Michael W. Deem and Ramdas Pophale) SiO2 
 PCOD8086110
Probable space group: C 2/M
;
_chemical_formula_sum "Si O2"
_cell_formula_units_Z 64
_cell_length_a 30.952929
_cell_length_b 14.486000
_cell_length_c 8.549519
_cell_angle_alpha 90.000000
_cell_angle_beta 61.485951
_cell_angle_gamma 90.000000
_cell_volume 3368.469220
_symmetry_space_group_name_H-M "C 2/M"
_symmetry_group_IT_number 12
_symmetry_cell_setting 'monoclinic'
loop_
_space_group_symop_operation_xyz
x,y,z
-x,y,-z
-x,-y,-z
x,-y,z
1/2+x,1/2+y,z
1/2-x,1/2+y,-z
1/2-x,1/2-y,-z
1/2+x,1/2-y,z
loop_
_atom_site_type_symbol
_atom_site_label
_atom_site_fract_x
_atom_site_fract_y
_atom_site_fract_z
Si Si1 0.605811 0.837788 0.996177
Si Si2 0.327870 0.896974 0.374715
Si Si3 0.247873 0.393033 0.981924
Si Si4 0.363164 0.723728 0.482401
Si Si5 0.670086 0.742247 0.121334
Si Si6 0.490090 0.104494 0.693740
Si Si7 0.543279 0.752783 0.830104
Si Si8 0.774455 0.895380 0.576082
O O1 0.648281 0.899289 0.841598
O O2 0.575787 0.798005 0.905824
O O3 0.630990 0.755301 0.050820
O O4 0.568715 0.893881 0.172338
O O5 0.355537 0.830652 0.448263
O O6 0.270730 0.865952 0.457446
O O7 0.330917 0.000000 0.438782
O O8 0.245012 0.500000 0.041405
O O9 0.292175 0.339183 0.994270
O O10 0.257277 0.382542 0.782848
O O11 0.197545 0.339625 0.110230
O O12 0.359234 0.710656 0.673948
O O13 0.418701 0.690990 0.337601
O O14 0.322542 0.665385 0.457645
O O15 0.500000 0.138590 0.500000
O O16 0.519354 0.169125 0.762255
O O17 0.509229 0.000000 0.683251
O O18 0.500000 0.697522 0.000000
O O19 0.789761 0.000000 0.516707
#
# Coordination Sequence:
#
# PCOD8086110 Si02
#       8
#     8   8   8   8   8   8   8   8
#     4  10  19  32  51  71  99 140 178 205 248 311
#     4  10  19  31  47  71 102 136 169 205 253 312
#     4   9  18  32  50  74 107 142 174 212 256 306
#     4  10  20  32  51  74 101 132 170 218 257 299
#     4  10  19  32  52  76 103 138 178 216 255 300
#     4  10  20  33  50  75 104 131 167 218 264 305
#     4   9  20  35  51  71  99 134 171 209 259 312
#     4   9  17  32  52  73  98 133 175 210 253 310
#
# _framework density 18.999728999999999
#
# number of rings (size 3 to 8) (size 9 to 14) (size 15 to 20)
#    0.000    2.375    1.250    1.500    0.000    5.250 
#    0.000    0.000    0.000    0.375    0.000    2.625 
#    0.000   17.000    0.000    0.000    0.000    0.000 
#
# Total GULP energy -396544.224546 kJ/mol
# GULP energy per Si atom -12392.007017 kJ/mol
# Density = 1.895648 g / cm^3
# Si number density = 18.999729 Si / 1000 Ang^3
#
#
#
# Elastic Constant Matrix: (Units=GPa)
#
#
# Indices 1 2 3 4 5 6 
#
# 1 84.8996 18.4829 32.6052 0.0000 -6.9568 0.0000
# 2 18.4829 52.3057 12.1182 0.0000 -7.6090 0.0000
# 3 32.6052 12.1182 85.0176 0.0000 -20.9784 0.0000
# 4 0.0000 0.0000 0.0000 15.3956 0.0000 1.1953
# 5 -6.9568 -7.6090 -20.9784 0.0000 37.6459 0.0000
# 6 0.0000 0.0000 0.0000 1.1953 0.0000 21.6689
#
#
#
# Elastic Compliance Matrix: (Units=1/GPa)
#
#
# Indices 1 2 3 4 5 6 
#
# 1 0.014612 -0.004095 -0.005285 0.000000 -0.001072 0.000000
# 2 -0.004095 0.021179 -0.000671 0.000000 0.003150 0.000000
# 3 -0.005285 -0.000671 0.015780 0.000000 0.007681 0.000000
# 4 0.000000 0.000000 0.000000 0.065233 0.000000 -0.003599
# 5 -0.001072 0.003150 0.007681 0.000000 0.031282 0.000000
# 6 0.000000 0.000000 0.000000 -0.003599 0.000000 0.046348
#
#
# Mechanical properties :
#
#
# Convention : Reuss Voigt Hill
#
# Bulk Modulus (GPa) = 31.77681 38.73728 35.25704
# Shear Modulus (GPa) = 22.21975 25.54319 23.88147
#
# Velocity S-wave (km/s) = 3.42347 3.67058 3.54918
# Velocity P-wave (km/s) = 5.69105 6.19652 5.94915
#
# Compressibility (1/GPa) = 0.03146949
#
# Stress axis : x y z
#
# Youngs Moduli (GPa) = 68.43793 47.21641 63.37112
#
# Poissons Ratio (x) = 0.19335 0.33490
# Poissons Ratio (y) = 0.28025 0.04253
# Poissons Ratio (z) = 0.36168 0.03169
#
# Static dielectric constant tensor:
#      x y z
#    x 3.687700 0.000000 -0.482540 
#    y 0.000000 3.210990 0.000000 
#    z -0.482540 0.000000 3.983460 
# 
# 
# High freq. dielectric constant tensor:
#      x y z
#    x 1.738280 0.000000 -0.010330 
#    y 0.000000 1.694640 0.000000 
#    z -0.010330 0.000000 1.745510 
# 
# From -- ./inp_files/111257.got.cif
#   From: 2010.06.25/outbox.cif.g09.slc.cpg/sg12_56_cif.got.tgz:111257.got - 2010.06.28 00:19:55.
