data_PCOD8086176
_publ_section_title
;
Structure prediction by ZEFSAII (Michael W. Deem and Ramdas Pophale) SiO2 
 PCOD8086176
Probable space group: C 2/M
;
_chemical_formula_sum "Si O2"
_cell_formula_units_Z 56
_cell_length_a 17.322111
_cell_length_b 13.253152
_cell_length_c 15.606877
_cell_angle_alpha 90.000000
_cell_angle_beta 114.121254
_cell_angle_gamma 90.000000
_cell_volume 3270.060557
_symmetry_space_group_name_H-M "C 2/M"
_symmetry_group_IT_number 12
_symmetry_cell_setting 'monoclinic'
loop_
_space_group_symop_operation_xyz
x,y,z
-x,y,-z
-x,-y,-z
x,-y,z
1/2+x,1/2+y,z
1/2-x,1/2+y,-z
1/2-x,1/2-y,-z
1/2+x,1/2-y,z
loop_
_atom_site_type_symbol
_atom_site_label
_atom_site_fract_x
_atom_site_fract_y
_atom_site_fract_z
Si Si1 0.954086 0.273494 0.567880
Si Si2 0.602600 0.118398 0.719075
Si Si3 0.185919 0.616694 0.936271
Si Si4 0.870501 0.806369 0.993067
Si Si5 0.878617 0.117581 0.650516
Si Si6 0.044439 0.118209 0.133052
Si Si7 0.809078 0.380911 0.412365
O O1 0.927456 0.166632 0.593876
O O2 0.872032 0.341484 0.513701
O O3 0.000000 0.251512 0.500000
O O4 0.012135 0.329501 0.664055
O O5 0.643632 0.150441 0.827512
O O6 0.664732 0.154194 0.671162
O O7 0.587097 0.000000 0.708002
O O8 0.165572 0.500000 0.949346
O O9 0.286704 0.629417 0.974945
O O10 0.146810 0.688475 0.992364
O O11 0.898010 0.817130 0.906505
O O12 0.946284 0.851218 0.084546
O O13 0.924979 0.145208 0.759165
O O14 0.783993 0.161775 0.611978
O O15 0.878756 0.000000 0.632591
O O16 0.055821 0.000000 0.116105
O O17 0.809769 0.500000 0.417601
#
# Coordination Sequence:
#
# PCOD8086176 Si02
#       7
#     8   8   8   8   8   8   8
#     4  10  19  31  48  70  96 123 150 186 233 280
#     4   9  17  30  49  72  95 119 152 193 232 270
#     4  10  19  31  48  72 100 126 154 192 237 282
#     4  10  19  31  50  72  94 124 159 196 236 277
#     4  10  20  32  48  69  93 123 157 192 229 272
#     4  10  19  33  51  70  92 121 162 204 234 268
#     4   9  17  30  49  71  92 118 155 194 229 267
#
# _framework density 17.125064999999999
#
# number of rings (size 3 to 8) (size 9 to 14) (size 15 to 20)
#    0.000    2.286    0.000    4.286    0.000    4.286 
#    0.000    1.429    0.000    1.714    0.000    8.000 
#    0.000    0.000    0.000    0.000    0.000    0.000 
#
# Total GULP energy -347187.786801 kJ/mol
# GULP energy per Si atom -12399.563814 kJ/mol
# Density = 1.708609 g / cm^3
# Si number density = 17.125065 Si / 1000 Ang^3
#
#
#
# Elastic Constant Matrix: (Units=GPa)
#
#
# Indices 1 2 3 4 5 6 
#
# 1 67.2000 23.5898 34.8465 0.0000 16.7289 0.0000
# 2 23.5898 54.6418 27.3828 0.0000 -2.1280 0.0000
# 3 34.8465 27.3828 61.8614 0.0000 14.3773 0.0000
# 4 0.0000 0.0000 0.0000 18.1739 0.0000 -7.8259
# 5 16.7289 -2.1280 14.3773 0.0000 22.2561 0.0000
# 6 0.0000 0.0000 0.0000 -7.8259 0.0000 27.3417
#
#
#
# Elastic Compliance Matrix: (Units=1/GPa)
#
#
# Indices 1 2 3 4 5 6 
#
# 1 0.025070 -0.007798 -0.007198 0.000000 -0.014940 0.000000
# 2 -0.007798 0.028260 -0.011892 0.000000 0.016246 0.000000
# 3 -0.007198 -0.011892 0.028817 0.000000 -0.014342 0.000000
# 4 0.000000 0.000000 0.000000 0.062759 0.000000 0.017963
# 5 -0.014940 0.016246 -0.014342 0.000000 0.066980 0.000000
# 6 0.000000 0.000000 0.000000 0.017963 0.000000 0.041716
#
#
# Mechanical properties :
#
#
# Convention : Reuss Voigt Hill
#
# Bulk Modulus (GPa) = 35.24767 39.48239 37.36503
# Shear Modulus (GPa) = 15.78112 20.07994 17.93053
#
# Velocity S-wave (km/s) = 3.03895 3.42796 3.23930
# Velocity P-wave (km/s) = 5.73941 6.22682 5.98807
#
# Compressibility (1/GPa) = 0.02837067
#
# Stress axis : x y z
#
# Youngs Moduli (GPa) = 39.88848 35.38603 34.70134
#
# Poissons Ratio (x) = 0.27593 0.24978
# Poissons Ratio (y) = 0.31104 0.41268
# Poissons Ratio (z) = 0.28712 0.42082
#
# Static dielectric constant tensor:
#      x y z
#    x 3.299640 0.000000 0.185470 
#    y 0.000000 3.033300 0.000000 
#    z 0.185470 0.000000 3.284760 
# 
# 
# High freq. dielectric constant tensor:
#      x y z
#    x 1.665400 0.000000 0.016630 
#    y 0.000000 1.646380 0.000000 
#    z 0.016630 0.000000 1.665410 
# 
# From -- ./inp_files/223377.got.cif
#   From: 2010.06.25/outbox.cif.g09.slc.cpg/sg12_112_cif.got.tgz:223377.got - 2010.06.28 00:19:55.
