data_PCOD8086743
_publ_section_title
;
Structure prediction by ZEFSAII (Michael W. Deem and Ramdas Pophale) SiO2 
 PCOD8086743
Probable space group: C 2/M
;
_chemical_formula_sum "Si O2"
_cell_formula_units_Z 40
_cell_length_a 5.239342
_cell_length_b 24.211458
_cell_length_c 19.535719
_cell_angle_alpha 90.000000
_cell_angle_beta 60.422624
_cell_angle_gamma 90.000000
_cell_volume 2155.219552
_symmetry_space_group_name_H-M "C 2/M"
_symmetry_group_IT_number 12
_symmetry_cell_setting 'monoclinic'
loop_
_space_group_symop_operation_xyz
x,y,z
-x,y,-z
-x,-y,-z
x,-y,z
1/2+x,1/2+y,z
1/2-x,1/2+y,-z
1/2-x,1/2-y,-z
1/2+x,1/2-y,z
loop_
_atom_site_type_symbol
_atom_site_label
_atom_site_fract_x
_atom_site_fract_y
_atom_site_fract_z
Si Si1 0.115759 0.107071 0.649309
Si Si2 0.600246 0.726398 0.589798
Si Si3 0.351097 0.435136 0.087250
Si Si4 0.681168 0.434318 0.182095
Si Si5 0.758592 0.937427 0.582086
O O1 0.101609 0.161756 0.604833
O O2 0.457654 0.094214 0.610226
O O3 0.990269 0.105630 0.742546
O O4 0.900006 0.064248 0.638981
O O5 0.750000 0.750000 0.500000
O O6 0.260202 0.744085 0.632525
O O7 0.337001 0.500000 0.078711
O O8 0.546483 0.419384 0.126459
O O9 0.017615 0.414591 0.139478
O O10 0.500000 0.408273 0.000000
O O11 0.639071 0.500000 0.204031
O O12 0.000000 0.910700 0.500000
O O13 0.690138 0.000000 0.570815
#
# Coordination Sequence:
#
# PCOD8086743 Si02
#       5
#     8   8   8   8   8
#     4  12  23  37  59  77 110 144 185 238 283 323
#     4  10  23  39  58  79  98 133 187 241 292 335
#     4   9  17  30  49  75 111 150 180 206 245 313
#     4  10  19  31  50  78 111 145 178 214 265 321
#     4  11  24  37  53  78 108 145 185 221 269 335
#
# _framework density 18.559595000000002
#
# number of rings (size 3 to 8) (size 9 to 14) (size 15 to 20)
#    0.000    1.600    0.000    5.400    8.400    5.600 
#    0.000    0.000    0.000    0.000    0.000    0.000 
#    0.000   16.000    0.000    0.000    0.000    0.000 
#
# Total GULP energy -247797.825356 kJ/mol
# GULP energy per Si atom -12389.891268 kJ/mol
# Density = 1.851735 g / cm^3
# Si number density = 18.559595 Si / 1000 Ang^3
#
#
#
# Elastic Constant Matrix: (Units=GPa)
#
#
# Indices 1 2 3 4 5 6 
#
# 1 160.0010 23.9617 31.9959 0.0000 -7.8100 0.0000
# 2 23.9617 38.9875 49.7755 0.0000 -6.3893 0.0000
# 3 31.9959 49.7755 94.7925 0.0000 -5.8174 0.0000
# 4 0.0000 0.0000 0.0000 18.7613 0.0000 8.3657
# 5 -7.8100 -6.3893 -5.8174 0.0000 27.8138 0.0000
# 6 0.0000 0.0000 0.0000 8.3657 0.0000 45.3491
#
#
#
# Elastic Compliance Matrix: (Units=1/GPa)
#
#
# Indices 1 2 3 4 5 6 
#
# 1 0.006915 -0.003584 -0.000388 0.000000 0.001037 0.000000
# 2 -0.003584 0.082208 -0.041392 0.000000 0.009221 0.000000
# 3 -0.000388 -0.041392 0.032239 0.000000 -0.002875 0.000000
# 4 0.000000 0.000000 0.000000 0.058079 0.000000 -0.010714
# 5 0.001037 0.009221 -0.002875 0.000000 0.037762 0.000000
# 6 0.000000 0.000000 0.000000 -0.010714 0.000000 0.024028
#
#
# Mechanical properties :
#
#
# Convention : Reuss Voigt Hill
#
# Bulk Modulus (GPa) = 32.64405 56.13859 44.39132
# Shear Modulus (GPa) = 14.61263 30.92137 22.76700
#
# Velocity S-wave (km/s) = 2.80899 4.08617 3.50622
# Velocity P-wave (km/s) = 5.30543 7.25091 6.35308
#
# Compressibility (1/GPa) = 0.03063345
#
# Stress axis : x y z
#
# Youngs Moduli (GPa) = 144.61290 12.16421 31.01848
#
# Poissons Ratio (x) = 0.04360 0.01205
# Poissons Ratio (y) = 0.51831 1.28391
# Poissons Ratio (z) = 0.05617 0.50350
#
# Static dielectric constant tensor:
#      x y z
#    x 4.406850 0.000000 0.130570 
#    y 0.000000 2.999210 0.000000 
#    z 0.130570 0.000000 3.574700 
# 
# 
# High freq. dielectric constant tensor:
#      x y z
#    x 1.759810 0.000000 0.006690 
#    y 0.000000 1.667260 0.000000 
#    z 0.006690 0.000000 1.703920 
# 
# From -- ./inp_files/191497.got.cif
#   From: 2010.06.25/outbox.cif.g09.slc.cpg/sg12_96_cif.got.tgz:191497.got - 2010.06.28 00:19:55.
