data_PCOD8086945
_publ_section_title
;
Structure prediction by ZEFSAII (Michael W. Deem and Ramdas Pophale) SiO2 
 PCOD8086945
Probable space group: C 2/M
;
_chemical_formula_sum "Si O2"
_cell_formula_units_Z 56
_cell_length_a 19.366660
_cell_length_b 9.045896
_cell_length_c 20.454990
_cell_angle_alpha 90.000000
_cell_angle_beta 56.731272
_cell_angle_gamma 90.000000
_cell_volume 2996.176504
_symmetry_space_group_name_H-M "C 2/M"
_symmetry_group_IT_number 12
_symmetry_cell_setting 'monoclinic'
loop_
_space_group_symop_operation_xyz
x,y,z
-x,y,-z
-x,-y,-z
x,-y,z
1/2+x,1/2+y,z
1/2-x,1/2+y,-z
1/2-x,1/2-y,-z
1/2+x,1/2-y,z
loop_
_atom_site_type_symbol
_atom_site_label
_atom_site_fract_x
_atom_site_fract_y
_atom_site_fract_z
Si Si1 0.434013 0.324388 0.087097
Si Si2 0.960495 0.829227 0.218907
Si Si3 0.984033 0.825294 0.434735
Si Si4 0.413845 0.674918 0.740926
Si Si5 0.223229 0.832906 0.685868
Si Si6 0.817171 0.329941 0.507468
Si Si7 0.732355 0.826418 0.812737
O O1 0.425204 0.500000 0.091182
O O2 0.462614 0.264708 0.143657
O O3 0.344600 0.257882 0.114416
O O4 0.500000 0.268270 0.000000
O O5 0.868637 0.804821 0.296105
O O6 0.028069 0.753655 0.232185
O O7 0.983428 0.000000 0.202048
O O8 0.903133 0.747882 0.449101
O O9 0.000000 0.767528 0.500000
O O10 0.056787 0.776070 0.347151
O O11 0.969717 0.000000 0.442092
O O12 0.422552 0.500000 0.739366
O O13 0.318686 0.722291 0.802227
O O14 0.292726 0.811924 0.595735
O O15 0.241224 0.714471 0.732239
O O16 0.225197 0.000000 0.714044
O O17 0.822531 0.500000 0.483799
O O18 0.750000 0.250000 0.500000
O O19 0.717537 0.000000 0.827075
#
# Coordination Sequence:
#
# PCOD8086945 Si02
#       7
#     8   8   8   8   8   8   8
#     4   9  18  34  55  76  99 130 165 199 241 297
#     4   8  14  28  50  70  90 124 167 200 232 288
#     4  10  20  34  51  71 100 138 177 218 265 315
#     4   9  17  30  48  71  99 131 165 202 251 305
#     4   9  18  33  51  69  94 132 172 208 249 301
#     4  11  22  34  50  73 101 134 175 223 270 313
#     4  10  19  31  52  78 100 125 160 203 247 295
#
# _framework density 18.690487000000001
#
# number of rings (size 3 to 8) (size 9 to 14) (size 15 to 20)
#    0.000    2.571    0.000    3.429    0.000    5.143 
#    0.000    2.143    0.000    6.857    0.000    0.000 
#    0.000    0.000    0.000    0.000    0.000    0.000 
#
# Total GULP energy -347065.756408 kJ/mol
# GULP energy per Si atom -12395.205586 kJ/mol
# Density = 1.864795 g / cm^3
# Si number density = 18.690487 Si / 1000 Ang^3
#
#
#
# Elastic Constant Matrix: (Units=GPa)
#
#
# Indices 1 2 3 4 5 6 
#
# 1 120.6937 21.0764 39.1433 0.0000 -14.1611 -0.0003
# 2 21.0764 32.6687 14.4311 0.0001 -6.8676 -0.0008
# 3 39.1433 14.4311 94.5872 0.0000 -16.6510 -0.0001
# 4 0.0000 0.0001 0.0000 19.0082 0.0000 -4.6364
# 5 -14.1611 -6.8676 -16.6510 0.0000 26.9834 0.0000
# 6 -0.0003 -0.0008 -0.0001 -4.6364 0.0000 26.5962
#
#
#
# Elastic Compliance Matrix: (Units=1/GPa)
#
#
# Indices 1 2 3 4 5 6 
#
# 1 0.010429 -0.004846 -0.003175 0.000000 0.002281 0.000000
# 2 -0.004846 0.035935 -0.002597 0.000000 0.005000 0.000001
# 3 -0.003175 -0.002597 0.013320 0.000000 0.005892 0.000000
# 4 0.000000 0.000000 0.000000 0.054945 0.000000 0.009578
# 5 0.002281 0.005000 0.005892 0.000000 0.043165 0.000000
# 6 0.000000 0.000001 0.000000 0.009578 0.000000 0.039269
#
#
# Mechanical properties :
#
#
# Convention : Reuss Voigt Hill
#
# Bulk Modulus (GPa) = 26.00947 44.13902 35.07424
# Shear Modulus (GPa) = 21.63417 26.07081 23.85249
#
# Velocity S-wave (km/s) = 3.40589 3.73885 3.57625
# Velocity P-wave (km/s) = 5.42336 6.50428 5.98826
#
# Compressibility (1/GPa) = 0.03844753
#
# Stress axis : x y z
#
# Youngs Moduli (GPa) = 95.88607 27.82780 75.07726
#
# Poissons Ratio (x) = 0.13487 0.23837
# Poissons Ratio (y) = 0.46470 0.19496
# Poissons Ratio (z) = 0.30444 0.07226
#
# Static dielectric constant tensor:
#      x y z
#    x 3.715490 0.000000 -0.268530 
#    y 0.000000 3.151500 0.000000 
#    z -0.268530 0.000000 3.935100 
# 
# 
# High freq. dielectric constant tensor:
#      x y z
#    x 1.731240 0.000000 -0.009910 
#    y 0.000000 1.693660 0.000000 
#    z -0.009910 0.000000 1.715370 
# 
# From -- ./inp_files/313792.got.cif
#   From: 2010.06.25/outbox.cif.g09.slc.cpg/sg12_157_cif.got.tgz:313792.got - 2010.06.28 00:19:55.
