data_PCOD8086046
_publ_section_title
;
Structure prediction by ZEFSAII (Michael W. Deem and Ramdas Pophale) SiO2 
 PCOD8086046
Probable space group: C 2/M
;
_chemical_formula_sum "Si O2"
_cell_formula_units_Z 64
_cell_length_a 34.165400
_cell_length_b 9.221576
_cell_length_c 12.021829
_cell_angle_alpha 90.000000
_cell_angle_beta 85.689060
_cell_angle_gamma 90.000000
_cell_volume 3776.867576
_symmetry_space_group_name_H-M "C 2/M"
_symmetry_group_IT_number 12
_symmetry_cell_setting 'monoclinic'
loop_
_space_group_symop_operation_xyz
x,y,z
-x,y,-z
-x,-y,-z
x,-y,z
1/2+x,1/2+y,z
1/2-x,1/2+y,-z
1/2-x,1/2-y,-z
1/2+x,1/2-y,z
loop_
_atom_site_type_symbol
_atom_site_label
_atom_site_fract_x
_atom_site_fract_y
_atom_site_fract_z
Si Si1 0.076217 0.169102 0.936739
Si Si2 0.977844 0.171268 0.251326
Si Si3 0.066015 0.828262 0.184726
Si Si4 0.637870 0.332763 0.752097
Si Si5 0.116089 0.331440 0.352035
Si Si6 0.082994 0.669539 0.599072
Si Si7 0.698929 0.830877 0.415845
Si Si8 0.784230 0.166023 0.365373
O O1 0.042977 0.225334 0.858288
O O2 0.119306 0.206112 0.876382
O O3 0.069656 0.000000 0.954501
O O4 0.071690 0.239055 0.059562
O O5 0.957840 0.252824 0.359513
O O6 0.023139 0.215970 0.237764
O O7 0.972060 0.000000 0.268567
O O8 0.098727 0.759203 0.255103
O O9 0.071683 0.000000 0.184725
O O10 0.627550 0.500000 0.726239
O O11 0.618995 0.234675 0.660792
O O12 0.685113 0.307427 0.742820
O O13 0.115062 0.500000 0.320513
O O14 0.090918 0.301226 0.467963
O O15 0.160962 0.274928 0.357218
O O16 0.079910 0.500000 0.626112
O O17 0.739378 0.795501 0.339444
O O18 0.701174 0.759766 0.535355
O O19 0.693169 0.000000 0.439357
O O20 0.785624 0.000000 0.404689
#
# Coordination Sequence:
#
# PCOD8086046 Si02
#       8
#     8   8   8   8   8   8   8   8
#     4   8  15  30  51  72  93 116 148 195 244 279
#     4   9  18  33  52  72  92 114 150 202 246 277
#     4  10  20  33  51  70  88 121 163 197 232 276
#     4   9  16  28  49  75  98 118 148 195 240 274
#     4  10  21  34  46  63  97 135 158 184 225 280
#     4  10  19  31  47  68  95 128 157 183 230 285
#     4   9  17  30  45  66  98 130 154 182 226 277
#     4   9  16  26  47  75  96 118 153 192 229 270
#
# _framework density 16.945257999999999
#
# number of rings (size 3 to 8) (size 9 to 14) (size 15 to 20)
#    0.000    2.750    1.250    1.500    0.000    4.000 
#    0.000    5.000    0.000    4.500    0.000    0.000 
#    0.000    0.000    0.000    0.000    0.000    0.000 
#
# Total GULP energy -396601.213284 kJ/mol
# GULP energy per Si atom -12393.787915 kJ/mol
# Density = 1.690669 g / cm^3
# Si number density = 16.945258 Si / 1000 Ang^3
#
#
#
# Elastic Constant Matrix: (Units=GPa)
#
#
# Indices 1 2 3 4 5 6 
#
# 1 147.7869 30.1382 48.4329 0.0000 -3.7981 0.0000
# 2 30.1382 35.1378 21.7430 0.0000 0.4884 0.0000
# 3 48.4329 21.7430 57.3313 0.0000 6.2138 0.0000
# 4 0.0000 0.0000 0.0000 15.6792 0.0000 2.1087
# 5 -3.7981 0.4884 6.2138 0.0000 20.5531 0.0000
# 6 0.0000 0.0000 0.0000 2.1087 0.0000 23.4382
#
#
#
# Elastic Compliance Matrix: (Units=1/GPa)
#
#
# Indices 1 2 3 4 5 6 
#
# 1 0.010174 -0.004158 -0.007477 0.000000 0.004239 0.000000
# 2 -0.004158 0.039130 -0.011521 0.000000 0.001785 0.000000
# 3 -0.007477 -0.011521 0.029206 0.000000 -0.009938 0.000000
# 4 0.000000 0.000000 0.000000 0.064560 0.000000 -0.005808
# 5 0.004239 0.001785 -0.009938 0.000000 0.052400 0.000000
# 6 0.000000 0.000000 0.000000 -0.005808 0.000000 0.043188
#
#
# Mechanical properties :
#
#
# Convention : Reuss Voigt Hill
#
# Bulk Modulus (GPa) = 31.05879 48.98715 40.02297
# Shear Modulus (GPa) = 16.90888 21.26355 19.08621
#
# Velocity S-wave (km/s) = 3.16231 3.54621 3.35975
# Velocity P-wave (km/s) = 5.63048 6.76308 6.22260
#
# Compressibility (1/GPa) = 0.03219700
#
# Stress axis : x y z
#
# Youngs Moduli (GPa) = 98.29041 25.55566 34.24009
#
# Poissons Ratio (x) = 0.10627 0.25602
# Poissons Ratio (y) = 0.40873 0.39447
# Poissons Ratio (z) = 0.73494 0.29442
#
# Static dielectric constant tensor:
#      x y z
#    x 3.478880 0.000000 -0.267400 
#    y 0.000000 3.032770 0.000000 
#    z -0.267400 0.000000 3.083990 
# 
# 
# High freq. dielectric constant tensor:
#      x y z
#    x 1.663590 0.000000 -0.021160 
#    y 0.000000 1.638780 0.000000 
#    z -0.021160 0.000000 1.626330 
# 
# From -- ./inp_files/187482.got.cif
#   From: 2010.06.25/outbox.cif.g09.slc.cpg/sg12_94_cif.got.tgz:187482.got - 2010.06.28 00:19:55.
