data_PCOD8086679
_publ_section_title
;
Structure prediction by ZEFSAII (Michael W. Deem and Ramdas Pophale) SiO2 
 PCOD8086679
Probable space group: C 2/M
;
_chemical_formula_sum "Si O2"
_cell_formula_units_Z 48
_cell_length_a 32.369090
_cell_length_b 9.190497
_cell_length_c 16.414912
_cell_angle_alpha 90.000000
_cell_angle_beta 148.001228
_cell_angle_gamma 90.000000
_cell_volume 2587.634054
_symmetry_space_group_name_H-M "C 2/M"
_symmetry_group_IT_number 12
_symmetry_cell_setting 'monoclinic'
loop_
_space_group_symop_operation_xyz
x,y,z
-x,y,-z
-x,-y,-z
x,-y,z
1/2+x,1/2+y,z
1/2-x,1/2+y,-z
1/2-x,1/2-y,-z
1/2+x,1/2-y,z
loop_
_atom_site_type_symbol
_atom_site_label
_atom_site_fract_x
_atom_site_fract_y
_atom_site_fract_z
Si Si1 0.936111 0.827920 0.955079
Si Si2 0.432536 0.162636 0.276111
Si Si3 0.765107 0.827191 0.610103
Si Si4 0.349426 0.668503 0.460947
Si Si5 0.388305 0.835623 0.374946
Si Si6 0.527620 0.332721 0.806652
O O1 0.851272 0.783689 0.782462
O O2 0.947188 0.000000 0.977711
O O3 0.950621 0.762967 0.069586
O O4 0.000000 0.761267 0.000000
O O5 0.522431 0.165768 0.449881
O O6 0.382372 0.217346 0.270615
O O7 0.418873 0.260456 0.173725
O O8 0.406376 0.000000 0.210153
O O9 0.750000 0.750000 0.500000
O O10 0.705488 0.767227 0.576307
O O11 0.755111 0.000000 0.584024
O O12 0.324373 0.500000 0.422928
O O13 0.341133 0.725212 0.354051
O O14 0.436326 0.691181 0.639305
O O15 0.355260 0.000000 0.328822
O O16 0.550659 0.500000 0.842896
#
# Coordination Sequence:
#
# PCOD8086679 Si02
#       6
#     8   8   8   8   8   8
#     4   9  18  34  54  73  95 126 163 200 241 291
#     4   8  14  25  43  69 101 133 163 201 246 287
#     4  11  22  36  55  75  98 128 161 200 244 293
#     4  10  19  31  50  76 104 131 162 203 245 286
#     4   8  14  26  44  68 100 135 167 198 239 290
#     4   9  17  30  50  74  99 130 167 204 242 288
#
# _framework density 18.549762999999999
#
# number of rings (size 3 to 8) (size 9 to 14) (size 15 to 20)
#    0.000    2.833    0.000    3.000    0.000    4.000 
#    0.000    5.000    0.000    4.500    0.000    0.000 
#    0.000    0.000    0.000    0.000    0.000    0.000 
#
# Total GULP energy -297486.039886 kJ/mol
# GULP energy per Si atom -12395.251662 kJ/mol
# Density = 1.850754 g / cm^3
# Si number density = 18.549763 Si / 1000 Ang^3
#
#
#
# Elastic Constant Matrix: (Units=GPa)
#
#
# Indices 1 2 3 4 5 6 
#
# 1 160.9319 65.3979 62.2756 0.0000 -38.6022 0.0000
# 2 65.3979 78.3003 41.5554 0.0000 -10.8777 0.0000
# 3 62.2756 41.5554 74.0727 0.0000 -26.5291 0.0000
# 4 0.0000 0.0000 0.0000 16.1144 0.0000 -6.4038
# 5 -38.6022 -10.8777 -26.5291 0.0000 30.8206 0.0000
# 6 0.0000 0.0000 0.0000 -6.4038 0.0000 37.7712
#
#
#
# Elastic Compliance Matrix: (Units=1/GPa)
#
#
# Indices 1 2 3 4 5 6 
#
# 1 0.013264 -0.008198 -0.002369 0.000000 0.011680 0.000000
# 2 -0.008198 0.023506 -0.010121 0.000000 -0.010684 0.000000
# 3 -0.002369 -0.010121 0.027219 0.000000 0.016890 0.000000
# 4 0.000000 0.000000 0.000000 0.066539 0.000000 0.011281
# 5 0.011680 -0.010684 0.016890 0.000000 0.057842 0.000000
# 6 0.000000 0.000000 0.000000 0.011281 0.000000 0.028388
#
#
# Mechanical properties :
#
#
# Convention : Reuss Voigt Hill
#
# Bulk Modulus (GPa) = 44.22293 72.41808 58.32050
# Shear Modulus (GPa) = 18.82033 26.54630 22.68332
#
# Velocity S-wave (km/s) = 3.18871 3.78707 3.50070
# Velocity P-wave (km/s) = 6.11957 7.63199 6.91724
#
# Compressibility (1/GPa) = 0.02261271
#
# Stress axis : x y z
#
# Youngs Moduli (GPa) = 75.39415 42.54283 36.73963
#
# Poissons Ratio (x) = 0.34878 0.08702
# Poissons Ratio (y) = 0.61810 0.37183
# Poissons Ratio (z) = 0.17859 0.43056
#
# Static dielectric constant tensor:
#      x y z
#    x 3.928630 0.000000 -0.431960 
#    y 0.000000 3.353140 0.000000 
#    z -0.431960 0.000000 3.292500 
# 
# 
# High freq. dielectric constant tensor:
#      x y z
#    x 1.735670 0.000000 -0.023280 
#    y 0.000000 1.702440 0.000000 
#    z -0.023280 0.000000 1.688180 
# 
# From -- ./inp_files/249363.got.cif
#   From: 2010.06.25/outbox.cif.g09.slc.cpg/sg12_125_cif.got.tgz:249363.got - 2010.06.28 00:19:55.
