data_PCOD8086562
_publ_section_title
;
Structure prediction by ZEFSAII (Michael W. Deem and Ramdas Pophale) SiO2 
 PCOD8086562
Probable space group: C 2/M
;
_chemical_formula_sum "Si O2"
_cell_formula_units_Z 48
_cell_length_a 20.756201
_cell_length_b 9.424446
_cell_length_c 34.078104
_cell_angle_alpha 90.000000
_cell_angle_beta 155.619715
_cell_angle_gamma 90.000000
_cell_volume 2751.752635
_symmetry_space_group_name_H-M "C 2/M"
_symmetry_group_IT_number 12
_symmetry_cell_setting 'monoclinic'
loop_
_space_group_symop_operation_xyz
x,y,z
-x,y,-z
-x,-y,-z
x,-y,z
1/2+x,1/2+y,z
1/2-x,1/2+y,-z
1/2-x,1/2-y,-z
1/2+x,1/2-y,z
loop_
_atom_site_type_symbol
_atom_site_label
_atom_site_fract_x
_atom_site_fract_y
_atom_site_fract_z
Si Si1 0.529717 0.335003 0.897174
Si Si2 0.917741 0.336203 0.697916
Si Si3 0.325977 0.161706 0.388534
Si Si4 0.901194 0.668273 0.598773
Si Si5 0.349929 0.836386 0.107852
Si Si6 0.687887 0.166718 0.706965
O O1 0.534779 0.500000 0.889072
O O2 0.552865 0.253649 0.869336
O O3 0.359015 0.295674 0.819988
O O4 0.665519 0.295458 0.003808
O O5 0.871360 0.500000 0.675989
O O6 0.779764 0.248443 0.640509
O O7 0.936323 0.291819 0.663180
O O8 0.082427 0.305331 0.811317
O O9 0.500000 0.172090 0.500000
O O10 0.319599 0.228257 0.341333
O O11 0.265587 0.000000 0.354749
O O12 0.876456 0.500000 0.579381
O O13 0.750000 0.750000 0.500000
O O14 0.049785 0.729335 0.657114
O O15 0.372334 0.000000 0.108683
O O16 0.660527 0.000000 0.690047
#
# Coordination Sequence:
#
# PCOD8086562 Si02
#       6
#     8   8   8   8   8   8
#     4   9  16  29  50  73  97 128 164 200 241 289
#     4  10  20  33  49  73 103 130 157 200 254 298
#     4  10  19  31  50  73  95 124 167 211 243 283
#     4  10  21  37  53  70  98 134 168 202 245 295
#     4   9  17  29  47  74 103 127 156 198 249 297
#     4   9  17  31  50  72  96 127 167 205 239 283
#
# _framework density 17.443428999999998
#
# number of rings (size 3 to 8) (size 9 to 14) (size 15 to 20)
#    0.000    2.500    1.667    1.000    0.000    2.333 
#    0.000    2.500    0.000    5.000    0.000    0.000 
#    0.000    8.000    0.000    0.000    0.000    0.000 
#
# Total GULP energy -297496.070765 kJ/mol
# GULP energy per Si atom -12395.669615 kJ/mol
# Density = 1.740373 g / cm^3
# Si number density = 17.443429 Si / 1000 Ang^3
#
#
#
# Elastic Constant Matrix: (Units=GPa)
#
#
# Indices 1 2 3 4 5 6 
#
# 1 128.0456 38.1106 74.3275 -0.0002 6.6433 -0.0001
# 2 38.1106 35.1604 36.9385 0.0004 -0.1813 -0.0005
# 3 74.3275 36.9385 137.1891 0.0002 2.7561 0.0007
# 4 -0.0002 0.0004 0.0002 9.2984 0.0011 -3.3934
# 5 6.6433 -0.1813 2.7561 0.0011 32.9669 0.0000
# 6 -0.0001 -0.0005 0.0007 -3.3934 0.0000 21.1328
#
#
#
# Elastic Compliance Matrix: (Units=1/GPa)
#
#
# Indices 1 2 3 4 5 6 
#
# 1 0.013558 -0.009819 -0.004654 0.000001 -0.002397 0.000000
# 2 -0.009819 0.046811 -0.007342 -0.000002 0.002850 0.000001
# 3 -0.004654 -0.007342 0.011789 0.000000 -0.000088 -0.000001
# 4 0.000001 -0.000002 0.000000 0.114240 -0.000004 0.018344
# 5 -0.002397 0.002850 -0.000088 -0.000004 0.030840 -0.000001
# 6 0.000000 0.000001 -0.000001 0.018344 -0.000001 0.050265
#
#
# Mechanical properties :
#
#
# Convention : Reuss Voigt Hill
#
# Bulk Modulus (GPa) = 35.05069 66.57204 50.81137
# Shear Modulus (GPa) = 15.59377 22.74753 19.17065
#
# Velocity S-wave (km/s) = 2.99316 3.61511 3.31874
# Velocity P-wave (km/s) = 5.66418 7.46142 6.62404
#
# Compressibility (1/GPa) = 0.02853011
#
# Stress axis : x y z
#
# Youngs Moduli (GPa) = 73.75851 21.36237 84.82521
#
# Poissons Ratio (x) = 0.20975 0.39474
# Poissons Ratio (y) = 0.72422 0.62275
# Poissons Ratio (z) = 0.34324 0.15683
#
# Static dielectric constant tensor:
#      x y z
#    x 3.263370 0.000000 -0.007700 
#    y 0.000000 3.114460 0.000000 
#    z -0.007700 0.000000 3.605380 
# 
# 
# High freq. dielectric constant tensor:
#      x y z
#    x 1.654910 0.000000 0.000700 
#    y 0.000000 1.652540 0.000000 
#    z 0.000700 0.000000 1.695980 
# 
# From -- ./inp_files/274058.got.cif
#   From: 2010.06.25/outbox.cif.g09.slc.cpg/sg12_138_cif.got.tgz:274058.got - 2010.06.28 00:19:55.
