data_PCOD8086548
_publ_section_title
;
Structure prediction by ZEFSAII (Michael W. Deem and Ramdas Pophale) SiO2 
 PCOD8086548
Probable space group: C 2/M
;
_chemical_formula_sum "Si O2"
_cell_formula_units_Z 64
_cell_length_a 19.718430
_cell_length_b 22.669431
_cell_length_c 8.789354
_cell_angle_alpha 90.000000
_cell_angle_beta 65.104341
_cell_angle_gamma 90.000000
_cell_volume 3563.801800
_symmetry_space_group_name_H-M "C 2/M"
_symmetry_group_IT_number 12
_symmetry_cell_setting 'monoclinic'
loop_
_space_group_symop_operation_xyz
x,y,z
-x,y,-z
-x,-y,-z
x,-y,z
1/2+x,1/2+y,z
1/2-x,1/2+y,-z
1/2-x,1/2-y,-z
1/2+x,1/2-y,z
loop_
_atom_site_type_symbol
_atom_site_label
_atom_site_fract_x
_atom_site_fract_y
_atom_site_fract_z
Si Si1 0.223292 0.161132 0.955416
Si Si2 0.977131 0.252445 0.679483
Si Si3 0.480944 0.566548 0.180121
Si Si4 0.336289 0.432264 0.492436
Si Si5 0.149280 0.287926 0.992568
Si Si6 0.749155 0.840936 0.407759
Si Si7 0.595182 0.627135 0.275773
Si Si8 0.634208 0.763088 0.670451
O O1 0.293190 0.162061 0.005690
O O2 0.250959 0.136841 0.766478
O O3 0.189227 0.225470 0.968016
O O4 0.159974 0.119820 0.087868
O O5 0.924410 0.292982 0.833198
O O6 0.930151 0.194506 0.674241
O O7 0.000000 0.284853 0.500000
O O8 0.052579 0.239736 0.701657
O O9 0.510059 0.500000 0.142217
O O10 0.392898 0.570108 0.295894
O O11 0.522392 0.594532 0.284238
O O12 0.500000 0.598388 0.000000
O O13 0.315097 0.500000 0.552043
O O14 0.262798 0.396394 0.507901
O O15 0.375258 0.401350 0.598355
O O16 0.128356 0.297208 0.836655
O O17 0.669605 0.810062 0.518434
O O18 0.815648 0.794913 0.372515
#
# Coordination Sequence:
#
# PCOD8086548 Si02
#       8
#     8   8   8   8   8   8   8   8
#     4   9  18  31  48  68  94 130 163 203 251 298
#     4  11  20  29  45  69  98 129 161 197 242 296
#     4  10  20  32  45  63  89 122 163 208 246 281
#     4  11  22  35  50  70  99 136 176 213 249 291
#     4   9  18  31  45  68  99 127 161 201 249 304
#     4  10  19  33  51  71  97 128 167 208 253 300
#     4  11  20  31  48  67  95 130 169 205 242 289
#     4  10  19  31  50  72  97 130 163 204 254 303
#
# _framework density 17.958349999999999
#
# number of rings (size 3 to 8) (size 9 to 14) (size 15 to 20)
#    0.000    1.875    0.000    5.625    0.000    7.000 
#    0.000    0.625    0.000    0.000    0.000    0.000 
#    0.000   13.500    0.000    0.000    0.000    0.125 
#
# Total GULP energy -396721.880028 kJ/mol
# GULP energy per Si atom -12397.558751 kJ/mol
# Density = 1.791748 g / cm^3
# Si number density = 17.958350 Si / 1000 Ang^3
#
#
#
# Elastic Constant Matrix: (Units=GPa)
#
#
# Indices 1 2 3 4 5 6 
#
# 1 63.9153 20.1048 19.0105 0.0000 6.1707 0.0000
# 2 20.1048 45.9547 12.7729 0.0000 -0.9122 0.0000
# 3 19.0105 12.7729 106.2501 0.0000 4.1247 0.0000
# 4 0.0000 0.0000 0.0000 16.5218 0.0000 0.7949
# 5 6.1707 -0.9122 4.1247 0.0000 32.3418 0.0000
# 6 0.0000 0.0000 0.0000 0.7949 0.0000 21.8597
#
#
#
# Elastic Compliance Matrix: (Units=1/GPa)
#
#
# Indices 1 2 3 4 5 6 
#
# 1 0.019140 -0.007792 -0.002349 0.000000 -0.003572 0.000000
# 2 -0.007792 0.025716 -0.001792 0.000000 0.002441 0.000000
# 3 -0.002349 -0.001792 0.010082 0.000000 -0.000888 0.000000
# 4 0.000000 0.000000 0.000000 0.060632 0.000000 -0.002205
# 5 -0.003572 0.002441 -0.000888 0.000000 0.031783 0.000000
# 6 0.000000 0.000000 0.000000 -0.002205 0.000000 0.045826
#
#
# Mechanical properties :
#
#
# Convention : Reuss Voigt Hill
#
# Bulk Modulus (GPa) = 32.18317 35.54404 33.86360
# Shear Modulus (GPa) = 21.98737 25.09347 23.54042
#
# Velocity S-wave (km/s) = 3.50287 3.74212 3.62447
# Velocity P-wave (km/s) = 5.85833 6.20538 6.03435
#
# Compressibility (1/GPa) = 0.03107214
#
# Stress axis : x y z
#
# Youngs Moduli (GPa) = 52.24604 38.88642 99.18665
#
# Poissons Ratio (x) = 0.30299 0.23302
# Poissons Ratio (y) = 0.40708 0.17775
# Poissons Ratio (z) = 0.12274 0.06969
#
# Static dielectric constant tensor:
#      x y z
#    x 3.287670 0.000000 0.042920 
#    y 0.000000 2.958070 0.000000 
#    z 0.042920 0.000000 3.675490 
# 
# 
# High freq. dielectric constant tensor:
#      x y z
#    x 1.686240 0.000000 0.010770 
#    y 0.000000 1.635100 0.000000 
#    z 0.010770 0.000000 1.716400 
# 
# From -- ./inp_files/90386.got.cif
#   From: 2010.06.25/outbox.cif.g09.slc.cpg/sg12_46_cif.got.tgz:90386.got - 2010.06.28 00:19:55.
