data_PCOD8086953
_publ_section_title
;
Structure prediction by ZEFSAII (Michael W. Deem and Ramdas Pophale) SiO2 
 PCOD8086953
Probable space group: C 2/M
;
_chemical_formula_sum "Si O2"
_cell_formula_units_Z 56
_cell_length_a 20.621874
_cell_length_b 8.976624
_cell_length_c 27.949570
_cell_angle_alpha 90.000000
_cell_angle_beta 145.237826
_cell_angle_gamma 90.000000
_cell_volume 2949.997651
_symmetry_space_group_name_H-M "C 2/M"
_symmetry_group_IT_number 12
_symmetry_cell_setting 'monoclinic'
loop_
_space_group_symop_operation_xyz
x,y,z
-x,y,-z
-x,-y,-z
x,-y,z
1/2+x,1/2+y,z
1/2-x,1/2+y,-z
1/2-x,1/2-y,-z
1/2+x,1/2-y,z
loop_
_atom_site_type_symbol
_atom_site_label
_atom_site_fract_x
_atom_site_fract_y
_atom_site_fract_z
Si Si1 0.439698 0.323366 0.225484
Si Si2 0.451467 0.676859 0.340628
Si Si3 0.994907 0.322758 0.943118
Si Si4 0.819617 0.674051 0.499850
Si Si5 0.831252 0.173282 0.683308
Si Si6 0.726895 0.176590 0.036204
Si Si7 0.783105 0.323800 0.753368
O O1 0.443948 0.500000 0.230323
O O2 0.446524 0.262119 0.283445
O O3 0.546146 0.264297 0.259185
O O4 0.323011 0.267358 0.131249
O O5 0.468990 0.500000 0.353097
O O6 0.555872 0.755821 0.430259
O O7 0.336508 0.726971 0.297133
O O8 0.991799 0.500000 0.943596
O O9 0.883879 0.261166 0.848363
O O10 0.000000 0.257696 0.000000
O O11 0.105900 0.267077 0.982151
O O12 0.827464 0.500000 0.516111
O O13 0.750000 0.750000 0.500000
O O14 0.758459 0.704181 0.412736
O O15 0.792117 0.260971 0.705924
O O16 0.838812 0.000000 0.700741
O O17 0.730268 0.000000 0.032489
O O18 0.750000 0.250000 0.000000
O O19 0.792006 0.500000 0.755929
#
# Coordination Sequence:
#
# PCOD8086953 Si02
#       7
#     8   8   8   8   8   8   8
#     4   9  17  33  55  77 102 143 186 220 270 329
#     4  10  20  37  58  80 109 143 185 228 269 325
#     4   9  17  32  54  81 109 142 185 228 270 317
#     4  11  22  38  60  85 110 142 182 226 275 327
#     4  10  21  37  56  77 110 148 179 218 275 339
#     4  10  19  31  52  78 107 140 179 226 271 321
#     4  10  21  35  55  83 113 145 183 230 275 317
#
# _framework density 18.983066999999998
#
# number of rings (size 3 to 8) (size 9 to 14) (size 15 to 20)
#    0.000    2.143    1.429    2.143    0.000    5.714 
#    0.000    3.571    0.000    3.429    0.000    0.000 
#    0.000    0.000    0.000    0.000    0.000    0.000 
#
# Total GULP energy -347255.288856 kJ/mol
# GULP energy per Si atom -12401.974602 kJ/mol
# Density = 1.893986 g / cm^3
# Si number density = 18.983067 Si / 1000 Ang^3
#
#
#
# Elastic Constant Matrix: (Units=GPa)
#
#
# Indices 1 2 3 4 5 6 
#
# 1 170.3846 35.2480 78.7135 0.0000 12.7879 0.0002
# 2 35.2480 28.8689 37.1071 -0.0001 4.6502 0.0011
# 3 78.7135 37.1071 151.5299 0.0000 24.2916 -0.0002
# 4 0.0000 -0.0001 0.0000 24.3096 0.0000 -1.7996
# 5 12.7879 4.6502 24.2916 0.0000 37.2446 0.0001
# 6 0.0002 0.0011 -0.0002 -1.7996 0.0001 31.6301
#
#
#
# Elastic Compliance Matrix: (Units=1/GPa)
#
#
# Indices 1 2 3 4 5 6 
#
# 1 0.008580 -0.006948 -0.002705 0.000000 -0.000314 0.000000
# 2 -0.006948 0.056307 -0.010537 0.000000 0.002227 -0.000002
# 3 -0.002705 -0.010537 0.011419 0.000000 -0.005203 0.000000
# 4 0.000000 0.000000 0.000000 0.041310 0.000000 0.002350
# 5 -0.000314 0.002227 -0.005203 0.000000 0.030073 0.000000
# 6 0.000000 -0.000002 0.000000 0.002350 0.000000 0.031749
#
#
# Mechanical properties :
#
#
# Convention : Reuss Voigt Hill
#
# Bulk Modulus (GPa) = 27.83452 72.54672 50.19062
# Shear Modulus (GPa) = 21.57104 31.95118 26.76111
#
# Velocity S-wave (km/s) = 3.37461 4.10706 3.75872
# Velocity P-wave (km/s) = 5.46613 7.79680 6.73308
#
# Compressibility (1/GPa) = 0.03592662
#
# Stress axis : x y z
#
# Youngs Moduli (GPa) = 116.55510 17.75973 87.57459
#
# Poissons Ratio (x) = 0.12339 0.23689
# Poissons Ratio (y) = 0.80982 0.92273
# Poissons Ratio (z) = 0.31528 0.18713
#
# Static dielectric constant tensor:
#      x y z
#    x 3.566690 0.000000 0.085270 
#    y 0.000000 3.120040 0.000000 
#    z 0.085270 0.000000 3.765010 
# 
# 
# High freq. dielectric constant tensor:
#      x y z
#    x 1.749860 0.000000 0.003450 
#    y 0.000000 1.699270 0.000000 
#    z 0.003450 0.000000 1.757430 
# 
# From -- ./inp_files/363197.got.cif
#   From: 2010.06.25/outbox.cif.g09.slc.cpg/sg12_182_cif.got.tgz:363197.got - 2010.06.28 00:19:55.
