data_PCOD8086731
_publ_section_title
;
Structure prediction by ZEFSAII (Michael W. Deem and Ramdas Pophale) SiO2 
 PCOD8086731
Probable space group: C 2/M
;
_chemical_formula_sum "Si O2"
_cell_formula_units_Z 64
_cell_length_a 23.389794
_cell_length_b 9.110691
_cell_length_c 17.439294
_cell_angle_alpha 90.000000
_cell_angle_beta 71.568297
_cell_angle_gamma 90.000000
_cell_volume 3525.624604
_symmetry_space_group_name_H-M "C 2/M"
_symmetry_group_IT_number 12
_symmetry_cell_setting 'monoclinic'
loop_
_space_group_symop_operation_xyz
x,y,z
-x,y,-z
-x,-y,-z
x,-y,z
1/2+x,1/2+y,z
1/2-x,1/2+y,-z
1/2-x,1/2-y,-z
1/2+x,1/2-y,z
loop_
_atom_site_type_symbol
_atom_site_label
_atom_site_fract_x
_atom_site_fract_y
_atom_site_fract_z
Si Si1 0.845549 0.328696 0.770755
Si Si2 0.103758 0.830914 0.971820
Si Si3 0.174194 0.329310 0.685842
Si Si4 0.812670 0.327920 0.487430
Si Si5 0.759348 0.831827 0.074561
Si Si6 0.437366 0.168095 0.861497
Si Si7 0.570991 0.829071 0.838476
Si Si8 0.311466 0.325352 0.636466
O O1 0.840549 0.500000 0.751181
O O2 0.787111 0.273341 0.842360
O O3 0.905363 0.295079 0.794616
O O4 0.849134 0.231659 0.692847
O O5 0.173796 0.807752 0.921763
O O6 0.065575 0.749796 0.922712
O O7 0.085082 0.000000 0.979611
O O8 0.090535 0.768126 0.060888
O O9 0.176756 0.500000 0.702596
O O10 0.151196 0.303833 0.607829
O O11 0.124848 0.258704 0.764234
O O12 0.241867 0.267965 0.671597
O O13 0.803911 0.500000 0.508423
O O14 0.750000 0.250000 0.500000
O O15 0.842815 0.247577 0.547790
O O16 0.745065 0.000000 0.062781
O O17 0.750000 0.750000 0.000000
O O18 0.508327 0.197411 0.820651
O O19 0.424507 0.000000 0.890337
O O20 0.582028 0.000000 0.849423
O O21 0.315531 0.500000 0.627968
#
# Coordination Sequence:
#
# PCOD8086731 Si02
#       8
#     8   8   8   8   8   8   8   8
#     4  10  20  34  50  71  99 129 166 209 248 292
#     4  11  22  34  50  74 100 129 165 208 256 300
#     4   8  16  31  51  76 102 126 158 201 244 289
#     4   9  16  29  50  76 106 134 159 195 246 297
#     4  10  20  33  50  71  98 129 163 202 250 299
#     4  10  21  36  53  70  93 132 175 210 248 292
#     4  10  20  35  54  73  95 129 171 210 246 292
#     4  10  19  31  50  78 105 131 162 197 247 303
#
# _framework density 18.152811
#
# number of rings (size 3 to 8) (size 9 to 14) (size 15 to 20)
#    0.000    2.250    1.250    3.000    0.000    3.500 
#    0.000    3.125    0.000    0.750    0.000    5.250 
#    0.000    0.000    0.000    0.000    0.000    0.000 
#
# Total GULP energy -396721.760426 kJ/mol
# GULP energy per Si atom -12397.555013 kJ/mol
# Density = 1.811149 g / cm^3
# Si number density = 18.152811 Si / 1000 Ang^3
#
#
#
# Elastic Constant Matrix: (Units=GPa)
#
#
# Indices 1 2 3 4 5 6 
#
# 1 73.4432 29.2272 31.3972 0.0000 17.2811 0.0000
# 2 29.2272 74.1672 43.5200 0.0000 14.7312 0.0000
# 3 31.3972 43.5200 100.3324 0.0000 27.9288 0.0000
# 4 0.0000 0.0000 0.0000 30.4449 0.0000 6.5321
# 5 17.2811 14.7312 27.9288 0.0000 26.1947 0.0000
# 6 0.0000 0.0000 0.0000 6.5321 0.0000 20.6790
#
#
#
# Elastic Compliance Matrix: (Units=1/GPa)
#
#
# Indices 1 2 3 4 5 6 
#
# 1 0.017894 -0.004690 -0.001441 0.000000 -0.007631 0.000000
# 2 -0.004690 0.019438 -0.006800 0.000000 -0.000587 0.000000
# 3 -0.001441 -0.006800 0.017119 0.000000 -0.013477 0.000000
# 4 0.000000 0.000000 0.000000 0.035234 0.000000 -0.011130
# 5 -0.007631 -0.000587 -0.013477 0.000000 0.057909 0.000000
# 6 0.000000 0.000000 0.000000 -0.011130 0.000000 0.051874
#
#
# Mechanical properties :
#
#
# Convention : Reuss Voigt Hill
#
# Bulk Modulus (GPa) = 34.97976 50.69241 42.83608
# Shear Modulus (GPa) = 21.28910 25.05027 23.16969
#
# Velocity S-wave (km/s) = 3.42829 3.71882 3.57651
# Velocity P-wave (km/s) = 5.91459 6.81363 6.37996
#
# Compressibility (1/GPa) = 0.02858796
#
# Stress axis : x y z
#
# Youngs Moduli (GPa) = 55.88436 51.44486 58.41414
#
# Poissons Ratio (x) = 0.24129 0.08417
# Poissons Ratio (y) = 0.26212 0.39724
# Poissons Ratio (z) = 0.08053 0.34985
#
# Static dielectric constant tensor:
#      x y z
#    x 3.334320 0.000000 -0.048710 
#    y 0.000000 3.292750 0.000000 
#    z -0.048710 0.000000 3.514900 
# 
# 
# High freq. dielectric constant tensor:
#      x y z
#    x 1.682600 0.000000 0.012240 
#    y 0.000000 1.694950 0.000000 
#    z 0.012240 0.000000 1.703870 
# 
# From -- ./inp_files/287526.got.cif
#   From: 2010.06.25/outbox.cif.g09.slc.cpg/sg12_144_cif.got.tgz:287526.got - 2010.06.28 00:19:55.
