data_PCOD8086210
_publ_section_title
;
Structure prediction by ZEFSAII (Michael W. Deem and Ramdas Pophale) SiO2 
 PCOD8086210
Probable space group: C 2/M
;
_chemical_formula_sum "Si O2"
_cell_formula_units_Z 48
_cell_length_a 20.577267
_cell_length_b 8.917065
_cell_length_c 28.167126
_cell_angle_alpha 90.000000
_cell_angle_beta 148.356788
_cell_angle_gamma 90.000000
_cell_volume 2711.463287
_symmetry_space_group_name_H-M "C 2/M"
_symmetry_group_IT_number 12
_symmetry_cell_setting 'monoclinic'
loop_
_space_group_symop_operation_xyz
x,y,z
-x,y,-z
-x,-y,-z
x,-y,z
1/2+x,1/2+y,z
1/2-x,1/2+y,-z
1/2-x,1/2-y,-z
1/2+x,1/2-y,z
loop_
_atom_site_type_symbol
_atom_site_label
_atom_site_fract_x
_atom_site_fract_y
_atom_site_fract_z
Si Si1 0.020561 0.821575 0.727712
Si Si2 0.247918 0.166183 0.926744
Si Si3 0.125338 0.675532 0.440962
Si Si4 0.126067 0.676743 0.278557
Si Si5 0.935909 0.166596 0.099250
Si Si6 0.124871 0.673630 0.550879
O O1 0.161787 0.776976 0.829627
O O2 0.991493 0.748919 0.658830
O O3 0.923173 0.759108 0.705227
O O4 0.003877 0.000000 0.716084
O O5 0.161549 0.162840 0.918994
O O6 0.298597 0.000000 0.947655
O O7 0.366626 0.271931 0.008997
O O8 0.130845 0.500000 0.433378
O O9 0.250000 0.750000 0.500000
O O10 0.106122 0.710063 0.484025
O O11 0.112022 0.500000 0.276211
O O12 0.268313 0.723289 0.360267
O O13 0.050580 0.727797 0.184825
O O14 0.985531 0.000000 0.119067
O O15 0.159924 0.500000 0.580527
O O16 0.000000 0.717526 0.500000
#
# Coordination Sequence:
#
# PCOD8086210 Si02
#       6
#     8   8   8   8   8   8
#     4  10  19  31  48  71 102 135 168 207 252 303
#     4   8  15  26  40  63  95 129 163 202 246 294
#     4  11  21  33  53  77 102 133 170 212 256 304
#     4  11  20  30  48  72  99 132 170 211 253 302
#     4   9  16  26  42  64  95 131 164 202 249 302
#     4  10  22  39  55  72 100 137 174 212 255 304
#
# _framework density 17.702618999999999
#
# number of rings (size 3 to 8) (size 9 to 14) (size 15 to 20)
#    0.000    2.167    1.667    4.000    0.000    5.667 
#    0.000    0.000    0.000    0.000    0.000    1.167 
#    0.000    9.333    0.000    0.000    0.000    0.000 
#
# Total GULP energy -297574.872367 kJ/mol
# GULP energy per Si atom -12398.953015 kJ/mol
# Density = 1.766233 g / cm^3
# Si number density = 17.702619 Si / 1000 Ang^3
#
#
#
# Elastic Constant Matrix: (Units=GPa)
#
#
# Indices 1 2 3 4 5 6 
#
# 1 59.8224 32.2966 41.7305 0.0000 -1.1932 0.0000
# 2 32.2966 110.6720 69.1604 0.0000 -5.0136 -0.0001
# 3 41.7305 69.1604 154.1241 0.0001 -17.7811 0.0000
# 4 0.0000 0.0000 0.0001 38.7074 0.0000 -3.4118
# 5 -1.1932 -5.0136 -17.7811 0.0000 15.9263 0.0000
# 6 0.0000 -0.0001 0.0000 -3.4118 0.0000 15.2634
#
#
#
# Elastic Compliance Matrix: (Units=1/GPa)
#
#
# Indices 1 2 3 4 5 6 
#
# 1 0.021975 -0.003559 -0.004927 0.000000 -0.004975 0.000000
# 2 -0.003559 0.013234 -0.005194 0.000000 -0.001899 0.000000
# 3 -0.004927 -0.005194 0.011389 0.000000 0.010711 0.000000
# 4 0.000000 0.000000 0.000000 0.026354 0.000000 0.005891
# 5 -0.004975 -0.001899 0.010711 0.000000 0.073777 0.000000
# 6 0.000000 0.000000 0.000000 0.005891 0.000000 0.066833
#
#
# Mechanical properties :
#
#
# Convention : Reuss Voigt Hill
#
# Bulk Modulus (GPa) = 51.98092 67.88816 59.93454
# Shear Modulus (GPa) = 20.21548 26.07480 23.14514
#
# Velocity S-wave (km/s) = 3.38294 3.84205 3.61978
# Velocity P-wave (km/s) = 6.68477 7.62327 7.16939
#
# Compressibility (1/GPa) = 0.01923783
#
# Stress axis : x y z
#
# Youngs Moduli (GPa) = 45.50563 75.56184 87.80698
#
# Poissons Ratio (x) = 0.26896 0.43260
# Poissons Ratio (y) = 0.16198 0.45607
# Poissons Ratio (z) = 0.22419 0.39247
#
# Static dielectric constant tensor:
#      x y z
#    x 2.816840 0.000000 -0.238880 
#    y 0.000000 3.420480 0.000000 
#    z -0.238880 0.000000 3.723110 
# 
# 
# High freq. dielectric constant tensor:
#      x y z
#    x 1.614010 0.000000 -0.016640 
#    y 0.000000 1.695470 0.000000 
#    z -0.016640 0.000000 1.705190 
# 
# From -- ./inp_files/319573.got.cif
#   From: 2010.06.25/outbox.cif.g09.slc.cpg/sg12_160_cif.got.tgz:319573.got - 2010.06.28 00:19:55.
