data_PCOD8086089
_publ_section_title
;
Structure prediction by ZEFSAII (Michael W. Deem and Ramdas Pophale) SiO2 
 PCOD8086089
Probable space group: C 2/M
;
_chemical_formula_sum "Si O2"
_cell_formula_units_Z 56
_cell_length_a 25.805515
_cell_length_b 9.120013
_cell_length_c 19.323509
_cell_angle_alpha 90.000000
_cell_angle_beta 47.506313
_cell_angle_gamma 90.000000
_cell_volume 3353.271435
_symmetry_space_group_name_H-M "C 2/M"
_symmetry_group_IT_number 12
_symmetry_cell_setting 'monoclinic'
loop_
_space_group_symop_operation_xyz
x,y,z
-x,y,-z
-x,-y,-z
x,-y,z
1/2+x,1/2+y,z
1/2-x,1/2+y,-z
1/2-x,1/2-y,-z
1/2+x,1/2-y,z
loop_
_atom_site_type_symbol
_atom_site_label
_atom_site_fract_x
_atom_site_fract_y
_atom_site_fract_z
Si Si1 0.354505 0.330590 0.393489
Si Si2 0.245775 0.171200 0.399343
Si Si3 0.549289 0.169605 0.889950
Si Si4 0.359001 0.170312 0.887969
Si Si5 0.249405 0.829207 0.105687
Si Si6 0.999506 0.171627 0.798580
Si Si7 0.296798 0.827428 0.210266
O O1 0.337971 0.500000 0.395346
O O2 0.314089 0.244000 0.370717
O O3 0.325642 0.282785 0.495785
O O4 0.437029 0.298229 0.312706
O O5 0.242600 0.215317 0.321070
O O6 0.259584 0.000000 0.393028
O O7 0.517316 0.264043 0.857161
O O8 0.625911 0.232910 0.840774
O O9 0.552964 0.000000 0.863060
O O10 0.500000 0.189260 0.000000
O O11 0.316522 0.238324 0.862428
O O12 0.432992 0.250209 0.825536
O O13 0.371467 0.000000 0.862051
O O14 0.317414 0.195918 0.996738
O O15 0.267871 0.762560 0.164448
O O16 0.228285 0.000000 0.126860
O O17 0.984164 0.000000 0.820795
O O18 0.303627 0.000000 0.193237
#
# Coordination Sequence:
#
# PCOD8086089 Si02
#       7
#     8   8   8   8   8   8   8
#     4   9  18  30  45  69  99 127 159 202 241 280
#     4   9  16  29  49  70  94 126 164 198 237 291
#     4  10  19  31  47  70 100 131 162 195 236 289
#     4  10  20  34  52  72  95 127 166 202 239 288
#     4   9  18  34  53  73  96 122 159 205 245 283
#     4  11  21  32  47  70 101 132 162 199 244 287
#     4   9  16  28  49  73  95 124 158 195 241 291
#
# _framework density 16.700109000000001
#
# number of rings (size 3 to 8) (size 9 to 14) (size 15 to 20)
#    0.000    2.429    1.429    1.714    0.000    3.714 
#    0.000    1.429    0.000    0.857    0.000    6.000 
#    0.000    0.000    0.000    0.000    0.000    0.000 
#
# Total GULP energy -347141.057660 kJ/mol
# GULP energy per Si atom -12397.894916 kJ/mol
# Density = 1.666210 g / cm^3
# Si number density = 16.700109 Si / 1000 Ang^3
#
#
#
# Elastic Constant Matrix: (Units=GPa)
#
#
# Indices 1 2 3 4 5 6 
#
# 1 122.1279 49.2328 71.2042 0.0024 -4.9525 0.0026
# 2 49.2328 62.6599 43.3895 0.0089 -8.7569 -0.0127
# 3 71.2042 43.3895 106.1695 0.0016 -1.0836 -0.0090
# 4 0.0024 0.0089 0.0016 14.4522 0.0000 -2.0710
# 5 -4.9525 -8.7569 -1.0836 0.0000 22.8418 0.0074
# 6 0.0026 -0.0127 -0.0090 -2.0710 0.0074 28.1219
#
#
#
# Elastic Compliance Matrix: (Units=1/GPa)
#
#
# Indices 1 2 3 4 5 6 
#
# 1 0.015305 -0.006792 -0.007485 0.000001 0.000359 -0.000007
# 2 -0.006792 0.026881 -0.006343 -0.000014 0.008532 0.000008
# 3 -0.007485 -0.006343 0.016998 0.000004 -0.003248 0.000004
# 4 0.000001 -0.000014 0.000004 0.069932 -0.000006 0.005150
# 5 0.000359 0.008532 -0.003248 -0.000006 0.046974 -0.000010
# 6 -0.000007 0.000008 0.000004 0.005150 -0.000010 0.035939
#
#
# Mechanical properties :
#
#
# Convention : Reuss Voigt Hill
#
# Bulk Modulus (GPa) = 55.73255 68.73446 62.23350
# Shear Modulus (GPa) = 19.28648 21.55857 20.42252
#
# Velocity S-wave (km/s) = 3.40203 3.59684 3.50079
# Velocity P-wave (km/s) = 6.99119 7.64834 7.32714
#
# Compressibility (1/GPa) = 0.01794284
#
# Stress axis : x y z
#
# Youngs Moduli (GPa) = 65.33998 37.20164 58.83023
#
# Poissons Ratio (x) = 0.25267 0.44034
# Poissons Ratio (y) = 0.44378 0.37319
# Poissons Ratio (z) = 0.48906 0.23599
#
# Static dielectric constant tensor:
#      x y z
#    x 3.101680 -0.000010 0.076440 
#    y -0.000010 3.081900 0.000000 
#    z 0.076440 0.000000 3.420930 
# 
# 
# High freq. dielectric constant tensor:
#      x y z
#    x 1.626980 0.000000 0.002100 
#    y 0.000000 1.634000 0.000000 
#    z 0.002100 0.000000 1.649100 
# 
# From -- ./inp_files/281035.got.cif
#   From: 2010.06.25/outbox.cif.g09.slc.cpg/sg12_141_cif.got.tgz:281035.got - 2010.06.28 00:19:55.
