data_PCOD8086730
_publ_section_title
;
Structure prediction by ZEFSAII (Michael W. Deem and Ramdas Pophale) SiO2 
 PCOD8086730
Probable space group: C 2/M
;
_chemical_formula_sum "Si O2"
_cell_formula_units_Z 56
_cell_length_a 27.945651
_cell_length_b 13.007265
_cell_length_c 9.364179
_cell_angle_alpha 90.000000
_cell_angle_beta 59.651392
_cell_angle_gamma 90.000000
_cell_volume 2937.407656
_symmetry_space_group_name_H-M "C 2/M"
_symmetry_group_IT_number 12
_symmetry_cell_setting 'monoclinic'
loop_
_space_group_symop_operation_xyz
x,y,z
-x,y,-z
-x,-y,-z
x,-y,z
1/2+x,1/2+y,z
1/2-x,1/2+y,-z
1/2-x,1/2-y,-z
1/2+x,1/2-y,z
loop_
_atom_site_type_symbol
_atom_site_label
_atom_site_fract_x
_atom_site_fract_y
_atom_site_fract_z
Si Si1 0.219994 0.224385 0.692239
Si Si2 0.462203 0.384529 0.366550
Si Si3 0.795620 0.289060 0.825634
Si Si4 0.653444 0.118123 0.990246
Si Si5 0.109200 0.884270 0.790134
Si Si6 0.877963 0.116590 0.727794
Si Si7 0.567196 0.720785 0.108531
O O1 0.250000 0.250000 0.500000
O O2 0.265704 0.169444 0.727009
O O3 0.193518 0.322005 0.817333
O O4 0.172525 0.145253 0.720782
O O5 0.487797 0.500000 0.306118
O O6 0.408305 0.369499 0.347684
O O7 0.438566 0.373427 0.562069
O O8 0.506625 0.294901 0.268079
O O9 0.834288 0.193064 0.720237
O O10 0.750000 0.250000 0.000000
O O11 0.828402 0.374385 0.869422
O O12 0.652508 0.000000 0.944522
O O13 0.590171 0.162439 0.078787
O O14 0.101060 0.000000 0.852473
O O15 0.066370 0.816359 0.946820
O O16 0.886898 0.150883 0.877873
O O17 0.855234 0.000000 0.753165
#
# Coordination Sequence:
#
# PCOD8086730 Si02
#       7
#     8   8   8   8   8   8   8
#     4  10  20  34  53  79 107 135 171 216 265 305
#     4  10  19  31  51  78 106 133 157 200 269 322
#     4   9  19  33  51  76 103 140 175 206 253 304
#     4   9  20  37  54  73 101 140 182 215 248 303
#     4  10  20  32  48  74 104 132 164 201 252 317
#     4  10  19  31  50  78 105 127 162 208 255 309
#     4  10  19  32  52  74  99 131 168 208 251 302
#
# _framework density 19.064430000000002
#
# number of rings (size 3 to 8) (size 9 to 14) (size 15 to 20)
#    0.000    2.286    0.000    3.857    0.000    5.714 
#    0.000    0.000    0.000   13.714    0.000    0.000 
#    0.000    0.000    0.000    0.000    0.000    0.000 
#
# Total GULP energy -346983.003008 kJ/mol
# GULP energy per Si atom -12392.250107 kJ/mol
# Density = 1.902104 g / cm^3
# Si number density = 19.064430 Si / 1000 Ang^3
#
#
#
# Elastic Constant Matrix: (Units=GPa)
#
#
# Indices 1 2 3 4 5 6 
#
# 1 64.4645 28.1041 12.9862 0.0000 -1.8764 0.0000
# 2 28.1041 90.4039 21.1901 0.0000 -5.6822 0.0000
# 3 12.9862 21.1901 77.5256 0.0000 0.5128 0.0000
# 4 0.0000 0.0000 0.0000 21.0954 0.0000 -4.3353
# 5 -1.8764 -5.6822 0.5128 0.0000 33.1419 0.0000
# 6 0.0000 0.0000 0.0000 -4.3353 0.0000 21.9347
#
#
#
# Elastic Compliance Matrix: (Units=1/GPa)
#
#
# Indices 1 2 3 4 5 6 
#
# 1 0.018129 -0.005251 -0.001603 0.000000 0.000151 0.000000
# 2 -0.005251 0.013484 -0.002820 0.000000 0.002058 0.000000
# 3 -0.001603 -0.002820 0.013943 0.000000 -0.000790 0.000000
# 4 0.000000 0.000000 0.000000 0.049411 0.000000 0.009766
# 5 0.000151 0.002058 -0.000790 0.000000 0.030547 0.000000
# 6 0.000000 0.000000 0.000000 0.009766 0.000000 0.047520
#
#
# Mechanical properties :
#
#
# Convention : Reuss Voigt Hill
#
# Bulk Modulus (GPa) = 38.15282 39.66162 38.90722
# Shear Modulus (GPa) = 24.86126 26.57532 25.71829
#
# Velocity S-wave (km/s) = 3.61510 3.73765 3.67688
# Velocity P-wave (km/s) = 6.12220 6.28298 6.20311
#
# Compressibility (1/GPa) = 0.02621039
#
# Stress axis : x y z
#
# Youngs Moduli (GPa) = 55.16114 74.16188 71.71888
#
# Poissons Ratio (x) = 0.38939 0.11493
# Poissons Ratio (y) = 0.28963 0.20222
# Poissons Ratio (z) = 0.08840 0.20911
#
# Static dielectric constant tensor:
#      x y z
#    x 3.854660 0.000000 0.279580 
#    y 0.000000 3.155720 0.000000 
#    z 0.279580 0.000000 3.581790 
# 
# 
# High freq. dielectric constant tensor:
#      x y z
#    x 1.750540 0.000000 0.010210 
#    y 0.000000 1.698190 0.000000 
#    z 0.010210 0.000000 1.745230 
# 
# From -- ./inp_files/110337.got.cif
#   From: 2010.06.25/outbox.cif.g09.slc.cpg/sg12_56_cif.got.tgz:110337.got - 2010.06.28 00:19:55.
