data_PCOD8086683
_publ_section_title
;
Structure prediction by ZEFSAII (Michael W. Deem and Ramdas Pophale) SiO2 
 PCOD8086683
Probable space group: C 2/M
;
_chemical_formula_sum "Si O2"
_cell_formula_units_Z 64
_cell_length_a 28.224520
_cell_length_b 9.247881
_cell_length_c 13.083874
_cell_angle_alpha 90.000000
_cell_angle_beta 95.854738
_cell_angle_gamma 90.000000
_cell_volume 3397.299346
_symmetry_space_group_name_H-M "C 2/M"
_symmetry_group_IT_number 12
_symmetry_cell_setting 'monoclinic'
loop_
_space_group_symop_operation_xyz
x,y,z
-x,y,-z
-x,-y,-z
x,-y,z
1/2+x,1/2+y,z
1/2-x,1/2+y,-z
1/2-x,1/2-y,-z
1/2+x,1/2-y,z
loop_
_atom_site_type_symbol
_atom_site_label
_atom_site_fract_x
_atom_site_fract_y
_atom_site_fract_z
Si Si1 0.329733 0.663219 0.527959
Si Si2 0.419335 0.663324 0.670297
Si Si3 0.948331 0.671656 0.025725
Si Si4 0.503593 0.840482 0.620565
Si Si5 0.789590 0.831799 0.736654
Si Si6 0.591508 0.166539 0.771218
Si Si7 0.372969 0.170519 0.839752
Si Si8 0.316588 0.169300 0.318275
O O1 0.314112 0.500000 0.497824
O O2 0.386388 0.671017 0.562180
O O3 0.301941 0.717557 0.623469
O O4 0.316893 0.762612 0.430350
O O5 0.419677 0.500000 0.714553
O O6 0.472440 0.710821 0.657062
O O7 0.400261 0.777846 0.746226
O O8 0.953479 0.500000 0.031412
O O9 0.933059 0.736558 0.133293
O O10 0.905341 0.719085 0.942208
O O11 0.000000 0.734713 0.000000
O O12 0.500000 0.838597 0.500000
O O13 0.557410 0.810764 0.666725
O O14 0.487482 0.000000 0.658087
O O15 0.820712 0.745149 0.827754
O O16 0.734151 0.800729 0.746426
O O17 0.802807 0.000000 0.750886
O O18 0.642481 0.234435 0.747924
O O19 0.600446 0.000000 0.799897
O O20 0.365547 0.000000 0.835917
O O21 0.325337 0.000000 0.337440
#
# Coordination Sequence:
#
# PCOD8086683 Si02
#       8
#     8   8   8   8   8   8   8   8
#     4   9  18  31  47  70 102 136 168 205 248 297
#     4  10  20  33  49  72 104 137 166 204 259 313
#     4   9  17  31  53  78 101 126 161 209 260 304
#     4  10  19  31  50  76 104 135 173 212 246 292
#     4   9  19  34  50  73 105 137 167 204 256 306
#     4   9  18  32  50  75 104 131 166 213 258 299
#     4  10  19  32  54  78  96 124 169 214 252 295
#     4  10  19  32  52  74  99 135 173 209 251 299
#
# _framework density 18.838493
#
# number of rings (size 3 to 8) (size 9 to 14) (size 15 to 20)
#    0.000    2.500    0.000    3.375    0.000    6.250 
#    0.000    1.250    0.000    8.250    0.000    0.000 
#    0.000    0.000    0.000    0.000    0.000    0.000 
#
# Total GULP energy -396613.251095 kJ/mol
# GULP energy per Si atom -12394.164097 kJ/mol
# Density = 1.879562 g / cm^3
# Si number density = 18.838493 Si / 1000 Ang^3
#
#
#
# Elastic Constant Matrix: (Units=GPa)
#
#
# Indices 1 2 3 4 5 6 
#
# 1 154.9541 39.2885 62.3263 0.0000 0.5535 0.0000
# 2 39.2885 43.5940 28.2797 0.0000 8.7282 0.0000
# 3 62.3263 28.2797 96.4099 0.0000 13.9961 0.0000
# 4 0.0000 0.0000 0.0000 12.7514 0.0000 4.5132
# 5 0.5535 8.7282 13.9961 0.0000 24.9267 0.0000
# 6 0.0000 0.0000 0.0000 4.5132 0.0000 27.6645
#
#
#
# Elastic Compliance Matrix: (Units=1/GPa)
#
#
# Indices 1 2 3 4 5 6 
#
# 1 0.010364 -0.006853 -0.005449 0.000000 0.005229 0.000000
# 2 -0.006853 0.033630 -0.004080 0.000000 -0.009333 0.000000
# 3 -0.005449 -0.004080 0.016186 0.000000 -0.007539 0.000000
# 4 0.000000 0.000000 0.000000 0.083229 0.000000 -0.013578
# 5 0.005229 -0.009333 -0.007539 0.000000 0.047503 0.000000
# 6 0.000000 0.000000 0.000000 -0.013578 0.000000 0.038362
#
#
# Mechanical properties :
#
#
# Convention : Reuss Voigt Hill
#
# Bulk Modulus (GPa) = 36.47323 61.63853 49.05588
# Shear Modulus (GPa) = 18.43822 24.07274 21.25548
#
# Velocity S-wave (km/s) = 3.13190 3.57858 3.36266
# Velocity P-wave (km/s) = 5.69925 7.06155 6.41665
#
# Compressibility (1/GPa) = 0.02741737
#
# Stress axis : x y z
#
# Youngs Moduli (GPa) = 96.48700 29.73549 61.78080
#
# Poissons Ratio (x) = 0.20376 0.33665
# Poissons Ratio (y) = 0.66118 0.25205
# Poissons Ratio (z) = 0.52577 0.12131
#
# Static dielectric constant tensor:
#      x y z
#    x 3.878280 0.000000 0.023460 
#    y 0.000000 3.281140 0.000000 
#    z 0.023460 0.000000 3.360420 
# 
# 
# High freq. dielectric constant tensor:
#      x y z
#    x 1.743710 0.000000 0.008490 
#    y 0.000000 1.701280 0.000000 
#    z 0.008490 0.000000 1.712330 
# 
# From -- ./inp_files/187580.got.cif
#   From: 2010.06.25/outbox.cif.g09.slc.cpg/sg12_94_cif.got.tgz:187580.got - 2010.06.28 00:19:55.
