data_PCOD8086272
_publ_section_title
;
Structure prediction by ZEFSAII (Michael W. Deem and Ramdas Pophale) SiO2 
 PCOD8086272
Probable space group: C 2/M
;
_chemical_formula_sum "Si O2"
_cell_formula_units_Z 64
_cell_length_a 24.937509
_cell_length_b 8.887194
_cell_length_c 23.382099
_cell_angle_alpha 90.000000
_cell_angle_beta 46.459683
_cell_angle_gamma 90.000000
_cell_volume 3756.412064
_symmetry_space_group_name_H-M "C 2/M"
_symmetry_group_IT_number 12
_symmetry_cell_setting 'monoclinic'
loop_
_space_group_symop_operation_xyz
x,y,z
-x,y,-z
-x,-y,-z
x,-y,z
1/2+x,1/2+y,z
1/2-x,1/2+y,-z
1/2-x,1/2-y,-z
1/2+x,1/2-y,z
loop_
_atom_site_type_symbol
_atom_site_label
_atom_site_fract_x
_atom_site_fract_y
_atom_site_fract_z
Si Si1 0.297843 0.676501 0.694439
Si Si2 0.051858 0.824783 0.834991
Si Si3 0.377066 0.824358 0.325029
Si Si4 0.440686 0.169730 0.993406
Si Si5 0.032777 0.175744 0.416803
Si Si6 0.169195 0.824956 0.848132
Si Si7 0.273468 0.821365 0.591526
Si Si8 0.579896 0.174197 0.579449
O O1 0.286833 0.500000 0.690794
O O2 0.381092 0.714885 0.651434
O O3 0.244909 0.732579 0.784226
O O4 0.275879 0.769220 0.654836
O O5 0.072867 0.751748 0.759673
O O6 0.117638 0.795468 0.831228
O O7 0.975866 0.749316 0.912243
O O8 0.037091 0.000000 0.837240
O O9 0.296295 0.751775 0.388507
O O10 0.417651 0.794753 0.355057
O O11 0.368463 0.000000 0.317827
O O12 0.417275 0.000000 0.994780
O O13 0.500000 0.170398 0.000000
O O14 0.369139 0.262900 0.066253
O O15 0.000000 0.243600 0.500000
O O16 0.992335 0.245855 0.392110
O O17 0.017415 0.000000 0.426651
O O18 0.186553 0.000000 0.843696
O O19 0.346226 0.762955 0.505318
O O20 0.264500 0.000000 0.595891
O O21 0.573007 0.000000 0.570232
#
# Coordination Sequence:
#
# PCOD8086272 Si02
#       8
#     8   8   8   8   8   8   8   8
#     4  11  21  33  52  76 103 135 173 214 259 308
#     4  10  19  31  48  73 104 137 172 207 251 303
#     4  11  22  35  51  74 104 138 176 214 255 307
#     4   9  17  29  47  71 101 137 171 203 250 303
#     4  10  21  37  55  76  99 131 174 219 265 308
#     4  10  19  31  48  73 105 135 171 211 252 303
#     4  11  21  34  51  74 102 135 174 213 260 309
#     4  10  23  38  53  74 100 135 177 219 262 307
#
# _framework density 17.037533
#
# number of rings (size 3 to 8) (size 9 to 14) (size 15 to 20)
#    0.000    1.750    2.500    2.625    0.000    5.250 
#    0.000    0.000    0.000    0.000    0.000    0.875 
#    0.000    0.000    0.000    0.000    0.000    0.000 
#
# Total GULP energy -396923.550762 kJ/mol
# GULP energy per Si atom -12403.860961 kJ/mol
# Density = 1.699876 g / cm^3
# Si number density = 17.037533 Si / 1000 Ang^3
#
#
#
# Elastic Constant Matrix: (Units=GPa)
#
#
# Indices 1 2 3 4 5 6 
#
# 1 73.1218 34.1983 32.4334 -0.0004 -3.1582 -0.0009
# 2 34.1983 76.2628 40.2248 -0.0012 -4.3172 0.0000
# 3 32.4334 40.2248 116.4938 -0.0004 -16.0086 0.0003
# 4 -0.0004 -0.0012 -0.0004 32.3474 0.0004 -2.0031
# 5 -3.1582 -4.3172 -16.0086 0.0004 12.9281 -0.0001
# 6 -0.0009 0.0000 0.0003 -2.0031 -0.0001 25.6065
#
#
#
# Elastic Compliance Matrix: (Units=1/GPa)
#
#
# Indices 1 2 3 4 5 6 
#
# 1 0.018004 -0.006611 -0.002927 0.000000 -0.001434 0.000001
# 2 -0.006611 0.018495 -0.004723 0.000001 -0.001286 0.000000
# 3 -0.002927 -0.004723 0.012912 0.000000 0.013696 0.000000
# 4 0.000000 0.000001 0.000000 0.031065 -0.000001 0.002430
# 5 -0.001434 -0.001286 0.013696 -0.000001 0.093531 0.000000
# 6 0.000001 0.000000 0.000000 0.002430 0.000000 0.039243
#
#
# Mechanical properties :
#
#
# Convention : Reuss Voigt Hill
#
# Bulk Modulus (GPa) = 47.86875 53.28791 50.57833
# Shear Modulus (GPa) = 20.10184 24.77786 22.43985
#
# Velocity S-wave (km/s) = 3.43863 3.81768 3.63310
# Velocity P-wave (km/s) = 6.62741 7.12584 6.88114
#
# Compressibility (1/GPa) = 0.02089046
#
# Stress axis : x y z
#
# Youngs Moduli (GPa) = 55.54348 54.06844 77.44812
#
# Poissons Ratio (x) = 0.35744 0.22668
# Poissons Ratio (y) = 0.36719 0.36575
# Poissons Ratio (z) = 0.16257 0.25534
#
# Static dielectric constant tensor:
#      x y z
#    x 2.913190 0.000000 -0.141540 
#    y 0.000000 3.279590 0.000000 
#    z -0.141540 0.000000 3.336780 
# 
# 
# High freq. dielectric constant tensor:
#      x y z
#    x 1.617150 0.000000 -0.009850 
#    y 0.000000 1.671610 0.000000 
#    z -0.009850 0.000000 1.664750 
# 
# From -- ./inp_files/324186.got.cif
#   From: 2010.06.25/outbox.cif.g09.slc.cpg/sg12_163_cif.got.tgz:324186.got - 2010.06.28 00:19:55.
