data_PCOD8086619
_publ_section_title
;
Structure prediction by ZEFSAII (Michael W. Deem and Ramdas Pophale) SiO2 
 PCOD8086619
Probable space group: C 2/M
;
_chemical_formula_sum "Si O2"
_cell_formula_units_Z 52
_cell_length_a 15.923868
_cell_length_b 14.150551
_cell_length_c 14.365878
_cell_angle_alpha 90.000000
_cell_angle_beta 118.034149
_cell_angle_gamma 90.000000
_cell_volume 2857.270066
_symmetry_space_group_name_H-M "C 2/M"
_symmetry_group_IT_number 12
_symmetry_cell_setting 'monoclinic'
loop_
_space_group_symop_operation_xyz
x,y,z
-x,y,-z
-x,-y,-z
x,-y,z
1/2+x,1/2+y,z
1/2-x,1/2+y,-z
1/2-x,1/2-y,-z
1/2+x,1/2-y,z
loop_
_atom_site_type_symbol
_atom_site_label
_atom_site_fract_x
_atom_site_fract_y
_atom_site_fract_z
Si Si1 0.145120 0.755541 0.720830
Si Si2 0.803358 0.248192 0.659437
Si Si3 0.629634 0.607350 0.882142
Si Si4 0.579038 0.394754 0.178795
Si Si5 0.762375 0.892150 0.887223
Si Si6 0.170859 0.608464 0.478035
Si Si7 0.000000 0.676668 0.500000
O O1 0.235939 0.785657 0.706790
O O2 0.121686 0.836616 0.781952
O O3 0.174352 0.662588 0.794744
O O4 0.054635 0.740470 0.605604
O O5 0.895048 0.190273 0.738886
O O6 0.842293 0.341493 0.628536
O O7 0.749212 0.170903 0.569568
O O8 0.648572 0.500000 0.862220
O O9 0.533719 0.614527 0.894061
O O10 0.715145 0.642031 0.995038
O O11 0.603087 0.500000 0.231718
O O12 0.638415 0.379661 0.115754
O O13 0.728761 0.000000 0.869601
O O14 0.203967 0.500000 0.483222
O O15 0.073513 0.609308 0.485360
#
# Coordination Sequence:
#
# PCOD8086619 Si02
#       7
#     8   8   8   8   8   8   4
#     4  10  20  34  50  70 102 132 159 199 239 286
#     4   9  19  32  47  69  94 127 163 192 237 294
#     4  10  19  31  50  75 100 128 161 197 241 290
#     4   9  16  29  49  71  96 122 154 200 243 280
#     4   9  18  32  51  74  97 126 164 202 242 283
#     4  10  19  32  49  68  94 125 161 203 239 279
#     4  10  21  34  51  74  96 124 167 204 241 284
#
# _framework density 18.199190000000002
#
# number of rings (size 3 to 8) (size 9 to 14) (size 15 to 20)
#    0.000    2.462    0.000    2.538    0.000    6.769 
#    0.000    0.385    0.000    0.000    0.000    0.000 
#    0.000   17.231    0.000    0.000    0.000    0.000 
#
# Total GULP energy -322174.873233 kJ/mol
# GULP energy per Si atom -12391.341278 kJ/mol
# Density = 1.815777 g / cm^3
# Si number density = 18.199190 Si / 1000 Ang^3
#
#
#
# Elastic Constant Matrix: (Units=GPa)
#
#
# Indices 1 2 3 4 5 6 
#
# 1 29.9771 45.0690 31.8393 0.0000 -1.5791 0.0000
# 2 45.0690 95.1642 46.8724 0.0000 -6.0286 0.0000
# 3 31.8393 46.8724 118.5667 0.0000 2.2484 0.0000
# 4 0.0000 0.0000 0.0000 17.5438 0.0000 -2.4524
# 5 -1.5791 -6.0286 2.2484 0.0000 21.1081 0.0000
# 6 0.0000 0.0000 0.0000 -2.4524 0.0000 20.7208
#
#
#
# Elastic Compliance Matrix: (Units=1/GPa)
#
#
# Indices 1 2 3 4 5 6 
#
# 1 0.131030 -0.055971 -0.012968 0.000000 -0.004802 0.000000
# 2 -0.055971 0.037357 0.000140 0.000000 0.006467 0.000000
# 3 -0.012968 0.000140 0.011903 0.000000 -0.002198 0.000000
# 4 0.000000 0.000000 0.000000 0.057959 0.000000 0.006860
# 5 -0.004802 0.006467 -0.002198 0.000000 0.049097 0.000000
# 6 0.000000 0.000000 0.000000 0.006860 0.000000 0.049073
#
#
# Mechanical properties :
#
#
# Convention : Reuss Voigt Hill
#
# Bulk Modulus (GPa) = 23.42499 54.58552 39.00525
# Shear Modulus (GPa) = 10.24070 19.86968 15.05519
#
# Velocity S-wave (km/s) = 2.37471 3.30781 2.87931
# Velocity P-wave (km/s) = 4.51867 6.68186 5.70375
#
# Compressibility (1/GPa) = 0.04268946
#
# Stress axis : x y z
#
# Youngs Moduli (GPa) = 7.63186 26.76895 84.01280
#
# Poissons Ratio (x) = 1.49830 1.08948
# Poissons Ratio (y) = 0.42717 -0.01173
# Poissons Ratio (z) = 0.09897 -0.00374
#
# Static dielectric constant tensor:
#      x y z
#    x 3.247530 0.000000 -0.078520 
#    y 0.000000 3.256200 0.000000 
#    z -0.078520 0.000000 3.498390 
# 
# 
# High freq. dielectric constant tensor:
#      x y z
#    x 1.694150 0.000000 -0.001970 
#    y 0.000000 1.692740 0.000000 
#    z -0.001970 0.000000 1.708550 
# 
# From -- ./inp_files/214948.got.cif
#   From: 2010.06.25/outbox.cif.g09.slc.cpg/sg12_108_cif.got.tgz:214948.got - 2010.06.28 00:19:55.
