data_PCOD8086691
_publ_section_title
;
Structure prediction by ZEFSAII (Michael W. Deem and Ramdas Pophale) SiO2 
 PCOD8086691
Probable space group: C 2/M
;
_chemical_formula_sum "Si O2"
_cell_formula_units_Z 64
_cell_length_a 12.104847
_cell_length_b 16.453647
_cell_length_c 26.509359
_cell_angle_alpha 90.000000
_cell_angle_beta 138.647965
_cell_angle_gamma 90.000000
_cell_volume 3488.303679
_symmetry_space_group_name_H-M "C 2/M"
_symmetry_group_IT_number 12
_symmetry_cell_setting 'monoclinic'
loop_
_space_group_symop_operation_xyz
x,y,z
-x,y,-z
-x,-y,-z
x,-y,z
1/2+x,1/2+y,z
1/2-x,1/2+y,-z
1/2-x,1/2-y,-z
1/2+x,1/2-y,z
loop_
_atom_site_type_symbol
_atom_site_label
_atom_site_fract_x
_atom_site_fract_y
_atom_site_fract_z
Si Si1 0.192446 0.833257 0.078251
Si Si2 0.347078 0.403935 0.827621
Si Si3 0.686400 0.341244 0.901044
Si Si4 0.897548 0.097821 0.659844
Si Si5 0.374271 0.089588 0.503617
Si Si6 0.759997 0.093071 0.187172
Si Si7 0.606010 0.094493 0.939574
Si Si8 0.159052 0.403772 0.665422
O O1 0.218829 0.874825 0.141208
O O2 0.298788 0.750829 0.113113
O O3 0.266703 0.895066 0.062716
O O4 0.000000 0.816729 0.000000
O O5 0.386223 0.500000 0.841430
O O6 0.513893 0.355265 0.871100
O O7 0.201768 0.381381 0.737627
O O8 0.698357 0.400953 0.857774
O O9 0.836157 0.357048 0.991350
O O10 0.797203 0.132300 0.575902
O O11 0.806765 0.128832 0.679799
O O12 0.088428 0.132136 0.727646
O O13 0.896313 0.000000 0.658545
O O14 0.500000 0.083355 0.500000
O O15 0.477126 0.133098 0.584911
O O16 0.321544 0.000000 0.503823
O O17 0.578164 0.131390 0.137206
O O18 0.751380 0.000000 0.199486
O O19 0.594778 0.000000 0.949908
O O20 0.145942 0.500000 0.653729
#
# Coordination Sequence:
#
# PCOD8086691 Si02
#       8
#     8   8   8   8   8   8   8   8
#     4  12  26  39  55  74 107 140 179 223 269 314
#     4  11  22  37  59  81 106 142 181 218 262 315
#     4  12  23  36  56  76 104 136 177 221 268 315
#     4   8  12  21  39  70 106 136 161 208 269 310
#     4   7  10  17  35  65 105 135 156 200 267 312
#     4  10  19  31  50  76 106 135 173 218 264 317
#     4  11  23  38  56  75 101 139 182 219 264 318
#     4   8  13  24  43  72 104 133 167 212 258 307
#
# _framework density 18.347026
#
# number of rings (size 3 to 8) (size 9 to 14) (size 15 to 20)
#    0.000    2.125    2.500    4.500    1.750    1.500 
#    0.000    0.000    0.000    0.000    0.000    1.750 
#    3.750    6.000    0.000    0.000    0.000    0.000 
#
# Total GULP energy -396465.815263 kJ/mol
# GULP energy per Si atom -12389.556727 kJ/mol
# Density = 1.830527 g / cm^3
# Si number density = 18.347026 Si / 1000 Ang^3
#
#
#
# Elastic Constant Matrix: (Units=GPa)
#
#
# Indices 1 2 3 4 5 6 
#
# 1 63.1769 14.4379 46.4455 0.0000 5.9267 0.0000
# 2 14.4379 35.4745 24.4150 0.0000 -1.0526 0.0000
# 3 46.4455 24.4150 184.6199 0.0000 8.5981 0.0000
# 4 0.0000 0.0000 0.0000 3.3423 0.0000 0.3111
# 5 5.9267 -1.0526 8.5981 0.0000 22.7254 0.0000
# 6 0.0000 0.0000 0.0000 0.3111 0.0000 21.6291
#
#
#
# Elastic Compliance Matrix: (Units=1/GPa)
#
#
# Indices 1 2 3 4 5 6 
#
# 1 0.020613 -0.005576 -0.004261 0.000000 -0.004022 0.000000
# 2 -0.005576 0.032728 -0.003119 0.000000 0.004150 0.000000
# 3 -0.004261 -0.003119 0.006979 0.000000 -0.001674 0.000000
# 4 0.000000 0.000000 0.000000 0.299593 0.000000 -0.004310
# 5 -0.004022 0.004150 -0.001674 0.000000 0.045878 0.000000
# 6 0.000000 0.000000 0.000000 -0.004310 0.000000 0.046296
#
#
# Mechanical properties :
#
#
# Convention : Reuss Voigt Hill
#
# Bulk Modulus (GPa) = 29.06254 50.42978 39.74616
# Shear Modulus (GPa) = 10.21520 22.73757 16.47639
#
# Velocity S-wave (km/s) = 2.36217 3.52420 2.99998
# Velocity P-wave (km/s) = 4.82853 6.64125 5.80607
#
# Compressibility (1/GPa) = 0.03440855
#
# Stress axis : x y z
#
# Youngs Moduli (GPa) = 48.51399 30.55474 143.29059
#
# Poissons Ratio (x) = 0.17037 0.61055
# Poissons Ratio (y) = 0.27051 0.44687
# Poissons Ratio (z) = 0.20671 0.09529
#
# Static dielectric constant tensor:
#      x y z
#    x 3.169760 0.000000 0.133280 
#    y 0.000000 2.905100 0.000000 
#    z 0.133280 0.000000 4.111160 
# 
# 
# High freq. dielectric constant tensor:
#      x y z
#    x 1.679820 0.000000 0.005380 
#    y 0.000000 1.662820 0.000000 
#    z 0.005380 0.000000 1.734370 
# 
# From -- ./inp_files/358448.got.cif
#   From: 2010.06.25/outbox.cif.g09.slc.cpg/sg12_180_cif.got.tgz:358448.got - 2010.06.28 00:19:55.
