data_PCOD8086944
_publ_section_title
;
Structure prediction by ZEFSAII (Michael W. Deem and Ramdas Pophale) SiO2 
 PCOD8086944
Probable space group: C 2/M
;
_chemical_formula_sum "Si O2"
_cell_formula_units_Z 56
_cell_length_a 19.213968
_cell_length_b 8.897248
_cell_length_c 20.691409
_cell_angle_alpha 90.000000
_cell_angle_beta 56.393746
_cell_angle_gamma 90.000000
_cell_volume 2946.017096
_symmetry_space_group_name_H-M "C 2/M"
_symmetry_group_IT_number 12
_symmetry_cell_setting 'monoclinic'
loop_
_space_group_symop_operation_xyz
x,y,z
-x,y,-z
-x,-y,-z
x,-y,z
1/2+x,1/2+y,z
1/2-x,1/2+y,-z
1/2-x,1/2-y,-z
1/2+x,1/2-y,z
loop_
_atom_site_type_symbol
_atom_site_label
_atom_site_fract_x
_atom_site_fract_y
_atom_site_fract_z
Si Si1 0.455799 0.827434 0.217600
Si Si2 0.567983 0.821422 0.913709
Si Si3 0.236376 0.175590 0.814310
Si Si4 0.505752 0.829531 0.568078
Si Si5 0.304325 0.829140 0.525455
Si Si6 0.921235 0.678138 0.738570
Si Si7 0.767726 0.673462 0.319152
O O1 0.457611 0.757285 0.144065
O O2 0.522512 0.750860 0.232278
O O3 0.363165 0.809569 0.294999
O O4 0.481130 0.000000 0.196878
O O5 0.658844 0.759319 0.888393
O O6 0.575361 0.000000 0.908335
O O7 0.500000 0.764815 0.000000
O O8 0.324440 0.215268 0.803869
O O9 0.246039 0.227329 0.736319
O O10 0.218113 0.000000 0.826109
O O11 0.500000 0.749161 0.500000
O O12 0.600024 0.824185 0.545766
O O13 0.449182 0.753889 0.653922
O O14 0.473840 0.000000 0.574557
O O15 0.250000 0.750000 0.500000
O O16 0.295726 0.737393 0.595922
O O17 0.273508 0.000000 0.550810
O O18 0.937443 0.500000 0.726801
O O19 0.747437 0.500000 0.314347
#
# Coordination Sequence:
#
# PCOD8086944 Si02
#       7
#     8   8   8   8   8   8   8
#     4   8  15  29  50  72  93 126 170 205 236 289
#     4   9  18  34  55  76 100 132 166 199 239 293
#     4  10  19  31  52  78 100 124 157 202 250 294
#     4   9  17  29  46  68  94 128 171 213 251 297
#     4  11  21  32  49  72  98 129 169 219 265 301
#     4   9  16  28  47  71  97 126 165 207 246 295
#     4  10  19  33  52  71  96 132 172 210 248 298
#
# _framework density 19.008716
#
# number of rings (size 3 to 8) (size 9 to 14) (size 15 to 20)
#    0.000    2.571    0.000    3.857    0.000    4.857 
#    0.000    0.714    0.000   23.143    0.000    0.000 
#    0.000    0.000    0.000    0.000    0.000    0.000 
#
# Total GULP energy -347043.564744 kJ/mol
# GULP energy per Si atom -12394.413027 kJ/mol
# Density = 1.896545 g / cm^3
# Si number density = 19.008716 Si / 1000 Ang^3
#
#
#
# Elastic Constant Matrix: (Units=GPa)
#
#
# Indices 1 2 3 4 5 6 
#
# 1 102.0911 21.2176 28.2510 0.0000 -6.7386 -0.0001
# 2 21.2176 17.4575 18.0771 0.0000 -5.5156 -0.0009
# 3 28.2510 18.0771 103.0741 0.0000 -14.5407 0.0000
# 4 0.0000 0.0000 0.0000 21.2892 0.0000 -3.1775
# 5 -6.7386 -5.5156 -14.5407 0.0000 24.5507 0.0000
# 6 -0.0001 -0.0009 0.0000 -3.1775 0.0000 20.7826
#
#
#
# Elastic Compliance Matrix: (Units=1/GPa)
#
#
# Indices 1 2 3 4 5 6 
#
# 1 0.013189 -0.015091 -0.001021 0.000000 -0.000375 -0.000001
# 2 -0.015091 0.089229 -0.010114 0.000000 0.009914 0.000004
# 3 -0.001021 -0.010114 0.012434 0.000000 0.004812 0.000000
# 4 0.000000 0.000000 0.000000 0.048069 0.000000 0.007349
# 5 -0.000375 0.009914 0.004812 0.000000 0.045706 0.000000
# 6 -0.000001 0.000004 0.000000 0.007349 0.000000 0.049241
#
#
# Mechanical properties :
#
#
# Convention : Reuss Voigt Hill
#
# Bulk Modulus (GPa) = 16.02583 39.74602 27.88592
# Shear Modulus (GPa) = 15.10020 23.66297 19.38158
#
# Velocity S-wave (km/s) = 2.82154 3.53207 3.19661
# Velocity P-wave (km/s) = 4.36622 6.13097 5.32225
#
# Compressibility (1/GPa) = 0.06239928
#
# Stress axis : x y z
#
# Youngs Moduli (GPa) = 75.81821 11.20716 80.42277
#
# Poissons Ratio (x) = 0.16913 0.08213
# Poissons Ratio (y) = 1.14419 0.81340
# Poissons Ratio (z) = 0.07743 0.11335
#
# Static dielectric constant tensor:
#      x y z
#    x 3.646560 0.000000 -0.054030 
#    y 0.000000 3.145040 0.000000 
#    z -0.054030 0.000000 3.582800 
# 
# 
# High freq. dielectric constant tensor:
#      x y z
#    x 1.745730 0.000000 -0.006130 
#    y 0.000000 1.695680 0.000000 
#    z -0.006130 0.000000 1.729580 
# 
# From -- ./inp_files/313781.got.cif
#   From: 2010.06.25/outbox.cif.g09.slc.cpg/sg12_157_cif.got.tgz:313781.got - 2010.06.28 00:19:55.
