data_PCOD8086844
_publ_section_title
;
Structure prediction by ZEFSAII (Michael W. Deem and Ramdas Pophale) SiO2 
 PCOD8086844
Probable space group: C 2/M
;
_chemical_formula_sum "Si O2"
_cell_formula_units_Z 48
_cell_length_a 21.856916
_cell_length_b 8.905459
_cell_length_c 13.885109
_cell_angle_alpha 90.000000
_cell_angle_beta 77.496743
_cell_angle_gamma 90.000000
_cell_volume 2638.581568
_symmetry_space_group_name_H-M "C 2/M"
_symmetry_group_IT_number 12
_symmetry_cell_setting 'monoclinic'
loop_
_space_group_symop_operation_xyz
x,y,z
-x,y,-z
-x,-y,-z
x,-y,z
1/2+x,1/2+y,z
1/2-x,1/2+y,-z
1/2-x,1/2-y,-z
1/2+x,1/2-y,z
loop_
_atom_site_type_symbol
_atom_site_label
_atom_site_fract_x
_atom_site_fract_y
_atom_site_fract_z
Si Si1 0.931742 0.169372 0.977336
Si Si2 0.193831 0.174150 0.642709
Si Si3 0.882565 0.326923 0.171653
Si Si4 0.018139 0.673189 0.216772
Si Si5 0.449587 0.676209 0.597443
Si Si6 0.664469 0.825754 0.459827
O O1 0.932747 0.264248 0.878501
O O2 0.909407 0.000000 0.963113
O O3 0.883552 0.246282 0.067662
O O4 0.000000 0.169847 0.000000
O O5 0.172511 0.253500 0.747579
O O6 0.267564 0.202749 0.608391
O O7 0.157201 0.243338 0.564448
O O8 0.176415 0.000000 0.653278
O O9 0.866909 0.500000 0.159700
O O10 0.947816 0.305449 0.204126
O O11 0.034113 0.500000 0.231626
O O12 0.023752 0.769912 0.310493
O O13 0.500000 0.720581 0.500000
O O14 0.436767 0.500000 0.604749
O O15 0.384759 0.759993 0.598602
O O16 0.651275 0.000000 0.482388
#
# Coordination Sequence:
#
# PCOD8086844 Si02
#       6
#     8   8   8   8   8   8
#     4   9  17  30  49  73 102 134 168 208 252 296
#     4  10  20  34  53  76 102 132 168 210 252 297
#     4  10  19  31  51  78 105 134 169 208 251 298
#     4  10  20  33  50  74 105 137 169 207 251 300
#     4  11  23  36  52  75 103 135 170 207 249 300
#     4  10  21  36  53  74 101 134 170 208 252 299
#
# _framework density 18.191590999999999
#
# number of rings (size 3 to 8) (size 9 to 14) (size 15 to 20)
#    0.000    2.000    0.000    4.000    0.000   10.000 
#    0.000    0.000    0.000    1.000    0.000    0.000 
#    0.000    0.000    0.000    0.000    0.000    0.000 
#
# Total GULP energy -297717.270230 kJ/mol
# GULP energy per Si atom -12404.886260 kJ/mol
# Density = 1.815019 g / cm^3
# Si number density = 18.191591 Si / 1000 Ang^3
#
#
#
# Elastic Constant Matrix: (Units=GPa)
#
#
# Indices 1 2 3 4 5 6 
#
# 1 38.2672 35.0466 21.3337 0.0000 -0.9740 0.0000
# 2 35.0466 93.9895 42.7660 0.0000 -16.2048 0.0000
# 3 21.3337 42.7660 124.6712 0.0000 -17.9591 0.0000
# 4 0.0000 0.0000 0.0000 39.8898 0.0000 0.4303
# 5 -0.9740 -16.2048 -17.9591 0.0000 20.5933 0.0000
# 6 0.0000 0.0000 0.0000 0.4303 0.0000 25.2065
#
#
#
# Elastic Compliance Matrix: (Units=1/GPa)
#
#
# Indices 1 2 3 4 5 6 
#
# 1 0.043399 -0.017014 -0.003686 0.000000 -0.014550 0.000000
# 2 -0.017014 0.020235 -0.002118 0.000000 0.013271 0.000000
# 3 -0.003686 -0.002118 0.010423 0.000000 0.007248 0.000000
# 4 0.000000 0.000000 0.000000 0.025074 0.000000 -0.000428
# 5 -0.014550 0.013271 0.007248 0.000000 0.064635 0.000000
# 6 0.000000 0.000000 0.000000 -0.000428 0.000000 0.039680
#
#
# Mechanical properties :
#
#
# Convention : Reuss Voigt Hill
#
# Bulk Modulus (GPa) = 35.18587 50.58007 42.88297
# Shear Modulus (GPa) = 19.33826 27.65670 23.49748
#
# Velocity S-wave (km/s) = 3.26396 3.90333 3.59788
# Velocity P-wave (km/s) = 5.79555 6.94112 6.39404
#
# Compressibility (1/GPa) = 0.02842050
#
# Stress axis : x y z
#
# Youngs Moduli (GPa) = 23.04224 49.41819 95.94537
#
# Poissons Ratio (x) = 0.84079 0.35366
# Poissons Ratio (y) = 0.39204 0.20324
# Poissons Ratio (z) = 0.08493 0.10468
#
# Static dielectric constant tensor:
#      x y z
#    x 3.021830 0.000000 -0.094750 
#    y 0.000000 3.553190 0.000000 
#    z -0.094750 0.000000 3.460860 
# 
# 
# High freq. dielectric constant tensor:
#      x y z
#    x 1.667870 0.000000 -0.010490 
#    y 0.000000 1.726320 0.000000 
#    z -0.010490 0.000000 1.714070 
# 
# From -- ./inp_files/172433.got.cif
#   From: 2010.06.25/outbox.cif.g09.slc.cpg/sg12_87_cif.got.tgz:172433.got - 2010.06.28 00:19:55.
