data_PCOD8086860
_publ_section_title
;
Structure prediction by ZEFSAII (Michael W. Deem and Ramdas Pophale) SiO2 
 PCOD8086860
Probable space group: C 2/M
;
_chemical_formula_sum "Si O2"
_cell_formula_units_Z 56
_cell_length_a 19.104695
_cell_length_b 8.718404
_cell_length_c 31.034874
_cell_angle_alpha 90.000000
_cell_angle_beta 145.099907
_cell_angle_gamma 90.000000
_cell_volume 2957.568864
_symmetry_space_group_name_H-M "C 2/M"
_symmetry_group_IT_number 12
_symmetry_cell_setting 'monoclinic'
loop_
_space_group_symop_operation_xyz
x,y,z
-x,y,-z
-x,-y,-z
x,-y,z
1/2+x,1/2+y,z
1/2-x,1/2+y,-z
1/2-x,1/2-y,-z
1/2+x,1/2-y,z
loop_
_atom_site_type_symbol
_atom_site_label
_atom_site_fract_x
_atom_site_fract_y
_atom_site_fract_z
Si Si1 0.666357 0.821931 0.317117
Si Si2 0.056383 0.177625 0.398190
Si Si3 0.678567 0.820279 0.760722
Si Si4 0.410646 0.323664 0.201295
Si Si5 0.876231 0.320214 0.801418
Si Si6 0.215023 0.322779 0.546724
Si Si7 0.364949 0.677504 0.081193
O O1 0.532635 0.775944 0.265918
O O2 0.680904 0.781285 0.274206
O O3 0.769229 0.730395 0.395899
O O4 0.684828 0.000000 0.335547
O O5 0.104805 0.228561 0.469446
O O6 0.158924 0.212786 0.414380
O O7 0.936649 0.273357 0.326438
O O8 0.020309 0.000000 0.381441
O O9 0.680010 0.734116 0.807351
O O10 0.802688 0.773983 0.799639
O O11 0.676991 0.000000 0.768212
O O12 0.447287 0.500000 0.228079
O O13 0.344923 0.302845 0.122247
O O14 0.868406 0.500000 0.807275
O O15 0.016161 0.268190 0.874438
O O16 0.180056 0.500000 0.527136
O O17 0.379155 0.500000 0.075737
O O18 0.250000 0.750000 0.000000
#
# Coordination Sequence:
#
# PCOD8086860 Si02
#       7
#     8   8   8   8   8   8   8
#     4  10  19  33  55  81 108 144 189 235 278 330
#     4  10  20  33  51  76 110 148 186 234 285 331
#     4  12  23  36  56  83 115 149 188 233 280 332
#     4  10  20  35  57  84 113 148 186 226 271 327
#     4  10  22  39  59  83 115 151 186 227 279 333
#     4  10  19  31  51  78 109 145 187 237 284 328
#     4  10  21  39  64  91 118 147 183 224 271 326
#
# _framework density 18.934470999999998
#
# number of rings (size 3 to 8) (size 9 to 14) (size 15 to 20)
#    0.000    1.714    1.429    3.857    0.000    4.571 
#    0.000    1.429    0.000    8.571    0.000    0.000 
#    0.000    0.000    0.000    0.000    0.000    0.000 
#
# Total GULP energy -347325.126878 kJ/mol
# GULP energy per Si atom -12404.468817 kJ/mol
# Density = 1.889138 g / cm^3
# Si number density = 18.934471 Si / 1000 Ang^3
#
#
#
# Elastic Constant Matrix: (Units=GPa)
#
#
# Indices 1 2 3 4 5 6 
#
# 1 85.8712 21.3522 24.9282 0.0000 -4.8551 -0.0002
# 2 21.3522 53.7949 22.1244 0.0002 -1.5736 -0.0007
# 3 24.9282 22.1244 91.6938 0.0000 -6.9115 0.0000
# 4 0.0000 0.0002 0.0000 35.9276 0.0000 0.2837
# 5 -4.8551 -1.5736 -6.9115 0.0000 19.4641 0.0000
# 6 -0.0002 -0.0007 0.0000 0.2837 0.0000 29.1481
#
#
#
# Elastic Compliance Matrix: (Units=1/GPa)
#
#
# Indices 1 2 3 4 5 6 
#
# 1 0.013557 -0.004295 -0.002487 0.000000 0.002151 0.000000
# 2 -0.004295 0.021998 -0.004199 0.000000 -0.000784 0.000001
# 3 -0.002487 -0.004199 0.012867 0.000000 0.003609 0.000000
# 4 0.000000 0.000000 0.000000 0.027836 0.000000 -0.000271
# 5 0.002151 -0.000784 0.003609 0.000000 0.053131 0.000000
# 6 0.000000 0.000001 0.000000 -0.000271 0.000000 0.034310
#
#
# Mechanical properties :
#
#
# Convention : Reuss Voigt Hill
#
# Bulk Modulus (GPa) = 37.79399 40.90773 39.35086
# Shear Modulus (GPa) = 25.70926 27.77165 26.74045
#
# Velocity S-wave (km/s) = 3.68883 3.83394 3.76209
# Velocity P-wave (km/s) = 6.17633 6.42266 6.30070
#
# Compressibility (1/GPa) = 0.02645924
#
# Stress axis : x y z
#
# Youngs Moduli (GPa) = 73.76263 45.45861 77.71658
#
# Poissons Ratio (x) = 0.19525 0.19329
# Poissons Ratio (y) = 0.31683 0.32635
# Poissons Ratio (z) = 0.18346 0.19089
#
# Static dielectric constant tensor:
#      x y z
#    x 3.336300 0.000000 -0.149110 
#    y 0.000000 3.582430 0.000000 
#    z -0.149110 0.000000 3.317320 
# 
# 
# High freq. dielectric constant tensor:
#      x y z
#    x 1.717020 0.000000 -0.014480 
#    y 0.000000 1.753240 0.000000 
#    z -0.014480 0.000000 1.730460 
# 
# From -- ./inp_files/363114.got.cif
#   From: 2010.06.25/outbox.cif.g09.slc.cpg/sg12_182_cif.got.tgz:363114.got - 2010.06.28 00:19:55.
