data_PCOD8086507
_publ_section_title
;
Structure prediction by ZEFSAII (Michael W. Deem and Ramdas Pophale) SiO2 
 PCOD8086507
Probable space group: C 2/M
;
_chemical_formula_sum "Si O2"
_cell_formula_units_Z 56
_cell_length_a 23.107758
_cell_length_b 8.790945
_cell_length_c 17.840811
_cell_angle_alpha 90.000000
_cell_angle_beta 58.567727
_cell_angle_gamma 90.000000
_cell_volume 3092.344884
_symmetry_space_group_name_H-M "C 2/M"
_symmetry_group_IT_number 12
_symmetry_cell_setting 'monoclinic'
loop_
_space_group_symop_operation_xyz
x,y,z
-x,y,-z
-x,-y,-z
x,-y,z
1/2+x,1/2+y,z
1/2-x,1/2+y,-z
1/2-x,1/2-y,-z
1/2+x,1/2-y,z
loop_
_atom_site_type_symbol
_atom_site_label
_atom_site_fract_x
_atom_site_fract_y
_atom_site_fract_z
Si Si1 0.435435 0.173039 0.628482
Si Si2 0.547633 0.832361 0.039717
Si Si3 0.940867 0.822127 0.203690
Si Si4 0.845595 0.679201 0.145311
Si Si5 0.287294 0.826872 0.721622
Si Si6 0.436043 0.820204 0.367486
Si Si7 0.132972 0.820726 0.452782
O O1 0.359644 0.181744 0.716981
O O2 0.490634 0.233992 0.650093
O O3 0.433036 0.271735 0.552923
O O4 0.452034 0.000000 0.593745
O O5 0.516216 0.717181 0.121499
O O6 0.552182 0.000000 0.073983
O O7 0.500000 0.840732 0.000000
O O8 0.621145 0.779709 0.958328
O O9 0.882809 0.769630 0.186148
O O10 0.927756 0.736615 0.289462
O O11 0.936023 0.000000 0.220487
O O12 0.852587 0.500000 0.156117
O O13 0.767556 0.730097 0.195257
O O14 0.299511 0.753761 0.630341
O O15 0.262055 0.000000 0.729616
O O16 0.376846 0.744730 0.457286
O O17 0.427911 0.000000 0.375135
O O18 0.141490 0.000000 0.449677
#
# Coordination Sequence:
#
# PCOD8086507 Si02
#       7
#     8   8   8   8   8   8   8
#     4   8  18  33  51  73  99 132 169 206 247 292
#     4   8  16  32  52  73  98 127 163 203 246 296
#     4  11  22  33  49  77 105 131 165 205 250 297
#     4  10  19  34  55  77 100 131 166 203 249 297
#     4   9  18  33  51  75 101 130 170 207 243 291
#     4  11  20  34  52  71 102 138 168 205 251 295
#     4  10  19  31  49  76 103 130 168 209 246 289
#
# _framework density 18.109235999999999
#
# number of rings (size 3 to 8) (size 9 to 14) (size 15 to 20)
#    0.857    1.571    0.000    4.714    0.000    6.000 
#    0.000    0.714    0.000    0.857    0.000    0.000 
#    0.000    0.000    0.000    0.000    0.000    0.000 
#
# Total GULP energy -346971.713350 kJ/mol
# GULP energy per Si atom -12391.846905 kJ/mol
# Density = 1.806802 g / cm^3
# Si number density = 18.109236 Si / 1000 Ang^3
#
#
#
# Elastic Constant Matrix: (Units=GPa)
#
#
# Indices 1 2 3 4 5 6 
#
# 1 15.8056 2.8307 -1.8735 0.0000 -9.3263 -0.0001
# 2 2.8307 82.4258 18.3370 -0.0003 -6.2788 -0.0005
# 3 -1.8735 18.3370 44.9292 0.0000 -23.0392 -0.0001
# 4 0.0000 -0.0003 0.0000 31.3569 0.0000 -5.6686
# 5 -9.3263 -6.2788 -23.0392 0.0000 25.7863 0.0000
# 6 -0.0001 -0.0005 -0.0001 -5.6686 0.0000 18.1575
#
#
#
# Elastic Compliance Matrix: (Units=1/GPa)
#
#
# Indices 1 2 3 4 5 6 
#
# 1 0.130115 -0.010332 0.059951 0.000000 0.098108 0.000001
# 2 -0.010332 0.014290 -0.011802 0.000000 -0.010802 0.000000
# 3 0.059951 -0.011802 0.072381 0.000000 0.083479 0.000001
# 4 0.000000 0.000000 0.000000 0.033798 0.000000 0.010552
# 5 0.098108 -0.010802 0.083479 0.000000 0.146219 0.000001
# 6 0.000001 0.000000 0.000001 0.010552 0.000001 0.058368
#
#
# Mechanical properties :
#
#
# Convention : Reuss Voigt Hill
#
# Bulk Modulus (GPa) = 3.41974 20.19435 11.80705
# Shear Modulus (GPa) = 10.48193 23.31788 16.89990
#
# Velocity S-wave (km/s) = 2.40847 3.59224 3.05818
# Velocity P-wave (km/s) = 3.10271 5.32740 4.35936
#
# Compressibility (1/GPa) = 0.29241966
#
# Stress axis : x y z
#
# Youngs Moduli (GPa) = 7.68549 69.98047 13.81575
#
# Poissons Ratio (x) = 0.72306 -0.82827
# Poissons Ratio (y) = 0.07941 0.16306
# Poissons Ratio (z) = -0.46075 0.82593
#
# Static dielectric constant tensor:
#      x y z
#    x 3.051330 0.000000 -0.266230 
#    y 0.000000 3.313610 0.000000 
#    z -0.266230 0.000000 3.508440 
# 
# 
# High freq. dielectric constant tensor:
#      x y z
#    x 1.657480 0.000000 -0.022410 
#    y 0.000000 1.708150 0.000000 
#    z -0.022410 0.000000 1.700790 
# 
# From -- ./inp_files/291835.got.cif
#   From: 2010.06.25/outbox.cif.g09.slc.cpg/sg12_146_cif.got.tgz:291835.got - 2010.06.28 00:19:55.
