data_PCOD8086586
_publ_section_title
;
Structure prediction by ZEFSAII (Michael W. Deem and Ramdas Pophale) SiO2 
 PCOD8086586
Probable space group: C 2/M
;
_chemical_formula_sum "Si O2"
_cell_formula_units_Z 56
_cell_length_a 18.011085
_cell_length_b 9.004138
_cell_length_c 28.948253
_cell_angle_alpha 90.000000
_cell_angle_beta 38.990843
_cell_angle_gamma 90.000000
_cell_volume 2953.863721
_symmetry_space_group_name_H-M "C 2/M"
_symmetry_group_IT_number 12
_symmetry_cell_setting 'monoclinic'
loop_
_space_group_symop_operation_xyz
x,y,z
-x,y,-z
-x,-y,-z
x,-y,z
1/2+x,1/2+y,z
1/2-x,1/2+y,-z
1/2-x,1/2-y,-z
1/2+x,1/2-y,z
loop_
_atom_site_type_symbol
_atom_site_label
_atom_site_fract_x
_atom_site_fract_y
_atom_site_fract_z
Si Si1 0.737044 0.323644 0.143888
Si Si2 0.905218 0.323465 0.142658
Si Si3 0.547833 0.323333 0.428256
Si Si4 0.625395 0.674939 0.567466
Si Si5 0.312606 0.176652 0.285731
Si Si6 0.328674 0.176392 0.000774
Si Si7 0.970907 0.174959 0.286053
O O1 0.741542 0.500000 0.143730
O O2 0.820863 0.257713 0.143477
O O3 0.783239 0.266637 0.072258
O O4 0.604414 0.267050 0.216081
O O5 0.900255 0.500000 0.143883
O O6 0.860685 0.264187 0.213547
O O7 0.037678 0.267406 0.069957
O O8 0.500000 0.260597 0.500000
O O9 0.548252 0.500000 0.428181
O O10 0.464097 0.263790 0.428018
O O11 0.679670 0.263798 0.356170
O O12 0.642058 0.500000 0.554664
O O13 0.750000 0.750000 0.500000
O O14 0.572946 0.719575 0.642133
O O15 0.391378 0.241827 0.287896
O O16 0.317932 0.000000 0.285933
O O17 0.319224 0.000000 0.000863
O O18 0.250000 0.250000 0.000000
O O19 0.962243 0.000000 0.281510
#
# Coordination Sequence:
#
# PCOD8086586 Si02
#       7
#     8   8   8   8   8   8   8
#     4   9  17  31  51  73  98 130 166 202 242 287
#     4   9  17  30  50  75  97 123 167 211 240 278
#     4   9  17  30  49  71  93 121 159 198 235 280
#     4  10  20  34  52  74  99 127 161 200 242 288
#     4  10  19  32  52  74  97 127 163 205 245 283
#     4  10  19  31  50  74 100 130 163 202 245 290
#     4  10  20  33  50  73 101 130 159 196 243 294
#
# _framework density 18.958221000000002
#
# number of rings (size 3 to 8) (size 9 to 14) (size 15 to 20)
#    0.000    2.429    0.000    3.000    0.000    6.857 
#    0.000    0.714    0.000    8.571    0.000    0.000 
#    0.000    0.000    0.000    0.000    0.000    0.000 
#
# Total GULP energy -347241.410652 kJ/mol
# GULP energy per Si atom -12401.478952 kJ/mol
# Density = 1.891507 g / cm^3
# Si number density = 18.958221 Si / 1000 Ang^3
#
#
#
# Elastic Constant Matrix: (Units=GPa)
#
#
# Indices 1 2 3 4 5 6 
#
# 1 218.5791 29.9631 119.2199 -0.0003 -1.0715 -0.0040
# 2 29.9631 13.9099 27.5904 -0.0005 0.9631 -0.0053
# 3 119.2199 27.5904 215.7343 0.0000 -3.2482 -0.0003
# 4 -0.0003 -0.0005 0.0000 15.6708 0.0002 -0.0372
# 5 -1.0715 0.9631 -3.2482 0.0002 45.3760 -0.0004
# 6 -0.0040 -0.0053 -0.0003 -0.0372 -0.0004 30.8218
#
#
#
# Elastic Compliance Matrix: (Units=1/GPa)
#
#
# Indices 1 2 3 4 5 6 
#
# 1 0.007587 -0.010783 -0.002811 0.000000 0.000207 -0.000001
# 2 -0.010783 0.112040 -0.008419 0.000004 -0.003235 0.000018
# 3 -0.002811 -0.008419 0.007275 0.000000 0.000633 -0.000002
# 4 0.000000 0.000004 0.000000 0.063813 0.000000 0.000077
# 5 0.000207 -0.003235 0.000633 0.000000 0.022157 0.000000
# 6 -0.000001 0.000018 -0.000002 0.000077 0.000000 0.032445
#
#
# Mechanical properties :
#
#
# Convention : Reuss Voigt Hill
#
# Bulk Modulus (GPa) = 12.06593 89.08556 50.57574
# Shear Modulus (GPa) = 15.77449 36.47039 26.12244
#
# Velocity S-wave (km/s) = 2.88768 4.39079 3.71603
# Velocity P-wave (km/s) = 4.18289 8.53216 6.71917
#
# Compressibility (1/GPa) = 0.08287799
#
# Stress axis : x y z
#
# Youngs Moduli (GPa) = 131.80141 8.92535 137.45973
#
# Poissons Ratio (x) = 0.09624 0.38637
# Poissons Ratio (y) = 1.42115 1.15727
# Poissons Ratio (z) = 0.37046 0.07514
#
# Static dielectric constant tensor:
#      x y z
#    x 3.681900 0.000000 -0.008340 
#    y 0.000000 2.930940 0.000000 
#    z -0.008340 0.000000 3.830530 
# 
# 
# High freq. dielectric constant tensor:
#      x y z
#    x 1.757690 0.000000 0.000250 
#    y 0.000000 1.678300 0.000000 
#    z 0.000250 0.000000 1.760130 
# 
# From -- ./inp_files/268881.got.cif
#   From: 2010.06.25/outbox.cif.g09.slc.cpg/sg12_135_cif.got.tgz:268881.got - 2010.06.28 00:19:55.
