data_PCOD8086905
_publ_section_title
;
Structure prediction by ZEFSAII (Michael W. Deem and Ramdas Pophale) SiO2 
 PCOD8086905
Probable space group: C 2/M
;
_chemical_formula_sum "Si O2"
_cell_formula_units_Z 56
_cell_length_a 32.461418
_cell_length_b 17.900705
_cell_length_c 5.082769
_cell_angle_alpha 90.000000
_cell_angle_beta 63.999394
_cell_angle_gamma 90.000000
_cell_volume 2654.580755
_symmetry_space_group_name_H-M "C 2/M"
_symmetry_group_IT_number 12
_symmetry_cell_setting 'monoclinic'
loop_
_space_group_symop_operation_xyz
x,y,z
-x,y,-z
-x,-y,-z
x,-y,z
1/2+x,1/2+y,z
1/2-x,1/2+y,-z
1/2-x,1/2-y,-z
1/2+x,1/2-y,z
loop_
_atom_site_type_symbol
_atom_site_label
_atom_site_fract_x
_atom_site_fract_y
_atom_site_fract_z
Si Si1 0.952921 0.413913 0.007808
Si Si2 0.531017 0.709561 0.668632
Si Si3 0.600500 0.412546 0.580155
Si Si4 0.588336 0.150763 0.389952
Si Si5 0.184458 0.411968 0.085094
Si Si6 0.657232 0.587466 0.910258
Si Si7 0.241532 0.412811 0.415840
O O1 0.955793 0.500000 0.924509
O O2 0.915159 0.401141 0.339750
O O3 0.944604 0.371891 0.758127
O O4 0.000000 0.383127 0.000000
O O5 0.500000 0.703568 0.500000
O O6 0.552485 0.628700 0.667795
O O7 0.574048 0.765566 0.508930
O O8 0.500000 0.736164 0.000000
O O9 0.588765 0.500000 0.627599
O O10 0.623165 0.380385 0.783438
O O11 0.636772 0.394595 0.250639
O O12 0.640479 0.140077 0.149718
O O13 0.170603 0.500000 0.127275
O O14 0.207104 0.382331 0.290267
O O15 0.221283 0.395459 0.756749
O O16 0.661632 0.500000 0.841856
O O17 0.707909 0.624155 0.747359
O O18 0.246745 0.500000 0.345131
#
# Coordination Sequence:
#
# PCOD8086905 Si02
#       7
#     8   8   8   8   8   8   8
#     4  11  22  36  56  80 106 143 195 250 294 332
#     4  12  26  43  62  83 113 153 192 238 297 355
#     4  10  21  38  63  91 114 143 186 236 291 350
#     4  12  23  38  56  78 115 155 197 237 285 341
#     4  10  19  31  51  80 113 150 191 233 273 317
#     4   9  17  33  59  89 118 145 179 228 284 346
#     4   9  17  30  52  84 117 148 184 227 277 329
#
# _framework density 21.095607999999999
#
# number of rings (size 3 to 8) (size 9 to 14) (size 15 to 20)
#    0.000    1.571    0.000    6.429    0.000    6.286 
#    0.000    0.000    0.000    5.143    0.000    0.000 
#    0.000    0.000    0.000    0.000    0.000    0.000 
#
# Total GULP energy -347256.148983 kJ/mol
# GULP energy per Si atom -12402.005321 kJ/mol
# Density = 2.104759 g / cm^3
# Si number density = 21.095608 Si / 1000 Ang^3
#
#
#
# Elastic Constant Matrix: (Units=GPa)
#
#
# Indices 1 2 3 4 5 6 
#
# 1 109.1249 37.9487 18.6056 0.0000 6.3472 0.0000
# 2 37.9487 56.8247 24.9688 0.0000 -4.1725 0.0000
# 3 18.6056 24.9688 61.9716 0.0000 13.2406 0.0000
# 4 0.0000 0.0000 0.0000 7.0576 0.0000 17.9584
# 5 6.3472 -4.1725 13.2406 0.0000 43.6489 0.0000
# 6 0.0000 0.0000 0.0000 17.9584 0.0000 -12.3445
#
#
#
# Elastic Compliance Matrix: (Units=1/GPa)
#
#
# Indices 1 2 3 4 5 6 
#
# 1 0.012221 -0.008506 0.000333 0.000000 -0.002691 0.000000
# 2 -0.008506 0.028366 -0.010392 0.000000 0.007101 0.000000
# 3 0.000333 -0.010392 0.021863 0.000000 -0.007674 0.000000
# 4 0.000000 0.000000 0.000000 0.030136 0.000000 0.043841
# 5 -0.002691 0.007101 -0.007674 0.000000 0.026308 0.000000
# 6 0.000000 0.000000 0.000000 0.043841 0.000000 -0.017229
#
#
# Mechanical properties :
#
#
# Convention : Reuss Voigt Hill
#
# Bulk Modulus (GPa) = 39.49408 43.44083 41.46745
# Shear Modulus (GPa) = 33.95904 17.43226 25.69565
#
# Velocity S-wave (km/s) = 4.01654 2.87774 3.49385
# Velocity P-wave (km/s) = 6.34604 5.62840 5.99797
#
# Compressibility (1/GPa) = 0.02532025
#
# Stress axis : x y z
#
# Youngs Moduli (GPa) = 81.82327 35.25344 45.73874
#
# Poissons Ratio (x) = 0.29985 -0.01522
# Poissons Ratio (y) = 0.69595 0.47534
# Poissons Ratio (z) = -0.02722 0.36637
#
# Static dielectric constant tensor:
#      x y z
#    x 3.936880 0.000000 0.066890 
#    y 0.000000 3.419870 0.000000 
#    z 0.066890 0.000000 3.903620 
# 
# 
# High freq. dielectric constant tensor:
#      x y z
#    x 1.837150 0.000000 0.008100 
#    y 0.000000 1.782410 0.000000 
#    z 0.008100 0.000000 1.842140 
# 
# From -- ./inp_files/31968.got.cif
#   From: 2010.06.25/outbox.cif.g09.slc.cpg/sg12_16_cif.got.tgz:31968.got - 2010.06.28 00:19:55.
