data_PCOD8086233
_publ_section_title
;
Structure prediction by ZEFSAII (Michael W. Deem and Ramdas Pophale) SiO2 
 PCOD8086233
Probable space group: C 2/M
;
_chemical_formula_sum "Si O2"
_cell_formula_units_Z 64
_cell_length_a 14.644014
_cell_length_b 26.403246
_cell_length_c 9.769796
_cell_angle_alpha 90.000000
_cell_angle_beta 77.102186
_cell_angle_gamma 90.000000
_cell_volume 3682.179696
_symmetry_space_group_name_H-M "C 2/M"
_symmetry_group_IT_number 12
_symmetry_cell_setting 'monoclinic'
loop_
_space_group_symop_operation_xyz
x,y,z
-x,y,-z
-x,-y,-z
x,-y,z
1/2+x,1/2+y,z
1/2-x,1/2+y,-z
1/2-x,1/2-y,-z
1/2+x,1/2-y,z
loop_
_atom_site_type_symbol
_atom_site_label
_atom_site_fract_x
_atom_site_fract_y
_atom_site_fract_z
Si Si1 0.415005 0.442140 0.937934
Si Si2 0.589031 0.441832 0.376879
Si Si3 0.406087 0.199218 0.292283
Si Si4 0.384621 0.810699 0.804865
Si Si5 0.272881 0.359542 0.008281
Si Si6 0.779598 0.149008 0.684874
Si Si7 0.843817 0.750390 0.557108
Si Si8 0.892548 0.766480 0.039078
O O1 0.395040 0.500000 0.979790
O O2 0.441153 0.433702 0.770398
O O3 0.320778 0.413641 0.014089
O O4 0.500000 0.420827 0.000000
O O5 0.500000 0.428054 0.500000
O O6 0.621326 0.500000 0.391935
O O7 0.676058 0.404288 0.381010
O O8 0.505976 0.173148 0.229658
O O9 0.324044 0.157457 0.347490
O O10 0.423508 0.235799 0.418675
O O11 0.369355 0.232954 0.179137
O O12 0.346225 0.793303 0.670959
O O13 0.328164 0.859333 0.882361
O O14 0.365425 0.764255 0.913117
O O15 0.264435 0.348861 0.851328
O O16 0.332283 0.316844 0.065810
O O17 0.853287 0.193478 0.618059
O O18 0.750000 0.750000 0.500000
O O19 0.000000 0.783046 0.000000
#
# Coordination Sequence:
#
# PCOD8086233 Si02
#       8
#     8   8   8   8   8   8   8   8
#     4   9  19  36  54  74 101 128 160 211 263 303
#     4   9  19  36  56  76  99 129 166 209 260 310
#     4  10  21  34  48  73 104 138 170 203 248 294
#     4  11  20  32  51  70 102 138 169 202 244 296
#     4  11  18  31  52  74  97 131 173 203 245 298
#     4  10  19  33  51  73 101 133 168 208 247 297
#     4  10  20  34  48  71 102 136 169 209 248 288
#     4  10  19  31  48  71  98 132 169 203 240 296
#
# _framework density 17.381008999999999
#
# number of rings (size 3 to 8) (size 9 to 14) (size 15 to 20)
#    0.000    2.000    2.500    2.625    0.000    1.000 
#    9.000    0.000    0.000    0.750    0.000    3.500 
#    0.000    5.000    0.000    0.000    0.000    0.000 
#
# Total GULP energy -396656.167301 kJ/mol
# GULP energy per Si atom -12395.505228 kJ/mol
# Density = 1.734145 g / cm^3
# Si number density = 17.381009 Si / 1000 Ang^3
#
#
#
# Elastic Constant Matrix: (Units=GPa)
#
#
# Indices 1 2 3 4 5 6 
#
# 1 87.5968 55.8707 45.8731 0.0000 -14.5655 0.0000
# 2 55.8707 79.5404 37.9183 0.0000 -14.1770 0.0000
# 3 45.8731 37.9183 93.4612 0.0000 -8.0391 0.0000
# 4 0.0000 0.0000 0.0000 19.8402 0.0000 -1.9788
# 5 -14.5655 -14.1770 -8.0391 0.0000 31.2790 0.0000
# 6 0.0000 0.0000 0.0000 -1.9788 0.0000 23.8107
#
#
#
# Elastic Compliance Matrix: (Units=1/GPa)
#
#
# Indices 1 2 3 4 5 6 
#
# 1 0.023362 -0.012975 -0.005903 0.000000 0.003481 0.000000
# 2 -0.012975 0.023801 -0.002945 0.000000 0.003989 0.000000
# 3 -0.005903 -0.002945 0.014767 0.000000 -0.000288 0.000000
# 4 0.000000 0.000000 0.000000 0.050824 0.000000 0.004224
# 5 0.003481 0.003989 -0.000288 0.000000 0.035325 0.000000
# 6 0.000000 0.000000 0.000000 0.004224 0.000000 0.042349
#
#
# Mechanical properties :
#
#
# Convention : Reuss Voigt Hill
#
# Bulk Modulus (GPa) = 54.69311 59.99140 57.34225
# Shear Modulus (GPa) = 20.81874 23.04841 21.93357
#
# Velocity S-wave (km/s) = 3.46466 3.64547 3.55622
# Velocity P-wave (km/s) = 6.89497 7.23255 7.06577
#
# Compressibility (1/GPa) = 0.01828384
#
# Stress axis : x y z
#
# Youngs Moduli (GPa) = 42.80466 42.01480 67.71931
#
# Poissons Ratio (x) = 0.54516 0.39974
# Poissons Ratio (y) = 0.55541 0.19941
# Poissons Ratio (z) = 0.25267 0.12372
#
# Static dielectric constant tensor:
#      x y z
#    x 3.378740 0.000000 -0.150000 
#    y 0.000000 3.099560 0.000000 
#    z -0.150000 0.000000 3.582760 
# 
# 
# High freq. dielectric constant tensor:
#      x y z
#    x 1.670340 0.000000 -0.000660 
#    y 0.000000 1.634180 0.000000 
#    z -0.000660 0.000000 1.685470 
# 
# From -- ./inp_files/66963.got.cif
#   From: 2010.06.25/outbox.cif.g09.slc.cpg/sg12_34_cif.got.tgz:66963.got - 2010.06.28 00:19:55.
