data_PCOD8086235
_publ_section_title
;
Structure prediction by ZEFSAII (Michael W. Deem and Ramdas Pophale) SiO2 
 PCOD8086235
Probable space group: C 2/M
;
_chemical_formula_sum "Si O2"
_cell_formula_units_Z 56
_cell_length_a 27.443735
_cell_length_b 8.578762
_cell_length_c 18.350063
_cell_angle_alpha 90.000000
_cell_angle_beta 131.647823
_cell_angle_gamma 90.000000
_cell_volume 3228.253583
_symmetry_space_group_name_H-M "C 2/M"
_symmetry_group_IT_number 12
_symmetry_cell_setting 'monoclinic'
loop_
_space_group_symop_operation_xyz
x,y,z
-x,y,-z
-x,-y,-z
x,-y,z
1/2+x,1/2+y,z
1/2-x,1/2+y,-z
1/2-x,1/2-y,-z
1/2+x,1/2-y,z
loop_
_atom_site_type_symbol
_atom_site_label
_atom_site_fract_x
_atom_site_fract_y
_atom_site_fract_z
Si Si1 0.071611 0.171569 0.604054
Si Si2 0.995779 0.683539 0.171542
Si Si3 0.570868 0.171527 0.036397
Si Si4 0.620913 0.319363 0.222017
Si Si5 0.373571 0.179701 0.475683
Si Si6 0.500700 0.682812 0.670807
Si Si7 0.747509 0.182412 0.417131
O O1 0.114837 0.289515 0.599119
O O2 0.000000 0.161419 0.500000
O O3 0.061491 0.227403 0.677810
O O4 0.104382 0.000000 0.633835
O O5 0.993549 0.500000 0.183676
O O6 0.068202 0.724755 0.216346
O O7 0.977739 0.775911 0.226440
O O8 0.940471 0.733479 0.057355
O O9 0.603941 0.000000 0.068704
O O10 0.500000 0.156156 0.000000
O O11 0.614442 0.286731 0.128655
O O12 0.609658 0.500000 0.226236
O O13 0.692334 0.269777 0.316838
O O14 0.436924 0.219212 0.586337
O O15 0.315662 0.288738 0.445197
O O16 0.355139 0.000000 0.468766
O O17 0.484295 0.500000 0.646837
O O18 0.750000 0.250000 0.500000
O O19 0.732283 0.000000 0.405039
#
# Coordination Sequence:
#
# PCOD8086235 Si02
#       7
#     8   8   8   8   8   8   8
#     4   8  16  31  48  67  93 125 158 193 235 281
#     4  10  19  31  48  71  99 128 159 195 238 283
#     4   8  16  31  48  67  93 125 158 193 235 281
#     4  11  21  33  49  70  96 126 162 198 235 280
#     4  11  21  33  49  70  96 126 162 198 235 280
#     4  10  19  31  48  71  99 128 159 195 238 283
#     4  12  24  38  52  68  95 128 163 198 234 276
#
# _framework density 17.34684
#
# number of rings (size 3 to 8) (size 9 to 14) (size 15 to 20)
#    0.000    2.000    0.000    7.286    0.000    6.286 
#    0.000    0.000    0.000    0.000    0.000    1.000 
#    0.000    0.000    0.000    0.000    0.000    0.000 
#
# Total GULP energy -347126.375807 kJ/mol
# GULP energy per Si atom -12397.370565 kJ/mol
# Density = 1.730736 g / cm^3
# Si number density = 17.346840 Si / 1000 Ang^3
#
#
#
# Elastic Constant Matrix: (Units=GPa)
#
#
# Indices 1 2 3 4 5 6 
#
# 1 77.8792 13.2876 40.1292 0.0000 -21.8979 0.0000
# 2 13.2876 64.7376 22.7387 0.0000 -5.2444 0.0000
# 3 40.1292 22.7387 98.1305 0.0000 -20.5581 0.0000
# 4 0.0000 0.0000 0.0000 27.3007 0.0000 -4.2543
# 5 -21.8979 -5.2444 -20.5581 0.0000 27.5114 0.0000
# 6 0.0000 0.0000 0.0000 -4.2543 0.0000 23.2211
#
#
#
# Elastic Compliance Matrix: (Units=1/GPa)
#
#
# Indices 1 2 3 4 5 6 
#
# 1 0.018729 -0.001168 -0.005112 0.000000 0.010865 0.000000
# 2 -0.001168 0.016891 -0.003505 0.000000 -0.000329 0.000000
# 3 -0.005112 -0.003505 0.014347 0.000000 0.005984 0.000000
# 4 0.000000 0.000000 0.000000 0.037706 0.000000 0.006908
# 5 0.010865 -0.000329 0.005984 0.000000 0.049405 0.000000
# 6 0.000000 0.000000 0.000000 0.006908 0.000000 0.044330
#
#
# Mechanical properties :
#
#
# Convention : Reuss Voigt Hill
#
# Bulk Modulus (GPa) = 32.89963 43.67314 38.28638
# Shear Modulus (GPa) = 23.68429 26.57941 25.13185
#
# Velocity S-wave (km/s) = 3.69906 3.91862 3.81042
# Velocity P-wave (km/s) = 6.10336 6.76056 6.44035
#
# Compressibility (1/GPa) = 0.03039547
#
# Stress axis : x y z
#
# Youngs Moduli (GPa) = 53.39393 59.20202 69.70196
#
# Poissons Ratio (x) = 0.06917 0.35632
# Poissons Ratio (y) = 0.06239 0.24432
# Poissons Ratio (z) = 0.27295 0.20752
#
# Static dielectric constant tensor:
#      x y z
#    x 3.337900 0.000000 -0.427870 
#    y 0.000000 3.112390 0.000000 
#    z -0.427870 0.000000 3.422520 
# 
# 
# High freq. dielectric constant tensor:
#      x y z
#    x 1.645910 0.000000 -0.029210 
#    y 0.000000 1.679580 0.000000 
#    z -0.029210 0.000000 1.654440 
# 
# From -- ./inp_files/291951.got.cif
#   From: 2010.06.25/outbox.cif.g09.slc.cpg/sg12_146_cif.got.tgz:291951.got - 2010.06.28 00:19:55.
