data_PCOD8086841
_publ_section_title
;
Structure prediction by ZEFSAII (Michael W. Deem and Ramdas Pophale) SiO2 
 PCOD8086841
Probable space group: C 2/M
;
_chemical_formula_sum "Si O2"
_cell_formula_units_Z 56
_cell_length_a 10.130929
_cell_length_b 18.812619
_cell_length_c 21.431965
_cell_angle_alpha 90.000000
_cell_angle_beta 53.457717
_cell_angle_gamma 90.000000
_cell_volume 3281.722885
_symmetry_space_group_name_H-M "C 2/M"
_symmetry_group_IT_number 12
_symmetry_cell_setting 'monoclinic'
loop_
_space_group_symop_operation_xyz
x,y,z
-x,y,-z
-x,-y,-z
x,-y,z
1/2+x,1/2+y,z
1/2-x,1/2+y,-z
1/2-x,1/2-y,-z
1/2+x,1/2-y,z
loop_
_atom_site_type_symbol
_atom_site_label
_atom_site_fract_x
_atom_site_fract_y
_atom_site_fract_z
Si Si1 0.462379 0.083317 0.310694
Si Si2 0.186781 0.834541 0.452082
Si Si3 0.265614 0.583210 0.309566
Si Si4 0.158438 0.818354 0.999478
Si Si5 0.311997 0.831530 0.551953
Si Si6 0.328578 0.078458 0.862232
Si Si7 0.514039 0.578155 0.863915
O O1 0.293269 0.123719 0.371205
O O2 0.601402 0.109254 0.320209
O O3 0.517414 0.101411 0.224267
O O4 0.433191 0.000000 0.326495
O O5 0.241368 0.855030 0.505838
O O6 0.209018 0.751872 0.430579
O O7 0.000000 0.859267 0.500000
O O8 0.254146 0.500000 0.328153
O O9 0.287713 0.627224 0.366646
O O10 0.426161 0.599586 0.222209
O O11 0.296550 0.863237 0.924061
O O12 0.250000 0.750000 0.000000
O O13 0.108259 0.863259 0.074506
O O14 0.000000 0.800587 0.000000
O O15 0.500000 0.855522 0.500000
O O16 0.171705 0.072076 0.862774
O O17 0.360058 0.000000 0.883174
O O18 0.428601 0.500000 0.886714
#
# Coordination Sequence:
#
# PCOD8086841 Si02
#       7
#     8   8   8   8   8   8   8
#     4   9  17  31  51  74  98 124 162 208 248 286
#     4  10  21  33  47  70 101 134 161 196 246 297
#     4   9  17  30  52  77  95 120 165 214 247 276
#     4  10  19  31  51  78 105 130 160 198 240 288
#     4  10  19  33  50  69  96 129 168 200 239 295
#     4   8  15  29  51  75  96 126 167 205 239 281
#     4   8  15  29  50  76 100 123 161 209 245 276
#
# _framework density 17.064208000000001
#
# number of rings (size 3 to 8) (size 9 to 14) (size 15 to 20)
#    0.000    2.857    1.429    2.143    0.000    4.000 
#    0.000    0.000    3.143    1.714    0.000    0.000 
#    0.000    0.000    0.000    0.000    0.000    0.000 
#
# Total GULP energy -347102.206337 kJ/mol
# GULP energy per Si atom -12396.507369 kJ/mol
# Density = 1.702537 g / cm^3
# Si number density = 17.064208 Si / 1000 Ang^3
#
#
#
# Elastic Constant Matrix: (Units=GPa)
#
#
# Indices 1 2 3 4 5 6 
#
# 1 64.9606 39.2079 47.6171 0.0003 -1.0929 0.0000
# 2 39.2079 93.7842 86.3648 0.0001 3.4528 0.0001
# 3 47.6171 86.3648 156.0949 -0.0001 2.9408 -0.0001
# 4 0.0003 0.0001 -0.0001 22.9291 -0.0001 1.0166
# 5 -1.0929 3.4528 2.9408 -0.0001 21.6480 0.0000
# 6 0.0000 0.0001 -0.0001 1.0166 0.0000 10.8037
#
#
#
# Elastic Compliance Matrix: (Units=1/GPa)
#
#
# Indices 1 2 3 4 5 6 
#
# 1 0.021483 -0.006106 -0.003222 0.000000 0.002496 0.000000
# 2 -0.006106 0.023548 -0.011118 0.000000 -0.002554 0.000000
# 3 -0.003222 -0.011118 0.013545 0.000000 -0.000229 0.000000
# 4 0.000000 0.000000 0.000000 0.043795 0.000000 -0.004121
# 5 0.002496 -0.002554 -0.000229 0.000000 0.046758 0.000000
# 6 0.000000 0.000000 0.000000 -0.004121 0.000000 0.092949
#
#
# Mechanical properties :
#
#
# Convention : Reuss Voigt Hill
#
# Bulk Modulus (GPa) = 56.54867 73.46880 65.00874
# Shear Modulus (GPa) = 17.30913 20.51949 18.91431
#
# Velocity S-wave (km/s) = 3.18835 3.47145 3.33291
# Velocity P-wave (km/s) = 6.83848 7.69518 7.27944
#
# Compressibility (1/GPa) = 0.01768388
#
# Stress axis : x y z
#
# Youngs Moduli (GPa) = 46.54790 42.46675 73.82835
#
# Poissons Ratio (x) = 0.25930 0.23789
# Poissons Ratio (y) = 0.28422 0.82081
# Poissons Ratio (z) = 0.14998 0.47214
#
# Static dielectric constant tensor:
#      x y z
#    x 2.352450 0.000000 0.181020 
#    y 0.000000 3.211250 0.000000 
#    z 0.181020 0.000000 3.451830 
# 
# 
# High freq. dielectric constant tensor:
#      x y z
#    x 1.614200 0.000000 0.005510 
#    y 0.000000 1.654190 0.000000 
#    z 0.005510 0.000000 1.673380 
# 
# From -- ./inp_files/301641.got.cif
#   From: 2010.06.25/outbox.cif.g09.slc.cpg/sg12_151_cif.got.tgz:301641.got - 2010.06.28 00:19:55.
