data_PCOD8086156
_publ_section_title
;
Structure prediction by ZEFSAII (Michael W. Deem and Ramdas Pophale) SiO2 
 PCOD8086156
Probable space group: C 2/M
;
_chemical_formula_sum "Si O2"
_cell_formula_units_Z 64
_cell_length_a 28.752437
_cell_length_b 8.710690
_cell_length_c 22.368608
_cell_angle_alpha 90.000000
_cell_angle_beta 48.559314
_cell_angle_gamma 90.000000
_cell_volume 4199.713564
_symmetry_space_group_name_H-M "C 2/M"
_symmetry_group_IT_number 12
_symmetry_cell_setting 'monoclinic'
loop_
_space_group_symop_operation_xyz
x,y,z
-x,y,-z
-x,-y,-z
x,-y,z
1/2+x,1/2+y,z
1/2-x,1/2+y,-z
1/2-x,1/2-y,-z
1/2+x,1/2-y,z
loop_
_atom_site_type_symbol
_atom_site_label
_atom_site_fract_x
_atom_site_fract_y
_atom_site_fract_z
Si Si1 0.443955 0.179649 0.003490
Si Si2 0.779504 0.173371 0.417712
Si Si3 0.596932 0.326650 0.739727
Si Si4 0.959062 0.820543 0.861601
Si Si5 0.815910 0.179470 0.148214
Si Si6 0.343081 0.822773 0.906701
Si Si7 0.752984 0.677332 0.092382
Si Si8 0.301690 0.821315 0.281164
O O1 0.451983 0.274472 0.936251
O O2 0.442904 0.000000 0.988764
O O3 0.500000 0.222081 0.000000
O O4 0.379165 0.224624 0.088643
O O5 0.750000 0.250000 0.500000
O O6 0.855345 0.178723 0.357567
O O7 0.760105 0.261483 0.372781
O O8 0.754919 0.000000 0.434692
O O9 0.594527 0.500000 0.768049
O O10 0.528072 0.275104 0.780169
O O11 0.625317 0.215729 0.767053
O O12 0.913507 0.729305 0.856535
O O13 0.944946 0.000000 0.867262
O O14 0.767764 0.219329 0.136890
O O15 0.782470 0.229302 0.238171
O O16 0.830814 0.000000 0.134913
O O17 0.313327 0.726124 0.878050
O O18 0.340388 0.000000 0.891167
O O19 0.306652 0.789597 0.998794
O O20 0.750846 0.500000 0.112876
O O21 0.290919 0.000000 0.280301
#
# Coordination Sequence:
#
# PCOD8086156 Si02
#       8
#     8   8   8   8   8   8   8   8
#     4  11  23  34  44  62  88 122 162 201 233 276
#     4   9  17  32  50  72  97 126 158 190 228 277
#     4   8  18  32  46  67  97 126 156 192 230 274
#     4  11  20  32  48  66  90 124 159 196 240 280
#     4  12  22  33  48  66  91 123 159 199 241 282
#     4  10  20  33  49  67  89 116 155 204 245 282
#     4  10  20  34  50  66  87 116 157 202 245 287
#     4  10  19  31  48  69  95 127 157 193 233 274
#
# _framework density 15.239134
#
# number of rings (size 3 to 8) (size 9 to 14) (size 15 to 20)
#    0.750    1.125    1.250    4.500    0.000    5.000 
#    0.000    0.000    0.000    0.000    0.000    0.000 
#    0.000    1.000    0.000   10.750    0.000    4.750 
#
# Total GULP energy -396677.392294 kJ/mol
# GULP energy per Si atom -12396.168509 kJ/mol
# Density = 1.520445 g / cm^3
# Si number density = 15.239134 Si / 1000 Ang^3
#
#
#
# Elastic Constant Matrix: (Units=GPa)
#
#
# Indices 1 2 3 4 5 6 
#
# 1 79.6287 25.4125 27.8423 0.0031 8.4922 0.0004
# 2 25.4125 65.3813 20.8768 0.0038 4.0778 0.0294
# 3 27.8423 20.8768 70.4066 0.0052 7.9097 -0.0012
# 4 0.0031 0.0038 0.0052 23.6513 0.0014 2.8624
# 5 8.4922 4.0778 7.9097 0.0014 11.1523 0.0099
# 6 0.0004 0.0294 -0.0012 2.8624 0.0099 27.0451
#
#
#
# Elastic Compliance Matrix: (Units=1/GPa)
#
#
# Indices 1 2 3 4 5 6 
#
# 1 0.016305 -0.004499 -0.004242 -0.000001 -0.007762 0.000007
# 2 -0.004499 0.018220 -0.003542 0.000001 -0.000724 -0.000020
# 3 -0.004242 -0.003542 0.017844 -0.000003 -0.008131 0.000008
# 4 -0.000001 0.000001 -0.000003 0.042830 0.000001 -0.004533
# 5 -0.007762 -0.000724 -0.008131 0.000001 0.101610 -0.000037
# 6 0.000007 -0.000020 0.000008 -0.004533 -0.000037 0.037455
#
#
# Mechanical properties :
#
#
# Convention : Reuss Voigt Hill
#
# Bulk Modulus (GPa) = 35.96648 40.40888 38.18768
# Shear Modulus (GPa) = 18.64999 21.78874 20.21936
#
# Velocity S-wave (km/s) = 3.50211 3.78536 3.64649
# Velocity P-wave (km/s) = 6.32500 6.75865 6.54542
#
# Compressibility (1/GPa) = 0.02780367
#
# Stress axis : x y z
#
# Youngs Moduli (GPa) = 61.33074 54.88566 56.04022
#
# Poissons Ratio (x) = 0.24693 0.23771
# Poissons Ratio (y) = 0.27592 0.19850
# Poissons Ratio (z) = 0.26015 0.19441
#
# Static dielectric constant tensor:
#      x y z
#    x 2.875470 -0.000090 0.001170 
#    y -0.000090 2.997620 0.000030 
#    z 0.001170 0.000030 2.718120 
# 
# 
# High freq. dielectric constant tensor:
#      x y z
#    x 1.568530 -0.000010 0.006650 
#    y -0.000010 1.603120 0.000000 
#    z 0.006650 0.000000 1.548700 
# 
# From -- ./inp_files/326581.got.cif
#   From: 2010.06.25/outbox.cif.g09.slc.cpg/sg12_164_cif.got.tgz:326581.got - 2010.06.28 00:19:55.
