data_PCOD8086741
_publ_section_title
;
Structure prediction by ZEFSAII (Michael W. Deem and Ramdas Pophale) SiO2 
 PCOD8086741
Probable space group: C 2/M
;
_chemical_formula_sum "Si O2"
_cell_formula_units_Z 56
_cell_length_a 20.274920
_cell_length_b 8.932366
_cell_length_c 29.855583
_cell_angle_alpha 90.000000
_cell_angle_beta 146.124245
_cell_angle_gamma 90.000000
_cell_volume 3013.792698
_symmetry_space_group_name_H-M "C 2/M"
_symmetry_group_IT_number 12
_symmetry_cell_setting 'monoclinic'
loop_
_space_group_symop_operation_xyz
x,y,z
-x,y,-z
-x,-y,-z
x,-y,z
1/2+x,1/2+y,z
1/2-x,1/2+y,-z
1/2-x,1/2-y,-z
1/2+x,1/2-y,z
loop_
_atom_site_type_symbol
_atom_site_label
_atom_site_fract_x
_atom_site_fract_y
_atom_site_fract_z
Si Si1 0.703053 0.826688 0.174997
Si Si2 0.775572 0.176104 0.656127
Si Si3 0.134530 0.324424 0.665625
Si Si4 0.039948 0.322632 0.920650
Si Si5 0.572018 0.331142 0.494891
Si Si6 0.753681 0.826418 0.101066
Si Si7 0.978704 0.322827 0.191471
O O1 0.810045 0.734747 0.257156
O O2 0.579100 0.760886 0.123322
O O3 0.703999 0.803808 0.122633
O O4 0.718279 0.000000 0.197048
O O5 0.722131 0.218913 0.674378
O O6 0.693629 0.240898 0.570298
O O7 0.903054 0.249760 0.722739
O O8 0.785913 0.000000 0.655518
O O9 0.113612 0.500000 0.656463
O O10 0.006589 0.247873 0.587514
O O11 0.039568 0.500000 0.924096
O O12 0.045126 0.266449 0.872542
O O13 0.154857 0.261391 0.011426
O O14 0.500000 0.328139 0.500000
O O15 0.601152 0.500000 0.496298
O O16 0.871555 0.729905 0.162068
O O17 0.782198 0.000000 0.107385
O O18 0.992346 0.500000 0.201135
#
# Coordination Sequence:
#
# PCOD8086741 Si02
#       7
#     8   8   8   8   8   8   8
#     4  10  19  34  56  78 105 141 182 223 264 317
#     4  10  19  32  51  77 108 140 176 218 265 314
#     4  10  19  31  50  78 110 140 173 218 267 313
#     4   9  18  34  56  79 102 136 183 227 268 315
#     4   9  17  29  49  77 108 139 173 215 261 312
#     4  10  21  36  54  77 106 142 181 223 270 319
#     4  11  21  34  54  78 108 142 178 223 268 319
#
# _framework density 18.581239
#
# number of rings (size 3 to 8) (size 9 to 14) (size 15 to 20)
#    0.000    2.143    1.429    2.571    0.000    5.143 
#    0.000    1.429    0.000    2.571    0.000    0.000 
#    0.000    0.000    0.000    0.000    0.000    0.000 
#
# Total GULP energy -347298.883021 kJ/mol
# GULP energy per Si atom -12403.531536 kJ/mol
# Density = 1.853895 g / cm^3
# Si number density = 18.581239 Si / 1000 Ang^3
#
#
#
# Elastic Constant Matrix: (Units=GPa)
#
#
# Indices 1 2 3 4 5 6 
#
# 1 51.9596 21.9308 20.3547 0.0000 12.2781 0.0000
# 2 21.9308 75.5462 43.9041 0.0000 9.2397 0.0000
# 3 20.3547 43.9041 137.3404 0.0000 19.5983 0.0000
# 4 0.0000 0.0000 0.0000 29.6502 0.0000 2.0459
# 5 12.2781 9.2397 19.5983 0.0000 17.2155 0.0000
# 6 0.0000 0.0000 0.0000 2.0459 0.0000 21.5952
#
#
#
# Elastic Compliance Matrix: (Units=1/GPa)
#
#
# Indices 1 2 3 4 5 6 
#
# 1 0.025087 -0.005557 0.000222 0.000000 -0.015162 0.000000
# 2 -0.005557 0.017652 -0.004815 0.000000 -0.000029 0.000000
# 3 0.000222 -0.004815 0.010079 0.000000 -0.009048 0.000000
# 4 0.000000 0.000000 0.000000 0.033949 0.000000 -0.003216
# 5 -0.015162 -0.000029 -0.009048 0.000000 0.079216 0.000000
# 6 0.000000 0.000000 0.000000 -0.003216 0.000000 0.046611
#
#
# Mechanical properties :
#
#
# Convention : Reuss Voigt Hill
#
# Bulk Modulus (GPa) = 30.75304 48.58059 39.66681
# Shear Modulus (GPa) = 20.51417 25.60262 23.05839
#
# Velocity S-wave (km/s) = 3.32629 3.71600 3.52653
# Velocity P-wave (km/s) = 5.59811 6.67932 6.16247
#
# Compressibility (1/GPa) = 0.03251712
#
# Stress axis : x y z
#
# Youngs Moduli (GPa) = 39.86103 56.65048 99.21982
#
# Poissons Ratio (x) = 0.31483 -0.02204
# Poissons Ratio (y) = 0.22152 0.47776
# Poissons Ratio (z) = -0.00885 0.27278
#
# Static dielectric constant tensor:
#      x y z
#    x 3.088220 0.000000 0.039990 
#    y 0.000000 3.288320 0.000000 
#    z 0.039990 0.000000 3.589880 
# 
# 
# High freq. dielectric constant tensor:
#      x y z
#    x 1.685860 0.000000 0.005310 
#    y 0.000000 1.713050 0.000000 
#    z 0.005310 0.000000 1.737860 
# 
# From -- ./inp_files/275124.got.cif
#   From: 2010.06.25/outbox.cif.g09.slc.cpg/sg12_138_cif.got.tgz:275124.got - 2010.06.28 00:19:55.
