data_PCOD8086675
_publ_section_title
;
Structure prediction by ZEFSAII (Michael W. Deem and Ramdas Pophale) SiO2 
 PCOD8086675
Probable space group: C 2/M
;
_chemical_formula_sum "Si O2"
_cell_formula_units_Z 48
_cell_length_a 27.395692
_cell_length_b 8.923141
_cell_length_c 11.410423
_cell_angle_alpha 90.000000
_cell_angle_beta 78.124992
_cell_angle_gamma 90.000000
_cell_volume 2729.646893
_symmetry_space_group_name_H-M "C 2/M"
_symmetry_group_IT_number 12
_symmetry_cell_setting 'monoclinic'
loop_
_space_group_symop_operation_xyz
x,y,z
-x,y,-z
-x,-y,-z
x,-y,z
1/2+x,1/2+y,z
1/2-x,1/2+y,-z
1/2-x,1/2-y,-z
1/2+x,1/2-y,z
loop_
_atom_site_type_symbol
_atom_site_label
_atom_site_fract_x
_atom_site_fract_y
_atom_site_fract_z
Si Si1 0.221048 0.174737 0.343708
Si Si2 0.486308 0.335412 0.871624
Si Si3 0.675939 0.825219 0.584615
Si Si4 0.595182 0.322885 0.780846
Si Si5 0.892795 0.327207 0.978916
Si Si6 0.790599 0.325731 0.898624
O O1 0.278117 0.205732 0.351007
O O2 0.183842 0.240997 0.458572
O O3 0.210480 0.255899 0.228382
O O4 0.210140 0.000000 0.335227
O O5 0.469771 0.500000 0.834200
O O6 0.537146 0.282906 0.782020
O O7 0.500000 0.347030 0.000000
O O8 0.440828 0.220108 0.876853
O O9 0.626261 0.761170 0.666763
O O10 0.669536 0.000000 0.561815
O O11 0.604665 0.500000 0.770231
O O12 0.611779 0.268632 0.900967
O O13 0.897953 0.500000 0.012175
O O14 0.844774 0.296170 0.924773
O O15 0.778025 0.500000 0.896311
O O16 0.750000 0.250000 0.000000
#
# Coordination Sequence:
#
# PCOD8086675 Si02
#       6
#     8   8   8   8   8   8
#     4  10  21  36  53  74 100 132 168 203 245 295
#     4   8  16  30  47  70  99 130 164 202 246 295
#     4  10  20  34  53  76 101 129 164 206 248 292
#     4  10  19  31  50  76 103 131 166 205 246 294
#     4  10  20  32  48  73 103 133 166 205 249 294
#     4  11  23  36  51  74 103 134 168 204 244 293
#
# _framework density 17.584693000000001
#
# number of rings (size 3 to 8) (size 9 to 14) (size 15 to 20)
#    0.000    2.167    0.000    4.500    0.000   12.333 
#    0.000    0.000    0.000    1.000    0.000    7.000 
#    0.000    0.000    0.000    0.000    0.000    0.000 
#
# Total GULP energy -297609.924204 kJ/mol
# GULP energy per Si atom -12400.413508 kJ/mol
# Density = 1.754467 g / cm^3
# Si number density = 17.584693 Si / 1000 Ang^3
#
#
#
# Elastic Constant Matrix: (Units=GPa)
#
#
# Indices 1 2 3 4 5 6 
#
# 1 103.4466 62.6112 58.8451 0.0000 -20.4264 0.0000
# 2 62.6112 94.4854 45.6654 0.0000 0.1838 0.0000
# 3 58.8451 45.6654 93.1689 0.0000 -9.2011 0.0000
# 4 0.0000 0.0000 0.0000 34.5995 0.0000 -4.3258
# 5 -20.4264 0.1838 -9.2011 0.0000 29.3719 0.0000
# 6 0.0000 0.0000 0.0000 -4.3258 0.0000 31.0815
#
#
#
# Elastic Compliance Matrix: (Units=1/GPa)
#
#
# Indices 1 2 3 4 5 6 
#
# 1 0.024737 -0.012547 -0.008015 0.000000 0.014771 0.000000
# 2 -0.012547 0.020383 -0.003034 0.000000 -0.009804 0.000000
# 3 -0.008015 -0.003034 0.017269 0.000000 -0.000146 0.000000
# 4 0.000000 0.000000 0.000000 0.029414 0.000000 0.004094
# 5 0.014771 -0.009804 -0.000146 0.000000 0.044334 0.000000
# 6 0.000000 0.000000 0.000000 0.004094 0.000000 0.032743
#
#
# Mechanical properties :
#
#
# Convention : Reuss Voigt Hill
#
# Bulk Modulus (GPa) = 65.80756 69.48269 67.64513
# Shear Modulus (GPa) = 22.61026 27.27586 24.94306
#
# Velocity S-wave (km/s) = 3.58968 3.94269 3.77032
# Velocity P-wave (km/s) = 7.39497 7.76694 7.58324
#
# Compressibility (1/GPa) = 0.01519582
#
# Stress axis : x y z
#
# Youngs Moduli (GPa) = 40.42532 49.05934 57.90890
#
# Poissons Ratio (x) = 0.61554 0.46416
# Poissons Ratio (y) = 0.50721 0.17571
# Poissons Ratio (z) = 0.32402 0.14886
#
# Static dielectric constant tensor:
#      x y z
#    x 3.519220 0.000000 -0.301460 
#    y 0.000000 3.453830 0.000000 
#    z -0.301460 0.000000 3.093280 
# 
# 
# High freq. dielectric constant tensor:
#      x y z
#    x 1.677900 0.000000 -0.021750 
#    y 0.000000 1.697150 0.000000 
#    z -0.021750 0.000000 1.660620 
# 
# From -- ./inp_files/179191.got.cif
#   From: 2010.06.25/outbox.cif.g09.slc.cpg/sg12_90_cif.got.tgz:179191.got - 2010.06.28 00:19:55.
