data_PCOD8086407
_publ_section_title
;
Structure prediction by ZEFSAII (Michael W. Deem and Ramdas Pophale) SiO2 
 PCOD8086407
Probable space group: C 2/M
;
_chemical_formula_sum "Si O2"
_cell_formula_units_Z 56
_cell_length_a 31.936708
_cell_length_b 9.954492
_cell_length_c 16.172933
_cell_angle_alpha 90.000000
_cell_angle_beta 37.419732
_cell_angle_gamma 90.000000
_cell_volume 3124.288309
_symmetry_space_group_name_H-M "C 2/M"
_symmetry_group_IT_number 12
_symmetry_cell_setting 'monoclinic'
loop_
_space_group_symop_operation_xyz
x,y,z
-x,y,-z
-x,-y,-z
x,-y,z
1/2+x,1/2+y,z
1/2-x,1/2+y,-z
1/2-x,1/2-y,-z
1/2+x,1/2-y,z
loop_
_atom_site_type_symbol
_atom_site_label
_atom_site_fract_x
_atom_site_fract_y
_atom_site_fract_z
Si Si1 0.835720 0.353255 0.856044
Si Si2 0.931401 0.339933 0.565287
Si Si3 0.895105 0.659245 0.116263
Si Si4 0.769626 0.843996 0.260710
Si Si5 0.963421 0.658245 0.180320
Si Si6 0.799935 0.144143 0.027148
Si Si7 0.615215 0.840254 0.536990
O O1 0.867447 0.500000 0.827696
O O2 0.871441 0.289042 0.719823
O O3 0.756133 0.369210 0.957549
O O4 0.849598 0.262796 0.916400
O O5 0.931374 0.500000 0.559339
O O6 0.919340 0.280744 0.492382
O O7 0.000000 0.283353 0.500000
O O8 0.878826 0.500000 0.134839
O O9 0.827594 0.746281 0.205430
O O10 0.919177 0.699905 0.170122
O O11 0.956452 0.702224 0.956388
O O12 0.765440 0.821555 0.168761
O O13 0.696029 0.800201 0.414511
O O14 0.786230 0.000000 0.255803
O O15 0.962398 0.500000 0.189454
O O16 0.927201 0.721412 0.318710
O O17 0.839030 0.000000 0.972479
O O18 0.610146 0.000000 0.544373
#
# Coordination Sequence:
#
# PCOD8086407 Si02
#       7
#     8   8   8   8   8   8   8
#     4   9  16  28  45  66  89 116 155 198 235 271
#     4   9  16  26  43  69  96 120 157 206 240 271
#     4   9  18  33  52  76 101 125 160 205 246 289
#     4  10  19  31  49  73 101 132 164 199 244 295
#     4   8  16  32  52  71  98 133 162 196 247 296
#     4   9  17  29  44  63  91 124 153 186 233 285
#     4   9  16  29  48  69  97 133 166 197 243 296
#
# _framework density 17.924081999999999
#
# number of rings (size 3 to 8) (size 9 to 14) (size 15 to 20)
#    0.000    3.000    1.429    0.857    0.000    2.286 
#    0.000    4.286    0.000    1.286    0.000    0.000 
#    0.000    0.000    0.000    0.000    0.000    0.000 
#
# Total GULP energy -346872.442548 kJ/mol
# GULP energy per Si atom -12388.301520 kJ/mol
# Density = 1.788329 g / cm^3
# Si number density = 17.924082 Si / 1000 Ang^3
#
#
#
# Elastic Constant Matrix: (Units=GPa)
#
#
# Indices 1 2 3 4 5 6 
#
# 1 76.5890 29.6452 60.2789 -0.0001 -9.0022 0.0000
# 2 29.6452 41.4441 37.6358 0.0001 1.0651 0.0000
# 3 60.2789 37.6358 143.3246 0.0000 15.0982 0.0000
# 4 -0.0001 0.0001 0.0000 16.8327 0.0000 0.1306
# 5 -9.0022 1.0651 15.0982 0.0000 28.9899 0.0000
# 6 0.0000 0.0000 0.0000 0.1306 0.0000 22.0346
#
#
#
# Elastic Compliance Matrix: (Units=1/GPa)
#
#
# Indices 1 2 3 4 5 6 
#
# 1 0.026400 -0.010298 -0.009842 0.000000 0.013702 0.000000
# 2 -0.010298 0.036013 -0.004919 0.000000 -0.001959 0.000000
# 3 -0.009842 -0.004919 0.013449 0.000000 -0.009880 0.000000
# 4 0.000000 0.000000 0.000000 0.059411 0.000000 -0.000352
# 5 0.013702 -0.001959 -0.009880 0.000000 0.043967 0.000000
# 6 0.000000 0.000000 0.000000 -0.000352 0.000000 0.045385
#
#
# Mechanical properties :
#
#
# Convention : Reuss Voigt Hill
#
# Bulk Modulus (GPa) = 38.84639 57.38638 48.11638
# Shear Modulus (GPa) = 17.64762 22.49130 20.06946
#
# Velocity S-wave (km/s) = 3.14120 3.54617 3.34981
# Velocity P-wave (km/s) = 5.90559 6.98949 6.47028
#
# Compressibility (1/GPa) = 0.02574242
#
# Stress axis : x y z
#
# Youngs Moduli (GPa) = 37.87940 27.76810 74.35442
#
# Poissons Ratio (x) = 0.28596 0.73182
# Poissons Ratio (y) = 0.39008 0.36576
# Poissons Ratio (z) = 0.37282 0.13659
#
# Static dielectric constant tensor:
#      x y z
#    x 3.271170 0.000000 0.246800 
#    y 0.000000 3.169130 0.000000 
#    z 0.246800 0.000000 3.676160 
# 
# 
# High freq. dielectric constant tensor:
#      x y z
#    x 1.681730 0.000000 0.009660 
#    y 0.000000 1.643040 0.000000 
#    z 0.009660 0.000000 1.701010 
# 
# From -- ./inp_files/250510.got.cif
#   From: 2010.06.25/outbox.cif.g09.slc.cpg/sg12_126_cif.got.tgz:250510.got - 2010.06.28 00:19:55.
