data_PCOD8086319
_publ_section_title
;
Structure prediction by ZEFSAII (Michael W. Deem and Ramdas Pophale) SiO2 
 PCOD8086319
Probable space group: C 2/M
;
_chemical_formula_sum "Si O2"
_cell_formula_units_Z 40
_cell_length_a 20.570728
_cell_length_b 9.014280
_cell_length_c 16.984168
_cell_angle_alpha 90.000000
_cell_angle_beta 126.985739
_cell_angle_gamma 90.000000
_cell_volume 2515.677900
_symmetry_space_group_name_H-M "C 2/M"
_symmetry_group_IT_number 12
_symmetry_cell_setting 'monoclinic'
loop_
_space_group_symop_operation_xyz
x,y,z
-x,y,-z
-x,-y,-z
x,-y,z
1/2+x,1/2+y,z
1/2-x,1/2+y,-z
1/2-x,1/2-y,-z
1/2+x,1/2-y,z
loop_
_atom_site_type_symbol
_atom_site_label
_atom_site_fract_x
_atom_site_fract_y
_atom_site_fract_z
Si Si1 0.184072 0.167428 0.719769
Si Si2 0.442060 0.824542 0.280938
Si Si3 0.745399 0.672834 0.373504
Si Si4 0.871923 0.672339 0.599820
Si Si5 0.190665 0.832353 0.898094
O O1 0.098282 0.256024 0.668704
O O2 0.242288 0.247922 0.700665
O O3 0.229580 0.166580 0.838184
O O4 0.165602 0.000000 0.677956
O O5 0.535822 0.777512 0.346705
O O6 0.395963 0.754921 0.170842
O O7 0.430633 0.000000 0.273325
O O8 0.734121 0.500000 0.350233
O O9 0.822873 0.708611 0.484645
O O10 0.663633 0.734778 0.353526
O O11 0.865039 0.500000 0.616744
O O12 0.175520 0.000000 0.916985
O O13 0.250000 0.750000 0.000000
#
# Coordination Sequence:
#
# PCOD8086319 Si02
#       5
#     8   8   8   8   8
#     4   9  19  32  47  71  98 125 159 199 240 283
#     4   9  17  31  50  71  96 126 160 198 238 282
#     4  10  19  31  49  70  96 132 167 197 234 281
#     4   9  19  33  48  69  98 132 164 196 237 283
#     4   9  18  31  50  73  96 123 155 196 243 288
#
# _framework density 15.900285999999999
#
# number of rings (size 3 to 8) (size 9 to 14) (size 15 to 20)
#    1.200    1.600    0.000    1.800    0.000    3.200 
#    0.000    4.000    0.000    1.200    0.000    8.400 
#    0.000    0.000    0.000    0.000    0.000    0.000 
#
# Total GULP energy -247849.169996 kJ/mol
# GULP energy per Si atom -12392.458500 kJ/mol
# Density = 1.586410 g / cm^3
# Si number density = 15.900286 Si / 1000 Ang^3
#
#
#
# Elastic Constant Matrix: (Units=GPa)
#
#
# Indices 1 2 3 4 5 6 
#
# 1 76.4131 45.9257 20.0585 0.0000 -15.0042 0.0000
# 2 45.9257 103.2188 25.2097 0.0000 -9.8120 0.0000
# 3 20.0585 25.2097 41.4759 0.0000 -8.5114 0.0000
# 4 0.0000 0.0000 0.0000 25.7076 0.0000 -2.3373
# 5 -15.0042 -9.8120 -8.5114 0.0000 12.7015 0.0000
# 6 0.0000 0.0000 0.0000 -2.3373 0.0000 31.9518
#
#
#
# Elastic Compliance Matrix: (Units=1/GPa)
#
#
# Indices 1 2 3 4 5 6 
#
# 1 0.021729 -0.007364 -0.002241 0.000000 0.018478 0.000000
# 2 -0.007364 0.014133 -0.005303 0.000000 -0.001335 0.000000
# 3 -0.002241 -0.005303 0.031344 0.000000 0.014261 0.000000
# 4 0.000000 0.000000 0.000000 0.039160 0.000000 0.002865
# 5 0.018478 -0.001335 0.014261 0.000000 0.109084 0.000000
# 6 0.000000 0.000000 0.000000 0.002865 0.000000 0.031507
#
#
# Mechanical properties :
#
#
# Convention : Reuss Voigt Hill
#
# Bulk Modulus (GPa) = 26.74463 44.83284 35.78874
# Shear Modulus (GPa) = 17.28697 22.73309 20.01003
#
# Velocity S-wave (km/s) = 3.30087 3.78528 3.55134
# Velocity P-wave (km/s) = 5.60217 6.88200 6.27480
#
# Compressibility (1/GPa) = 0.03739068
#
# Stress axis : x y z
#
# Youngs Moduli (GPa) = 46.02063 70.75618 31.90453
#
# Poissons Ratio (x) = 0.52108 0.07148
# Poissons Ratio (y) = 0.33891 0.16918
# Poissons Ratio (z) = 0.10311 0.37520
#
# Static dielectric constant tensor:
#      x y z
#    x 2.868920 0.000000 -0.001960 
#    y 0.000000 3.125230 0.000000 
#    z -0.001960 0.000000 2.778950 
# 
# 
# High freq. dielectric constant tensor:
#      x y z
#    x 1.594860 0.000000 -0.003030 
#    y 0.000000 1.630950 0.000000 
#    z -0.003030 0.000000 1.584530 
# 
# From -- ./inp_files/273541.got.cif
#   From: 2010.06.25/outbox.cif.g09.slc.cpg/sg12_137_cif.got.tgz:273541.got - 2010.06.28 00:19:55.
