data_PCOD8086894
_publ_section_title
;
Structure prediction by ZEFSAII (Michael W. Deem and Ramdas Pophale) SiO2 
 PCOD8086894
Probable space group: C 2/M
;
_chemical_formula_sum "Si O2"
_cell_formula_units_Z 64
_cell_length_a 20.229927
_cell_length_b 8.964030
_cell_length_c 20.593300
_cell_angle_alpha 90.000000
_cell_angle_beta 113.545835
_cell_angle_gamma 90.000000
_cell_volume 3423.498329
_symmetry_space_group_name_H-M "C 2/M"
_symmetry_group_IT_number 12
_symmetry_cell_setting 'monoclinic'
loop_
_space_group_symop_operation_xyz
x,y,z
-x,y,-z
-x,-y,-z
x,-y,z
1/2+x,1/2+y,z
1/2-x,1/2+y,-z
1/2-x,1/2-y,-z
1/2+x,1/2-y,z
loop_
_atom_site_type_symbol
_atom_site_label
_atom_site_fract_x
_atom_site_fract_y
_atom_site_fract_z
Si Si1 0.928213 0.825820 0.831969
Si Si2 0.985829 0.327736 0.598573
Si Si3 0.256189 0.177374 0.572756
Si Si4 0.882924 0.327804 0.437315
Si Si5 0.098340 0.174727 0.325865
Si Si6 0.578965 0.675089 0.945067
Si Si7 0.286706 0.328984 0.072956
Si Si8 0.656178 0.825183 0.096718
O O1 0.929156 0.787324 0.756682
O O2 0.862003 0.744171 0.840854
O O3 0.000764 0.765521 0.894504
O O4 0.919254 0.000000 0.839747
O O5 0.986536 0.500000 0.620374
O O6 0.064506 0.281849 0.601630
O O7 0.925105 0.302051 0.520673
O O8 0.966093 0.224211 0.651608
O O9 0.250000 0.250000 0.500000
O O10 0.188624 0.226599 0.591058
O O11 0.329555 0.231475 0.634364
O O12 0.257230 0.000000 0.566196
O O13 0.859907 0.500000 0.421622
O O14 0.114461 0.000000 0.342030
O O15 0.577686 0.500000 0.961114
O O16 0.628115 0.706790 0.899294
O O17 0.606798 0.758630 0.019820
O O18 0.272555 0.500000 0.054267
O O19 0.241899 0.285134 0.120212
O O20 0.250000 0.250000 0.000000
O O21 0.641753 0.000000 0.093124
#
# Coordination Sequence:
#
# PCOD8086894 Si02
#       8
#     8   8   8   8   8   8   8   8
#     4  10  22  37  52  73 104 144 182 217 265 319
#     4   9  18  34  57  82 110 141 172 215 270 323
#     4  12  23  36  57  84 110 140 178 221 268 321
#     4   9  18  34  57  85 112 139 173 216 267 321
#     4  11  23  38  55  77 109 146 185 229 273 325
#     4   9  17  33  55  75 100 138 180 219 262 316
#     4   8  15  28  48  74 101 130 166 212 262 307
#     4  10  19  31  51  80 109 136 173 223 269 313
#
# _framework density 18.694329
#
# number of rings (size 3 to 8) (size 9 to 14) (size 15 to 20)
#    0.000    2.250    1.250    3.000    0.000    4.000 
#    0.000    2.500    0.000    1.500    0.000    0.000 
#    0.000    0.000    0.000    0.000    0.000    0.000 
#
# Total GULP energy -396582.240918 kJ/mol
# GULP energy per Si atom -12393.195029 kJ/mol
# Density = 1.865178 g / cm^3
# Si number density = 18.694329 Si / 1000 Ang^3
#
#
#
# Elastic Constant Matrix: (Units=GPa)
#
#
# Indices 1 2 3 4 5 6 
#
# 1 139.4445 52.0826 34.4999 0.0000 -25.6897 0.0000
# 2 52.0826 77.2300 33.7495 0.0000 -12.3874 0.0000
# 3 34.4999 33.7495 54.4241 0.0000 -18.3747 0.0000
# 4 0.0000 0.0000 0.0000 22.3669 0.0000 -4.4614
# 5 -25.6897 -12.3874 -18.3747 0.0000 24.2609 0.0000
# 6 0.0000 0.0000 0.0000 -4.4614 0.0000 34.6075
#
#
#
# Elastic Compliance Matrix: (Units=1/GPa)
#
#
# Indices 1 2 3 4 5 6 
#
# 1 0.011020 -0.005861 -0.000567 0.000000 0.008247 0.000000
# 2 -0.005861 0.020896 -0.010394 0.000000 -0.003409 0.000000
# 3 -0.000567 -0.010394 0.031150 0.000000 0.017685 0.000000
# 4 0.000000 0.000000 0.000000 0.045889 0.000000 0.005916
# 5 0.008247 -0.003409 0.017685 0.000000 0.061605 0.000000
# 6 0.000000 0.000000 0.000000 0.005916 0.000000 0.029658
#
#
# Mechanical properties :
#
#
# Convention : Reuss Voigt Hill
#
# Bulk Modulus (GPa) = 33.98708 56.86252 45.42480
# Shear Modulus (GPa) = 20.51962 26.29817 23.40889
#
# Velocity S-wave (km/s) = 3.31666 3.75473 3.54247
# Velocity P-wave (km/s) = 5.73471 7.02000 6.40965
#
# Compressibility (1/GPa) = 0.02942294
#
# Stress axis : x y z
#
# Youngs Moduli (GPa) = 90.74340 47.85517 32.10312
#
# Poissons Ratio (x) = 0.28050 0.01819
# Poissons Ratio (y) = 0.53188 0.33367
# Poissons Ratio (z) = 0.05141 0.49739
#
# Static dielectric constant tensor:
#      x y z
#    x 3.284810 0.000000 -0.144990 
#    y 0.000000 3.377110 0.000000 
#    z -0.144990 0.000000 3.100690 
# 
# 
# High freq. dielectric constant tensor:
#      x y z
#    x 1.752640 0.000000 -0.008730 
#    y 0.000000 1.724750 0.000000 
#    z -0.008730 0.000000 1.684120 
# 
# From -- ./inp_files/320066.got.cif
#   From: 2010.06.25/outbox.cif.g09.slc.cpg/sg12_161_cif.got.tgz:320066.got - 2010.06.28 00:19:55.
