data_PCOD8086623
_publ_section_title
;
Structure prediction by ZEFSAII (Michael W. Deem and Ramdas Pophale) SiO2 
 PCOD8086623
Probable space group: C 2/M
;
_chemical_formula_sum "Si O2"
_cell_formula_units_Z 64
_cell_length_a 18.775355
_cell_length_b 9.016384
_cell_length_c 27.804215
_cell_angle_alpha 90.000000
_cell_angle_beta 48.393879
_cell_angle_gamma 90.000000
_cell_volume 3519.446355
_symmetry_space_group_name_H-M "C 2/M"
_symmetry_group_IT_number 12
_symmetry_cell_setting 'monoclinic'
loop_
_space_group_symop_operation_xyz
x,y,z
-x,y,-z
-x,-y,-z
x,-y,z
1/2+x,1/2+y,z
1/2-x,1/2+y,-z
1/2-x,1/2-y,-z
1/2+x,1/2-y,z
loop_
_atom_site_type_symbol
_atom_site_label
_atom_site_fract_x
_atom_site_fract_y
_atom_site_fract_z
Si Si1 0.351622 0.328528 0.635044
Si Si2 0.858485 0.330981 0.363151
Si Si3 0.890531 0.668762 0.063442
Si Si4 0.666072 0.825417 0.455419
Si Si5 0.329641 0.324589 0.997944
Si Si6 0.364833 0.170104 0.252529
Si Si7 0.954902 0.826946 0.125209
Si Si8 0.981486 0.669831 0.397642
O O1 0.366728 0.500000 0.617696
O O2 0.373272 0.243350 0.576006
O O3 0.247134 0.296676 0.702623
O O4 0.425437 0.270977 0.641364
O O5 0.820010 0.500000 0.380443
O O6 0.772178 0.229019 0.419269
O O7 0.895234 0.290844 0.293415
O O8 0.946040 0.308874 0.359370
O O9 0.853177 0.500000 0.083470
O O10 0.825646 0.756306 0.053694
O O11 0.885952 0.744816 0.117855
O O12 0.000000 0.675196 0.000000
O O13 0.598633 0.774836 0.529216
O O14 0.667506 0.000000 0.449025
O O15 0.310539 0.500000 0.009403
O O16 0.250000 0.250000 0.000000
O O17 0.433615 0.287587 0.929950
O O18 0.424356 0.277775 0.191879
O O19 0.388552 0.000000 0.228758
O O20 0.938062 0.000000 0.125384
O O21 0.008508 0.500000 0.396227
#
# Coordination Sequence:
#
# PCOD8086623 Si02
#       8
#     8   8   8   8   8   8   8   8
#     4  10  21  35  51  72  99 132 169 211 257 305
#     4   9  19  35  52  72 101 134 168 209 256 307
#     4   9  17  31  53  79 106 137 170 205 247 292
#     4  10  19  31  50  75 100 129 167 209 257 314
#     4  10  20  34  53  81 114 142 171 208 253 301
#     4   9  19  36  54  71  95 133 177 213 250 301
#     4  10  20  34  55  80 104 135 174 212 248 295
#     4  10  20  33  50  74 102 130 164 211 264 313
#
# _framework density 18.184678999999999
#
# number of rings (size 3 to 8) (size 9 to 14) (size 15 to 20)
#    0.000    2.375    0.000    3.375    0.000    8.500 
#    0.000    1.250    0.000    6.000    0.000    0.000 
#    0.000    0.000    0.000    0.000    0.000    0.000 
#
# Total GULP energy -396839.507655 kJ/mol
# GULP energy per Si atom -12401.234614 kJ/mol
# Density = 1.814329 g / cm^3
# Si number density = 18.184679 Si / 1000 Ang^3
#
#
#
# Elastic Constant Matrix: (Units=GPa)
#
#
# Indices 1 2 3 4 5 6 
#
# 1 124.1866 56.7413 43.8171 -0.0002 4.1356 -0.0013
# 2 56.7413 92.3514 41.5747 -0.0014 0.0774 -0.0033
# 3 43.8171 41.5747 76.1137 0.0000 13.2620 -0.0001
# 4 -0.0002 -0.0014 0.0000 29.4182 -0.0001 0.2091
# 5 4.1356 0.0774 13.2620 -0.0001 15.8108 -0.0001
# 6 -0.0013 -0.0033 -0.0001 0.2091 -0.0001 35.0765
#
#
#
# Elastic Compliance Matrix: (Units=1/GPa)
#
#
# Indices 1 2 3 4 5 6 
#
# 1 0.011975 -0.005629 -0.003839 0.000000 0.000115 0.000000
# 2 -0.005629 0.017835 -0.007897 0.000001 0.008009 0.000001
# 3 -0.003839 -0.007897 0.022814 0.000000 -0.018094 -0.000001
# 4 0.000000 0.000001 0.000000 0.033994 0.000001 -0.000203
# 5 0.000115 0.008009 -0.018094 0.000001 0.078356 0.000001
# 6 0.000000 0.000001 -0.000001 -0.000203 0.000001 0.028510
#
#
# Mechanical properties :
#
#
# Convention : Reuss Voigt Hill
#
# Bulk Modulus (GPa) = 55.88361 64.10200 59.99281
# Shear Modulus (GPa) = 21.35112 26.09565 23.72338
#
# Velocity S-wave (km/s) = 3.43027 3.79230 3.61582
# Velocity P-wave (km/s) = 6.81813 7.38258 7.10596
#
# Compressibility (1/GPa) = 0.01789433
#
# Stress axis : x y z
#
# Youngs Moduli (GPa) = 83.50565 56.06895 43.83223
#
# Poissons Ratio (x) = 0.31564 0.16828
# Poissons Ratio (y) = 0.47009 0.34613
# Poissons Ratio (z) = 0.32059 0.44275
#
# Static dielectric constant tensor:
#      x y z
#    x 3.455850 0.000000 0.091060 
#    y 0.000000 3.422290 0.000000 
#    z 0.091060 0.000000 3.113950 
# 
# 
# High freq. dielectric constant tensor:
#      x y z
#    x 1.710210 0.000000 0.010270 
#    y 0.000000 1.713170 0.000000 
#    z 0.010270 0.000000 1.678960 
# 
# From -- ./inp_files/378169.got.cif
#   From: 2010.06.25/outbox.cif.g09.slc.cpg/sg12_190_cif.got.tgz:378169.got - 2010.06.28 00:19:55.
