data_PCOD8086633
_publ_section_title
;
Structure prediction by ZEFSAII (Michael W. Deem and Ramdas Pophale) SiO2 
 PCOD8086633
Probable space group: C 2/M
;
_chemical_formula_sum "Si O2"
_cell_formula_units_Z 64
_cell_length_a 23.422723
_cell_length_b 9.286396
_cell_length_c 19.968202
_cell_angle_alpha 90.000000
_cell_angle_beta 58.408994
_cell_angle_gamma 90.000000
_cell_volume 3699.694445
_symmetry_space_group_name_H-M "C 2/M"
_symmetry_group_IT_number 12
_symmetry_cell_setting 'monoclinic'
loop_
_space_group_symop_operation_xyz
x,y,z
-x,y,-z
-x,-y,-z
x,-y,z
1/2+x,1/2+y,z
1/2-x,1/2+y,-z
1/2-x,1/2-y,-z
1/2+x,1/2-y,z
loop_
_atom_site_type_symbol
_atom_site_label
_atom_site_fract_x
_atom_site_fract_y
_atom_site_fract_z
Si Si1 0.537907 0.332696 0.766266
Si Si2 0.130611 0.167947 0.833980
Si Si3 0.202545 0.835731 0.149629
Si Si4 0.595958 0.829947 0.130993
Si Si5 0.736647 0.335276 0.272826
Si Si6 0.358773 0.166096 0.042492
Si Si7 0.217340 0.835612 0.429655
Si Si8 0.344557 0.332306 0.398986
O O1 0.519292 0.500000 0.769640
O O2 0.572159 0.302868 0.816632
O O3 0.471418 0.239779 0.799871
O O4 0.585998 0.279083 0.676093
O O5 0.198848 0.234214 0.763717
O O6 0.109546 0.240210 0.917175
O O7 0.142332 0.000000 0.838686
O O8 0.158416 0.726337 0.134964
O O9 0.191080 0.802748 0.235878
O O10 0.279673 0.805474 0.084329
O O11 0.182690 0.000000 0.144300
O O12 0.592545 0.000000 0.141944
O O13 0.605840 0.785648 0.047694
O O14 0.762755 0.500000 0.251484
O O15 0.693216 0.311342 0.367597
O O16 0.372988 0.000000 0.050063
O O17 0.282494 0.741096 0.401050
O O18 0.158240 0.797636 0.519188
O O19 0.239387 0.000000 0.427591
O O20 0.337257 0.500000 0.387601
#
# Coordination Sequence:
#
# PCOD8086633 Si02
#       8
#     8   8   8   8   8   8   8   8
#     4  10  21  35  49  69 104 140 167 199 242 293
#     4  10  19  31  50  75 101 132 166 200 242 294
#     4   9  18  34  54  73  98 127 158 203 255 299
#     4  11  23  36  52  73  95 127 172 211 247 294
#     4   9  17  30  50  77 105 131 160 200 250 296
#     4   9  20  37  54  74  99 125 158 208 258 297
#     4   9  16  27  49  77 103 131 163 199 241 289
#     4   9  17  30  47  72 105 135 164 199 238 286
#
# _framework density 17.298725000000001
#
# number of rings (size 3 to 8) (size 9 to 14) (size 15 to 20)
#    0.000    2.500    1.250    1.875    0.000    5.000 
#    0.000    2.500    0.000    0.750    0.000    5.250 
#    0.000    0.000    0.000    0.000    0.000    0.000 
#
# Total GULP energy -396700.192888 kJ/mol
# GULP energy per Si atom -12396.881028 kJ/mol
# Density = 1.725935 g / cm^3
# Si number density = 17.298725 Si / 1000 Ang^3
#
#
#
# Elastic Constant Matrix: (Units=GPa)
#
#
# Indices 1 2 3 4 5 6 
#
# 1 21.7899 19.8202 18.3400 -0.0003 -5.6808 0.0005
# 2 19.8202 54.8082 30.9940 -0.0007 -1.0220 -0.0008
# 3 18.3400 30.9940 125.1789 -0.0002 2.7037 0.0004
# 4 -0.0003 -0.0007 -0.0002 24.4819 0.0000 -0.2017
# 5 -5.6808 -1.0220 2.7037 0.0000 18.4445 0.0000
# 6 0.0005 -0.0008 0.0004 -0.2017 0.0000 27.2255
#
#
#
# Elastic Compliance Matrix: (Units=1/GPa)
#
#
# Indices 1 2 3 4 5 6 
#
# 1 0.080116 -0.025103 -0.006044 0.000000 0.024170 -0.000002
# 2 -0.025103 0.029152 -0.003419 0.000001 -0.005615 0.000001
# 3 -0.006044 -0.003419 0.009796 0.000000 -0.003487 0.000000
# 4 0.000000 0.000001 0.000000 0.040849 0.000000 0.000303
# 5 0.024170 -0.005615 -0.003487 0.000000 0.061861 -0.000001
# 6 -0.000002 0.000001 0.000000 0.000303 -0.000001 0.036733
#
#
# Mechanical properties :
#
#
# Convention : Reuss Voigt Hill
#
# Bulk Modulus (GPa) = 20.02774 37.78728 28.90751
# Shear Modulus (GPa) = 14.52295 22.87190 18.69743
#
# Velocity S-wave (km/s) = 2.90062 3.64011 3.29120
# Velocity P-wave (km/s) = 4.77712 6.28956 5.58478
#
# Compressibility (1/GPa) = 0.04993075
#
# Stress axis : x y z
#
# Youngs Moduli (GPa) = 12.48198 34.30273 102.08334
#
# Poissons Ratio (x) = 0.86111 0.61702
# Poissons Ratio (y) = 0.31334 0.34901
# Poissons Ratio (z) = 0.07544 0.11728
#
# Static dielectric constant tensor:
#      x y z
#    x 2.930660 0.000000 0.246020 
#    y 0.000000 3.237690 0.000000 
#    z 0.246020 0.000000 3.595690 
# 
# 
# High freq. dielectric constant tensor:
#      x y z
#    x 1.634740 0.000000 0.019120 
#    y 0.000000 1.670790 0.000000 
#    z 0.019120 0.000000 1.679620 
# 
# From -- ./inp_files/319854.got.cif
#   From: 2010.06.25/outbox.cif.g09.slc.cpg/sg12_160_cif.got.tgz:319854.got - 2010.06.28 00:19:55.
