data_PCOD8086058
_publ_section_title
;
Structure prediction by ZEFSAII (Michael W. Deem and Ramdas Pophale) SiO2 
 PCOD8086058
Probable space group: C 2/M
;
_chemical_formula_sum "Si O2"
_cell_formula_units_Z 48
_cell_length_a 23.557783
_cell_length_b 9.290810
_cell_length_c 15.131492
_cell_angle_alpha 90.000000
_cell_angle_beta 120.394111
_cell_angle_gamma 90.000000
_cell_volume 2856.682147
_symmetry_space_group_name_H-M "C 2/M"
_symmetry_group_IT_number 12
_symmetry_cell_setting 'monoclinic'
loop_
_space_group_symop_operation_xyz
x,y,z
-x,y,-z
-x,-y,-z
x,-y,z
1/2+x,1/2+y,z
1/2-x,1/2+y,-z
1/2-x,1/2-y,-z
1/2+x,1/2-y,z
loop_
_atom_site_type_symbol
_atom_site_label
_atom_site_fract_x
_atom_site_fract_y
_atom_site_fract_z
Si Si1 0.944449 0.330176 0.633490
Si Si2 0.596896 0.336283 0.562175
Si Si3 0.237913 0.168343 0.719800
Si Si4 0.284854 0.669982 0.106479
Si Si5 0.432956 0.338327 0.259534
Si Si6 0.195002 0.668657 0.400581
O O1 0.952069 0.500000 0.637209
O O2 0.942881 0.268156 0.533487
O O3 0.878361 0.281281 0.632685
O O4 0.009008 0.263935 0.732622
O O5 0.595384 0.500000 0.523619
O O6 0.670621 0.270924 0.624737
O O7 0.564390 0.332448 0.632456
O O8 0.249303 0.225976 0.828611
O O9 0.296683 0.203931 0.697905
O O10 0.224876 0.000000 0.721231
O O11 0.276046 0.500000 0.087018
O O12 0.361900 0.713071 0.168302
O O13 0.250000 0.750000 0.000000
O O14 0.446738 0.500000 0.237472
O O15 0.205183 0.500000 0.426600
O O16 0.250000 0.750000 0.500000
#
# Coordination Sequence:
#
# PCOD8086058 Si02
#       6
#     8   8   8   8   8   8
#     4  11  21  28  41  70 102 128 157 197 239 271
#     4   9  16  29  48  65  88 130 170 191 221 280
#     4   8  15  30  50  69  93 126 162 195 231 283
#     4   9  18  34  56  77  92 115 155 203 251 291
#     4   9  19  33  48  67  92 127 166 191 227 295
#     4  10  19  31  47  68  97 133 168 197 227 275
#
# _framework density 16.802710000000001
#
# number of rings (size 3 to 8) (size 9 to 14) (size 15 to 20)
#    0.000    2.667    1.667    3.000    0.000    4.000 
#    0.000    3.333    0.000    1.000    0.000    7.000 
#    0.000    0.000    0.000    0.000    0.000    0.000 
#
# Total GULP energy -297433.585442 kJ/mol
# GULP energy per Si atom -12393.066060 kJ/mol
# Density = 1.676447 g / cm^3
# Si number density = 16.802710 Si / 1000 Ang^3
#
#
#
# Elastic Constant Matrix: (Units=GPa)
#
#
# Indices 1 2 3 4 5 6 
#
# 1 119.4310 48.6780 56.9632 0.0000 10.0444 0.0000
# 2 48.6780 56.2150 39.3729 0.0000 7.0713 0.0000
# 3 56.9632 39.3729 102.0565 0.0000 6.4188 0.0000
# 4 0.0000 0.0000 0.0000 26.0996 0.0000 4.4617
# 5 10.0444 7.0713 6.4188 0.0000 15.0919 0.0000
# 6 0.0000 0.0000 0.0000 4.4617 0.0000 24.7766
#
#
#
# Elastic Compliance Matrix: (Units=1/GPa)
#
#
# Indices 1 2 3 4 5 6 
#
# 1 0.014408 -0.008982 -0.004354 0.000000 -0.003528 0.000000
# 2 -0.008982 0.030860 -0.006534 0.000000 -0.005702 0.000000
# 3 -0.004354 -0.006534 0.014770 0.000000 -0.000322 0.000000
# 4 0.000000 0.000000 0.000000 0.039532 0.000000 -0.007119
# 5 -0.003528 -0.005702 -0.000322 0.000000 0.071418 0.000000
# 6 0.000000 0.000000 0.000000 -0.007119 0.000000 0.041643
#
#
# Mechanical properties :
#
#
# Convention : Reuss Voigt Hill
#
# Bulk Modulus (GPa) = 49.26802 63.08120 56.17461
# Shear Modulus (GPa) = 19.29483 22.03951 20.66717
#
# Velocity S-wave (km/s) = 3.39236 3.62562 3.51093
# Velocity P-wave (km/s) = 6.68799 7.42634 7.06682
#
# Compressibility (1/GPa) = 0.02029714
#
# Stress axis : x y z
#
# Youngs Moduli (GPa) = 69.40742 32.40408 67.70543
#
# Poissons Ratio (x) = 0.29106 0.29482
# Poissons Ratio (y) = 0.62344 0.44236
# Poissons Ratio (z) = 0.30223 0.21172
#
# Static dielectric constant tensor:
#      x y z
#    x 3.389370 0.000000 -0.026830 
#    y 0.000000 2.977020 0.000000 
#    z -0.026830 0.000000 2.957620 
# 
# 
# High freq. dielectric constant tensor:
#      x y z
#    x 1.654400 0.000000 0.003040 
#    y 0.000000 1.629900 0.000000 
#    z 0.003040 0.000000 1.615800 
# 
# From -- ./inp_files/236852.got.cif
#   From: 2010.06.25/outbox.cif.g09.slc.cpg/sg12_119_cif.got.tgz:236852.got - 2010.06.28 00:19:55.
