data_PCOD8086402
_publ_section_title
;
Structure prediction by ZEFSAII (Michael W. Deem and Ramdas Pophale) SiO2 
 PCOD8086402
Probable space group: C 2/M
;
_chemical_formula_sum "Si O2"
_cell_formula_units_Z 56
_cell_length_a 18.916494
_cell_length_b 9.187821
_cell_length_c 18.438163
_cell_angle_alpha 90.000000
_cell_angle_beta 110.725498
_cell_angle_gamma 90.000000
_cell_volume 2997.198801
_symmetry_space_group_name_H-M "C 2/M"
_symmetry_group_IT_number 12
_symmetry_cell_setting 'monoclinic'
loop_
_space_group_symop_operation_xyz
x,y,z
-x,y,-z
-x,-y,-z
x,-y,z
1/2+x,1/2+y,z
1/2-x,1/2+y,-z
1/2-x,1/2-y,-z
1/2+x,1/2-y,z
loop_
_atom_site_type_symbol
_atom_site_label
_atom_site_fract_x
_atom_site_fract_y
_atom_site_fract_z
Si Si1 0.169070 0.830754 0.071389
Si Si2 0.022441 0.333833 0.424823
Si Si3 0.825990 0.173941 0.496910
Si Si4 0.583889 0.661784 0.897725
Si Si5 0.125142 0.831077 0.646857
Si Si6 0.457857 0.838639 0.908414
Si Si7 0.301318 0.661817 0.179976
O O1 0.117873 0.753884 0.113496
O O2 0.252905 0.777258 0.117918
O O3 0.164841 0.000000 0.083540
O O4 0.144857 0.787634 0.980919
O O5 0.033173 0.500000 0.401207
O O6 0.099843 0.243856 0.437496
O O7 0.000000 0.330426 0.500000
O O8 0.950560 0.258536 0.360496
O O9 0.750000 0.250000 0.500000
O O10 0.834340 0.209517 0.414270
O O11 0.822921 0.000000 0.510345
O O12 0.556037 0.500000 0.909313
O O13 0.512333 0.767833 0.868604
O O14 0.617901 0.663191 0.830187
O O15 0.186287 0.795824 0.731705
O O16 0.101682 0.000000 0.638278
O O17 0.436946 0.000000 0.875047
O O18 0.500000 0.837288 0.000000
O O19 0.265164 0.500000 0.160716
#
# Coordination Sequence:
#
# PCOD8086402 Si02
#       7
#     8   8   8   8   8   8   8
#     4  10  19  31  49  73 100 131 169 211 254 297
#     4   9  17  31  53  78 102 129 161 196 237 290
#     4  10  19  33  55  81 106 131 164 204 244 290
#     4   9  18  32  50  72  98 129 167 211 254 298
#     4   9  19  35  53  74 102 135 167 202 247 296
#     4   9  17  30  49  70  92 121 160 206 252 298
#     4  10  20  34  51  72 101 134 167 206 252 298
#
# _framework density 18.684111999999999
#
# number of rings (size 3 to 8) (size 9 to 14) (size 15 to 20)
#    0.000    2.571    0.000    2.143    0.000    5.714 
#    0.000    1.429    0.000    0.000    0.000    0.000 
#    0.000    0.000    0.000    0.000    0.000    0.000 
#
# Total GULP energy -347077.445951 kJ/mol
# GULP energy per Si atom -12395.623070 kJ/mol
# Density = 1.864159 g / cm^3
# Si number density = 18.684112 Si / 1000 Ang^3
#
#
#
# Elastic Constant Matrix: (Units=GPa)
#
#
# Indices 1 2 3 4 5 6 
#
# 1 98.9880 51.6610 22.9688 0.0000 2.8619 0.0000
# 2 51.6610 109.8864 25.0641 0.0000 3.5361 0.0000
# 3 22.9688 25.0641 46.6486 0.0000 -7.3141 0.0000
# 4 0.0000 0.0000 0.0000 21.3485 0.0000 7.7133
# 5 2.8619 3.5361 -7.3141 0.0000 15.8592 0.0000
# 6 0.0000 0.0000 0.0000 7.7133 0.0000 37.9223
#
#
#
# Elastic Compliance Matrix: (Units=1/GPa)
#
#
# Indices 1 2 3 4 5 6 
#
# 1 0.014121 -0.005494 -0.004536 0.000000 -0.003415 0.000000
# 2 -0.005494 0.012933 -0.004894 0.000000 -0.004150 0.000000
# 3 -0.004536 -0.004894 0.028673 0.000000 0.015134 0.000000
# 4 0.000000 0.000000 0.000000 0.050557 0.000000 -0.010283
# 5 -0.003415 -0.004150 0.015134 0.000000 0.071576 0.000000
# 6 0.000000 0.000000 0.000000 -0.010283 0.000000 0.028461
#
#
# Mechanical properties :
#
#
# Convention : Reuss Voigt Hill
#
# Bulk Modulus (GPa) = 38.64372 50.54565 44.59468
# Shear Modulus (GPa) = 20.42512 25.41462 22.91987
#
# Velocity S-wave (km/s) = 3.30992 3.69213 3.50623
# Velocity P-wave (km/s) = 5.94432 6.72958 6.34910
#
# Compressibility (1/GPa) = 0.02587743
#
# Stress axis : x y z
#
# Youngs Moduli (GPa) = 70.81713 77.32092 34.87599
#
# Poissons Ratio (x) = 0.42480 0.15821
# Poissons Ratio (y) = 0.38907 0.17070
# Poissons Ratio (z) = 0.32125 0.37844
#
# Static dielectric constant tensor:
#      x y z
#    x 3.397530 0.000000 0.031390 
#    y 0.000000 3.605910 0.000000 
#    z 0.031390 0.000000 3.159030 
# 
# 
# High freq. dielectric constant tensor:
#      x y z
#    x 1.721240 0.000000 0.005660 
#    y 0.000000 1.734400 0.000000 
#    z 0.005660 0.000000 1.690770 
# 
# From -- ./inp_files/314436.got.cif
#   From: 2010.06.25/outbox.cif.g09.slc.cpg/sg12_158_cif.got.tgz:314436.got - 2010.06.28 00:19:55.
