data_PCOD8086696
_publ_section_title
;
Structure prediction by ZEFSAII (Michael W. Deem and Ramdas Pophale) SiO2 
 PCOD8086696
Probable space group: C 2/M
;
_chemical_formula_sum "Si O2"
_cell_formula_units_Z 56
_cell_length_a 23.495671
_cell_length_b 8.908605
_cell_length_c 14.819430
_cell_angle_alpha 90.000000
_cell_angle_beta 109.447221
_cell_angle_gamma 90.000000
_cell_volume 2924.940712
_symmetry_space_group_name_H-M "C 2/M"
_symmetry_group_IT_number 12
_symmetry_cell_setting 'monoclinic'
loop_
_space_group_symop_operation_xyz
x,y,z
-x,y,-z
-x,-y,-z
x,-y,z
1/2+x,1/2+y,z
1/2-x,1/2+y,-z
1/2-x,1/2-y,-z
1/2+x,1/2-y,z
loop_
_atom_site_type_symbol
_atom_site_label
_atom_site_fract_x
_atom_site_fract_y
_atom_site_fract_z
Si Si1 0.759206 0.324322 0.409823
Si Si2 0.925014 0.674064 0.288346
Si Si3 0.688226 0.824075 0.075177
Si Si4 0.325138 0.675731 0.117929
Si Si5 0.105848 0.675291 0.534363
Si Si6 0.648785 0.322157 0.232146
Si Si7 0.439686 0.174943 0.679305
O O1 0.752139 0.500000 0.419866
O O2 0.750000 0.250000 0.500000
O O3 0.825063 0.280083 0.408158
O O4 0.709230 0.264278 0.314061
O O5 0.904510 0.500000 0.272882
O O6 0.874740 0.776491 0.216326
O O7 0.931871 0.724568 0.397169
O O8 0.988742 0.698696 0.273455
O O9 0.759019 0.782747 0.121521
O O10 0.649702 0.745043 0.132766
O O11 0.676881 0.000000 0.074943
O O12 0.662196 0.765196 0.967082
O O13 0.329899 0.500000 0.100082
O O14 0.097684 0.500000 0.515033
O O15 0.082473 0.747139 0.428076
O O16 0.645762 0.500000 0.224110
O O17 0.590469 0.263560 0.254569
O O18 0.422275 0.000000 0.677652
#
# Coordination Sequence:
#
# PCOD8086696 Si02
#       7
#     8   8   8   8   8   8   8
#     4  10  19  31  50  76 108 143 179 223 272 321
#     4  10  20  35  57  82 109 147 193 233 272 325
#     4  10  21  38  62  87 111 143 180 222 274 338
#     4  10  21  38  60  87 115 141 174 226 284 331
#     4   9  17  32  54  79 107 144 189 233 272 317
#     4  11  22  35  54  83 116 149 184 229 283 329
#     4  10  20  35  55  78 110 153 195 231 268 324
#
# _framework density 19.145686999999999
#
# number of rings (size 3 to 8) (size 9 to 14) (size 15 to 20)
#    0.000    2.000    1.429    2.571    0.000    5.714 
#    0.000    2.143    0.000    6.000    0.000    0.000 
#    0.000    0.000    0.000    0.000    0.000    0.000 
#
# Total GULP energy -347234.085727 kJ/mol
# GULP energy per Si atom -12401.217347 kJ/mol
# Density = 1.910211 g / cm^3
# Si number density = 19.145687 Si / 1000 Ang^3
#
#
#
# Elastic Constant Matrix: (Units=GPa)
#
#
# Indices 1 2 3 4 5 6 
#
# 1 87.8736 35.4307 41.9607 0.0000 -23.7059 0.0000
# 2 35.4307 56.0838 29.3290 0.0000 -10.2498 0.0000
# 3 41.9607 29.3290 90.7048 0.0000 -21.8718 0.0000
# 4 0.0000 0.0000 0.0000 30.2342 0.0000 -0.8863
# 5 -23.7059 -10.2498 -21.8718 0.0000 34.1112 0.0000
# 6 0.0000 0.0000 0.0000 -0.8863 0.0000 27.3552
#
#
#
# Elastic Compliance Matrix: (Units=1/GPa)
#
#
# Indices 1 2 3 4 5 6 
#
# 1 0.018835 -0.008294 -0.004112 0.000000 0.007961 0.000000
# 2 -0.008294 0.025274 -0.004606 0.000000 -0.001123 0.000000
# 3 -0.004112 -0.004606 0.015843 0.000000 0.005917 0.000000
# 4 0.000000 0.000000 0.000000 0.033107 0.000000 0.001073
# 5 0.007961 -0.001123 0.005917 0.000000 0.038305 0.000000
# 6 0.000000 0.000000 0.000000 0.001073 0.000000 0.036591
#
#
# Mechanical properties :
#
#
# Convention : Reuss Voigt Hill
#
# Bulk Modulus (GPa) = 38.56803 49.78923 44.17863
# Shear Modulus (GPa) = 23.73941 26.86959 25.30450
#
# Velocity S-wave (km/s) = 3.52509 3.75030 3.63944
# Velocity P-wave (km/s) = 6.06272 6.69439 6.38637
#
# Compressibility (1/GPa) = 0.02592821
#
# Stress axis : x y z
#
# Youngs Moduli (GPa) = 53.09210 39.56708 63.11923
#
# Poissons Ratio (x) = 0.32816 0.25954
# Poissons Ratio (y) = 0.44033 0.29073
# Poissons Ratio (z) = 0.21831 0.18225
#
# Static dielectric constant tensor:
#      x y z
#    x 3.749420 0.000000 0.250760 
#    y 0.000000 3.353140 0.000000 
#    z 0.250760 0.000000 3.799580 
# 
# 
# High freq. dielectric constant tensor:
#      x y z
#    x 1.745140 0.000000 -0.009030 
#    y 0.000000 1.726930 0.000000 
#    z -0.009030 0.000000 1.743680 
# 
# From -- ./inp_files/237779.got.cif
#   From: 2010.06.25/outbox.cif.g09.slc.cpg/sg12_119_cif.got.tgz:237779.got - 2010.06.28 00:19:55.
