data_PCOD8086995
_publ_section_title
;
Structure prediction by ZEFSAII (Michael W. Deem and Ramdas Pophale) SiO2 
 PCOD8086995
Probable space group: C 2/M
;
_chemical_formula_sum "Si O2"
_cell_formula_units_Z 56
_cell_length_a 30.841207
_cell_length_b 9.223763
_cell_length_c 19.974065
_cell_angle_alpha 90.000000
_cell_angle_beta 149.420764
_cell_angle_gamma 90.000000
_cell_volume 2890.632221
_symmetry_space_group_name_H-M "C 2/M"
_symmetry_group_IT_number 12
_symmetry_cell_setting 'monoclinic'
loop_
_space_group_symop_operation_xyz
x,y,z
-x,y,-z
-x,-y,-z
x,-y,z
1/2+x,1/2+y,z
1/2-x,1/2+y,-z
1/2-x,1/2-y,-z
1/2+x,1/2-y,z
loop_
_atom_site_type_symbol
_atom_site_label
_atom_site_fract_x
_atom_site_fract_y
_atom_site_fract_z
Si Si1 0.978931 0.337305 0.043743
Si Si2 0.467537 0.667147 0.654087
Si Si3 0.936393 0.832356 0.356470
Si Si4 0.306463 0.830668 0.475860
Si Si5 0.730391 0.170462 0.904428
Si Si6 0.095815 0.167963 0.939547
Si Si7 0.666563 0.160482 0.336775
O O1 0.941914 0.500000 0.983522
O O2 0.066277 0.340574 0.198973
O O3 0.912313 0.248196 0.999962
O O4 0.000000 0.264111 0.000000
O O5 0.443591 0.500000 0.633404
O O6 0.518069 0.690264 0.653286
O O7 0.380760 0.758677 0.530951
O O8 0.527193 0.725254 0.793750
O O9 0.851360 0.735393 0.242572
O O10 0.000000 0.780435 0.500000
O O11 0.910382 0.000000 0.332830
O O12 0.321817 0.783598 0.572559
O O13 0.212025 0.760924 0.339943
O O14 0.304741 0.000000 0.458024
O O15 0.716865 0.000000 0.900797
O O16 0.750000 0.250000 0.000000
O O17 0.809630 0.197269 0.960947
O O18 0.079403 0.000000 0.930753
O O19 0.705105 0.000000 0.379274
#
# Coordination Sequence:
#
# PCOD8086995 Si02
#       7
#     8   8   8   8   8   8   8
#     4  10  21  38  58  81 111 148 194 243 290 348
#     4  10  19  35  58  83 113 147 187 237 292 349
#     4  10  22  42  64  88 121 160 200 246 306 368
#     4  10  19  31  52  81 105 136 182 227 274 330
#     4  11  22  39  64  94 126 159 204 254 303 365
#     4  10  21  37  59  86 116 150 194 245 296 354
#     4   9  18  33  51  74 106 139 177 226 279 328
#
# _framework density 19.372923
#
# number of rings (size 3 to 8) (size 9 to 14) (size 15 to 20)
#    0.000    2.000    2.857    0.857    0.000    3.429 
#    2.571    0.000    0.000    0.000    0.000    0.000 
#    0.000    0.000    0.000    0.000    0.000    0.000 
#
# Total GULP energy -347079.253801 kJ/mol
# GULP energy per Si atom -12395.687636 kJ/mol
# Density = 1.932883 g / cm^3
# Si number density = 19.372923 Si / 1000 Ang^3
#
#
#
# Elastic Constant Matrix: (Units=GPa)
#
#
# Indices 1 2 3 4 5 6 
#
# 1 112.6475 56.5446 36.0194 0.0000 2.5987 0.0000
# 2 56.5446 90.7657 36.2199 0.0000 13.8906 0.0000
# 3 36.0194 36.2199 67.0189 0.0000 6.7105 0.0000
# 4 0.0000 0.0000 0.0000 29.1769 0.0000 6.4275
# 5 2.5987 13.8906 6.7105 0.0000 34.3559 0.0000
# 6 0.0000 0.0000 0.0000 6.4275 0.0000 32.3906
#
#
#
# Elastic Compliance Matrix: (Units=1/GPa)
#
#
# Indices 1 2 3 4 5 6 
#
# 1 0.013751 -0.007553 -0.003580 0.000000 0.002713 0.000000
# 2 -0.007553 0.018841 -0.005526 0.000000 -0.005967 0.000000
# 3 -0.003580 -0.005526 0.019971 0.000000 -0.001396 0.000000
# 4 0.000000 0.000000 0.000000 0.035840 0.000000 -0.007112
# 5 0.002713 -0.005967 -0.001396 0.000000 0.031587 0.000000
# 6 0.000000 0.000000 0.000000 -0.007112 0.000000 0.032284
#
#
# Mechanical properties :
#
#
# Convention : Reuss Voigt Hill
#
# Bulk Modulus (GPa) = 51.95962 58.66667 55.31314
# Shear Modulus (GPa) = 26.04072 28.62790 27.33431
#
# Velocity S-wave (km/s) = 3.67029 3.84829 3.76034
# Velocity P-wave (km/s) = 6.69629 7.07774 6.88965
#
# Compressibility (1/GPa) = 0.01924572
#
# Stress axis : x y z
#
# Youngs Moduli (GPa) = 72.72398 53.07639 50.07182
#
# Poissons Ratio (x) = 0.40088 0.17926
# Poissons Ratio (y) = 0.54927 0.27668
# Poissons Ratio (z) = 0.26036 0.29328
#
# Static dielectric constant tensor:
#      x y z
#    x 3.492980 0.000000 0.151180 
#    y 0.000000 3.602900 0.000000 
#    z 0.151180 0.000000 3.655230 
# 
# 
# High freq. dielectric constant tensor:
#      x y z
#    x 1.753140 0.000000 0.015190 
#    y 0.000000 1.749200 0.000000 
#    z 0.015190 0.000000 1.746960 
# 
# From -- ./inp_files/329671.got.cif
#   From: 2010.06.25/outbox.cif.g09.slc.cpg/sg12_165_cif.got.tgz:329671.got - 2010.06.28 00:19:55.
