data_PCOD8086284
_publ_section_title
;
Structure prediction by ZEFSAII (Michael W. Deem and Ramdas Pophale) SiO2 
 PCOD8086284
Probable space group: C 2/M
;
_chemical_formula_sum "Si O2"
_cell_formula_units_Z 56
_cell_length_a 30.082426
_cell_length_b 9.536130
_cell_length_c 11.922748
_cell_angle_alpha 90.000000
_cell_angle_beta 121.508436
_cell_angle_gamma 90.000000
_cell_volume 2916.003091
_symmetry_space_group_name_H-M "C 2/M"
_symmetry_group_IT_number 12
_symmetry_cell_setting 'monoclinic'
loop_
_space_group_symop_operation_xyz
x,y,z
-x,y,-z
-x,-y,-z
x,-y,z
1/2+x,1/2+y,z
1/2-x,1/2+y,-z
1/2-x,1/2-y,-z
1/2+x,1/2-y,z
loop_
_atom_site_type_symbol
_atom_site_label
_atom_site_fract_x
_atom_site_fract_y
_atom_site_fract_z
Si Si1 0.412886 0.163719 0.624240
Si Si2 0.886366 0.842236 0.000612
Si Si3 0.641573 0.152433 0.227092
Si Si4 0.304568 0.333587 0.076834
Si Si5 0.497543 0.659618 0.865365
Si Si6 0.149395 0.835786 0.624275
Si Si7 0.743236 0.654758 0.596264
O O1 0.364916 0.183765 0.648547
O O2 0.462882 0.232798 0.748865
O O3 0.398227 0.243987 0.489178
O O4 0.423797 0.000000 0.612072
O O5 0.843438 0.780645 0.029763
O O6 0.945900 0.832759 0.121396
O O7 0.869796 0.000000 0.953457
O O8 0.888324 0.765853 0.884189
O O9 0.701514 0.152473 0.268084
O O10 0.616651 0.000000 0.168910
O O11 0.292417 0.500000 0.055391
O O12 0.338436 0.297885 0.231589
O O13 0.250000 0.250000 0.000000
O O14 0.475751 0.500000 0.827911
O O15 0.500000 0.703353 0.000000
O O16 0.201338 0.788371 0.627944
O O17 0.136021 0.000000 0.592315
O O18 0.727271 0.500000 0.533375
O O19 0.750000 0.750000 0.500000
#
# Coordination Sequence:
#
# PCOD8086284 Si02
#       7
#     8   8   8   8   8   8   8
#     4  11  22  35  55  84 116 148 187 234 288 344
#     4  10  21  37  59  85 111 147 194 236 277 337
#     4  10  20  33  51  80 116 147 180 230 287 339
#     4  10  22  41  63  87 115 151 195 237 281 336
#     4  10  20  36  58  84 116 151 190 235 286 341
#     4  10  21  37  57  79 112 154 191 232 285 340
#     4  10  19  31  48  74 107 142 178 219 273 334
#
# _framework density 19.204370000000001
#
# number of rings (size 3 to 8) (size 9 to 14) (size 15 to 20)
#    0.000    1.857    2.857    1.286    0.000    4.286 
#    0.000    0.714    0.000    4.286    0.000    0.000 
#    0.000    0.000    0.000    0.000    0.000    0.000 
#
# Total GULP energy -347030.297624 kJ/mol
# GULP energy per Si atom -12393.939201 kJ/mol
# Density = 1.916066 g / cm^3
# Si number density = 19.204370 Si / 1000 Ang^3
#
#
#
# Elastic Constant Matrix: (Units=GPa)
#
#
# Indices 1 2 3 4 5 6 
#
# 1 75.1865 27.5704 21.7184 0.0000 4.4657 0.0000
# 2 27.5704 84.1016 60.9386 0.0000 3.6203 0.0000
# 3 21.7184 60.9386 113.1385 0.0000 2.6399 0.0000
# 4 0.0000 0.0000 0.0000 33.8825 0.0000 5.4363
# 5 4.4657 3.6203 2.6399 0.0000 25.4191 0.0000
# 6 0.0000 0.0000 0.0000 5.4363 0.0000 25.5835
#
#
#
# Elastic Compliance Matrix: (Units=1/GPa)
#
#
# Indices 1 2 3 4 5 6 
#
# 1 0.015226 -0.004628 -0.000384 0.000000 -0.001976 0.000000
# 2 -0.004628 0.020981 -0.010387 0.000000 -0.001096 0.000000
# 3 -0.000384 -0.010387 0.014506 0.000000 0.000040 0.000000
# 4 0.000000 0.000000 0.000000 0.030556 0.000000 -0.006493
# 5 -0.001976 -0.001096 0.000040 0.000000 0.039840 0.000000
# 6 0.000000 0.000000 0.000000 -0.006493 0.000000 0.040467
#
#
# Mechanical properties :
#
#
# Convention : Reuss Voigt Hill
#
# Bulk Modulus (GPa) = 50.21324 54.76460 52.48892
# Shear Modulus (GPa) = 25.12432 27.79028 26.45730
#
# Velocity S-wave (km/s) = 3.62091 3.80818 3.71573
# Velocity P-wave (km/s) = 6.60945 6.92206 6.76756
#
# Compressibility (1/GPa) = 0.01991506
#
# Stress axis : x y z
#
# Youngs Moduli (GPa) = 65.67889 47.66270 68.93732
#
# Poissons Ratio (x) = 0.22059 0.02646
# Poissons Ratio (y) = 0.30397 0.71603
# Poissons Ratio (z) = 0.02521 0.49506
#
# Static dielectric constant tensor:
#      x y z
#    x 3.692900 0.000000 0.015580 
#    y 0.000000 3.523960 0.000000 
#    z 0.015580 0.000000 3.369990 
# 
# 
# High freq. dielectric constant tensor:
#      x y z
#    x 1.741980 0.000000 0.007610 
#    y 0.000000 1.746040 0.000000 
#    z 0.007610 0.000000 1.733430 
# 
# From -- ./inp_files/180802.got.cif
#   From: 2010.06.25/outbox.cif.g09.slc.cpg/sg12_91_cif.got.tgz:180802.got - 2010.06.28 00:19:55.
