data_PCOD8086292
_publ_section_title
;
Structure prediction by ZEFSAII (Michael W. Deem and Ramdas Pophale) SiO2 
 PCOD8086292
Probable space group: C 2/M
;
_chemical_formula_sum "Si O2"
_cell_formula_units_Z 64
_cell_length_a 25.220957
_cell_length_b 8.930456
_cell_length_c 15.113183
_cell_angle_alpha 90.000000
_cell_angle_beta 102.617185
_cell_angle_gamma 90.000000
_cell_volume 3321.809923
_symmetry_space_group_name_H-M "C 2/M"
_symmetry_group_IT_number 12
_symmetry_cell_setting 'monoclinic'
loop_
_space_group_symop_operation_xyz
x,y,z
-x,y,-z
-x,-y,-z
x,-y,z
1/2+x,1/2+y,z
1/2-x,1/2+y,-z
1/2-x,1/2-y,-z
1/2+x,1/2-y,z
loop_
_atom_site_type_symbol
_atom_site_label
_atom_site_fract_x
_atom_site_fract_y
_atom_site_fract_z
Si Si1 0.047125 0.839031 0.082208
Si Si2 0.384923 0.178340 0.679087
Si Si3 0.381381 0.823884 0.173416
Si Si4 0.193597 0.673406 0.499293
Si Si5 0.699250 0.827929 0.700846
Si Si6 0.805138 0.323461 0.804020
Si Si7 0.347785 0.676078 0.983637
Si Si8 0.997277 0.326223 0.776400
O O1 0.027149 0.705272 0.136477
O O2 0.061448 0.000000 0.135473
O O3 0.096471 0.778314 0.042478
O O4 0.000000 0.880138 0.000000
O O5 0.352740 0.241620 0.582197
O O6 0.355807 0.232146 0.760506
O O7 0.448134 0.235060 0.695060
O O8 0.384373 0.000000 0.678874
O O9 0.349264 0.786707 0.250778
O O10 0.348368 0.747904 0.081146
O O11 0.442419 0.754011 0.210423
O O12 0.384617 0.000000 0.154492
O O13 0.201326 0.500000 0.480288
O O14 0.250000 0.750000 0.500000
O O15 0.175879 0.699921 0.594031
O O16 0.750223 0.720460 0.733773
O O17 0.717952 0.000000 0.720030
O O18 0.806770 0.500000 0.818464
O O19 0.803145 0.245763 0.900461
O O20 0.337700 0.500000 0.989984
O O21 0.004998 0.500000 0.762982
#
# Coordination Sequence:
#
# PCOD8086292 Si02
#       8
#     8   8   8   8   8   8   8   8
#     4  10  19  31  48  75 108 138 178 226 271 317
#     4   9  18  32  53  85 114 135 171 225 279 324
#     4  10  22  38  55  77 109 152 193 223 264 326
#     4  10  19  35  59  84 111 139 176 227 279 329
#     4  10  22  39  57  80 111 145 184 229 275 328
#     4  11  21  35  57  84 113 143 180 229 279 328
#     4  11  22  35  54  81 113 148 185 227 276 324
#     4  10  19  33  54  78 109 146 183 223 269 321
#
# _framework density 19.266604999999998
#
# number of rings (size 3 to 8) (size 9 to 14) (size 15 to 20)
#    0.000    1.875    3.750    0.750    0.000    1.750 
#    0.000    1.250    0.000    3.750    0.000    0.000 
#    0.000    4.000    0.000    0.000    0.000    0.000 
#
# Total GULP energy -396526.873201 kJ/mol
# GULP energy per Si atom -12391.464788 kJ/mol
# Density = 1.922275 g / cm^3
# Si number density = 19.266605 Si / 1000 Ang^3
#
#
#
# Elastic Constant Matrix: (Units=GPa)
#
#
# Indices 1 2 3 4 5 6 
#
# 1 65.7298 20.4040 42.4741 0.0000 2.4395 0.0000
# 2 20.4040 41.8909 31.9782 0.0000 1.1862 0.0000
# 3 42.4741 31.9782 139.9352 0.0000 7.9921 0.0000
# 4 0.0000 0.0000 0.0000 20.4742 0.0000 1.7377
# 5 2.4395 1.1862 7.9921 0.0000 34.0842 0.0000
# 6 0.0000 0.0000 0.0000 1.7377 0.0000 22.4957
#
#
#
# Elastic Compliance Matrix: (Units=1/GPa)
#
#
# Indices 1 2 3 4 5 6 
#
# 1 0.020191 -0.006248 -0.004693 0.000000 -0.000127 0.000000
# 2 -0.006248 0.030859 -0.005189 0.000000 0.000590 0.000000
# 3 -0.004693 -0.005189 0.009859 0.000000 -0.001795 0.000000
# 4 0.000000 0.000000 0.000000 0.049164 0.000000 -0.003798
# 5 -0.000127 0.000590 -0.001795 0.000000 0.029749 0.000000
# 6 0.000000 0.000000 0.000000 -0.003798 0.000000 0.044746
#
#
# Mechanical properties :
#
#
# Convention : Reuss Voigt Hill
#
# Bulk Modulus (GPa) = 34.90654 48.58538 41.74596
# Shear Modulus (GPa) = 22.08681 25.59080 23.83881
#
# Velocity S-wave (km/s) = 3.38949 3.64847 3.52136
# Velocity P-wave (km/s) = 5.78577 6.55901 6.18449
#
# Compressibility (1/GPa) = 0.02864793
#
# Stress axis : x y z
#
# Youngs Moduli (GPa) = 49.52726 32.40498 101.42891
#
# Poissons Ratio (x) = 0.20247 0.47604
# Poissons Ratio (y) = 0.30945 0.52634
# Poissons Ratio (z) = 0.23245 0.16816
#
# Static dielectric constant tensor:
#      x y z
#    x 3.673530 0.000000 0.238240 
#    y 0.000000 3.356870 0.000000 
#    z 0.238240 0.000000 3.747980 
# 
# 
# High freq. dielectric constant tensor:
#      x y z
#    x 1.747260 0.000000 0.016750 
#    y 0.000000 1.731420 0.000000 
#    z 0.016750 0.000000 1.745210 
# 
# From -- ./inp_files/244079.got.cif
#   From: 2010.06.25/outbox.cif.g09.slc.cpg/sg12_123_cif.got.tgz:244079.got - 2010.06.28 00:19:55.
