data_PCOD8086408
_publ_section_title
;
Structure prediction by ZEFSAII (Michael W. Deem and Ramdas Pophale) SiO2 
 PCOD8086408
Probable space group: C 2/M
;
_chemical_formula_sum "Si O2"
_cell_formula_units_Z 48
_cell_length_a 31.683371
_cell_length_b 9.370719
_cell_length_c 9.510349
_cell_angle_alpha 90.000000
_cell_angle_beta 76.327397
_cell_angle_gamma 90.000000
_cell_volume 2743.570255
_symmetry_space_group_name_H-M "C 2/M"
_symmetry_group_IT_number 12
_symmetry_cell_setting 'monoclinic'
loop_
_space_group_symop_operation_xyz
x,y,z
-x,y,-z
-x,-y,-z
x,-y,z
1/2+x,1/2+y,z
1/2-x,1/2+y,-z
1/2-x,1/2-y,-z
1/2+x,1/2-y,z
loop_
_atom_site_type_symbol
_atom_site_label
_atom_site_fract_x
_atom_site_fract_y
_atom_site_fract_z
Si Si1 0.640042 0.665253 0.861519
Si Si2 0.614105 0.168825 0.611728
Si Si3 0.264834 0.664569 0.123960
Si Si4 0.884008 0.837870 0.814698
Si Si5 0.549756 0.666233 0.471246
Si Si6 0.822846 0.337247 0.678725
O O1 0.639456 0.500000 0.813769
O O2 0.619316 0.764429 0.760362
O O3 0.689144 0.717827 0.853077
O O4 0.610428 0.689165 0.023487
O O5 0.571948 0.237899 0.572935
O O6 0.657045 0.209718 0.486961
O O7 0.607249 0.000000 0.630600
O O8 0.268573 0.500000 0.075731
O O9 0.229099 0.686209 0.276276
O O10 0.250000 0.750000 0.000000
O O11 0.928433 0.801177 0.697581
O O12 0.843711 0.747891 0.790626
O O13 0.870362 0.000000 0.797747
O O14 0.500000 0.713070 0.500000
O O15 0.554365 0.500000 0.509126
O O16 0.835457 0.500000 0.696801
#
# Coordination Sequence:
#
# PCOD8086408 Si02
#       6
#     8   8   8   8   8   8
#     4  10  20  33  49  73 104 136 168 207 250 293
#     4  10  21  35  51  74 104 136 167 204 251 299
#     4  10  19  31  49  73 101 133 172 212 247 288
#     4   9  17  31  52  76 100 129 167 205 248 300
#     4   9  18  35  59  81  99 125 163 206 252 305
#     4   9  18  32  49  71 100 133 171 210 247 290
#
# _framework density 17.495450999999999
#
# number of rings (size 3 to 8) (size 9 to 14) (size 15 to 20)
#    0.000    2.500    1.667    0.500    0.000    3.000 
#    0.000    0.833    0.000    5.000    0.000    0.000 
#    0.000    0.000    0.000    0.000    0.000    0.000 
#
# Total GULP energy -297565.063539 kJ/mol
# GULP energy per Si atom -12398.544314 kJ/mol
# Density = 1.745563 g / cm^3
# Si number density = 17.495451 Si / 1000 Ang^3
#
#
#
# Elastic Constant Matrix: (Units=GPa)
#
#
# Indices 1 2 3 4 5 6 
#
# 1 122.0234 45.8420 63.9812 0.0000 -2.9237 0.0000
# 2 45.8420 67.1023 52.2996 0.0000 9.7337 0.0000
# 3 63.9812 52.2996 112.3087 0.0000 9.4364 0.0000
# 4 0.0000 0.0000 0.0000 28.8602 0.0000 4.5938
# 5 -2.9237 9.7337 9.4364 0.0000 22.5219 0.0000
# 6 0.0000 0.0000 0.0000 4.5938 0.0000 24.8885
#
#
#
# Elastic Compliance Matrix: (Units=1/GPa)
#
#
# Indices 1 2 3 4 5 6 
#
# 1 0.013421 -0.005858 -0.005469 0.000000 0.006566 0.000000
# 2 -0.005858 0.026691 -0.008353 0.000000 -0.008796 0.000000
# 3 -0.005469 -0.008353 0.016238 0.000000 -0.003903 0.000000
# 4 0.000000 0.000000 0.000000 0.035699 0.000000 -0.006589
# 5 0.006566 -0.008796 -0.003903 0.000000 0.050691 0.000000
# 6 0.000000 0.000000 0.000000 -0.006589 0.000000 0.041395
#
#
# Mechanical properties :
#
#
# Convention : Reuss Voigt Hill
#
# Bulk Modulus (GPa) = 58.86357 69.51998 64.19178
# Shear Modulus (GPa) = 21.81890 24.54156 23.18023
#
# Velocity S-wave (km/s) = 3.53529 3.74938 3.64391
# Velocity P-wave (km/s) = 7.09806 7.65285 7.38067
#
# Compressibility (1/GPa) = 0.01698844
#
# Stress axis : x y z
#
# Youngs Moduli (GPa) = 74.50882 37.46565 61.58521
#
# Poissons Ratio (x) = 0.21949 0.33684
# Poissons Ratio (y) = 0.43651 0.51441
# Poissons Ratio (z) = 0.40753 0.31295
#
# Static dielectric constant tensor:
#      x y z
#    x 3.258210 0.000000 -0.273760 
#    y 0.000000 3.263010 0.000000 
#    z -0.273760 0.000000 3.282860 
# 
# 
# High freq. dielectric constant tensor:
#      x y z
#    x 1.662600 0.000000 -0.017260 
#    y 0.000000 1.676610 0.000000 
#    z -0.017260 0.000000 1.672600 
# 
# From -- ./inp_files/108693.got.cif
#   From: 2010.06.25/outbox.cif.g09.slc.cpg/sg12_55_cif.got.tgz:108693.got - 2010.06.28 00:19:55.
