data_PCOD8086093
_publ_section_title
;
Structure prediction by ZEFSAII (Michael W. Deem and Ramdas Pophale) SiO2 
 PCOD8086093
Probable space group: C 2/M
;
_chemical_formula_sum "Si O2"
_cell_formula_units_Z 40
_cell_length_a 27.658618
_cell_length_b 9.312049
_cell_length_c 25.575332
_cell_angle_alpha 90.000000
_cell_angle_beta 159.900234
_cell_angle_gamma 90.000000
_cell_volume 2263.709856
_symmetry_space_group_name_H-M "C 2/M"
_symmetry_group_IT_number 12
_symmetry_cell_setting 'monoclinic'
loop_
_space_group_symop_operation_xyz
x,y,z
-x,y,-z
-x,-y,-z
x,-y,z
1/2+x,1/2+y,z
1/2-x,1/2+y,-z
1/2-x,1/2-y,-z
1/2+x,1/2-y,z
loop_
_atom_site_type_symbol
_atom_site_label
_atom_site_fract_x
_atom_site_fract_y
_atom_site_fract_z
Si Si1 0.997662 0.833268 0.213715
Si Si2 0.769531 0.168757 0.896625
Si Si3 0.471598 0.833023 0.030260
Si Si4 0.305134 0.835021 0.656943
Si Si5 0.486429 0.667571 0.321449
O O1 0.133798 0.753415 0.329554
O O2 0.970087 0.783395 0.244741
O O3 0.034376 0.000000 0.248750
O O4 0.860244 0.795029 0.040340
O O5 0.617066 0.238777 0.748283
O O6 0.753842 0.000000 0.871292
O O7 0.842780 0.238628 0.920573
O O8 0.612636 0.799106 0.206193
O O9 0.429621 0.000000 0.991643
O O10 0.500000 0.785892 0.000000
O O11 0.142422 0.796785 0.500369
O O12 0.322282 0.000000 0.658368
O O13 0.449250 0.500000 0.290188
#
# Coordination Sequence:
#
# PCOD8086093 Si02
#       5
#     8   8   8   8   8
#     4   9  18  31  47  69  98 131 161 189 226 275
#     4  10  20  32  48  72  98 125 159 194 231 277
#     4   9  18  35  56  72  89 119 158 198 240 284
#     4   9  18  31  49  73  96 122 159 197 233 277
#     4  10  19  31  47  70 101 130 156 190 231 276
#
# _framework density 17.670109
#
# number of rings (size 3 to 8) (size 9 to 14) (size 15 to 20)
#    0.000    2.600    0.000    1.800    0.000    2.800 
#    0.000    1.000    0.000    6.000    0.000    0.000 
#    0.000    0.000    0.000    0.000    0.000    0.000 
#
# Total GULP energy -248062.690491 kJ/mol
# GULP energy per Si atom -12403.134525 kJ/mol
# Density = 1.762989 g / cm^3
# Si number density = 17.670109 Si / 1000 Ang^3
#
#
#
# Elastic Constant Matrix: (Units=GPa)
#
#
# Indices 1 2 3 4 5 6 
#
# 1 121.2447 56.7765 61.4346 0.0010 20.5228 0.0002
# 2 56.7765 71.5042 53.1229 0.0041 19.8120 0.0011
# 3 61.4346 53.1229 102.0128 0.0040 28.1143 0.0011
# 4 0.0010 0.0041 0.0040 25.4348 0.0011 7.7068
# 5 20.5228 19.8120 28.1143 0.0011 22.6671 0.0001
# 6 0.0002 0.0011 0.0011 7.7068 0.0001 29.2982
#
#
#
# Elastic Compliance Matrix: (Units=1/GPa)
#
#
# Indices 1 2 3 4 5 6 
#
# 1 0.014244 -0.007974 -0.004242 0.000001 -0.000665 0.000000
# 2 -0.007974 0.028247 -0.007738 -0.000003 -0.007872 0.000000
# 3 -0.004242 -0.007738 0.020457 -0.000001 -0.014769 0.000000
# 4 0.000001 -0.000003 -0.000001 0.042721 0.000000 -0.011238
# 5 -0.000665 -0.007872 -0.014769 0.000000 0.069918 0.000001
# 6 0.000000 0.000000 0.000000 -0.011238 0.000001 0.037088
#
#
# Mechanical properties :
#
#
# Convention : Reuss Voigt Hill
#
# Bulk Modulus (GPa) = 43.40369 70.82554 57.11461
# Shear Modulus (GPa) = 19.21134 23.70853 21.45993
#
# Velocity S-wave (km/s) = 3.30088 3.66694 3.48871
# Velocity P-wave (km/s) = 6.25655 7.62219 6.97288
#
# Compressibility (1/GPa) = 0.02303952
#
# Stress axis : x y z
#
# Youngs Moduli (GPa) = 70.20453 35.40252 48.88246
#
# Poissons Ratio (x) = 0.28231 0.20737
# Poissons Ratio (y) = 0.55983 0.37824
# Poissons Ratio (z) = 0.29783 0.27393
#
# Static dielectric constant tensor:
#      x y z
#    x 3.176270 0.000000 -0.033250 
#    y 0.000000 3.226930 0.000000 
#    z -0.033250 0.000000 3.299590 
# 
# 
# High freq. dielectric constant tensor:
#      x y z
#    x 1.670670 0.000000 0.005400 
#    y 0.000000 1.681770 0.000000 
#    z 0.005400 0.000000 1.682590 
# 
# From -- ./inp_files/92735.got.cif
#   From: 2010.06.25/outbox.cif.g09.slc.cpg/sg12_47_cif.got.tgz:92735.got - 2010.06.28 00:19:55.
