data_PCOD8086413
_publ_section_title
;
Structure prediction by ZEFSAII (Michael W. Deem and Ramdas Pophale) SiO2 
 PCOD8086413
Probable space group: C 2/M
;
_chemical_formula_sum "Si O2"
_cell_formula_units_Z 56
_cell_length_a 19.164828
_cell_length_b 8.898877
_cell_length_c 24.629405
_cell_angle_alpha 90.000000
_cell_angle_beta 136.859192
_cell_angle_gamma 90.000000
_cell_volume 2872.229322
_symmetry_space_group_name_H-M "C 2/M"
_symmetry_group_IT_number 12
_symmetry_cell_setting 'monoclinic'
loop_
_space_group_symop_operation_xyz
x,y,z
-x,y,-z
-x,-y,-z
x,-y,z
1/2+x,1/2+y,z
1/2-x,1/2+y,-z
1/2-x,1/2-y,-z
1/2+x,1/2-y,z
loop_
_atom_site_type_symbol
_atom_site_label
_atom_site_fract_x
_atom_site_fract_y
_atom_site_fract_z
Si Si1 0.993560 0.170344 0.311051
Si Si2 0.113143 0.821085 0.572098
Si Si3 0.045126 0.828015 0.222521
Si Si4 0.829462 0.169868 0.508904
Si Si5 0.713800 0.176851 0.816988
Si Si6 0.692829 0.323782 0.917807
Si Si7 0.783387 0.321825 0.750834
O O1 0.902576 0.287853 0.264848
O O2 0.062701 0.202891 0.296891
O O3 0.057642 0.186441 0.402176
O O4 0.948547 0.000000 0.280053
O O5 0.173721 0.763763 0.553399
O O6 0.178274 0.767866 0.661209
O O7 0.000000 0.751411 0.500000
O O8 0.104200 0.000000 0.567413
O O9 0.117847 0.722577 0.228258
O O10 0.927119 0.789207 0.143506
O O11 0.070266 0.000000 0.221831
O O12 0.750000 0.250000 0.500000
O O13 0.794204 0.000000 0.487437
O O14 0.738829 0.252460 0.888926
O O15 0.787634 0.243292 0.812069
O O16 0.731725 0.000000 0.831434
O O17 0.714670 0.500000 0.928794
O O18 0.750000 0.250000 0.000000
O O19 0.784054 0.500000 0.758709
#
# Coordination Sequence:
#
# PCOD8086413 Si02
#       7
#     8   8   8   8   8   8   8
#     4   9  18  34  54  75 104 143 186 232 281 333
#     4   9  18  32  50  72 101 141 187 232 278 325
#     4   9  19  35  55  81 113 146 178 220 274 326
#     4  10  19  31  49  73 102 137 179 230 283 333
#     4  11  22  36  57  82 109 143 183 226 271 324
#     4  10  21  40  65  91 118 145 176 216 266 326
#     4  11  21  34  54  79 110 148 190 233 276 329
#
# _framework density 19.497052
#
# number of rings (size 3 to 8) (size 9 to 14) (size 15 to 20)
#    0.000    2.143    0.000    4.714    0.000    5.714 
#    0.000    1.429    0.000    7.286    0.000    0.000 
#    0.000    0.000    0.000    0.000    0.000    0.000 
#
# Total GULP energy -347111.485952 kJ/mol
# GULP energy per Si atom -12396.838784 kJ/mol
# Density = 1.945268 g / cm^3
# Si number density = 19.497052 Si / 1000 Ang^3
#
#
#
# Elastic Constant Matrix: (Units=GPa)
#
#
# Indices 1 2 3 4 5 6 
#
# 1 95.5177 40.0163 31.4490 0.0000 -18.6720 0.0000
# 2 40.0163 91.1170 37.2065 0.0000 -11.4511 0.0000
# 3 31.4490 37.2065 79.4262 0.0000 -22.1394 0.0000
# 4 0.0000 0.0000 0.0000 25.5751 0.0000 0.4512
# 5 -18.6720 -11.4511 -22.1394 0.0000 29.5101 0.0000
# 6 0.0000 0.0000 0.0000 0.4512 0.0000 36.1960
#
#
#
# Elastic Compliance Matrix: (Units=1/GPa)
#
#
# Indices 1 2 3 4 5 6 
#
# 1 0.014186 -0.004783 -0.001760 0.000000 0.005800 0.000000
# 2 -0.004783 0.015192 -0.005593 0.000000 -0.001327 0.000000
# 3 -0.001760 -0.005593 0.018956 0.000000 0.010937 0.000000
# 4 0.000000 0.000000 0.000000 0.039109 0.000000 -0.000488
# 5 0.005800 -0.001327 0.010937 0.000000 0.045247 0.000000
# 6 0.000000 0.000000 0.000000 -0.000488 0.000000 0.027633
#
#
# Mechanical properties :
#
#
# Convention : Reuss Voigt Hill
#
# Bulk Modulus (GPa) = 41.55710 53.71161 47.63436
# Shear Modulus (GPa) = 25.95835 28.74883 27.35359
#
# Velocity S-wave (km/s) = 3.65279 3.84412 3.74967
# Velocity P-wave (km/s) = 6.25710 6.87833 6.57506
#
# Compressibility (1/GPa) = 0.02406328
#
# Stress axis : x y z
#
# Youngs Moduli (GPa) = 70.49136 65.82258 52.75427
#
# Poissons Ratio (x) = 0.31481 0.09285
# Poissons Ratio (y) = 0.33713 0.29505
# Poissons Ratio (z) = 0.12407 0.36814
#
# Static dielectric constant tensor:
#      x y z
#    x 3.637890 0.000000 -0.097710 
#    y 0.000000 3.383900 0.000000 
#    z -0.097710 0.000000 3.730320 
# 
# 
# High freq. dielectric constant tensor:
#      x y z
#    x 1.766650 0.000000 -0.017140 
#    y 0.000000 1.742550 0.000000 
#    z -0.017140 0.000000 1.750520 
# 
# From -- ./inp_files/342595.got.cif
#   From: 2010.06.25/outbox.cif.g09.slc.cpg/sg12_172_cif.got.tgz:342595.got - 2010.06.28 00:19:55.
