data_PCOD8086616
_publ_section_title
;
Structure prediction by ZEFSAII (Michael W. Deem and Ramdas Pophale) SiO2 
 PCOD8086616
Probable space group: C 2/M
;
_chemical_formula_sum "Si O2"
_cell_formula_units_Z 56
_cell_length_a 19.346649
_cell_length_b 9.195400
_cell_length_c 20.147324
_cell_angle_alpha 90.000000
_cell_angle_beta 122.630139
_cell_angle_gamma 90.000000
_cell_volume 3018.512196
_symmetry_space_group_name_H-M "C 2/M"
_symmetry_group_IT_number 12
_symmetry_cell_setting 'monoclinic'
loop_
_space_group_symop_operation_xyz
x,y,z
-x,y,-z
-x,-y,-z
x,-y,z
1/2+x,1/2+y,z
1/2-x,1/2+y,-z
1/2-x,1/2-y,-z
1/2+x,1/2-y,z
loop_
_atom_site_type_symbol
_atom_site_label
_atom_site_fract_x
_atom_site_fract_y
_atom_site_fract_z
Si Si1 0.992229 0.172463 0.685681
Si Si2 0.473643 0.671759 0.820118
Si Si3 0.705796 0.669776 0.275336
Si Si4 0.263104 0.828944 0.936294
Si Si5 0.170587 0.170429 0.755868
Si Si6 0.311984 0.330063 0.579624
Si Si7 0.077113 0.831140 0.994702
O O1 0.993476 0.242866 0.759700
O O2 0.905469 0.218860 0.607536
O O3 0.076214 0.222745 0.693151
O O4 0.994120 0.000000 0.693200
O O5 0.467159 0.500000 0.809170
O O6 0.383277 0.720541 0.799218
O O7 0.548470 0.713255 0.906283
O O8 0.720880 0.500000 0.271954
O O9 0.775425 0.752118 0.271270
O O10 0.708406 0.709422 0.354770
O O11 0.194516 0.792707 0.844967
O O12 0.267262 0.000000 0.952601
O O13 0.250000 0.750000 0.000000
O O14 0.347366 0.771159 0.947259
O O15 0.181116 0.000000 0.749600
O O16 0.301554 0.500000 0.562382
O O17 0.250000 0.250000 0.500000
O O18 0.103453 0.000000 0.013823
O O19 0.000000 0.796253 0.000000
#
# Coordination Sequence:
#
# PCOD8086616 Si02
#       7
#     8   8   8   8   8   8   8
#     4   8  15  30  51  71  93 127 168 202 236 287
#     4   8  14  28  49  69  92 127 171 211 244 290
#     4   9  18  33  54  78 102 132 169 207 250 299
#     4  11  23  36  51  73 103 139 178 222 268 310
#     4  10  20  34  52  74 101 133 170 212 254 298
#     4   9  18  34  57  81 103 129 162 201 244 295
#     4  10  19  31  50  74  99 132 173 216 263 310
#
# _framework density 18.552185000000001
#
# number of rings (size 3 to 8) (size 9 to 14) (size 15 to 20)
#    0.000    2.714    0.000    3.857    0.000    5.429 
#    0.000    2.143    0.000    7.714    0.000    0.000 
#    0.000    0.000    0.000    0.000    0.000    0.000 
#
# Total GULP energy -346909.369978 kJ/mol
# GULP energy per Si atom -12389.620356 kJ/mol
# Density = 1.850996 g / cm^3
# Si number density = 18.552185 Si / 1000 Ang^3
#
#
#
# Elastic Constant Matrix: (Units=GPa)
#
#
# Indices 1 2 3 4 5 6 
#
# 1 118.6188 41.5621 55.5936 0.0000 22.1159 0.0000
# 2 41.5621 48.6076 34.5722 0.0000 5.1544 0.0000
# 3 55.5936 34.5722 29.3741 0.0000 14.1206 0.0000
# 4 0.0000 0.0000 0.0000 27.0224 0.0000 -0.4555
# 5 22.1159 5.1544 14.1206 0.0000 27.3978 0.0000
# 6 0.0000 0.0000 0.0000 -0.4555 0.0000 32.3525
#
#
#
# Elastic Compliance Matrix: (Units=1/GPa)
#
#
# Indices 1 2 3 4 5 6 
#
# 1 -0.002265 -0.038891 0.060705 0.000000 -0.022141 0.000000
# 2 -0.038891 -0.018202 0.104077 0.000000 -0.018822 0.000000
# 3 0.060705 0.104077 -0.226486 0.000000 0.048147 0.000000
# 4 0.000000 0.000000 0.000000 0.037015 0.000000 0.000521
# 5 -0.022141 -0.018822 0.048147 0.000000 0.033099 0.000000
# 6 0.000000 0.000000 0.000000 0.000521 0.000000 0.030917
#
#
# Mechanical properties :
#
#
# Convention : Reuss Voigt Hill
#
# Bulk Modulus (GPa) = 207.15220 51.11736 129.13478
# Shear Modulus (GPa) = -12.62328 21.67939 4.52805
#
# Velocity S-wave (km/s) = -2.61132 3.42213 1.56397
# Velocity P-wave (km/s) = 10.13951 6.57478 8.54510
#
# Compressibility (1/GPa) = 0.00482737
#
# Stress axis : x y z
#
# Youngs Moduli (GPa) = -441.43843 -54.94019 -4.41528
#
# Poissons Ratio (x) = -2.13669 0.26803
# Poissons Ratio (y) = -17.16811 0.45953
# Poissons Ratio (z) = 26.79735 5.71800
#
# Static dielectric constant tensor:
#      x y z
#    x 3.696660 0.000000 -0.223090 
#    y 0.000000 3.066380 0.000000 
#    z -0.223090 0.000000 5.785740 
# 
# 
# High freq. dielectric constant tensor:
#      x y z
#    x 1.732970 0.000000 0.011840 
#    y 0.000000 1.680850 0.000000 
#    z 0.011840 0.000000 1.712810 
# 
# From -- ./inp_files/314451.got.cif
#   From: 2010.06.25/outbox.cif.g09.slc.cpg/sg12_158_cif.got.tgz:314451.got - 2010.06.28 00:19:55.
