data_PCOD8086988
_publ_section_title
;
Structure prediction by ZEFSAII (Michael W. Deem and Ramdas Pophale) SiO2 
 PCOD8086988
Probable space group: C 2/M
;
_chemical_formula_sum "Si O2"
_cell_formula_units_Z 48
_cell_length_a 17.292029
_cell_length_b 14.642207
_cell_length_c 15.204618
_cell_angle_alpha 90.000000
_cell_angle_beta 37.805366
_cell_angle_gamma 90.000000
_cell_volume 2359.799264
_symmetry_space_group_name_H-M "C 2/M"
_symmetry_group_IT_number 12
_symmetry_cell_setting 'monoclinic'
loop_
_space_group_symop_operation_xyz
x,y,z
-x,y,-z
-x,-y,-z
x,-y,z
1/2+x,1/2+y,z
1/2-x,1/2+y,-z
1/2-x,1/2-y,-z
1/2+x,1/2-y,z
loop_
_atom_site_type_symbol
_atom_site_label
_atom_site_fract_x
_atom_site_fract_y
_atom_site_fract_z
Si Si1 0.688609 0.605841 0.536379
Si Si2 0.101416 0.898300 0.221517
Si Si3 0.033017 0.697207 0.064389
Si Si4 0.298163 0.232968 0.781272
Si Si5 0.339170 0.896445 0.895727
Si Si6 0.769773 0.766503 0.347740
O O1 0.732852 0.500000 0.486054
O O2 0.539507 0.611059 0.687425
O O3 0.723782 0.665498 0.419187
O O4 0.758298 0.653950 0.556352
O O5 0.129923 0.829821 0.275749
O O6 0.127584 0.000000 0.234306
O O7 0.196778 0.875215 0.056031
O O8 0.061207 0.624153 0.115738
O O9 0.918778 0.761890 0.196104
O O10 0.153661 0.761389 0.942033
O O11 0.000000 0.648336 0.000000
O O12 0.369013 0.162035 0.781725
O O13 0.305600 0.204332 0.672529
O O14 0.356389 0.000000 0.851631
#
# Coordination Sequence:
#
# PCOD8086988 Si02
#       6
#     8   8   8   8   8   8
#     4  10  21  37  55  73 100 137 175 215 252 298
#     4   9  18  34  55  77 100 131 171 210 253 299
#     4   9  18  34  55  77 103 135 171 211 253 298
#     4  10  19  33  54  78 106 133 165 213 259 305
#     4  10  19  31  52  80 108 137 165 203 257 309
#     4  10  21  35  53  77 102 135 173 209 257 306
#
# _framework density 20.340713000000001
#
# number of rings (size 3 to 8) (size 9 to 14) (size 15 to 20)
#    0.000    2.333    0.000    4.000    0.000    3.000 
#    0.000    5.000    0.000    6.000    0.000    7.000 
#    0.000    0.000    0.000    0.000    0.000    0.000 
#
# Total GULP energy -297514.862654 kJ/mol
# GULP energy per Si atom -12396.452611 kJ/mol
# Density = 2.029442 g / cm^3
# Si number density = 20.340713 Si / 1000 Ang^3
#
#
#
# Elastic Constant Matrix: (Units=GPa)
#
#
# Indices 1 2 3 4 5 6 
#
# 1 133.9733 65.4846 31.8461 0.0000 34.7498 0.0000
# 2 65.4846 101.6630 24.2639 0.0000 20.7150 0.0000
# 3 31.8461 24.2639 30.8332 0.0000 17.9089 0.0000
# 4 0.0000 0.0000 0.0000 17.7430 0.0000 -3.0710
# 5 34.7498 20.7150 17.9089 0.0000 31.7967 0.0000
# 6 0.0000 0.0000 0.0000 -3.0710 0.0000 18.6786
#
#
#
# Elastic Compliance Matrix: (Units=1/GPa)
#
#
# Indices 1 2 3 4 5 6 
#
# 1 0.013666 -0.006007 -0.004438 0.000000 -0.008522 0.000000
# 2 -0.006007 0.015060 -0.005590 0.000000 -0.000098 0.000000
# 3 -0.004438 -0.005590 0.054220 0.000000 -0.022047 0.000000
# 4 0.000000 0.000000 0.000000 0.058011 0.000000 0.009538
# 5 -0.008522 -0.000098 -0.022047 0.000000 0.053245 0.000000
# 6 0.000000 0.000000 0.000000 0.009538 0.000000 0.055105
#
#
# Mechanical properties :
#
#
# Convention : Reuss Voigt Hill
#
# Bulk Modulus (GPa) = 19.65532 56.62874 38.14203
# Shear Modulus (GPa) = 16.75971 23.30201 20.03086
#
# Velocity S-wave (km/s) = 2.87357 3.38832 3.14150
# Velocity P-wave (km/s) = 4.54905 6.57329 5.65252
#
# Compressibility (1/GPa) = 0.05087681
#
# Stress axis : x y z
#
# Youngs Moduli (GPa) = 73.17693 66.40204 18.44321
#
# Poissons Ratio (x) = 0.39887 0.08184
# Poissons Ratio (y) = 0.43956 0.10310
# Poissons Ratio (z) = 0.32473 0.37119
#
# Static dielectric constant tensor:
#      x y z
#    x 3.767130 0.000000 -0.000660 
#    y 0.000000 3.523470 0.000000 
#    z -0.000660 0.000000 3.555020 
# 
# 
# High freq. dielectric constant tensor:
#      x y z
#    x 1.797590 0.000000 -0.001480 
#    y 0.000000 1.776280 0.000000 
#    z -0.001480 0.000000 1.781650 
# 
# From -- ./inp_files/225113.got.cif
#   From: 2010.06.25/outbox.cif.g09.slc.cpg/sg12_113_cif.got.tgz:225113.got - 2010.06.28 00:19:55.
