data_PCOD8086915
_publ_section_title
;
Structure prediction by ZEFSAII (Michael W. Deem and Ramdas Pophale) SiO2 
 PCOD8086915
Probable space group: C 2/M
;
_chemical_formula_sum "Si O2"
_cell_formula_units_Z 56
_cell_length_a 27.116282
_cell_length_b 8.880845
_cell_length_c 13.503480
_cell_angle_alpha 90.000000
_cell_angle_beta 62.030654
_cell_angle_gamma 90.000000
_cell_volume 2872.027071
_symmetry_space_group_name_H-M "C 2/M"
_symmetry_group_IT_number 12
_symmetry_cell_setting 'monoclinic'
loop_
_space_group_symop_operation_xyz
x,y,z
-x,y,-z
-x,-y,-z
x,-y,z
1/2+x,1/2+y,z
1/2-x,1/2+y,-z
1/2-x,1/2-y,-z
1/2+x,1/2-y,z
loop_
_atom_site_type_symbol
_atom_site_label
_atom_site_fract_x
_atom_site_fract_y
_atom_site_fract_z
Si Si1 0.905020 0.826909 0.405940
Si Si2 0.916726 0.671516 0.599721
Si Si3 0.805111 0.329844 0.828656
Si Si4 0.028106 0.174339 0.277319
Si Si5 0.697002 0.177288 0.602825
Si Si6 0.697951 0.676642 0.813276
Si Si7 0.633854 0.325454 0.060798
O O1 0.914028 0.783960 0.510881
O O2 0.859458 0.719875 0.400421
O O3 0.965196 0.804010 0.295405
O O4 0.885210 0.000000 0.416581
O O5 0.929612 0.500000 0.554884
O O6 0.857669 0.683626 0.708160
O O7 0.964699 0.726881 0.630001
O O8 0.791227 0.500000 0.870811
O O9 0.752660 0.262608 0.818554
O O10 0.816700 0.245367 0.920288
O O11 0.072073 0.230707 0.151816
O O12 0.038922 0.000000 0.294366
O O13 0.750000 0.250000 0.500000
O O14 0.690695 0.230020 0.720925
O O15 0.704912 0.000000 0.591260
O O16 0.703044 0.500000 0.781794
O O17 0.644657 0.709759 0.934719
O O18 0.639262 0.500000 0.075762
#
# Coordination Sequence:
#
# PCOD8086915 Si02
#       7
#     8   8   8   8   8   8   8
#     4  11  22  37  57  79 108 147 188 231 277 326
#     4  10  19  31  51  81 115 148 184 230 283 333
#     4   9  18  31  50  79 113 145 177 221 275 328
#     4   9  19  35  54  80 113 148 187 229 275 326
#     4  12  26  43  62  83 108 139 178 224 273 328
#     4  10  20  36  57  81 111 147 186 226 270 321
#     4   9  18  33  55  82 112 146 184 226 269 318
#
# _framework density 19.498422000000001
#
# number of rings (size 3 to 8) (size 9 to 14) (size 15 to 20)
#    0.000    2.000    0.000    3.857    0.000    5.714 
#    0.000    0.714    0.000    4.286    0.000    0.000 
#    0.000    0.000    0.000    0.000    0.000    0.000 
#
# Total GULP energy -347194.342131 kJ/mol
# GULP energy per Si atom -12399.797933 kJ/mol
# Density = 1.945404 g / cm^3
# Si number density = 19.498422 Si / 1000 Ang^3
#
#
#
# Elastic Constant Matrix: (Units=GPa)
#
#
# Indices 1 2 3 4 5 6 
#
# 1 111.3294 37.2759 52.5118 0.0000 -4.9317 0.0000
# 2 37.2759 81.2739 43.1417 0.0000 0.5115 0.0000
# 3 52.5118 43.1417 101.0195 0.0000 10.7338 0.0000
# 4 0.0000 0.0000 0.0000 29.2022 0.0000 5.8691
# 5 -4.9317 0.5115 10.7338 0.0000 10.2823 0.0000
# 6 0.0000 0.0000 0.0000 5.8691 0.0000 30.8654
#
#
#
# Elastic Compliance Matrix: (Units=1/GPa)
#
#
# Indices 1 2 3 4 5 6 
#
# 1 0.014234 -0.002371 -0.008013 0.000000 0.015310 0.000000
# 2 -0.002371 0.016779 -0.006438 0.000000 0.004748 0.000000
# 3 -0.008013 -0.006438 0.019333 0.000000 -0.023705 0.000000
# 4 0.000000 0.000000 0.000000 0.035605 0.000000 -0.006770
# 5 0.015310 0.004748 -0.023705 0.000000 0.129108 0.000000
# 6 0.000000 0.000000 0.000000 -0.006770 0.000000 0.033686
#
#
# Mechanical properties :
#
#
# Convention : Reuss Voigt Hill
#
# Bulk Modulus (GPa) = 59.87513 62.16461 61.01987
# Shear Modulus (GPa) = 17.36378 24.78286 21.07332
#
# Velocity S-wave (km/s) = 2.98740 3.56900 3.29107
# Velocity P-wave (km/s) = 6.53252 6.99534 6.76789
#
# Compressibility (1/GPa) = 0.01670143
#
# Stress axis : x y z
#
# Youngs Moduli (GPa) = 70.25302 59.59861 51.72620
#
# Poissons Ratio (x) = 0.14132 0.41450
# Poissons Ratio (y) = 0.16658 0.33299
# Poissons Ratio (z) = 0.56296 0.38367
#
# Static dielectric constant tensor:
#      x y z
#    x 3.671010 0.000000 -0.302770 
#    y 0.000000 3.588770 0.000000 
#    z -0.302770 0.000000 3.737900 
# 
# 
# High freq. dielectric constant tensor:
#      x y z
#    x 1.755840 0.000000 -0.020510 
#    y 0.000000 1.756190 0.000000 
#    z -0.020510 0.000000 1.761130 
# 
# From -- ./inp_files/180641.got.cif
#   From: 2010.06.25/outbox.cif.g09.slc.cpg/sg12_91_cif.got.tgz:180641.got - 2010.06.28 00:19:55.
