data_PCOD8086248
_publ_section_title
;
Structure prediction by ZEFSAII (Michael W. Deem and Ramdas Pophale) SiO2 
 PCOD8086248
Probable space group: C 2/M
;
_chemical_formula_sum "Si O2"
_cell_formula_units_Z 48
_cell_length_a 18.316262
_cell_length_b 9.707851
_cell_length_c 15.295074
_cell_angle_alpha 90.000000
_cell_angle_beta 103.305398
_cell_angle_gamma 90.000000
_cell_volume 2646.637913
_symmetry_space_group_name_H-M "C 2/M"
_symmetry_group_IT_number 12
_symmetry_cell_setting 'monoclinic'
loop_
_space_group_symop_operation_xyz
x,y,z
-x,y,-z
-x,-y,-z
x,-y,z
1/2+x,1/2+y,z
1/2-x,1/2+y,-z
1/2-x,1/2-y,-z
1/2+x,1/2-y,z
loop_
_atom_site_type_symbol
_atom_site_label
_atom_site_fract_x
_atom_site_fract_y
_atom_site_fract_z
Si Si1 0.753389 0.833565 0.090006
Si Si2 0.285593 0.244514 0.370646
Si Si3 0.114601 0.156758 0.751323
Si Si4 0.949218 0.839320 0.697268
Si Si5 0.325961 0.347187 0.799162
Si Si6 0.348659 0.850988 0.561837
O O1 0.831959 0.788796 0.156231
O O2 0.687390 0.773336 0.133658
O O3 0.744204 0.000000 0.076960
O O4 0.750000 0.750000 0.000000
O O5 0.345905 0.330093 0.331585
O O6 0.238456 0.146986 0.292747
O O7 0.330963 0.156737 0.454088
O O8 0.228674 0.345648 0.404813
O O9 0.032407 0.227343 0.729867
O O10 0.098845 0.000000 0.767991
O O11 0.905724 0.813762 0.776236
O O12 0.907328 0.765602 0.605515
O O13 0.950813 0.000000 0.672832
O O14 0.327719 0.500000 0.843354
O O15 0.384983 0.000000 0.590211
#
# Coordination Sequence:
#
# PCOD8086248 Si02
#       6
#     8   8   8   8   8   8
#     4  10  20  35  57  80 100 124 159 202 245 294
#     4   9  18  30  49  72  98 133 173 212 247 284
#     4   9  18  34  53  73  97 128 167 205 244 293
#     4   9  19  34  51  72 100 134 168 203 244 291
#     4   9  17  32  53  74  99 130 164 202 245 290
#     4  10  19  31  48  72 102 134 172 212 250 291
#
# _framework density 18.136216000000001
#
# number of rings (size 3 to 8) (size 9 to 14) (size 15 to 20)
#    0.000    2.667    0.000    1.500    0.000    9.333 
#    0.000    8.333    0.000    5.000    0.000    0.000 
#    0.000    0.000    0.000    0.000    0.000    0.000 
#
# Total GULP energy -297430.029959 kJ/mol
# GULP energy per Si atom -12392.917915 kJ/mol
# Density = 1.809494 g / cm^3
# Si number density = 18.136216 Si / 1000 Ang^3
#
#
#
# Elastic Constant Matrix: (Units=GPa)
#
#
# Indices 1 2 3 4 5 6 
#
# 1 118.2184 25.3232 53.3368 0.0000 2.5004 0.0000
# 2 25.3232 85.5400 46.5346 0.0000 2.6601 0.0000
# 3 53.3368 46.5346 117.3547 0.0000 -5.2399 0.0000
# 4 0.0000 0.0000 0.0000 23.0075 0.0000 -1.9001
# 5 2.5004 2.6601 -5.2399 0.0000 12.5367 0.0000
# 6 0.0000 0.0000 0.0000 -1.9001 0.0000 17.1211
#
#
#
# Elastic Compliance Matrix: (Units=1/GPa)
#
#
# Indices 1 2 3 4 5 6 
#
# 1 0.010874 -0.000382 -0.004977 0.000000 -0.004168 0.000000
# 2 -0.000382 0.015336 -0.006164 0.000000 -0.005754 0.000000
# 3 -0.004977 -0.006164 0.013584 0.000000 0.007978 0.000000
# 4 0.000000 0.000000 0.000000 0.043866 0.000000 0.004868
# 5 -0.004168 -0.005754 0.007978 0.000000 0.085153 0.000000
# 6 0.000000 0.000000 0.000000 0.004868 0.000000 0.058948
#
#
# Mechanical properties :
#
#
# Convention : Reuss Voigt Hill
#
# Bulk Modulus (GPa) = 59.71150 63.50024 61.60587
# Shear Modulus (GPa) = 19.50155 23.59429 21.54792
#
# Velocity S-wave (km/s) = 3.28271 3.61078 3.45064
# Velocity P-wave (km/s) = 6.88212 7.24380 7.06527
#
# Compressibility (1/GPa) = 0.01674719
#
# Stress axis : x y z
#
# Youngs Moduli (GPa) = 91.95938 65.20596 73.61746
#
# Poissons Ratio (x) = 0.02492 0.36639
# Poissons Ratio (y) = 0.03514 0.45381
# Poissons Ratio (z) = 0.45767 0.40196
#
# Static dielectric constant tensor:
#      x y z
#    x 3.587560 0.000000 -0.005690 
#    y 0.000000 3.229610 0.000000 
#    z -0.005690 0.000000 3.250670 
# 
# 
# High freq. dielectric constant tensor:
#      x y z
#    x 1.695440 0.000000 -0.005770 
#    y 0.000000 1.693570 0.000000 
#    z -0.005770 0.000000 1.691440 
# 
# From -- ./inp_files/212746.got.cif
#   From: 2010.06.25/outbox.cif.g09.slc.cpg/sg12_107_cif.got.tgz:212746.got - 2010.06.28 00:19:55.
