data_PCOD8086769
_publ_section_title
;
Structure prediction by ZEFSAII (Michael W. Deem and Ramdas Pophale) SiO2 
 PCOD8086769
Probable space group: C 2/M
;
_chemical_formula_sum "Si O2"
_cell_formula_units_Z 48
_cell_length_a 25.848644
_cell_length_b 7.590808
_cell_length_c 12.153265
_cell_angle_alpha 90.000000
_cell_angle_beta 75.036780
_cell_angle_gamma 90.000000
_cell_volume 2303.759413
_symmetry_space_group_name_H-M "C 2/M"
_symmetry_group_IT_number 12
_symmetry_cell_setting 'monoclinic'
loop_
_space_group_symop_operation_xyz
x,y,z
-x,y,-z
-x,-y,-z
x,-y,z
1/2+x,1/2+y,z
1/2-x,1/2+y,-z
1/2-x,1/2-y,-z
1/2+x,1/2-y,z
loop_
_atom_site_type_symbol
_atom_site_label
_atom_site_fract_x
_atom_site_fract_y
_atom_site_fract_z
Si Si1 0.867683 0.288895 0.308557
Si Si2 0.900290 0.698966 0.763938
Si Si3 0.711295 0.699685 0.117556
Si Si4 0.865904 0.697339 0.549540
Si Si5 0.574627 0.500000 0.862542
Si Si6 0.248068 0.798799 0.334633
Si Si7 0.950853 0.000000 0.875784
O O1 0.873942 0.500000 0.283033
O O2 0.888306 0.231986 0.419918
O O3 0.805652 0.230020 0.341209
O O4 0.899436 0.178585 0.199972
O O5 0.924488 0.500000 0.747832
O O6 0.842176 0.683271 0.853328
O O7 0.890812 0.786597 0.646197
O O8 0.938777 0.824599 0.812327
O O9 0.691024 0.500000 0.118552
O O10 0.746578 0.731921 0.205523
O O11 0.750000 0.750000 0.000000
O O12 0.885655 0.500000 0.549368
O O13 0.801068 0.697658 0.581255
O O14 0.513086 0.500000 0.865299
O O15 0.581928 0.500000 0.990944
O O16 0.239677 0.000000 0.371816
#
# Coordination Sequence:
#
# PCOD8086769 Si02
#       7
#     8   8   8   8   4   8   4
#     4  10  22  40  61  91 128 161 206 258 299 365
#     4  10  21  39  64  90 121 163 197 252 319 361
#     4  10  19  31  50  85 125 161 208 247 288 368
#     4   9  19  35  59  94 129 164 202 238 301 380
#     4  11  28  45  67  89 113 162 217 263 320 363
#     4   9  19  31  51  84 126 171 201 235 298 361
#     4  11  26  49  65  89 117 154 219 271 312 372
#
# _framework density 20.835508000000001
#
# number of rings (size 3 to 8) (size 9 to 14) (size 15 to 20)
#    0.000    2.167    0.833    1.000    5.833    2.000 
#    0.000    3.333    0.000    3.000    0.000    0.000 
#    0.000    0.000    0.000    0.000    0.000    0.000 
#
# Total GULP energy -297406.803518 kJ/mol
# GULP energy per Si atom -12391.950147 kJ/mol
# Density = 2.078809 g / cm^3
# Si number density = 20.835508 Si / 1000 Ang^3
#
#
#
# Elastic Constant Matrix: (Units=GPa)
#
#
# Indices 1 2 3 4 5 6 
#
# 1 66.4659 28.8723 27.7983 0.0000 21.1833 0.0000
# 2 28.8723 86.1917 40.2117 0.0000 12.0790 0.0000
# 3 27.7983 40.2117 106.4179 0.0000 15.3101 0.0000
# 4 0.0000 0.0000 0.0000 26.3517 0.0000 4.6199
# 5 21.1833 12.0790 15.3101 0.0000 18.9839 0.0000
# 6 0.0000 0.0000 0.0000 4.6199 0.0000 24.1368
#
#
#
# Elastic Compliance Matrix: (Units=1/GPa)
#
#
# Indices 1 2 3 4 5 6 
#
# 1 0.025293 -0.004394 -0.001458 0.000000 -0.024252 0.000000
# 2 -0.004394 0.015333 -0.004466 0.000000 -0.001251 0.000000
# 3 -0.001458 -0.004466 0.012243 0.000000 -0.005406 0.000000
# 4 0.000000 0.000000 0.000000 0.039266 0.000000 -0.007516
# 5 -0.024252 -0.001251 -0.005406 0.000000 0.084894 0.000000
# 6 0.000000 0.000000 0.000000 -0.007516 0.000000 0.042869
#
#
# Mechanical properties :
#
#
# Convention : Reuss Voigt Hill
#
# Bulk Modulus (GPa) = 31.02332 50.31557 40.66944
# Shear Modulus (GPa) = 19.89839 24.70737 22.30288
#
# Velocity S-wave (km/s) = 3.09370 3.44732 3.27529
# Velocity P-wave (km/s) = 5.26149 6.32825 5.81936
#
# Compressibility (1/GPa) = 0.03223382
#
# Stress axis : x y z
#
# Youngs Moduli (GPa) = 39.53673 65.21979 81.68010
#
# Poissons Ratio (x) = 0.28656 0.11906
# Poissons Ratio (y) = 0.17372 0.36478
# Poissons Ratio (z) = 0.05763 0.29127
#
# Static dielectric constant tensor:
#      x y z
#    x 3.516810 0.000000 0.319190 
#    y 0.000000 3.811010 0.000000 
#    z 0.319190 0.000000 4.008850 
# 
# 
# High freq. dielectric constant tensor:
#      x y z
#    x 1.788230 0.000000 0.021530 
#    y 0.000000 1.812730 0.000000 
#    z 0.021530 0.000000 1.823780 
# 
# From -- ./inp_files/172978.got.cif
#   From: 2010.06.25/outbox.cif.g09.slc.cpg/sg12_87_cif.got.tgz:172978.got - 2010.06.28 00:19:55.
