data_PCOD8086694
_publ_section_title
;
Structure prediction by ZEFSAII (Michael W. Deem and Ramdas Pophale) SiO2 
 PCOD8086694
Probable space group: C 2/M
;
_chemical_formula_sum "Si O2"
_cell_formula_units_Z 48
_cell_length_a 20.096025
_cell_length_b 14.546268
_cell_length_c 16.050144
_cell_angle_alpha 90.000000
_cell_angle_beta 142.021995
_cell_angle_gamma 90.000000
_cell_volume 2887.148908
_symmetry_space_group_name_H-M "C 2/M"
_symmetry_group_IT_number 12
_symmetry_cell_setting 'monoclinic'
loop_
_space_group_symop_operation_xyz
x,y,z
-x,y,-z
-x,-y,-z
x,-y,z
1/2+x,1/2+y,z
1/2-x,1/2+y,-z
1/2-x,1/2-y,-z
1/2+x,1/2-y,z
loop_
_atom_site_type_symbol
_atom_site_label
_atom_site_fract_x
_atom_site_fract_y
_atom_site_fract_z
Si Si1 0.151679 0.301020 0.360456
Si Si2 0.723297 0.697856 0.097984
Si Si3 0.440711 0.000000 0.230695
Si Si4 0.085438 0.698556 0.830488
Si Si5 0.258456 0.000000 0.165065
Si Si6 0.678371 0.000000 0.440568
Si Si7 0.612585 0.699502 0.153488
Si Si8 0.326745 0.500000 0.744534
O O1 0.250000 0.250000 0.500000
O O2 0.181770 0.409087 0.386757
O O3 0.136440 0.268458 0.251556
O O4 0.042116 0.278655 0.305557
O O5 0.843456 0.724452 0.181918
O O6 0.700167 0.588562 0.066787
O O7 0.709350 0.719263 0.182424
O O8 0.631027 0.748800 0.955111
O O9 0.405376 0.089256 0.142400
O O10 0.384246 0.000000 0.264969
O O11 0.565805 0.000000 0.379037
O O12 0.260339 0.000000 0.266939
O O13 0.773414 0.000000 0.601511
O O14 0.604012 0.593653 0.177264
O O15 0.500000 0.725558 0.000000
#
# Coordination Sequence:
#
# PCOD8086694 Si02
#       8
#     8   8   4   8   4   4   8   4
#     4  11  21  36  54  76 108 139 176 211 262 316
#     4   9  17  31  51  75 105 133 175 210 263 302
#     4   8  16  29  47  70 104 134 171 205 258 311
#     4   9  17  32  51  74 102 140 169 213 255 314
#     4   8  16  28  46  76 104 132 160 220 260 307
#     4  10  20  34  50  75 102 142 174 208 261 320
#     4  11  20  34  53  81 107 137 174 222 260 306
#     4  10  19  31  50  76 108 134 168 216 269 313
#
# _framework density 16.625399000000002
#
# number of rings (size 3 to 8) (size 9 to 14) (size 15 to 20)
#    0.000    2.333    3.333    0.250    0.000    0.333 
#    0.000    2.917    0.000    0.000    0.000    1.167 
#    0.000    0.000    0.000    0.000    0.000    0.000 
#
# Total GULP energy -297341.593226 kJ/mol
# GULP energy per Si atom -12389.233051 kJ/mol
# Density = 1.658756 g / cm^3
# Si number density = 16.625399 Si / 1000 Ang^3
#
#
#
# Elastic Constant Matrix: (Units=GPa)
#
#
# Indices 1 2 3 4 5 6 
#
# 1 95.5648 50.5258 50.1671 0.0000 1.4247 0.0000
# 2 50.5258 92.1470 53.9251 0.0000 -1.8005 0.0000
# 3 50.1671 53.9251 105.1465 0.0000 -0.7713 0.0000
# 4 0.0000 0.0000 0.0000 29.2815 0.0000 -3.4106
# 5 1.4247 -1.8005 -0.7713 0.0000 24.1784 0.0000
# 6 0.0000 0.0000 0.0000 -3.4106 0.0000 23.8201
#
#
#
# Elastic Compliance Matrix: (Units=1/GPa)
#
#
# Indices 1 2 3 4 5 6 
#
# 1 0.016163 -0.006249 -0.004518 0.000000 -0.001562 0.000000
# 2 -0.006249 0.017942 -0.006209 0.000000 0.001506 0.000000
# 3 -0.004518 -0.006209 0.014853 0.000000 0.000278 0.000000
# 4 0.000000 0.000000 0.000000 0.034730 0.000000 0.004973
# 5 -0.001562 0.001506 0.000278 0.000000 0.041572 0.000000
# 6 0.000000 0.000000 0.000000 0.004973 0.000000 0.042693
#
#
# Mechanical properties :
#
#
# Convention : Reuss Voigt Hill
#
# Bulk Modulus (GPa) = 66.64465 66.89937 66.77201
# Shear Modulus (GPa) = 24.16538 24.67202 24.41870
#
# Velocity S-wave (km/s) = 3.81664 3.85645 3.83660
# Velocity P-wave (km/s) = 7.71981 7.75604 7.73795
#
# Compressibility (1/GPa) = 0.01500496
#
# Stress axis : x y z
#
# Youngs Moduli (GPa) = 61.86910 55.73653 67.32797
#
# Poissons Ratio (x) = 0.34829 0.30421
# Poissons Ratio (y) = 0.38661 0.41804
# Poissons Ratio (z) = 0.27955 0.34607
#
# Static dielectric constant tensor:
#      x y z
#    x 3.405610 0.000000 0.085940 
#    y 0.000000 3.361670 0.000000 
#    z 0.085940 0.000000 2.893910 
# 
# 
# High freq. dielectric constant tensor:
#      x y z
#    x 1.646940 0.000000 0.010580 
#    y 0.000000 1.644880 0.000000 
#    z 0.010580 0.000000 1.612260 
# 
# From -- ./inp_files/164750.got.cif
#   From: 2010.06.25/outbox.cif.g09.slc.cpg/sg12_83_cif.got.tgz:164750.got - 2010.06.28 00:19:55.
