data_PCOD8086581
_publ_section_title
;
Structure prediction by ZEFSAII (Michael W. Deem and Ramdas Pophale) SiO2 
 PCOD8086581
Probable space group: C 2/M
;
_chemical_formula_sum "Si O2"
_cell_formula_units_Z 64
_cell_length_a 19.115838
_cell_length_b 8.830184
_cell_length_c 24.929381
_cell_angle_alpha 90.000000
_cell_angle_beta 55.644331
_cell_angle_gamma 90.000000
_cell_volume 3473.906863
_symmetry_space_group_name_H-M "C 2/M"
_symmetry_group_IT_number 12
_symmetry_cell_setting 'monoclinic'
loop_
_space_group_symop_operation_xyz
x,y,z
-x,y,-z
-x,-y,-z
x,-y,z
1/2+x,1/2+y,z
1/2-x,1/2+y,-z
1/2-x,1/2-y,-z
1/2+x,1/2-y,z
loop_
_atom_site_type_symbol
_atom_site_label
_atom_site_fract_x
_atom_site_fract_y
_atom_site_fract_z
Si Si1 0.120989 0.324783 0.563438
Si Si2 0.221285 0.174774 0.429353
Si Si3 0.590180 0.321472 0.939035
Si Si4 0.208011 0.678430 0.322022
Si Si5 0.183753 0.669408 0.808815
Si Si6 0.553214 0.679723 0.327658
Si Si7 0.844489 0.167444 0.815907
Si Si8 0.253483 0.323608 0.056014
O O1 0.113988 0.500000 0.549868
O O2 0.145323 0.227742 0.500775
O O3 0.189348 0.300692 0.580371
O O4 0.032669 0.265796 0.623571
O O5 0.221762 0.281231 0.377691
O O6 0.206604 0.000000 0.419837
O O7 0.592913 0.500000 0.928790
O O8 0.605476 0.244230 0.874631
O O9 0.661032 0.269966 0.951194
O O10 0.500000 0.265918 0.000000
O O11 0.196103 0.500000 0.319695
O O12 0.291934 0.732020 0.253696
O O13 0.124620 0.763752 0.337640
O O14 0.158496 0.500000 0.801482
O O15 0.263322 0.665532 0.813284
O O16 0.543269 0.500000 0.339170
O O17 0.577668 0.720822 0.255338
O O18 0.828811 0.277484 0.873060
O O19 0.861749 0.000000 0.831648
O O20 0.251720 0.500000 0.048255
O O21 0.250000 0.250000 0.000000
#
# Coordination Sequence:
#
# PCOD8086581 Si02
#       8
#     8   8   8   8   8   8   8   8
#     4  10  21  37  57  80 106 138 175 213 256 310
#     4  10  21  38  57  77 106 141 175 212 258 311
#     4   9  18  33  52  74 100 132 170 210 253 302
#     4  11  21  34  55  81 107 135 174 219 260 306
#     4   9  17  31  51  75 103 134 168 208 259 311
#     4  10  20  35  56  81 108 137 171 214 262 309
#     4   8  16  31  50  72  99 131 166 204 249 302
#     4  10  19  31  50  73  99 131 166 206 250 298
#
# _framework density 18.423061000000001
#
# number of rings (size 3 to 8) (size 9 to 14) (size 15 to 20)
#    0.000    2.375    0.000    3.750    0.000    6.250 
#    0.000    3.750    0.000    1.500    0.000    0.000 
#    0.000    0.000    0.000    0.000    0.000    0.000 
#
# Total GULP energy -396792.797081 kJ/mol
# GULP energy per Si atom -12399.774909 kJ/mol
# Density = 1.838113 g / cm^3
# Si number density = 18.423061 Si / 1000 Ang^3
#
#
#
# Elastic Constant Matrix: (Units=GPa)
#
#
# Indices 1 2 3 4 5 6 
#
# 1 44.1141 24.3531 47.3375 0.0000 -3.5217 0.0007
# 2 24.3531 50.1329 19.9568 0.0001 3.6901 0.0009
# 3 47.3375 19.9568 126.1108 0.0000 -5.9912 0.0000
# 4 0.0000 0.0001 0.0000 40.0880 0.0000 1.4674
# 5 -3.5217 3.6901 -5.9912 0.0000 31.3877 0.0002
# 6 0.0007 0.0009 0.0000 1.4674 0.0002 23.9512
#
#
#
# Elastic Compliance Matrix: (Units=1/GPa)
#
#
# Indices 1 2 3 4 5 6 
#
# 1 0.049973 -0.018411 -0.015617 0.000000 0.004791 -0.000001
# 2 -0.018411 0.028389 0.002181 0.000000 -0.004987 0.000000
# 3 -0.015617 0.002181 0.013473 0.000000 0.000563 0.000000
# 4 0.000000 0.000000 0.000000 0.025001 0.000000 -0.001532
# 5 0.004791 -0.004987 0.000563 0.000000 0.033091 0.000000
# 6 -0.000001 0.000000 0.000000 -0.001532 0.000000 0.041845
#
#
# Mechanical properties :
#
#
# Convention : Reuss Voigt Hill
#
# Bulk Modulus (GPa) = 35.53421 44.85028 40.19224
# Shear Modulus (GPa) = 18.87885 27.66607 23.27246
#
# Velocity S-wave (km/s) = 3.20463 3.87939 3.55804
# Velocity P-wave (km/s) = 5.74653 6.66811 6.22440
#
# Compressibility (1/GPa) = 0.02814190
#
# Stress axis : x y z
#
# Youngs Moduli (GPa) = 20.01087 35.22454 74.22194
#
# Poissons Ratio (x) = 0.64853 1.15912
# Poissons Ratio (y) = 0.36842 -0.16191
# Poissons Ratio (z) = 0.31251 -0.07684
#
# Static dielectric constant tensor:
#      x y z
#    x 3.094150 0.000000 -0.069920 
#    y 0.000000 3.530390 0.000000 
#    z -0.069920 0.000000 3.716490 
# 
# 
# High freq. dielectric constant tensor:
#      x y z
#    x 1.677620 0.000000 -0.001460 
#    y 0.000000 1.726040 0.000000 
#    z -0.001460 0.000000 1.731320 
# 
# From -- ./inp_files/346032.got.cif
#   From: 2010.06.25/outbox.cif.g09.slc.cpg/sg12_174_cif.got.tgz:346032.got - 2010.06.28 00:19:55.
