data_PCOD8086706
_publ_section_title
;
Structure prediction by ZEFSAII (Michael W. Deem and Ramdas Pophale) SiO2 
 PCOD8086706
Probable space group: C 2/M
;
_chemical_formula_sum "Si O2"
_cell_formula_units_Z 64
_cell_length_a 22.596579
_cell_length_b 8.892160
_cell_length_c 18.532040
_cell_angle_alpha 90.000000
_cell_angle_beta 115.496128
_cell_angle_gamma 90.000000
_cell_volume 3361.053597
_symmetry_space_group_name_H-M "C 2/M"
_symmetry_group_IT_number 12
_symmetry_cell_setting 'monoclinic'
loop_
_space_group_symop_operation_xyz
x,y,z
-x,y,-z
-x,-y,-z
x,-y,z
1/2+x,1/2+y,z
1/2-x,1/2+y,-z
1/2-x,1/2-y,-z
1/2+x,1/2-y,z
loop_
_atom_site_type_symbol
_atom_site_label
_atom_site_fract_x
_atom_site_fract_y
_atom_site_fract_z
Si Si1 0.694929 0.326047 0.661889
Si Si2 0.948319 0.821658 0.031338
Si Si3 0.325425 0.178802 0.202896
Si Si4 0.076830 0.174609 0.328604
Si Si5 0.682981 0.321724 0.493880
Si Si6 0.826277 0.832587 0.743233
Si Si7 0.946662 0.178067 0.193975
Si Si8 0.317767 0.668224 0.901050
O O1 0.683265 0.500000 0.672351
O O2 0.660089 0.233317 0.707631
O O3 0.666880 0.281371 0.568475
O O4 0.771849 0.291650 0.698962
O O5 0.968120 0.780588 0.123487
O O6 0.944212 0.000000 0.017326
O O7 0.874429 0.753420 0.979130
O O8 0.000000 0.754162 0.000000
O O9 0.379711 0.238040 0.177044
O O10 0.254665 0.245027 0.138443
O O11 0.323955 0.000000 0.203739
O O12 0.120722 0.244696 0.416101
O O13 0.110786 0.207408 0.270285
O O14 0.002881 0.237712 0.279266
O O15 0.070299 0.000000 0.341373
O O16 0.690528 0.500000 0.486931
O O17 0.750000 0.250000 0.500000
O O18 0.848593 0.830756 0.837359
O O19 0.799059 0.000000 0.708803
O O20 0.935975 0.000000 0.195714
O O21 0.306365 0.500000 0.923738
#
# Coordination Sequence:
#
# PCOD8086706 Si02
#       8
#     8   8   8   8   8   8   8   8
#     4  10  19  31  50  77 104 130 167 216 257 297
#     4   9  16  28  50  81 110 130 161 210 257 304
#     4  10  21  37  54  70  98 141 180 214 257 308
#     4   9  17  30  49  74 104 137 170 203 255 313
#     4  10  19  31  50  78 109 135 165 207 256 309
#     4   9  15  27  49  73 103 139 167 198 249 314
#     4  10  20  34  54  77 102 136 176 218 254 296
#     4   8  15  27  46  73 100 132 170 205 248 299
#
# _framework density 19.041649
#
# number of rings (size 3 to 8) (size 9 to 14) (size 15 to 20)
#    0.000    2.625    1.250    2.250    0.000    4.000 
#    0.000    1.875    0.000    7.125    0.000    0.000 
#    0.000    0.000    0.000    0.000    0.000    0.000 
#
# Total GULP energy -396465.927100 kJ/mol
# GULP energy per Si atom -12389.560222 kJ/mol
# Density = 1.899831 g / cm^3
# Si number density = 19.041649 Si / 1000 Ang^3
#
#
#
# Elastic Constant Matrix: (Units=GPa)
#
#
# Indices 1 2 3 4 5 6 
#
# 1 105.1426 21.7459 54.9662 0.0000 7.1032 0.0000
# 2 21.7459 31.6664 20.8052 0.0000 -4.0289 0.0000
# 3 54.9662 20.8052 119.2066 0.0000 13.1388 0.0000
# 4 0.0000 0.0000 0.0000 14.9367 0.0000 -1.9656
# 5 7.1032 -4.0289 13.1388 0.0000 25.1641 0.0000
# 6 0.0000 0.0000 0.0000 -1.9656 0.0000 26.0582
#
#
#
# Elastic Compliance Matrix: (Units=1/GPa)
#
#
# Indices 1 2 3 4 5 6 
#
# 1 0.013534 -0.006385 -0.004873 0.000000 -0.002298 0.000000
# 2 -0.006385 0.040963 -0.005440 0.000000 0.011201 0.000000
# 3 -0.004873 -0.005440 0.012234 0.000000 -0.005883 0.000000
# 4 0.000000 0.000000 0.000000 0.067620 0.000000 0.005101
# 5 -0.002298 0.011201 -0.005883 0.000000 0.045253 0.000000
# 6 0.000000 0.000000 0.000000 0.005101 0.000000 0.038760
#
#
# Mechanical properties :
#
#
# Convention : Reuss Voigt Hill
#
# Bulk Modulus (GPa) = 29.99816 50.11668 40.05742
# Shear Modulus (GPa) = 19.02072 23.79837 21.40955
#
# Velocity S-wave (km/s) = 3.16397 3.53909 3.35678
# Velocity P-wave (km/s) = 5.39776 6.56330 6.00885
#
# Compressibility (1/GPa) = 0.03333538
#
# Stress axis : x y z
#
# Youngs Moduli (GPa) = 73.88705 24.41226 81.74274
#
# Poissons Ratio (x) = 0.15587 0.39832
# Poissons Ratio (y) = 0.47177 0.44466
# Poissons Ratio (z) = 0.36004 0.13280
#
# Static dielectric constant tensor:
#      x y z
#    x 3.422460 0.000000 0.082920 
#    y 0.000000 3.082760 0.000000 
#    z 0.082920 0.000000 3.816200 
# 
# 
# High freq. dielectric constant tensor:
#      x y z
#    x 1.729790 0.000000 0.000910 
#    y 0.000000 1.690190 0.000000 
#    z 0.000910 0.000000 1.750590 
# 
# From -- ./inp_files/320021.got.cif
#   From: 2010.06.25/outbox.cif.g09.slc.cpg/sg12_161_cif.got.tgz:320021.got - 2010.06.28 00:19:55.
