data_PCOD8086236
_publ_section_title
;
Structure prediction by ZEFSAII (Michael W. Deem and Ramdas Pophale) SiO2 
 PCOD8086236
Probable space group: C 2/M
;
_chemical_formula_sum "Si O2"
_cell_formula_units_Z 56
_cell_length_a 19.251067
_cell_length_b 9.164862
_cell_length_c 22.131128
_cell_angle_alpha 90.000000
_cell_angle_beta 56.119790
_cell_angle_gamma 90.000000
_cell_volume 3241.675718
_symmetry_space_group_name_H-M "C 2/M"
_symmetry_group_IT_number 12
_symmetry_cell_setting 'monoclinic'
loop_
_space_group_symop_operation_xyz
x,y,z
-x,y,-z
-x,-y,-z
x,-y,z
1/2+x,1/2+y,z
1/2-x,1/2+y,-z
1/2-x,1/2-y,-z
1/2+x,1/2-y,z
loop_
_atom_site_type_symbol
_atom_site_label
_atom_site_fract_x
_atom_site_fract_y
_atom_site_fract_z
Si Si1 0.124109 0.170118 0.563673
Si Si2 0.020341 0.668182 0.422081
Si Si3 0.178170 0.827252 0.854335
Si Si4 0.183552 0.825032 0.988140
Si Si5 0.787030 0.331273 0.690374
Si Si6 0.999961 0.159021 0.071499
Si Si7 0.264806 0.170476 0.400202
O O1 0.180664 0.207559 0.477969
O O2 0.157389 0.250908 0.606517
O O3 0.031834 0.229780 0.597057
O O4 0.121616 0.000000 0.578635
O O5 0.995213 0.500000 0.424386
O O6 0.115088 0.699707 0.358694
O O7 0.000000 0.716026 0.500000
O O8 0.202894 0.774067 0.909718
O O9 0.252659 0.784999 0.772758
O O10 0.089144 0.759134 0.871918
O O11 0.164057 0.000000 0.864197
O O12 0.189775 0.000000 0.991531
O O13 0.250000 0.750000 0.000000
O O14 0.088269 0.767912 0.049996
O O15 0.767909 0.500000 0.684847
O O16 0.741536 0.231199 0.663824
O O17 0.998746 0.000000 0.103258
O O18 0.000000 0.140507 0.000000
O O19 0.282930 0.000000 0.389515
#
# Coordination Sequence:
#
# PCOD8086236 Si02
#       7
#     8   8   8   8   8   8   8
#     4  10  20  33  51  71  92 121 162 207 247 291
#     4  10  19  31  48  71  99 130 164 203 246 292
#     4   8  15  29  49  71  94 125 164 198 229 278
#     4   9  16  28  49  75  99 124 156 193 235 279
#     4  10  19  32  51  72  97 130 165 201 245 294
#     4   7  11  23  45  69  90 117 156 194 222 262
#     4  10  20  33  50  71  95 122 156 203 252 294
#
# _framework density 17.275016000000001
#
# number of rings (size 3 to 8) (size 9 to 14) (size 15 to 20)
#    0.000    2.857    1.429    2.571    0.000    2.000 
#    0.000    2.143    0.000    8.143    0.000    0.000 
#    0.000    0.000    0.000    0.000    0.000    0.000 
#
# Total GULP energy -346945.977722 kJ/mol
# GULP energy per Si atom -12390.927776 kJ/mol
# Density = 1.723570 g / cm^3
# Si number density = 17.275016 Si / 1000 Ang^3
#
#
#
# Elastic Constant Matrix: (Units=GPa)
#
#
# Indices 1 2 3 4 5 6 
#
# 1 148.6315 50.8981 62.6141 0.0000 -1.9318 -0.0002
# 2 50.8981 50.7776 30.1942 -0.0001 4.1132 -0.0006
# 3 62.6141 30.1942 99.2674 0.0000 -7.7933 0.0000
# 4 0.0000 -0.0001 0.0000 11.3233 0.0000 5.5255
# 5 -1.9318 4.1132 -7.7933 0.0000 24.7904 0.0000
# 6 -0.0002 -0.0006 0.0000 5.5255 0.0000 31.7129
#
#
#
# Elastic Compliance Matrix: (Units=1/GPa)
#
#
# Indices 1 2 3 4 5 6 
#
# 1 0.011824 -0.009213 -0.004577 0.000000 0.001011 0.000000
# 2 -0.009213 0.032269 -0.004594 0.000000 -0.007516 0.000001
# 3 -0.004577 -0.004594 0.014754 0.000000 0.005044 0.000000
# 4 0.000000 0.000000 0.000000 0.096520 0.000000 -0.016817
# 5 0.001011 -0.007516 0.005044 0.000000 0.043250 0.000000
# 6 0.000000 0.000001 0.000000 -0.016817 0.000000 0.034463
#
#
# Mechanical properties :
#
#
# Convention : Reuss Voigt Hill
#
# Bulk Modulus (GPa) = 45.29003 65.12105 55.20554
# Shear Modulus (GPa) = 18.03706 23.89664 20.96685
#
# Velocity S-wave (km/s) = 3.23478 3.72332 3.48761
# Velocity P-wave (km/s) = 6.34237 7.50084 6.94580
#
# Compressibility (1/GPa) = 0.02207991
#
# Stress axis : x y z
#
# Youngs Moduli (GPa) = 84.57420 30.98941 67.77834
#
# Poissons Ratio (x) = 0.28549 0.31019
# Poissons Ratio (y) = 0.77915 0.31141
# Poissons Ratio (z) = 0.38705 0.14238
#
# Static dielectric constant tensor:
#      x y z
#    x 3.369420 0.000000 -0.187800 
#    y 0.000000 2.907540 0.000000 
#    z -0.187800 0.000000 3.203780 
# 
# 
# High freq. dielectric constant tensor:
#      x y z
#    x 1.674480 0.000000 -0.010330 
#    y 0.000000 1.635830 0.000000 
#    z -0.010330 0.000000 1.646550 
# 
# From -- ./inp_files/313752.got.cif
#   From: 2010.06.25/outbox.cif.g09.slc.cpg/sg12_157_cif.got.tgz:313752.got - 2010.06.28 00:19:55.
