data_PCOD8086029
_publ_section_title
;
Structure prediction by ZEFSAII (Michael W. Deem and Ramdas Pophale) SiO2 
 PCOD8086029
Probable space group: C 2/M
;
_chemical_formula_sum "Si O2"
_cell_formula_units_Z 56
_cell_length_a 26.800222
_cell_length_b 9.011676
_cell_length_c 14.336064
_cell_angle_alpha 90.000000
_cell_angle_beta 103.487820
_cell_angle_gamma 90.000000
_cell_volume 3366.879410
_symmetry_space_group_name_H-M "C 2/M"
_symmetry_group_IT_number 12
_symmetry_cell_setting 'monoclinic'
loop_
_space_group_symop_operation_xyz
x,y,z
-x,y,-z
-x,-y,-z
x,-y,z
1/2+x,1/2+y,z
1/2-x,1/2+y,-z
1/2-x,1/2-y,-z
1/2+x,1/2-y,z
loop_
_atom_site_type_symbol
_atom_site_label
_atom_site_fract_x
_atom_site_fract_y
_atom_site_fract_z
Si Si1 0.313429 0.828367 0.726350
Si Si2 0.624178 0.167601 0.714677
Si Si3 0.633310 0.828329 0.433890
Si Si4 0.440465 0.672870 0.464093
Si Si5 0.716462 0.166355 0.613733
Si Si6 0.710004 0.671924 0.104460
Si Si7 0.316170 0.327924 0.112864
O O1 0.360121 0.800556 0.673934
O O2 0.260797 0.782849 0.653304
O O3 0.323765 0.733436 0.824252
O O4 0.309920 0.000000 0.752187
O O5 0.579185 0.246931 0.637676
O O6 0.676521 0.172178 0.680483
O O7 0.634843 0.251395 0.817053
O O8 0.606649 0.000000 0.728381
O O9 0.587157 0.730823 0.454160
O O10 0.687156 0.784953 0.506752
O O11 0.621183 0.000000 0.451791
O O12 0.500000 0.708259 0.500000
O O13 0.428928 0.500000 0.448778
O O14 0.739378 0.000000 0.614787
O O15 0.722683 0.500000 0.126547
O O16 0.763402 0.758176 0.125930
O O17 0.678170 0.696687 0.995735
O O18 0.315207 0.500000 0.138993
#
# Coordination Sequence:
#
# PCOD8086029 Si02
#       7
#     8   8   8   8   8   8   8
#     4  11  20  29  44  67  95 130 167 199 235 279
#     4  10  19  31  50  73  98 128 161 198 243 291
#     4   9  20  34  47  67  94 126 163 198 237 288
#     4  10  21  36  54  76  98 122 157 199 242 290
#     4   9  17  29  43  63  93 127 162 197 232 277
#     4  10  20  31  44  65  96 133 169 203 239 278
#     4  10  19  31  47  67  93 129 170 206 238 277
#
# _framework density 16.632612000000002
#
# number of rings (size 3 to 8) (size 9 to 14) (size 15 to 20)
#    0.000    2.143    1.429    3.429    0.000    6.286 
#    0.000    0.000    0.000    0.000    0.000    1.000 
#    0.000    8.000    0.000    0.000    0.000    0.000 
#
# Total GULP energy -347201.124602 kJ/mol
# GULP energy per Si atom -12400.040164 kJ/mol
# Density = 1.659476 g / cm^3
# Si number density = 16.632612 Si / 1000 Ang^3
#
#
#
# Elastic Constant Matrix: (Units=GPa)
#
#
# Indices 1 2 3 4 5 6 
#
# 1 55.1540 45.9912 47.3112 0.0000 1.8649 0.0000
# 2 45.9912 119.6114 68.2435 0.0000 2.3795 0.0000
# 3 47.3112 68.2435 115.1132 0.0000 -10.7354 0.0000
# 4 0.0000 0.0000 0.0000 30.6619 0.0000 -2.0821
# 5 1.8649 2.3795 -10.7354 0.0000 19.2780 0.0000
# 6 0.0000 0.0000 0.0000 -2.0821 0.0000 20.8939
#
#
#
# Elastic Compliance Matrix: (Units=1/GPa)
#
#
# Indices 1 2 3 4 5 6 
#
# 1 0.032705 -0.006518 -0.010335 0.000000 -0.008115 0.000000
# 2 -0.006518 0.014637 -0.006443 0.000000 -0.004764 0.000000
# 3 -0.010335 -0.006443 0.017849 0.000000 0.011735 0.000000
# 4 0.000000 0.000000 0.000000 0.032836 0.000000 0.003272
# 5 -0.008115 -0.004764 0.011735 0.000000 0.059780 0.000000
# 6 0.000000 0.000000 0.000000 0.003272 0.000000 0.048187
#
#
# Mechanical properties :
#
#
# Convention : Reuss Voigt Hill
#
# Bulk Modulus (GPa) = 53.76185 68.10781 60.93483
# Shear Modulus (GPa) = 19.32099 22.72225 21.02162
#
# Velocity S-wave (km/s) = 3.41197 3.70012 3.55897
# Velocity P-wave (km/s) = 6.92209 7.70012 7.32145
#
# Compressibility (1/GPa) = 0.01860055
#
# Stress axis : x y z
#
# Youngs Moduli (GPa) = 30.57609 68.31845 56.02628
#
# Poissons Ratio (x) = 0.44527 0.57901
# Poissons Ratio (y) = 0.19928 0.36099
# Poissons Ratio (z) = 0.31599 0.44019
#
# Static dielectric constant tensor:
#      x y z
#    x 2.736670 0.000000 -0.186020 
#    y 0.000000 3.264930 0.000000 
#    z -0.186020 0.000000 3.345630 
# 
# 
# High freq. dielectric constant tensor:
#      x y z
#    x 1.589060 0.000000 -0.016240 
#    y 0.000000 1.657280 0.000000 
#    z -0.016240 0.000000 1.643280 
# 
# From -- ./inp_files/244311.got.cif
#   From: 2010.06.25/outbox.cif.g09.slc.cpg/sg12_123_cif.got.tgz:244311.got - 2010.06.28 00:19:55.
