data_PCOD8086400
_publ_section_title
;
Structure prediction by ZEFSAII (Michael W. Deem and Ramdas Pophale) SiO2 
 PCOD8086400
Probable space group: C 2/M
;
_chemical_formula_sum "Si O2"
_cell_formula_units_Z 64
_cell_length_a 31.313540
_cell_length_b 9.256900
_cell_length_c 15.610930
_cell_angle_alpha 90.000000
_cell_angle_beta 54.494619
_cell_angle_gamma 90.000000
_cell_volume 3683.693205
_symmetry_space_group_name_H-M "C 2/M"
_symmetry_group_IT_number 12
_symmetry_cell_setting 'monoclinic'
loop_
_space_group_symop_operation_xyz
x,y,z
-x,y,-z
-x,-y,-z
x,-y,z
1/2+x,1/2+y,z
1/2-x,1/2+y,-z
1/2-x,1/2-y,-z
1/2+x,1/2-y,z
loop_
_atom_site_type_symbol
_atom_site_label
_atom_site_fract_x
_atom_site_fract_y
_atom_site_fract_z
Si Si1 0.674187 0.832311 0.913594
Si Si2 0.605799 0.670559 0.434041
Si Si3 0.022703 0.167429 0.838745
Si Si4 0.418764 0.666174 0.055496
Si Si5 0.452952 0.169701 0.360408
Si Si6 0.441620 0.834849 0.662717
Si Si7 0.291167 0.666333 0.783031
Si Si8 0.663756 0.833655 0.117694
O O1 0.634226 0.754274 0.897063
O O2 0.733513 0.804133 0.811269
O O3 0.659589 0.000000 0.929540
O O4 0.669003 0.770855 0.016050
O O5 0.597679 0.500000 0.453442
O O6 0.595161 0.749415 0.536604
O O7 0.565401 0.730712 0.410186
O O8 0.665185 0.711996 0.337477
O O9 0.062977 0.192874 0.869069
O O10 0.041408 0.269516 0.741096
O O11 0.022971 0.000000 0.809890
O O12 0.964481 0.214382 0.936513
O O13 0.405722 0.500000 0.055296
O O14 0.504947 0.206160 0.352989
O O15 0.441467 0.000000 0.368743
O O16 0.396026 0.809753 0.784515
O O17 0.442029 0.000000 0.628607
O O18 0.298422 0.500000 0.799287
O O19 0.296982 0.751776 0.864804
O O20 0.680586 0.000000 0.100341
#
# Coordination Sequence:
#
# PCOD8086400 Si02
#       8
#     8   8   8   8   8   8   8   8
#     4  10  19  31  49  73 100 129 163 202 242 285
#     4  10  20  33  48  67  95 132 170 205 241 281
#     4   9  19  36  54  74 102 129 154 190 236 288
#     4   9  19  35  54  76 101 128 156 189 235 289
#     4  11  21  32  50  74  98 127 163 201 243 289
#     4   9  18  31  45  67 100 130 158 197 242 288
#     4   9  19  33  47  67  97 132 168 205 242 279
#     4   9  17  29  46  69  98 130 161 196 240 287
#
# _framework density 17.373868000000002
#
# number of rings (size 3 to 8) (size 9 to 14) (size 15 to 20)
#    0.000    2.500    0.000    3.000    0.000    6.000 
#    0.000    3.750    0.000    0.750    0.000    0.000 
#    0.000    0.000    0.000    0.000    0.000    0.000 
#
# Total GULP energy -396843.250472 kJ/mol
# GULP energy per Si atom -12401.351577 kJ/mol
# Density = 1.733432 g / cm^3
# Si number density = 17.373868 Si / 1000 Ang^3
#
#
#
# Elastic Constant Matrix: (Units=GPa)
#
#
# Indices 1 2 3 4 5 6 
#
# 1 95.0263 48.1653 44.5850 0.0000 -9.4148 0.0000
# 2 48.1653 74.9230 50.6478 0.0000 3.2681 0.0000
# 3 44.5850 50.6478 106.1921 0.0000 4.6448 0.0000
# 4 0.0000 0.0000 0.0000 28.4352 0.0000 3.3674
# 5 -9.4148 3.2681 4.6448 0.0000 16.4365 0.0000
# 6 0.0000 0.0000 0.0000 3.3674 0.0000 30.8879
#
#
#
# Elastic Compliance Matrix: (Units=1/GPa)
#
#
# Indices 1 2 3 4 5 6 
#
# 1 0.018767 -0.010231 -0.003604 0.000000 0.013802 0.000000
# 2 -0.010231 0.025302 -0.007387 0.000000 -0.008803 0.000000
# 3 -0.003604 -0.007387 0.014660 0.000000 -0.004738 0.000000
# 4 0.000000 0.000000 0.000000 0.035628 0.000000 -0.003884
# 5 0.013802 -0.008803 -0.004738 0.000000 0.071836 0.000000
# 6 0.000000 0.000000 0.000000 -0.003884 0.000000 0.032799
#
#
# Mechanical properties :
#
#
# Convention : Reuss Voigt Hill
#
# Bulk Modulus (GPa) = 61.40116 62.54860 61.97488
# Shear Modulus (GPa) = 20.25414 24.00147 22.12781
#
# Velocity S-wave (km/s) = 3.41806 3.72085 3.57266
# Velocity P-wave (km/s) = 7.14110 7.38507 7.26411
#
# Compressibility (1/GPa) = 0.01628634
#
# Stress axis : x y z
#
# Youngs Moduli (GPa) = 53.28417 39.52307 68.21112
#
# Poissons Ratio (x) = 0.40435 0.24581
# Poissons Ratio (y) = 0.54514 0.50388
# Poissons Ratio (z) = 0.19202 0.29196
#
# Static dielectric constant tensor:
#      x y z
#    x 3.076750 0.000000 -0.148790 
#    y 0.000000 3.201950 0.000000 
#    z -0.148790 0.000000 3.317130 
# 
# 
# High freq. dielectric constant tensor:
#      x y z
#    x 1.652480 0.000000 -0.011520 
#    y 0.000000 1.671690 0.000000 
#    z -0.011520 0.000000 1.671430 
# 
# From -- ./inp_files/248954.got.cif
#   From: 2010.06.25/outbox.cif.g09.slc.cpg/sg12_125_cif.got.tgz:248954.got - 2010.06.28 00:19:55.
