data_PCOD8086147
_publ_section_title
;
Structure prediction by ZEFSAII (Michael W. Deem and Ramdas Pophale) SiO2 
 PCOD8086147
Probable space group: C 2/M
;
_chemical_formula_sum "Si O2"
_cell_formula_units_Z 40
_cell_length_a 27.277502
_cell_length_b 8.964722
_cell_length_c 11.726143
_cell_angle_alpha 90.000000
_cell_angle_beta 52.903070
_cell_angle_gamma 90.000000
_cell_volume 2287.128688
_symmetry_space_group_name_H-M "C 2/M"
_symmetry_group_IT_number 12
_symmetry_cell_setting 'monoclinic'
loop_
_space_group_symop_operation_xyz
x,y,z
-x,y,-z
-x,-y,-z
x,-y,z
1/2+x,1/2+y,z
1/2-x,1/2+y,-z
1/2-x,1/2-y,-z
1/2+x,1/2-y,z
loop_
_atom_site_type_symbol
_atom_site_label
_atom_site_fract_x
_atom_site_fract_y
_atom_site_fract_z
Si Si1 0.168534 0.674194 0.714294
Si Si2 0.807255 0.174047 0.552145
Si Si3 0.031538 0.822672 0.283286
Si Si4 0.409896 0.323757 0.573529
Si Si5 0.442650 0.677150 0.004367
O O1 0.154310 0.500000 0.732906
O O2 0.164527 0.734425 0.591839
O O3 0.235788 0.709845 0.671878
O O4 0.120168 0.756157 0.861213
O O5 0.844073 0.224603 0.614284
O O6 0.817649 0.000000 0.510348
O O7 0.081235 0.766476 0.308616
O O8 0.964495 0.762985 0.415551
O O9 0.031090 0.000000 0.275372
O O10 0.048172 0.757847 0.136031
O O11 0.415993 0.500000 0.567768
O O12 0.437007 0.500000 0.014337
O O13 0.500000 0.730902 0.000000
#
# Coordination Sequence:
#
# PCOD8086147 Si02
#       5
#     8   8   8   8   8
#     4  10  20  31  45  68  95 121 151 188 229 270
#     4   9  17  31  50  68  89 120 155 189 225 268
#     4   8  14  24  43  71  93 111 145 191 228 260
#     4   8  13  25  46  69  90 112 146 191 229 261
#     4  10  19  31  48  69  93 121 152 186 226 271
#
# _framework density 17.489177999999999
#
# number of rings (size 3 to 8) (size 9 to 14) (size 15 to 20)
#    0.000    3.000    0.000    3.000    0.000    4.400 
#    0.000    1.000    0.000    1.200    0.000    4.200 
#    0.000    0.000    0.000    0.000    0.000    0.000 
#
# Total GULP energy -247888.780137 kJ/mol
# GULP energy per Si atom -12394.439007 kJ/mol
# Density = 1.744937 g / cm^3
# Si number density = 17.489178 Si / 1000 Ang^3
#
#
#
# Elastic Constant Matrix: (Units=GPa)
#
#
# Indices 1 2 3 4 5 6 
#
# 1 165.9712 24.0170 80.0075 0.0000 13.7974 0.0000
# 2 24.0170 18.0238 22.7073 0.0000 0.4185 0.0000
# 3 80.0075 22.7073 134.2148 0.0000 10.9395 0.0000
# 4 0.0000 0.0000 0.0000 22.2741 0.0000 -5.4662
# 5 13.7974 0.4185 10.9395 0.0000 23.6030 0.0000
# 6 0.0000 0.0000 0.0000 -5.4662 0.0000 15.2004
#
#
#
# Elastic Compliance Matrix: (Units=1/GPa)
#
#
# Indices 1 2 3 4 5 6 
#
# 1 0.009306 -0.007225 -0.004045 0.000000 -0.003437 0.000000
# 2 -0.007225 0.076572 -0.009230 0.000000 0.007144 0.000000
# 3 -0.004045 -0.009230 0.011658 0.000000 -0.002875 0.000000
# 4 0.000000 0.000000 0.000000 0.049241 0.000000 0.017707
# 5 -0.003437 0.007144 -0.002875 0.000000 0.045582 0.000000
# 6 0.000000 0.000000 0.000000 0.017707 0.000000 0.072155
#
#
# Mechanical properties :
#
#
# Convention : Reuss Voigt Hill
#
# Bulk Modulus (GPa) = 17.68782 63.51927 40.60354
# Shear Modulus (GPa) = 15.41490 24.98071 20.19780
#
# Velocity S-wave (km/s) = 2.97205 3.78345 3.40203
# Velocity P-wave (km/s) = 4.68113 7.44876 6.22081
#
# Compressibility (1/GPa) = 0.05653607
#
# Stress axis : x y z
#
# Youngs Moduli (GPa) = 107.45363 13.05954 85.77699
#
# Poissons Ratio (x) = 0.09435 0.34698
# Poissons Ratio (y) = 0.77632 0.79176
# Poissons Ratio (z) = 0.43467 0.12055
#
# Static dielectric constant tensor:
#      x y z
#    x 3.677960 0.000000 0.158170 
#    y 0.000000 2.860550 0.000000 
#    z 0.158170 0.000000 3.258190 
# 
# 
# High freq. dielectric constant tensor:
#      x y z
#    x 1.690180 0.000000 0.003100 
#    y 0.000000 1.633160 0.000000 
#    z 0.003100 0.000000 1.664860 
# 
# From -- ./inp_files/162482.got.cif
#   From: 2010.06.25/outbox.cif.g09.slc.cpg/sg12_82_cif.got.tgz:162482.got - 2010.06.28 00:19:55.
