data_PCOD8086387
_publ_section_title
;
Structure prediction by ZEFSAII (Michael W. Deem and Ramdas Pophale) SiO2 
 PCOD8086387
Probable space group: C 2/M
;
_chemical_formula_sum "Si O2"
_cell_formula_units_Z 56
_cell_length_a 18.130766
_cell_length_b 9.131114
_cell_length_c 28.744752
_cell_angle_alpha 90.000000
_cell_angle_beta 140.989905
_cell_angle_gamma 90.000000
_cell_volume 2995.468545
_symmetry_space_group_name_H-M "C 2/M"
_symmetry_group_IT_number 12
_symmetry_cell_setting 'monoclinic'
loop_
_space_group_symop_operation_xyz
x,y,z
-x,y,-z
-x,-y,-z
x,-y,z
1/2+x,1/2+y,z
1/2-x,1/2+y,-z
1/2-x,1/2-y,-z
1/2+x,1/2-y,z
loop_
_atom_site_type_symbol
_atom_site_label
_atom_site_fract_x
_atom_site_fract_y
_atom_site_fract_z
Si Si1 0.735151 0.165202 0.358685
Si Si2 0.134116 0.330782 0.075943
Si Si3 0.221557 0.828828 0.208805
Si Si4 0.593971 0.665561 0.645127
Si Si5 0.943825 0.170634 0.786564
Si Si6 0.585774 0.834322 0.498181
Si Si7 0.293767 0.670833 0.067018
O O1 0.823128 0.166704 0.358793
O O2 0.614147 0.241799 0.284501
O O3 0.792994 0.253413 0.429698
O O4 0.709037 0.000000 0.362191
O O5 0.151450 0.500000 0.098806
O O6 0.177728 0.227641 0.138150
O O7 0.207074 0.289955 0.066167
O O8 0.000000 0.294593 0.000000
O O9 0.341888 0.747144 0.281030
O O10 0.121085 0.793797 0.197033
O O11 0.248763 0.000000 0.219389
O O12 0.563968 0.500000 0.645537
O O13 0.474013 0.749951 0.574211
O O14 0.076660 0.225797 0.856190
O O15 0.935522 0.000000 0.770137
O O16 0.500000 0.833504 0.500000
O O17 0.613849 0.000000 0.496633
O O18 0.295938 0.500000 0.056972
O O19 0.250000 0.750000 0.000000
#
# Coordination Sequence:
#
# PCOD8086387 Si02
#       7
#     8   8   8   8   8   8   8
#     4   9  16  25  40  64  93 127 165 203 245 290
#     4  10  21  36  53  74 100 129 161 199 245 295
#     4  10  19  31  49  72  98 129 165 204 246 292
#     4   9  16  26  41  63  94 129 164 203 245 289
#     4   9  18  32  48  69  98 130 164 203 247 292
#     4   9  15  23  37  60  93 130 165 202 244 288
#     4  10  21  36  54  75  99 128 162 201 245 293
#
# _framework density 18.694904000000001
#
# number of rings (size 3 to 8) (size 9 to 14) (size 15 to 20)
#    0.000    2.571    0.000    2.571    0.000    7.143 
#    0.000    0.000    0.000    0.000    0.000    1.000 
#    0.000    0.000    0.000    0.000    0.000    0.000 
#
# Total GULP energy -347250.335110 kJ/mol
# GULP energy per Si atom -12401.797683 kJ/mol
# Density = 1.865235 g / cm^3
# Si number density = 18.694904 Si / 1000 Ang^3
#
#
#
# Elastic Constant Matrix: (Units=GPa)
#
#
# Indices 1 2 3 4 5 6 
#
# 1 50.0374 37.2094 54.6222 0.0000 4.7890 0.0000
# 2 37.2094 131.3848 93.9928 0.0000 -0.7365 -0.0001
# 3 54.6222 93.9928 188.2444 0.0000 8.9628 0.0000
# 4 0.0000 0.0000 0.0000 45.0620 0.0000 -5.4607
# 5 4.7890 -0.7365 8.9628 0.0000 18.8975 0.0000
# 6 0.0000 -0.0001 0.0000 -5.4607 0.0000 12.8290
#
#
#
# Elastic Compliance Matrix: (Units=1/GPa)
#
#
# Indices 1 2 3 4 5 6 
#
# 1 0.030688 -0.003903 -0.006730 0.000000 -0.004737 0.000000
# 2 -0.003903 0.012547 -0.005323 0.000000 0.004003 0.000000
# 3 -0.006730 -0.005323 0.010079 0.000000 -0.003282 0.000000
# 4 0.000000 0.000000 0.000000 0.023399 0.000000 0.009960
# 5 -0.004737 0.004003 -0.003282 0.000000 0.055830 0.000000
# 6 0.000000 0.000000 0.000000 0.009960 0.000000 0.082188
#
#
# Mechanical properties :
#
#
# Convention : Reuss Voigt Hill
#
# Bulk Modulus (GPa) = 46.72499 82.36835 64.54667
# Shear Modulus (GPa) = 19.70237 27.61385 23.65811
#
# Velocity S-wave (km/s) = 3.24989 3.84745 3.56122
# Velocity P-wave (km/s) = 6.25540 7.99325 7.17712
#
# Compressibility (1/GPa) = 0.02140182
#
# Stress axis : x y z
#
# Youngs Moduli (GPa) = 32.58652 79.69994 99.21332
#
# Poissons Ratio (x) = 0.31104 0.66773
# Poissons Ratio (y) = 0.12718 0.52812
# Poissons Ratio (z) = 0.21932 0.42425
#
# Static dielectric constant tensor:
#      x y z
#    x 2.986780 0.000000 0.128280 
#    y 0.000000 3.536310 0.000000 
#    z 0.128280 0.000000 3.646840 
# 
# 
# High freq. dielectric constant tensor:
#      x y z
#    x 1.671750 0.000000 0.002340 
#    y 0.000000 1.734020 0.000000 
#    z 0.002340 0.000000 1.744260 
# 
# From -- ./inp_files/320259.got.cif
#   From: 2010.06.25/outbox.cif.g09.slc.cpg/sg12_161_cif.got.tgz:320259.got - 2010.06.28 00:19:55.
