data_PCOD8086883
_publ_section_title
;
Structure prediction by ZEFSAII (Michael W. Deem and Ramdas Pophale) SiO2 
 PCOD8086883
Probable space group: C 2/M
;
_chemical_formula_sum "Si O2"
_cell_formula_units_Z 56
_cell_length_a 19.952695
_cell_length_b 9.255048
_cell_length_c 30.443205
_cell_angle_alpha 90.000000
_cell_angle_beta 149.240436
_cell_angle_gamma 90.000000
_cell_volume 2875.162264
_symmetry_space_group_name_H-M "C 2/M"
_symmetry_group_IT_number 12
_symmetry_cell_setting 'monoclinic'
loop_
_space_group_symop_operation_xyz
x,y,z
-x,y,-z
-x,-y,-z
x,-y,z
1/2+x,1/2+y,z
1/2-x,1/2+y,-z
1/2-x,1/2-y,-z
1/2+x,1/2-y,z
loop_
_atom_site_type_symbol
_atom_site_label
_atom_site_fract_x
_atom_site_fract_y
_atom_site_fract_z
Si Si1 0.815626 0.661670 0.354959
Si Si2 0.223805 0.835295 0.396852
Si Si3 0.462657 0.170970 0.229649
Si Si4 0.854712 0.332641 0.802885
Si Si5 0.463470 0.832861 0.586566
Si Si6 0.120287 0.332605 0.914557
Si Si7 0.356534 0.671677 0.247345
O O1 0.774487 0.500000 0.318841
O O2 0.821862 0.680908 0.410706
O O3 0.701839 0.762541 0.272630
O O4 0.954296 0.699913 0.411297
O O5 0.311955 0.798031 0.489354
O O6 0.104241 0.725689 0.325315
O O7 0.170021 0.000000 0.369467
O O8 0.433648 0.216531 0.163324
O O9 0.353551 0.250016 0.198476
O O10 0.455675 0.000000 0.232547
O O11 0.828400 0.500000 0.781971
O O12 0.778006 0.280431 0.803502
O O13 0.010557 0.299520 0.890385
O O14 0.514996 0.728361 0.654085
O O15 0.479130 0.000000 0.610171
O O16 0.155974 0.500000 0.933470
O O17 0.250000 0.250000 0.000000
O O18 0.366533 0.500000 0.247239
#
# Coordination Sequence:
#
# PCOD8086883 Si02
#       7
#     8   8   8   8   8   8   8
#     4   9  16  28  50  79 110 145 186 230 275 323
#     4  10  19  31  51  79 112 149 191 233 275 324
#     4  11  23  39  58  81 113 148 182 228 281 329
#     4   9  18  36  58  82 112 145 181 225 274 326
#     4   9  18  32  50  77 113 151 190 233 275 318
#     4  10  22  40  63  89 113 139 175 222 277 334
#     4  10  21  37  58  81 111 151 192 228 269 325
#
# _framework density 19.477160999999999
#
# number of rings (size 3 to 8) (size 9 to 14) (size 15 to 20)
#    0.000    2.286    1.429    1.286    0.000    5.143 
#    0.000    0.714    0.000    8.571    0.000    0.000 
#    0.000    0.000    0.000    0.000    0.000    0.000 
#
# Total GULP energy -347071.099417 kJ/mol
# GULP energy per Si atom -12395.396408 kJ/mol
# Density = 1.943283 g / cm^3
# Si number density = 19.477161 Si / 1000 Ang^3
#
#
#
# Elastic Constant Matrix: (Units=GPa)
#
#
# Indices 1 2 3 4 5 6 
#
# 1 94.8431 41.1589 45.4399 0.0000 -0.7622 0.0000
# 2 41.1589 65.4146 42.5121 0.0000 4.1164 0.0001
# 3 45.4399 42.5121 88.0279 0.0002 18.1231 0.0000
# 4 0.0000 0.0000 0.0002 32.6989 0.0000 0.9521
# 5 -0.7622 4.1164 18.1231 0.0000 17.8078 0.0000
# 6 0.0000 0.0001 0.0000 0.9521 0.0000 29.1885
#
#
#
# Elastic Compliance Matrix: (Units=1/GPa)
#
#
# Indices 1 2 3 4 5 6 
#
# 1 0.017153 -0.006284 -0.007932 0.000000 0.010259 0.000000
# 2 -0.006284 0.025366 -0.009797 0.000000 0.003838 0.000000
# 3 -0.007932 -0.009797 0.025035 0.000000 -0.023553 0.000000
# 4 0.000000 0.000000 0.000000 0.030611 0.000000 -0.000998
# 5 0.010259 0.003838 -0.023553 0.000000 0.079677 0.000000
# 6 0.000000 0.000000 0.000000 -0.000998 0.000000 0.034293
#
#
# Mechanical properties :
#
#
# Convention : Reuss Voigt Hill
#
# Bulk Modulus (GPa) = 51.20489 56.27857 53.74173
# Shear Modulus (GPa) = 18.74976 23.88403 21.31689
#
# Velocity S-wave (km/s) = 3.10603 3.50560 3.31185
# Velocity P-wave (km/s) = 6.26179 6.73372 6.50204
#
# Compressibility (1/GPa) = 0.01952939
#
# Stress axis : x y z
#
# Youngs Moduli (GPa) = 58.29752 39.42285 39.94411
#
# Poissons Ratio (x) = 0.24771 0.31684
# Poissons Ratio (y) = 0.36631 0.39132
# Poissons Ratio (z) = 0.46243 0.38622
#
# Static dielectric constant tensor:
#      x y z
#    x 3.948690 0.000000 0.038240 
#    y 0.000000 3.496310 0.000000 
#    z 0.038240 0.000000 3.303330 
# 
# 
# High freq. dielectric constant tensor:
#      x y z
#    x 1.772880 0.000000 0.006720 
#    y 0.000000 1.754210 0.000000 
#    z 0.006720 0.000000 1.727630 
# 
# From -- ./inp_files/320269.got.cif
#   From: 2010.06.25/outbox.cif.g09.slc.cpg/sg12_161_cif.got.tgz:320269.got - 2010.06.28 00:19:55.
