data_PCOD8086571
_publ_section_title
;
Structure prediction by ZEFSAII (Michael W. Deem and Ramdas Pophale) SiO2 
 PCOD8086571
Probable space group: C 2/M
;
_chemical_formula_sum "Si O2"
_cell_formula_units_Z 48
_cell_length_a 18.342777
_cell_length_b 8.882573
_cell_length_c 18.894885
_cell_angle_alpha 90.000000
_cell_angle_beta 119.323159
_cell_angle_gamma 90.000000
_cell_volume 2684.111498
_symmetry_space_group_name_H-M "C 2/M"
_symmetry_group_IT_number 12
_symmetry_cell_setting 'monoclinic'
loop_
_space_group_symop_operation_xyz
x,y,z
-x,y,-z
-x,-y,-z
x,-y,z
1/2+x,1/2+y,z
1/2-x,1/2+y,-z
1/2-x,1/2-y,-z
1/2+x,1/2-y,z
loop_
_atom_site_type_symbol
_atom_site_label
_atom_site_fract_x
_atom_site_fract_y
_atom_site_fract_z
Si Si1 0.254005 0.824212 0.077741
Si Si2 0.082216 0.821376 0.829525
Si Si3 0.913114 0.169418 0.418185
Si Si4 0.929124 0.824405 0.015633
Si Si5 0.330987 0.176753 0.504797
Si Si6 0.501460 0.823634 0.665020
O O1 0.327899 0.741687 0.156144
O O2 0.274748 0.000000 0.081619
O O3 0.250000 0.750000 0.000000
O O4 0.160909 0.798007 0.065453
O O5 0.067253 0.760175 0.902392
O O6 0.009528 0.755071 0.745263
O O7 0.082841 0.000000 0.825358
O O8 0.844422 0.253925 0.433236
O O9 0.000000 0.167376 0.500000
O O10 0.926052 0.258179 0.351267
O O11 0.882103 0.000000 0.387528
O O12 0.947946 0.000000 0.031813
O O13 0.000000 0.747327 0.000000
O O14 0.250000 0.250000 0.500000
O O15 0.409601 0.214384 0.592220
O O16 0.317636 0.000000 0.490001
O O17 0.516115 0.000000 0.679013
#
# Coordination Sequence:
#
# PCOD8086571 Si02
#       6
#     8   8   8   8   8   8
#     4   9  16  28  48  70  94 124 159 200 243 293
#     4  10  19  31  50  73  97 128 166 209 254 301
#     4   9  17  31  52  75  98 126 163 205 248 298
#     4   8  15  29  49  72  96 125 163 203 244 294
#     4  10  20  34  53  76 103 136 172 208 251 305
#     4  10  20  34  52  74 101 132 168 212 258 303
#
# _framework density 17.883012000000001
#
# number of rings (size 3 to 8) (size 9 to 14) (size 15 to 20)
#    0.000    2.667    0.000    3.500    0.000    4.000 
#    0.000    1.667    0.000   24.000    0.000    0.000 
#    0.000    0.000    0.000    0.000    0.000    0.000 
#
# Total GULP energy -297465.819734 kJ/mol
# GULP energy per Si atom -12394.409156 kJ/mol
# Density = 1.784231 g / cm^3
# Si number density = 17.883012 Si / 1000 Ang^3
#
#
#
# Elastic Constant Matrix: (Units=GPa)
#
#
# Indices 1 2 3 4 5 6 
#
# 1 132.8446 52.6625 42.5025 0.0000 -5.2356 0.0000
# 2 52.6625 101.6990 39.3343 0.0000 2.5147 0.0000
# 3 42.5025 39.3343 79.8804 0.0000 -4.0296 0.0000
# 4 0.0000 0.0000 0.0000 30.8331 0.0000 1.3905
# 5 -5.2356 2.5147 -4.0296 0.0000 18.3337 0.0000
# 6 0.0000 0.0000 0.0000 1.3905 0.0000 26.7081
#
#
#
# Elastic Compliance Matrix: (Units=1/GPa)
#
#
# Indices 1 2 3 4 5 6 
#
# 1 0.010342 -0.004139 -0.003324 0.000000 0.002790 0.000000
# 2 -0.004139 0.013969 -0.004887 0.000000 -0.004172 0.000000
# 3 -0.003324 -0.004887 0.016867 0.000000 0.003428 0.000000
# 4 0.000000 0.000000 0.000000 0.032509 0.000000 -0.001693
# 5 0.002790 -0.004172 0.003428 0.000000 0.056667 0.000000
# 6 0.000000 0.000000 0.000000 -0.001693 0.000000 0.037530
#
#
# Mechanical properties :
#
#
# Convention : Reuss Voigt Hill
#
# Bulk Modulus (GPa) = 60.68512 64.82474 62.75493
# Shear Modulus (GPa) = 25.24286 27.16995 26.20641
#
# Velocity S-wave (km/s) = 3.76114 3.90207 3.83225
# Velocity P-wave (km/s) = 7.27116 7.52526 7.39930
#
# Compressibility (1/GPa) = 0.01647850
#
# Stress axis : x y z
#
# Youngs Moduli (GPa) = 96.69640 71.58509 59.28833
#
# Poissons Ratio (x) = 0.29626 0.19707
# Poissons Ratio (y) = 0.40019 0.28975
# Poissons Ratio (z) = 0.32141 0.34985
#
# Static dielectric constant tensor:
#      x y z
#    x 3.614630 0.000000 0.046590 
#    y 0.000000 3.386160 0.000000 
#    z 0.046590 0.000000 3.314160 
# 
# 
# High freq. dielectric constant tensor:
#      x y z
#    x 1.682820 0.000000 0.002540 
#    y 0.000000 1.694950 0.000000 
#    z 0.002540 0.000000 1.672880 
# 
# From -- ./inp_files/274625.got.cif
#   From: 2010.06.25/outbox.cif.g09.slc.cpg/sg12_138_cif.got.tgz:274625.got - 2010.06.28 00:19:55.
