data_PCOD8086403
_publ_section_title
;
Structure prediction by ZEFSAII (Michael W. Deem and Ramdas Pophale) SiO2 
 PCOD8086403
Probable space group: C 2/M
;
_chemical_formula_sum "Si O2"
_cell_formula_units_Z 64
_cell_length_a 24.983302
_cell_length_b 9.402391
_cell_length_c 16.779769
_cell_angle_alpha 90.000000
_cell_angle_beta 61.757531
_cell_angle_gamma 90.000000
_cell_volume 3472.376707
_symmetry_space_group_name_H-M "C 2/M"
_symmetry_group_IT_number 12
_symmetry_cell_setting 'monoclinic'
loop_
_space_group_symop_operation_xyz
x,y,z
-x,y,-z
-x,-y,-z
x,-y,z
1/2+x,1/2+y,z
1/2-x,1/2+y,-z
1/2-x,1/2-y,-z
1/2+x,1/2-y,z
loop_
_atom_site_type_symbol
_atom_site_label
_atom_site_fract_x
_atom_site_fract_y
_atom_site_fract_z
Si Si1 0.301847 0.840423 0.358533
Si Si2 0.883382 0.838364 0.196242
Si Si3 0.518416 0.331534 0.748624
Si Si4 0.669544 0.665254 0.928323
Si Si5 0.396489 0.166008 0.425871
Si Si6 0.670096 0.663064 0.405491
Si Si7 0.210053 0.832391 0.201072
Si Si8 0.382638 0.331927 0.869566
O O1 0.325818 0.744218 0.270523
O O2 0.335836 0.808218 0.416882
O O3 0.229982 0.816531 0.418032
O O4 0.315368 0.000000 0.320726
O O5 0.946253 0.791391 0.194128
O O6 0.883903 0.815981 0.100367
O O7 0.870631 0.000000 0.227866
O O8 0.520924 0.500000 0.728717
O O9 0.547247 0.246867 0.654317
O O10 0.450291 0.273349 0.806925
O O11 0.687749 0.500000 0.924329
O O12 0.728448 0.751018 0.860879
O O13 0.643931 0.728979 0.028869
O O14 0.382842 0.236767 0.521429
O O15 0.412270 0.000000 0.425286
O O16 0.647526 0.500000 0.423802
O O17 0.684206 0.710630 0.305481
O O18 0.160119 0.783050 0.172216
O O19 0.223240 0.000000 0.187171
O O20 0.386527 0.500000 0.873854
#
# Coordination Sequence:
#
# PCOD8086403 Si02
#       8
#     8   8   8   8   8   8   8   8
#     4   9  17  30  47  71 103 135 163 201 249 301
#     4   9  17  28  48  77 105 134 164 203 253 299
#     4   9  18  35  54  72 101 138 174 209 245 294
#     4  10  19  32  52  80 108 131 164 210 258 303
#     4  10  20  32  50  75 102 131 166 208 256 303
#     4  10  19  31  49  73 100 132 169 205 249 303
#     4  10  20  35  54  76 103 135 171 209 250 299
#     4   9  19  35  55  76  99 134 177 214 247 291
#
# _framework density 18.431180000000001
#
# number of rings (size 3 to 8) (size 9 to 14) (size 15 to 20)
#    0.000    2.500    1.250    1.125    0.000    2.000 
#    0.000    4.375    0.000    3.750    0.000    4.375 
#    0.000    0.000    0.000    0.000    0.000    0.000 
#
# Total GULP energy -396716.121598 kJ/mol
# GULP energy per Si atom -12397.378800 kJ/mol
# Density = 1.838923 g / cm^3
# Si number density = 18.431180 Si / 1000 Ang^3
#
#
#
# Elastic Constant Matrix: (Units=GPa)
#
#
# Indices 1 2 3 4 5 6 
#
# 1 88.1386 32.1465 59.9973 0.0000 -9.9862 -0.0001
# 2 32.1465 55.3464 53.4421 0.0000 -7.8108 -0.0001
# 3 59.9973 53.4421 147.9333 0.0000 -10.9564 0.0000
# 4 0.0000 0.0000 0.0000 22.2397 0.0000 -3.7452
# 5 -9.9862 -7.8108 -10.9564 0.0000 16.6451 0.0000
# 6 -0.0001 -0.0001 0.0000 -3.7452 0.0000 19.0241
#
#
#
# Elastic Compliance Matrix: (Units=1/GPa)
#
#
# Indices 1 2 3 4 5 6 
#
# 1 0.016808 -0.004369 -0.004882 0.000000 0.004821 0.000000
# 2 -0.004369 0.029623 -0.008509 0.000000 0.005679 0.000000
# 3 -0.004882 -0.008509 0.011880 0.000000 0.000898 0.000000
# 4 0.000000 0.000000 0.000000 0.046506 0.000000 0.009156
# 5 0.004821 0.005679 0.000898 0.000000 0.066226 0.000000
# 6 0.000000 0.000000 0.000000 0.009156 0.000000 0.054367
#
#
# Mechanical properties :
#
#
# Convention : Reuss Voigt Hill
#
# Bulk Modulus (GPa) = 43.87366 64.73222 54.30294
# Shear Modulus (GPa) = 18.61999 21.30395 19.96197
#
# Velocity S-wave (km/s) = 3.18188 3.40349 3.29455
# Velocity P-wave (km/s) = 6.11186 7.11634 6.63314
#
# Compressibility (1/GPa) = 0.02279272
#
# Stress axis : x y z
#
# Youngs Moduli (GPa) = 59.49414 33.75710 84.17323
#
# Poissons Ratio (x) = 0.14747 0.41091
# Poissons Ratio (y) = 0.25991 0.71626
# Poissons Ratio (z) = 0.29043 0.28725
#
# Static dielectric constant tensor:
#      x y z
#    x 3.400590 0.000000 0.119630 
#    y 0.000000 3.249680 0.000000 
#    z 0.119630 0.000000 3.441750 
# 
# 
# High freq. dielectric constant tensor:
#      x y z
#    x 1.701810 0.000000 0.006350 
#    y 0.000000 1.698140 0.000000 
#    z 0.006350 0.000000 1.716630 
# 
# From -- ./inp_files/243767.got.cif
#   From: 2010.06.25/outbox.cif.g09.slc.cpg/sg12_122_cif.got.tgz:243767.got - 2010.06.28 00:19:55.
