data_PCOD8086019
_publ_section_title
;
Structure prediction by ZEFSAII (Michael W. Deem and Ramdas Pophale) SiO2 
 PCOD8086019
Probable space group: C 2/M
;
_chemical_formula_sum "Si O2"
_cell_formula_units_Z 48
_cell_length_a 24.338779
_cell_length_b 8.998800
_cell_length_c 14.258026
_cell_angle_alpha 90.000000
_cell_angle_beta 111.389428
_cell_angle_gamma 90.000000
_cell_volume 2907.702048
_symmetry_space_group_name_H-M "C 2/M"
_symmetry_group_IT_number 12
_symmetry_cell_setting 'monoclinic'
loop_
_space_group_symop_operation_xyz
x,y,z
-x,y,-z
-x,-y,-z
x,-y,z
1/2+x,1/2+y,z
1/2-x,1/2+y,-z
1/2-x,1/2-y,-z
1/2+x,1/2-y,z
loop_
_atom_site_type_symbol
_atom_site_label
_atom_site_fract_x
_atom_site_fract_y
_atom_site_fract_z
Si Si1 0.210423 0.672347 0.342939
Si Si2 0.559036 0.835679 0.975904
Si Si3 0.474295 0.173057 0.771201
Si Si4 0.834251 0.827274 0.501064
Si Si5 0.548128 0.172977 0.454827
Si Si6 0.876010 0.825163 0.832230
O O1 0.194415 0.500000 0.325978
O O2 0.175867 0.735500 0.410919
O O3 0.280345 0.699363 0.395557
O O4 0.187300 0.755259 0.235251
O O5 0.538005 0.786981 0.858143
O O6 0.587456 0.000000 0.991981
O O7 0.500000 0.835359 0.000000
O O8 0.606565 0.724633 0.051314
O O9 0.478451 0.208226 0.664072
O O10 0.423197 0.271486 0.784992
O O11 0.459471 0.000000 0.781684
O O12 0.893251 0.768027 0.488583
O O13 0.840020 0.000000 0.531034
O O14 0.500000 0.224828 0.500000
O O15 0.563773 0.000000 0.476028
O O16 0.871161 0.000000 0.827235
#
# Coordination Sequence:
#
# PCOD8086019 Si02
#       6
#     8   8   8   8   8   8
#     4  10  19  31  47  66  94 126 154 187 233 288
#     4   8  15  27  42  60  87 123 155 183 226 280
#     4   9  17  30  45  62  90 126 158 189 227 275
#     4  10  20  32  47  69  92 121 158 195 235 273
#     4  10  20  33  50  70  94 128 163 192 227 273
#     4  11  19  26  42  69  95 120 152 188 233 279
#
# _framework density 16.50788
#
# number of rings (size 3 to 8) (size 9 to 14) (size 15 to 20)
#    0.000    2.333    1.667    3.500    0.000    5.333 
#    0.000    0.000    0.000    0.000    0.000    1.167 
#    0.000    0.000    0.000    0.000    0.000    0.000 
#
# Total GULP energy -297541.264336 kJ/mol
# GULP energy per Si atom -12397.552681 kJ/mol
# Density = 1.647031 g / cm^3
# Si number density = 16.507880 Si / 1000 Ang^3
#
#
#
# Elastic Constant Matrix: (Units=GPa)
#
#
# Indices 1 2 3 4 5 6 
#
# 1 74.7404 41.4894 49.5005 0.0000 11.8425 0.0000
# 2 41.4894 110.5677 57.6502 0.0000 20.6858 0.0000
# 3 49.5005 57.6502 118.7194 0.0000 26.3216 0.0000
# 4 0.0000 0.0000 0.0000 22.4486 0.0000 7.6252
# 5 11.8425 20.6858 26.3216 0.0000 24.4296 0.0000
# 6 0.0000 0.0000 0.0000 7.6252 0.0000 20.2989
#
#
#
# Elastic Compliance Matrix: (Units=1/GPa)
#
#
# Indices 1 2 3 4 5 6 
#
# 1 0.019851 -0.004281 -0.006396 0.000000 0.000894 0.000000
# 2 -0.004281 0.013547 -0.003561 0.000000 -0.005559 0.000000
# 3 -0.006396 -0.003561 0.015061 0.000000 -0.010112 0.000000
# 4 0.000000 0.000000 0.000000 0.051062 0.000000 -0.019181
# 5 0.000894 -0.005559 -0.010112 0.000000 0.056103 0.000000
# 6 0.000000 0.000000 0.000000 -0.019181 0.000000 0.056469
#
#
# Mechanical properties :
#
#
# Convention : Reuss Voigt Hill
#
# Bulk Modulus (GPa) = 50.04252 66.81196 58.42724
# Shear Modulus (GPa) = 20.22405 23.79456 22.00930
#
# Velocity S-wave (km/s) = 3.50396 3.80070 3.65535
# Velocity P-wave (km/s) = 6.83743 7.73441 7.29971
#
# Compressibility (1/GPa) = 0.01998301
#
# Stress axis : x y z
#
# Youngs Moduli (GPa) = 50.37635 73.81450 66.39536
#
# Poissons Ratio (x) = 0.31600 0.42467
# Poissons Ratio (y) = 0.21566 0.23644
# Poissons Ratio (z) = 0.32221 0.26286
#
# Static dielectric constant tensor:
#      x y z
#    x 2.758540 0.000000 0.339350 
#    y 0.000000 3.102210 0.000000 
#    z 0.339350 0.000000 3.524510 
# 
# 
# High freq. dielectric constant tensor:
#      x y z
#    x 1.580480 0.000000 0.034530 
#    y 0.000000 1.640150 0.000000 
#    z 0.034530 0.000000 1.642980 
# 
# From -- ./inp_files/236856.got.cif
#   From: 2010.06.25/outbox.cif.g09.slc.cpg/sg12_119_cif.got.tgz:236856.got - 2010.06.28 00:19:55.
