data_PCOD8086237
_publ_section_title
;
Structure prediction by ZEFSAII (Michael W. Deem and Ramdas Pophale) SiO2 
 PCOD8086237
Probable space group: C 2/M
;
_chemical_formula_sum "Si O2"
_cell_formula_units_Z 48
_cell_length_a 20.034248
_cell_length_b 10.710405
_cell_length_c 24.456374
_cell_angle_alpha 90.000000
_cell_angle_beta 27.200064
_cell_angle_gamma 90.000000
_cell_volume 2398.729089
_symmetry_space_group_name_H-M "C 2/M"
_symmetry_group_IT_number 12
_symmetry_cell_setting 'monoclinic'
loop_
_space_group_symop_operation_xyz
x,y,z
-x,y,-z
-x,-y,-z
x,-y,z
1/2+x,1/2+y,z
1/2-x,1/2+y,-z
1/2-x,1/2-y,-z
1/2+x,1/2-y,z
loop_
_atom_site_type_symbol
_atom_site_label
_atom_site_fract_x
_atom_site_fract_y
_atom_site_fract_z
Si Si1 0.025380 0.861545 0.419329
Si Si2 0.885540 0.500000 0.004420
Si Si3 0.578281 0.750756 0.078289
Si Si4 0.431008 0.857949 0.681886
Si Si5 0.713449 0.000000 0.804047
Si Si6 0.604218 0.358235 0.877166
Si Si7 0.377991 0.858748 0.844126
O O1 0.969138 0.746177 0.422381
O O2 0.199376 0.876870 0.280230
O O3 0.000000 0.821638 0.500000
O O4 0.951444 0.000000 0.461353
O O5 0.848316 0.378983 0.996246
O O6 0.055934 0.500000 0.893567
O O7 0.787063 0.500000 0.130096
O O8 0.430070 0.714706 0.154401
O O9 0.543982 0.768985 0.167896
O O10 0.702250 0.646925 0.977854
O O11 0.271191 0.851201 0.772107
O O12 0.428015 0.818175 0.747240
O O13 0.492072 0.000000 0.629966
O O14 0.554244 0.500000 0.904777
O O15 0.500000 0.296725 0.000000
O O16 0.428154 0.000000 0.818189
#
# Coordination Sequence:
#
# PCOD8086237 Si02
#       7
#     8   4   8   8   4   8   8
#     4   9  19  35  52  76 109 134 173 220 269 313
#     4  11  20  28  46  80 108 129 173 204 252 314
#     4  11  20  29  45  68 103 146 174 208 245 312
#     4  10  19  33  54  75 103 137 176 223 259 313
#     4   9  19  30  48  74 109 137 158 216 264 310
#     4  10  19  31  48  71  99 138 174 208 258 309
#     4  10  20  34  44  66 106 145 179 207 253 309
#
# _framework density 20.010594999999999
#
# number of rings (size 3 to 8) (size 9 to 14) (size 15 to 20)
#    0.500    1.500    2.500    2.500    2.333    0.333 
#    0.000    0.000    0.000    0.000    0.000    4.667 
#    0.000    0.000    0.000    0.000    0.000    0.000 
#
# Total GULP energy -297388.879382 kJ/mol
# GULP energy per Si atom -12391.203308 kJ/mol
# Density = 1.996505 g / cm^3
# Si number density = 20.010595 Si / 1000 Ang^3
#
#
#
# Elastic Constant Matrix: (Units=GPa)
#
#
# Indices 1 2 3 4 5 6 
#
# 1 114.3093 43.0430 24.4780 -0.0005 35.6546 -0.0002
# 2 43.0430 107.2561 25.4155 -0.0005 34.6651 0.0001
# 3 24.4780 25.4155 50.8965 -0.0009 32.9474 0.0004
# 4 -0.0005 -0.0005 -0.0009 20.7581 0.0005 8.7808
# 5 35.6546 34.6651 32.9474 0.0005 36.5038 0.0000
# 6 -0.0002 0.0001 0.0004 8.7808 0.0000 30.0592
#
#
#
# Elastic Compliance Matrix: (Units=1/GPa)
#
#
# Indices 1 2 3 4 5 6 
#
# 1 0.013158 -0.001275 0.004436 0.000001 -0.015645 0.000000
# 2 -0.001275 0.013877 0.003387 0.000001 -0.014990 0.000000
# 3 0.004436 0.003387 0.049817 0.000005 -0.052513 -0.000002
# 4 0.000001 0.000001 0.000005 0.054966 -0.000007 -0.016056
# 5 -0.015645 -0.014990 -0.052513 -0.000007 0.104308 0.000003
# 6 0.000000 0.000000 -0.000002 -0.016056 0.000003 0.037958
#
#
# Mechanical properties :
#
#
# Convention : Reuss Voigt Hill
#
# Bulk Modulus (GPa) = 11.11742 50.92608 31.02175
# Shear Modulus (GPa) = 17.18389 29.43257 23.30823
#
# Velocity S-wave (km/s) = 2.93360 3.83933 3.41661
# Velocity P-wave (km/s) = 4.12826 6.72002 5.57679
#
# Compressibility (1/GPa) = 0.08994894
#
# Stress axis : x y z
#
# Youngs Moduli (GPa) = 75.99705 72.05974 20.07367
#
# Poissons Ratio (x) = 0.09190 -0.08905
# Poissons Ratio (y) = 0.09692 -0.06799
# Poissons Ratio (z) = -0.33715 -0.24408
#
# Static dielectric constant tensor:
#      x y z
#    x 3.541160 0.000000 0.363370 
#    y 0.000000 4.098760 0.000000 
#    z 0.363370 0.000000 3.173110 
# 
# 
# High freq. dielectric constant tensor:
#      x y z
#    x 1.768020 0.000000 0.034270 
#    y 0.000000 1.799940 0.000000 
#    z 0.034270 0.000000 1.724340 
# 
# From -- ./inp_files/346761.got.cif
#   From: 2010.06.25/outbox.cif.g09.slc.cpg/sg12_174_cif.got.tgz:346761.got - 2010.06.28 00:19:55.
