data_PCOD8086934
_publ_section_title
;
Structure prediction by ZEFSAII (Michael W. Deem and Ramdas Pophale) SiO2 
 PCOD8086934
Probable space group: C 2/M
;
_chemical_formula_sum "Si O2"
_cell_formula_units_Z 48
_cell_length_a 17.353723
_cell_length_b 22.731514
_cell_length_c 9.532262
_cell_angle_alpha 90.000000
_cell_angle_beta 49.540166
_cell_angle_gamma 90.000000
_cell_volume 2861.029608
_symmetry_space_group_name_H-M "C 2/M"
_symmetry_group_IT_number 12
_symmetry_cell_setting 'monoclinic'
loop_
_space_group_symop_operation_xyz
x,y,z
-x,y,-z
-x,-y,-z
x,-y,z
1/2+x,1/2+y,z
1/2-x,1/2+y,-z
1/2-x,1/2-y,-z
1/2+x,1/2-y,z
loop_
_atom_site_type_symbol
_atom_site_label
_atom_site_fract_x
_atom_site_fract_y
_atom_site_fract_z
Si Si1 0.565655 0.434480 0.793594
Si Si2 0.716421 0.336408 0.153717
Si Si3 0.617931 0.786146 0.542211
Si Si4 0.384986 0.217988 0.774370
Si Si5 0.790586 0.837056 0.509617
Si Si6 0.925002 0.935849 0.702164
O O1 0.611493 0.500000 0.775332
O O2 0.652291 0.390295 0.636340
O O3 0.482848 0.444028 0.775327
O O4 0.500000 0.408051 0.000000
O O5 0.634885 0.287880 0.198403
O O6 0.731956 0.346640 0.300514
O O7 0.674656 0.398179 0.147937
O O8 0.822177 0.320461 0.958251
O O9 0.647820 0.798429 0.345241
O O10 0.498146 0.795957 0.689510
O O11 0.682233 0.831589 0.559506
O O12 0.641865 0.721798 0.577371
O O13 0.000000 0.904441 0.500000
O O14 0.891747 0.000000 0.682016
#
# Coordination Sequence:
#
# PCOD8086934 Si02
#       6
#     8   8   8   8   8   8
#     4  10  21  34  50  76 105 133 165 204 252 300
#     4  10  19  31  52  75 100 130 166 204 250 295
#     4   9  19  34  49  71 102 132 168 201 246 295
#     4   9  19  33  50  72  99 135 166 203 245 295
#     4  10  19  33  50  74 101 131 165 207 248 295
#     4  10  19  32  52  76 101 130 162 202 252 302
#
# _framework density 16.777176999999998
#
# number of rings (size 3 to 8) (size 9 to 14) (size 15 to 20)
#    0.000    2.333    1.667    1.000    4.667    0.667 
#    6.000    0.000    0.000    1.000    0.000    4.667 
#    0.000    0.000    0.000    0.000    0.000    0.000 
#
# Total GULP energy -297337.662189 kJ/mol
# GULP energy per Si atom -12389.069258 kJ/mol
# Density = 1.673899 g / cm^3
# Si number density = 16.777177 Si / 1000 Ang^3
#
#
#
# Elastic Constant Matrix: (Units=GPa)
#
#
# Indices 1 2 3 4 5 6 
#
# 1 96.2416 43.6533 35.4797 0.0000 -7.5591 0.0000
# 2 43.6533 87.6706 51.8368 0.0000 -11.6210 0.0000
# 3 35.4797 51.8368 116.6919 0.0000 -3.2027 0.0000
# 4 0.0000 0.0000 0.0000 32.8104 0.0000 -7.9610
# 5 -7.5591 -11.6210 -3.2027 0.0000 15.4292 0.0000
# 6 0.0000 0.0000 0.0000 -7.9610 0.0000 28.8220
#
#
#
# Elastic Compliance Matrix: (Units=1/GPa)
#
#
# Indices 1 2 3 4 5 6 
#
# 1 0.013685 -0.005561 -0.001631 0.000000 0.002177 0.000000
# 2 -0.005561 0.019542 -0.006699 0.000000 0.010603 0.000000
# 3 -0.001631 -0.006699 0.011949 0.000000 -0.003364 0.000000
# 4 0.000000 0.000000 0.000000 0.032668 0.000000 0.009023
# 5 0.002177 0.010603 -0.003364 0.000000 0.073167 0.000000
# 6 0.000000 0.000000 0.000000 0.009023 0.000000 0.037188
#
#
# Mechanical properties :
#
#
# Convention : Reuss Voigt Hill
#
# Bulk Modulus (GPa) = 57.49151 62.50485 59.99818
# Shear Modulus (GPa) = 22.54504 26.72128 24.63316
#
# Velocity S-wave (km/s) = 3.66975 3.99521 3.83594
# Velocity P-wave (km/s) = 7.23175 7.65631 7.44706
#
# Compressibility (1/GPa) = 0.01739387
#
# Stress axis : x y z
#
# Youngs Moduli (GPa) = 73.07144 51.17218 83.69008
#
# Poissons Ratio (x) = 0.28459 0.13647
# Poissons Ratio (y) = 0.40638 0.56063
# Poissons Ratio (z) = 0.11916 0.34280
#
# Static dielectric constant tensor:
#      x y z
#    x 3.108080 0.000000 0.139780 
#    y 0.000000 3.173730 0.000000 
#    z 0.139780 0.000000 3.095890 
# 
# 
# High freq. dielectric constant tensor:
#      x y z
#    x 1.642050 0.000000 0.016270 
#    y 0.000000 1.630070 0.000000 
#    z 0.016270 0.000000 1.646650 
# 
# From -- ./inp_files/64884.got.cif
#   From: 2010.06.25/outbox.cif.g09.slc.cpg/sg12_33_cif.got.tgz:64884.got - 2010.06.28 00:19:55.
