data_PCOD8086149
_publ_section_title
;
Structure prediction by ZEFSAII (Michael W. Deem and Ramdas Pophale) SiO2 
 PCOD8086149
Probable space group: C 2/M
;
_chemical_formula_sum "Si O2"
_cell_formula_units_Z 64
_cell_length_a 28.878256
_cell_length_b 9.418689
_cell_length_c 14.149642
_cell_angle_alpha 90.000000
_cell_angle_beta 77.641660
_cell_angle_gamma 90.000000
_cell_volume 3759.456289
_symmetry_space_group_name_H-M "C 2/M"
_symmetry_group_IT_number 12
_symmetry_cell_setting 'monoclinic'
loop_
_space_group_symop_operation_xyz
x,y,z
-x,y,-z
-x,-y,-z
x,-y,z
1/2+x,1/2+y,z
1/2-x,1/2+y,-z
1/2-x,1/2-y,-z
1/2+x,1/2-y,z
loop_
_atom_site_type_symbol
_atom_site_label
_atom_site_fract_x
_atom_site_fract_y
_atom_site_fract_z
Si Si1 0.784633 0.656147 0.424598
Si Si2 0.790805 0.836153 0.095191
Si Si3 0.160110 0.164201 0.740082
Si Si4 0.018356 0.164495 0.391906
Si Si5 0.629488 0.844329 0.476152
Si Si6 0.698559 0.334655 0.121948
Si Si7 0.876707 0.832877 0.692306
Si Si8 0.922816 0.163256 0.356944
O O1 0.763222 0.500000 0.407597
O O2 0.750000 0.750000 0.500000
O O3 0.799009 0.741275 0.324738
O O4 0.830098 0.630768 0.466872
O O5 0.833992 0.807997 0.150292
O O6 0.743893 0.748327 0.143407
O O7 0.775581 0.000000 0.103766
O O8 0.810035 0.791827 0.983622
O O9 0.107296 0.206904 0.724102
O O10 0.170216 0.000000 0.711171
O O11 0.068733 0.225182 0.332164
O O12 0.000000 0.231829 0.500000
O O13 0.979639 0.187740 0.323797
O O14 0.026950 0.000000 0.407074
O O15 0.649523 0.754924 0.378763
O O16 0.589259 0.752687 0.544715
O O17 0.610120 0.000000 0.453340
O O18 0.710179 0.500000 0.127826
O O19 0.650349 0.294537 0.198658
O O20 0.873065 0.000000 0.673613
O O21 0.911709 0.000000 0.386024
#
# Coordination Sequence:
#
# PCOD8086149 Si02
#       8
#     8   8   8   8   8   8   8   8
#     4  10  21  33  44  63  93 126 158 192 229 277
#     4   9  18  34  52  70  95 122 153 197 246 287
#     4   9  18  31  49  69  90 122 157 193 237 280
#     4   9  15  26  47  70  92 123 161 197 228 268
#     4  10  20  31  43  64  95 125 154 191 234 271
#     4   9  19  33  50  72  94 121 158 197 238 286
#     4  10  19  31  48  69  93 125 161 195 232 278
#     4   9  16  30  49  67  90 123 163 191 221 278
#
# _framework density 17.023738000000002
#
# number of rings (size 3 to 8) (size 9 to 14) (size 15 to 20)
#    0.000    2.625    1.250    0.750    1.750    2.500 
#    0.000    1.250    0.000    0.750    0.000    5.250 
#    0.000    0.000    0.000   13.625    0.000   14.250 
#
# Total GULP energy -396436.471947 kJ/mol
# GULP energy per Si atom -12388.639748 kJ/mol
# Density = 1.698499 g / cm^3
# Si number density = 17.023738 Si / 1000 Ang^3
#
#
#
# Elastic Constant Matrix: (Units=GPa)
#
#
# Indices 1 2 3 4 5 6 
#
# 1 71.4385 18.4033 53.3139 0.0000 -2.4765 0.0000
# 2 18.4033 58.6533 31.0971 0.0000 -0.0655 0.0000
# 3 53.3139 31.0971 98.6244 0.0000 1.1693 0.0000
# 4 0.0000 0.0000 0.0000 17.3716 0.0000 -0.5359
# 5 -2.4765 -0.0655 1.1693 0.0000 26.6759 0.0000
# 6 0.0000 0.0000 0.0000 -0.5359 0.0000 14.9469
#
#
#
# Elastic Compliance Matrix: (Units=1/GPa)
#
#
# Indices 1 2 3 4 5 6 
#
# 1 0.023693 -0.000748 -0.012604 0.000000 0.002750 0.000000
# 2 -0.000748 0.020498 -0.006062 0.000000 0.000247 0.000000
# 3 -0.012604 -0.006062 0.018888 0.000000 -0.002013 0.000000
# 4 0.000000 0.000000 0.000000 0.057629 0.000000 0.002066
# 5 0.002750 0.000247 -0.002013 0.000000 0.037831 0.000000
# 6 0.000000 0.000000 0.000000 0.002066 0.000000 0.066977
#
#
# Mechanical properties :
#
#
# Convention : Reuss Voigt Hill
#
# Bulk Modulus (GPa) = 41.23612 48.26054 44.74833
# Shear Modulus (GPa) = 18.35343 20.19236 19.27290
#
# Velocity S-wave (km/s) = 3.28702 3.44776 3.36835
# Velocity P-wave (km/s) = 6.21943 6.65281 6.43977
#
# Compressibility (1/GPa) = 0.02425058
#
# Stress axis : x y z
#
# Youngs Moduli (GPa) = 42.20722 48.78474 52.94295
#
# Poissons Ratio (x) = 0.03650 0.66731
# Poissons Ratio (y) = 0.03158 0.32093
# Poissons Ratio (z) = 0.53199 0.29572
#
# Static dielectric constant tensor:
#      x y z
#    x 3.051990 0.000000 0.053600 
#    y 0.000000 3.424780 0.000000 
#    z 0.053600 0.000000 3.145630 
# 
# 
# High freq. dielectric constant tensor:
#      x y z
#    x 1.650490 0.000000 0.011880 
#    y 0.000000 1.650740 0.000000 
#    z 0.011880 0.000000 1.631860 
# 
# From -- ./inp_files/248312.got.cif
#   From: 2010.06.25/outbox.cif.g09.slc.cpg/sg12_125_cif.got.tgz:248312.got - 2010.06.28 00:19:55.
