data_PCOD8086344
_publ_section_title
;
Structure prediction by ZEFSAII (Michael W. Deem and Ramdas Pophale) SiO2 
 PCOD8086344
Probable space group: C 2/M
;
_chemical_formula_sum "Si O2"
_cell_formula_units_Z 56
_cell_length_a 19.135217
_cell_length_b 9.360122
_cell_length_c 30.044728
_cell_angle_alpha 90.000000
_cell_angle_beta 145.703857
_cell_angle_gamma 90.000000
_cell_volume 3032.175350
_symmetry_space_group_name_H-M "C 2/M"
_symmetry_group_IT_number 12
_symmetry_cell_setting 'monoclinic'
loop_
_space_group_symop_operation_xyz
x,y,z
-x,y,-z
-x,-y,-z
x,-y,z
1/2+x,1/2+y,z
1/2-x,1/2+y,-z
1/2-x,1/2-y,-z
1/2+x,1/2-y,z
loop_
_atom_site_type_symbol
_atom_site_label
_atom_site_fract_x
_atom_site_fract_y
_atom_site_fract_z
Si Si1 0.277578 0.161895 0.936164
Si Si2 0.856761 0.834335 0.653294
Si Si3 0.373493 0.663135 0.565595
Si Si4 0.900282 0.832109 0.483295
Si Si5 0.003987 0.836737 0.817356
Si Si6 0.367290 0.339491 0.907117
Si Si7 0.467455 0.166720 0.882598
O O1 0.151731 0.183156 0.897023
O O2 0.271882 0.266546 0.890893
O O3 0.291031 0.000000 0.925290
O O4 0.391306 0.198099 0.028602
O O5 0.930842 0.805762 0.645017
O O6 0.731542 0.743768 0.593083
O O7 0.952656 0.791591 0.742201
O O8 0.818624 0.000000 0.636692
O O9 0.333554 0.500000 0.541319
O O10 0.250000 0.750000 0.500000
O O11 0.450957 0.699514 0.560971
O O12 0.000000 0.772457 0.500000
O O13 0.880057 0.000000 0.464650
O O14 0.943946 0.731664 0.821684
O O15 0.968750 0.000000 0.810463
O O16 0.322921 0.500000 0.872586
O O17 0.371748 0.245550 0.864933
O O18 0.500000 0.340574 0.000000
O O19 0.435655 0.000000 0.865368
#
# Coordination Sequence:
#
# PCOD8086344 Si02
#       7
#     8   8   8   8   8   8   8
#     4   9  18  32  49  70  96 127 166 209 250 296
#     4   9  18  32  49  69  95 128 161 193 235 287
#     4   8  14  27  47  68  90 118 150 181 219 271
#     4   9  17  30  50  75 100 124 154 195 236 278
#     4  10  20  33  48  68  98 131 163 206 254 295
#     4   9  17  30  49  70  92 120 156 201 250 297
#     4  10  19  31  49  71  95 127 168 210 251 297
#
# _framework density 18.468589999999999
#
# number of rings (size 3 to 8) (size 9 to 14) (size 15 to 20)
#    0.000    2.857    0.000    1.286    0.000    3.714 
#    0.000    1.429    0.000    3.429    0.000    0.000 
#    0.000    0.000    0.000    0.000    0.000    0.000 
#
# Total GULP energy -346929.890228 kJ/mol
# GULP energy per Si atom -12390.353222 kJ/mol
# Density = 1.842655 g / cm^3
# Si number density = 18.468590 Si / 1000 Ang^3
#
#
#
# Elastic Constant Matrix: (Units=GPa)
#
#
# Indices 1 2 3 4 5 6 
#
# 1 123.0858 50.0565 29.3129 0.0000 -33.8043 0.0000
# 2 50.0565 82.2505 21.8964 0.0000 -19.4318 -0.0001
# 3 29.3129 21.8964 46.8171 0.0000 -22.1879 0.0000
# 4 0.0000 0.0000 0.0000 19.6484 0.0000 -4.3290
# 5 -33.8043 -19.4318 -22.1879 0.0000 30.1944 0.0000
# 6 0.0000 -0.0001 0.0000 -4.3290 0.0000 31.7782
#
#
#
# Elastic Compliance Matrix: (Units=1/GPa)
#
#
# Indices 1 2 3 4 5 6 
#
# 1 0.013570 -0.005438 -0.000632 0.000000 0.011229 0.000000
# 2 -0.005438 0.016919 -0.003427 0.000000 0.002282 0.000000
# 3 -0.000632 -0.003427 0.033721 0.000000 0.021867 0.000000
# 4 0.000000 0.000000 0.000000 0.052469 0.000000 0.007148
# 5 0.011229 0.002282 0.021867 0.000000 0.063228 0.000000
# 6 0.000000 0.000000 0.000000 0.007148 0.000000 0.032442
#
#
# Mechanical properties :
#
#
# Convention : Reuss Voigt Hill
#
# Bulk Modulus (GPa) = 22.11481 50.52054 36.31767
# Shear Modulus (GPa) = 20.29110 26.38339 23.33725
#
# Velocity S-wave (km/s) = 3.31823 3.78372 3.55860
# Velocity P-wave (km/s) = 5.16538 6.81931 6.04914
#
# Compressibility (1/GPa) = 0.04521858
#
# Stress axis : x y z
#
# Youngs Moduli (GPa) = 73.69149 59.10639 29.65483
#
# Poissons Ratio (x) = 0.32140 0.01873
# Poissons Ratio (y) = 0.40070 0.10162
# Poissons Ratio (z) = 0.04654 0.20253
#
# Static dielectric constant tensor:
#      x y z
#    x 3.671680 0.000000 -0.450180 
#    y 0.000000 3.499320 0.000000 
#    z -0.450180 0.000000 3.113060 
# 
# 
# High freq. dielectric constant tensor:
#      x y z
#    x 1.722390 0.000000 -0.027480 
#    y 0.000000 1.720100 0.000000 
#    z -0.027480 0.000000 1.675010 
# 
# From -- ./inp_files/280434.got.cif
#   From: 2010.06.25/outbox.cif.g09.slc.cpg/sg12_141_cif.got.tgz:280434.got - 2010.06.28 00:19:55.
