data_PCOD8086151
_publ_section_title
;
Structure prediction by ZEFSAII (Michael W. Deem and Ramdas Pophale) SiO2 
 PCOD8086151
Probable space group: C 2/M
;
_chemical_formula_sum "Si O2"
_cell_formula_units_Z 64
_cell_length_a 28.173774
_cell_length_b 9.069136
_cell_length_c 15.474432
_cell_angle_alpha 90.000000
_cell_angle_beta 91.458444
_cell_angle_gamma 90.000000
_cell_volume 3952.618915
_symmetry_space_group_name_H-M "C 2/M"
_symmetry_group_IT_number 12
_symmetry_cell_setting 'monoclinic'
loop_
_space_group_symop_operation_xyz
x,y,z
-x,y,-z
-x,-y,-z
x,-y,z
1/2+x,1/2+y,z
1/2-x,1/2+y,-z
1/2-x,1/2-y,-z
1/2+x,1/2-y,z
loop_
_atom_site_type_symbol
_atom_site_label
_atom_site_fract_x
_atom_site_fract_y
_atom_site_fract_z
Si Si1 0.940493 0.828548 0.159596
Si Si2 0.944604 0.672170 0.492681
Si Si3 0.103879 0.169667 0.664424
Si Si4 0.800461 0.832011 0.418759
Si Si5 0.394580 0.674681 0.650398
Si Si6 0.556361 0.166462 0.009025
Si Si7 0.049321 0.827493 0.177999
Si Si8 0.694458 0.829099 0.404683
O O1 0.907205 0.783851 0.238043
O O2 0.921442 0.742561 0.074710
O O3 0.994308 0.783534 0.186009
O O4 0.937468 0.000000 0.137244
O O5 0.933632 0.500000 0.502824
O O6 0.926234 0.727000 0.399606
O O7 0.918054 0.760044 0.566091
O O8 0.000000 0.706865 0.500000
O O9 0.160237 0.191471 0.653323
O O10 0.088561 0.000000 0.647539
O O11 0.748513 0.798761 0.376364
O O12 0.812001 0.721420 0.496735
O O13 0.801818 0.000000 0.454731
O O14 0.393422 0.500000 0.641461
O O15 0.424063 0.726748 0.734925
O O16 0.341065 0.736584 0.657600
O O17 0.574776 0.000000 0.013688
O O18 0.500000 0.177381 0.000000
O O19 0.573114 0.247787 0.096876
O O20 0.055794 0.000000 0.163617
O O21 0.680880 0.000000 0.398010
#
# Coordination Sequence:
#
# PCOD8086151 Si02
#       8
#     8   8   8   8   8   8   8   8
#     4   9  17  30  48  69  93 122 156 192 230 274
#     4  11  23  34  44  64  96 130 161 194 233 276
#     4  10  19  32  50  70  92 124 163 196 230 277
#     4   9  18  32  49  69  92 122 159 199 239 283
#     4  11  21  33  49  69  93 125 164 198 234 281
#     4   9  17  29  46  68  93 121 152 189 233 277
#     4   9  18  31  47  67  92 123 158 194 229 273
#     4  10  19  31  48  69  94 122 156 199 246 283
#
# _framework density 16.191796
#
# number of rings (size 3 to 8) (size 9 to 14) (size 15 to 20)
#    0.000    2.250    1.250    2.250    0.000    5.500 
#    0.000    2.500    0.000    0.000    0.000    0.875 
#    0.000    0.000    0.000    0.000    0.000    0.000 
#
# Total GULP energy -396833.756573 kJ/mol
# GULP energy per Si atom -12401.054893 kJ/mol
# Density = 1.615494 g / cm^3
# Si number density = 16.191796 Si / 1000 Ang^3
#
#
#
# Elastic Constant Matrix: (Units=GPa)
#
#
# Indices 1 2 3 4 5 6 
#
# 1 80.4278 32.8726 38.6714 0.0000 -11.3183 0.0000
# 2 32.8726 63.6513 36.0827 0.0000 -4.4840 0.0000
# 3 38.6714 36.0827 94.5354 0.0000 -17.2192 0.0000
# 4 0.0000 0.0000 0.0000 16.7829 0.0000 3.0322
# 5 -11.3183 -4.4840 -17.2192 0.0000 14.8658 0.0000
# 6 0.0000 0.0000 0.0000 3.0322 0.0000 21.1970
#
#
#
# Elastic Compliance Matrix: (Units=1/GPa)
#
#
# Indices 1 2 3 4 5 6 
#
# 1 0.017903 -0.006825 -0.003309 0.000000 0.007739 0.000000
# 2 -0.006825 0.022801 -0.007103 0.000000 -0.006547 0.000000
# 3 -0.003309 -0.007103 0.017482 0.000000 0.015588 0.000000
# 4 0.000000 0.000000 0.000000 0.061165 0.000000 -0.008750
# 5 0.007739 -0.006547 0.015588 0.000000 0.089242 0.000000
# 6 0.000000 0.000000 0.000000 -0.008750 0.000000 0.048428
#
#
# Mechanical properties :
#
#
# Convention : Reuss Voigt Hill
#
# Bulk Modulus (GPa) = 42.17333 50.42978 46.30155
# Shear Modulus (GPa) = 16.70006 19.30164 18.00085
#
# Velocity S-wave (km/s) = 3.21501 3.45637 3.33787
# Velocity P-wave (km/s) = 6.31541 6.86597 6.59644
#
# Compressibility (1/GPa) = 0.02371167
#
# Stress axis : x y z
#
# Youngs Moduli (GPa) = 55.85590 43.85787 57.20155
#
# Poissons Ratio (x) = 0.29934 0.18927
# Poissons Ratio (y) = 0.38122 0.40632
# Poissons Ratio (z) = 0.18482 0.31153
#
# Static dielectric constant tensor:
#      x y z
#    x 3.124980 0.000000 0.003110 
#    y 0.000000 3.142310 0.000000 
#    z 0.003110 0.000000 3.017020 
# 
# 
# High freq. dielectric constant tensor:
#      x y z
#    x 1.605100 0.000000 -0.003410 
#    y 0.000000 1.631380 0.000000 
#    z -0.003410 0.000000 1.607180 
# 
# From -- ./inp_files/248367.got.cif
#   From: 2010.06.25/outbox.cif.g09.slc.cpg/sg12_125_cif.got.tgz:248367.got - 2010.06.28 00:19:55.
