data_PCOD8086299
_publ_section_title
;
Structure prediction by ZEFSAII (Michael W. Deem and Ramdas Pophale) SiO2 
 PCOD8086299
Probable space group: C 2/M
;
_chemical_formula_sum "Si O2"
_cell_formula_units_Z 64
_cell_length_a 30.110300
_cell_length_b 8.941593
_cell_length_c 15.035812
_cell_angle_alpha 90.000000
_cell_angle_beta 78.341199
_cell_angle_gamma 90.000000
_cell_volume 3964.632554
_symmetry_space_group_name_H-M "C 2/M"
_symmetry_group_IT_number 12
_symmetry_cell_setting 'monoclinic'
loop_
_space_group_symop_operation_xyz
x,y,z
-x,y,-z
-x,-y,-z
x,-y,z
1/2+x,1/2+y,z
1/2-x,1/2+y,-z
1/2-x,1/2-y,-z
1/2+x,1/2-y,z
loop_
_atom_site_type_symbol
_atom_site_label
_atom_site_fract_x
_atom_site_fract_y
_atom_site_fract_z
Si Si1 0.190545 0.324249 0.885288
Si Si2 0.055416 0.176649 0.060730
Si Si3 0.347608 0.676403 0.926895
Si Si4 0.685787 0.675607 0.584275
Si Si5 0.456969 0.322799 0.134316
Si Si6 0.625765 0.176876 0.752264
Si Si7 0.213643 0.324718 0.398911
Si Si8 0.710184 0.324323 0.217763
O O1 0.187475 0.500000 0.901160
O O2 0.154971 0.269437 0.825421
O O3 0.240305 0.274457 0.834622
O O4 0.181057 0.246768 0.982341
O O5 0.100309 0.235530 0.092891
O O6 0.009407 0.226480 0.130174
O O7 0.054720 0.000000 0.056215
O O8 0.056287 0.234059 0.958969
O O9 0.345539 0.500000 0.941547
O O10 0.326146 0.723060 0.841930
O O11 0.677429 0.500000 0.582951
O O12 0.645731 0.751547 0.655349
O O13 0.733434 0.715860 0.611496
O O14 0.684417 0.741775 0.485776
O O15 0.449997 0.500000 0.148596
O O16 0.425499 0.235840 0.216782
O O17 0.626514 0.000000 0.741623
O O18 0.204897 0.500000 0.410816
O O19 0.196628 0.265715 0.311107
O O20 0.708888 0.500000 0.239263
#
# Coordination Sequence:
#
# PCOD8086299 Si02
#       8
#     8   8   8   8   8   8   8   8
#     4  10  20  31  42  63  98 132 160 195 234 271
#     4   8  15  28  46  68  90 119 160 204 239 273
#     4  10  19  31  49  68  90 126 170 204 232 272
#     4  10  20  33  51  71  93 123 158 194 235 281
#     4   9  16  29  48  66  91 123 158 198 240 283
#     4  11  20  30  46  70  99 127 156 192 235 284
#     4  10  20  33  50  71  94 123 157 196 236 278
#     4  10  20  33  47  66  95 130 164 198 233 275
#
# _framework density 16.142731999999999
#
# number of rings (size 3 to 8) (size 9 to 14) (size 15 to 20)
#    0.000    2.250    2.500    2.250    0.000    2.500 
#    0.000    1.875    0.000    0.000    0.000    0.875 
#    0.000    7.000    0.000    0.000    0.000    0.000 
#
# Total GULP energy -396815.529587 kJ/mol
# GULP energy per Si atom -12400.485300 kJ/mol
# Density = 1.610599 g / cm^3
# Si number density = 16.142732 Si / 1000 Ang^3
#
#
#
# Elastic Constant Matrix: (Units=GPa)
#
#
# Indices 1 2 3 4 5 6 
#
# 1 93.1396 29.1796 60.2386 0.0000 -9.6750 0.0000
# 2 29.1796 50.8450 45.8996 0.0000 -6.6191 0.0000
# 3 60.2386 45.8996 124.3724 0.0000 -10.2293 0.0000
# 4 0.0000 0.0000 0.0000 29.9129 0.0000 -3.6730
# 5 -9.6750 -6.6191 -10.2293 0.0000 25.7675 0.0000
# 6 0.0000 0.0000 0.0000 -3.6730 0.0000 18.1375
#
#
#
# Elastic Compliance Matrix: (Units=1/GPa)
#
#
# Indices 1 2 3 4 5 6 
#
# 1 0.016169 -0.003086 -0.006469 0.000000 0.002710 0.000000
# 2 -0.003086 0.030368 -0.009475 0.000000 0.002880 0.000000
# 3 -0.006469 -0.009475 0.014752 0.000000 0.000993 0.000000
# 4 0.000000 0.000000 0.000000 0.034283 0.000000 0.006943
# 5 0.002710 0.002880 0.000993 0.000000 0.040960 0.000000
# 6 0.000000 0.000000 0.000000 0.006943 0.000000 0.056540
#
#
# Mechanical properties :
#
#
# Convention : Reuss Voigt Hill
#
# Bulk Modulus (GPa) = 43.05394 59.88805 51.47099
# Shear Modulus (GPa) = 20.93126 23.63287 22.28207
#
# Velocity S-wave (km/s) = 3.60479 3.83037 3.71929
# Velocity P-wave (km/s) = 6.63737 7.53272 7.09918
#
# Compressibility (1/GPa) = 0.02322668
#
# Stress axis : x y z
#
# Youngs Moduli (GPa) = 61.84609 32.92985 67.78563
#
# Poissons Ratio (x) = 0.10163 0.43854
# Poissons Ratio (y) = 0.19088 0.64230
# Poissons Ratio (z) = 0.40011 0.31202
#
# Static dielectric constant tensor:
#      x y z
#    x 3.241940 0.000000 -0.031600 
#    y 0.000000 2.902570 0.000000 
#    z -0.031600 0.000000 2.937480 
# 
# 
# High freq. dielectric constant tensor:
#      x y z
#    x 1.606380 0.000000 -0.011720 
#    y 0.000000 1.614240 0.000000 
#    z -0.011720 0.000000 1.608220 
# 
# From -- ./inp_files/248234.got.cif
#   From: 2010.06.25/outbox.cif.g09.slc.cpg/sg12_125_cif.got.tgz:248234.got - 2010.06.28 00:19:55.
