data_PCOD8086899
_publ_section_title
;
Structure prediction by ZEFSAII (Michael W. Deem and Ramdas Pophale) SiO2 
 PCOD8086899
Probable space group: C 2/M
;
_chemical_formula_sum "Si O2"
_cell_formula_units_Z 56
_cell_length_a 14.778961
_cell_length_b 18.719255
_cell_length_c 11.826520
_cell_angle_alpha 90.000000
_cell_angle_beta 61.726707
_cell_angle_gamma 90.000000
_cell_volume 2881.486330
_symmetry_space_group_name_H-M "C 2/M"
_symmetry_group_IT_number 12
_symmetry_cell_setting 'monoclinic'
loop_
_space_group_symop_operation_xyz
x,y,z
-x,y,-z
-x,-y,-z
x,-y,z
1/2+x,1/2+y,z
1/2-x,1/2+y,-z
1/2-x,1/2-y,-z
1/2+x,1/2-y,z
loop_
_atom_site_type_symbol
_atom_site_label
_atom_site_fract_x
_atom_site_fract_y
_atom_site_fract_z
Si Si1 0.224346 0.417181 0.085189
Si Si2 0.621619 0.577623 0.417838
Si Si3 0.403637 0.188971 0.974526
Si Si4 0.032743 0.215089 0.743935
Si Si5 0.227152 0.786485 0.791599
Si Si6 0.908833 0.077810 0.811692
Si Si7 0.163962 0.776410 0.469170
O O1 0.196128 0.500000 0.135093
O O2 0.137531 0.385800 0.051550
O O3 0.239287 0.364782 0.184155
O O4 0.333409 0.415090 0.960851
O O5 0.500000 0.588479 0.500000
O O6 0.655275 0.500000 0.444608
O O7 0.654429 0.586268 0.267443
O O8 0.680007 0.638054 0.453057
O O9 0.442899 0.234865 0.844518
O O10 0.691546 0.232689 0.913045
O O11 0.500000 0.173620 0.000000
O O12 0.999396 0.133558 0.766879
O O13 0.132790 0.213637 0.762027
O O14 0.056872 0.239441 0.599496
O O15 0.326659 0.757294 0.662234
O O16 0.962481 0.000000 0.781366
O O17 0.250000 0.750000 0.500000
#
# Coordination Sequence:
#
# PCOD8086899 Si02
#       7
#     8   8   8   8   8   8   8
#     4  11  23  37  57  84 115 150 186 231 287 337
#     4  10  19  31  51  80 110 141 178 227 284 336
#     4  10  21  38  60  81 109 148 192 235 280 330
#     4  10  20  35  55  84 112 149 188 230 280 334
#     4  10  21  36  57  83 115 147 189 236 281 329
#     4  10  20  33  54  86 117 146 180 227 290 348
#     4  10  21  35  54  82 114 149 191 229 279 335
#
# _framework density 19.434415000000001
#
# number of rings (size 3 to 8) (size 9 to 14) (size 15 to 20)
#    0.000    1.857    2.857    1.286    2.000    0.857 
#    0.000    3.571    0.000    6.857    0.000    0.000 
#    0.000    0.000    0.000    0.000    0.000    0.000 
#
# Total GULP energy -346920.359055 kJ/mol
# GULP energy per Si atom -12390.012823 kJ/mol
# Density = 1.939018 g / cm^3
# Si number density = 19.434415 Si / 1000 Ang^3
#
#
#
# Elastic Constant Matrix: (Units=GPa)
#
#
# Indices 1 2 3 4 5 6 
#
# 1 24.4510 38.8142 17.9552 0.0000 -0.6171 0.0000
# 2 38.8142 154.9448 60.6861 0.0000 3.3464 0.0000
# 3 17.9552 60.6861 145.0406 0.0000 -2.0428 0.0000
# 4 0.0000 0.0000 0.0000 28.3642 0.0000 2.5053
# 5 -0.6171 3.3464 -2.0428 0.0000 16.6427 0.0000
# 6 0.0000 0.0000 0.0000 2.5053 0.0000 34.1994
#
#
#
# Elastic Compliance Matrix: (Units=1/GPa)
#
#
# Indices 1 2 3 4 5 6 
#
# 1 0.068729 -0.016792 -0.001401 0.000000 0.005753 0.000000
# 2 -0.016792 0.011885 -0.002942 0.000000 -0.003374 0.000000
# 3 -0.001401 -0.002942 0.008321 0.000000 0.001561 0.000000
# 4 0.000000 0.000000 0.000000 0.035485 0.000000 -0.002600
# 5 0.005753 -0.003374 0.001561 0.000000 0.061170 0.000000
# 6 0.000000 0.000000 0.000000 -0.002600 0.000000 0.029431
#
#
# Mechanical properties :
#
#
# Convention : Reuss Voigt Hill
#
# Bulk Modulus (GPa) = 21.42947 62.14970 41.78958
# Shear Modulus (GPa) = 18.32537 29.63997 23.98267
#
# Velocity S-wave (km/s) = 3.07405 3.90953 3.51669
# Velocity P-wave (km/s) = 4.86315 7.24070 6.16758
#
# Compressibility (1/GPa) = 0.04666472
#
# Stress axis : x y z
#
# Youngs Moduli (GPa) = 14.54999 84.13657 120.17946
#
# Poissons Ratio (x) = 1.41284 0.16839
# Poissons Ratio (y) = 0.24433 0.35353
# Poissons Ratio (z) = 0.02039 0.24750
#
# Static dielectric constant tensor:
#      x y z
#    x 3.187270 0.000000 -0.002130 
#    y 0.000000 3.759050 0.000000 
#    z -0.002130 0.000000 4.374410 
# 
# 
# High freq. dielectric constant tensor:
#      x y z
#    x 1.727890 0.000000 0.004580 
#    y 0.000000 1.755320 0.000000 
#    z 0.004580 0.000000 1.774440 
# 
# From -- ./inp_files/146012.got.cif
#   From: 2010.06.25/outbox.cif.g09.slc.cpg/sg12_74_cif.got.tgz:146012.got - 2010.06.28 00:19:55.
