data_PCOD8086175
_publ_section_title
;
Structure prediction by ZEFSAII (Michael W. Deem and Ramdas Pophale) SiO2 
 PCOD8086175
Probable space group: C 2/M
;
_chemical_formula_sum "Si O2"
_cell_formula_units_Z 64
_cell_length_a 30.031764
_cell_length_b 8.959906
_cell_length_c 36.201340
_cell_angle_alpha 90.000000
_cell_angle_beta 156.077395
_cell_angle_gamma 90.000000
_cell_volume 3950.046593
_symmetry_space_group_name_H-M "C 2/M"
_symmetry_group_IT_number 12
_symmetry_cell_setting 'monoclinic'
loop_
_space_group_symop_operation_xyz
x,y,z
-x,y,-z
-x,-y,-z
x,-y,z
1/2+x,1/2+y,z
1/2-x,1/2+y,-z
1/2-x,1/2-y,-z
1/2+x,1/2-y,z
loop_
_atom_site_type_symbol
_atom_site_label
_atom_site_fract_x
_atom_site_fract_y
_atom_site_fract_z
Si Si1 0.562167 0.323021 0.121187
Si Si2 0.683847 0.676804 0.078065
Si Si3 0.878271 0.176649 0.751946
Si Si4 0.080586 0.826451 0.613833
Si Si5 0.656809 0.325771 0.590978
Si Si6 0.250910 0.323746 0.791087
Si Si7 0.733693 0.324766 0.930926
Si Si8 0.079489 0.675289 0.869632
O O1 0.565236 0.500000 0.122267
O O2 0.592668 0.265135 0.185002
O O3 0.649513 0.257472 0.158128
O O4 0.441520 0.265809 0.018822
O O5 0.690323 0.500000 0.076425
O O6 0.732792 0.725889 0.154440
O O7 0.755649 0.759346 0.101842
O O8 0.755555 0.229126 0.649006
O O9 0.960941 0.252227 0.785900
O O10 0.888040 0.000000 0.755806
O O11 0.134409 0.774957 0.616038
O O12 0.134997 0.737865 0.688791
O O13 0.950815 0.791797 0.515104
O O14 0.101683 0.000000 0.635864
O O15 0.686638 0.500000 0.612128
O O16 0.249435 0.500000 0.786610
O O17 0.711960 0.500000 0.912863
O O18 0.629508 0.246593 0.870687
O O19 0.843542 0.285821 0.037081
O O20 0.067193 0.500000 0.854364
#
# Coordination Sequence:
#
# PCOD8086175 Si02
#       8
#     8   8   8   8   8   8   8   8
#     4   9  17  29  44  66  97 131 166 198 231 276
#     4  10  19  32  49  67  96 134 168 201 239 285
#     4  11  19  29  49  74  98 128 162 199 241 285
#     4   9  18  32  48  66  93 128 163 203 246 287
#     4   9  18  32  48  67  94 128 162 198 247 295
#     4  10  19  31  48  70  95 130 171 205 239 279
#     4  10  20  33  49  70  95 124 163 205 241 281
#     4  10  20  33  50  70  96 127 159 197 245 293
#
# _framework density 16.202341000000001
#
# number of rings (size 3 to 8) (size 9 to 14) (size 15 to 20)
#    0.000    2.250    2.500    2.250    0.000    3.500 
#    0.000    1.875    0.000    1.500    0.000    0.875 
#    0.000    0.000    0.000    0.000    0.000    0.000 
#
# Total GULP energy -396870.046848 kJ/mol
# GULP energy per Si atom -12402.188964 kJ/mol
# Density = 1.616546 g / cm^3
# Si number density = 16.202341 Si / 1000 Ang^3
#
#
#
# Elastic Constant Matrix: (Units=GPa)
#
#
# Indices 1 2 3 4 5 6 
#
# 1 113.7957 43.5474 59.8712 -0.0020 10.0864 0.0001
# 2 43.5474 51.4679 35.4029 0.0110 7.2155 -0.0240
# 3 59.8712 35.4029 104.2447 0.0043 6.3899 -0.0012
# 4 -0.0020 0.0110 0.0043 26.0927 -0.0002 1.8966
# 5 10.0864 7.2155 6.3899 -0.0002 25.4176 -0.0002
# 6 0.0001 -0.0240 -0.0012 1.8966 -0.0002 25.9237
#
#
#
# Elastic Compliance Matrix: (Units=1/GPa)
#
#
# Indices 1 2 3 4 5 6 
#
# 1 0.015323 -0.008741 -0.005699 0.000006 -0.002167 -0.000009
# 2 -0.008741 0.031009 -0.005265 -0.000015 -0.004011 0.000030
# 3 -0.005699 -0.005265 0.014650 0.000000 0.000073 -0.000004
# 4 0.000006 -0.000015 0.000000 0.038530 0.000002 -0.002819
# 5 -0.002167 -0.004011 0.000073 0.000002 0.041323 -0.000004
# 6 -0.000009 0.000030 -0.000004 -0.002819 -0.000004 0.038781
#
#
# Mechanical properties :
#
#
# Convention : Reuss Voigt Hill
#
# Bulk Modulus (GPa) = 46.35746 60.79458 53.57602
# Shear Modulus (GPa) = 22.10263 24.19926 23.15095
#
# Velocity S-wave (km/s) = 3.69746 3.86886 3.78413
# Velocity P-wave (km/s) = 6.84851 7.58690 7.22714
#
# Compressibility (1/GPa) = 0.02157150
#
# Stress axis : x y z
#
# Youngs Moduli (GPa) = 65.25995 32.24821 68.26078
#
# Poissons Ratio (x) = 0.28189 0.38904
# Poissons Ratio (y) = 0.57045 0.35940
# Poissons Ratio (z) = 0.37193 0.16979
#
# Static dielectric constant tensor:
#      x y z
#    x 2.975690 0.000000 0.071640 
#    y 0.000000 2.900100 -0.000010 
#    z 0.071640 -0.000010 2.992610 
# 
# 
# High freq. dielectric constant tensor:
#      x y z
#    x 1.607690 0.000000 0.012110 
#    y 0.000000 1.617000 0.000000 
#    z 0.012110 0.000000 1.609940 
# 
# From -- ./inp_files/248249.got.cif
#   From: 2010.06.25/outbox.cif.g09.slc.cpg/sg12_125_cif.got.tgz:248249.got - 2010.06.28 00:19:55.
