data_PCOD8086754
_publ_section_title
;
Structure prediction by ZEFSAII (Michael W. Deem and Ramdas Pophale) SiO2 
 PCOD8086754
Probable space group: C 2/M
;
_chemical_formula_sum "Si O2"
_cell_formula_units_Z 48
_cell_length_a 17.171647
_cell_length_b 17.283216
_cell_length_c 16.147049
_cell_angle_alpha 90.000000
_cell_angle_beta 34.215986
_cell_angle_gamma 90.000000
_cell_volume 2694.689069
_symmetry_space_group_name_H-M "C 2/M"
_symmetry_group_IT_number 12
_symmetry_cell_setting 'monoclinic'
loop_
_space_group_symop_operation_xyz
x,y,z
-x,y,-z
-x,-y,-z
x,-y,z
1/2+x,1/2+y,z
1/2-x,1/2+y,-z
1/2-x,1/2-y,-z
1/2+x,1/2-y,z
loop_
_atom_site_type_symbol
_atom_site_label
_atom_site_fract_x
_atom_site_fract_y
_atom_site_fract_z
Si Si1 0.825282 0.411325 0.815986
Si Si2 0.352181 0.795750 0.641972
Si Si3 0.915646 0.704096 0.149515
Si Si4 0.246719 0.585845 0.400316
Si Si5 0.582493 0.087695 0.703719
Si Si6 0.479343 0.369517 0.920719
O O1 0.842463 0.500000 0.770303
O O2 0.854342 0.351938 0.717792
O O3 0.933374 0.393838 0.794090
O O4 0.668087 0.397198 0.984465
O O5 0.500000 0.753377 0.500000
O O6 0.233184 0.731964 0.754101
O O7 0.333826 0.849479 0.578661
O O8 0.892295 0.643290 0.241782
O O9 0.003861 0.777390 0.104253
O O10 0.000000 0.664536 0.000000
O O11 0.190739 0.500000 0.427132
O O12 0.210671 0.601831 0.528112
O O13 0.409583 0.588813 0.236161
O O14 0.584274 0.000000 0.735027
O O15 0.500000 0.392528 0.000000
#
# Coordination Sequence:
#
# PCOD8086754 Si02
#       6
#     8   8   8   8   8   8
#     4  11  20  33  53  85 117 142 178 219 265 325
#     4  11  20  33  54  84 113 146 177 213 275 326
#     4  10  21  41  57  75 108 143 191 225 269 327
#     4  10  19  31  50  79 115 147 177 211 264 327
#     4  10  23  38  56  81 107 143 185 231 273 312
#     4  10  19  32  51  84 113 152 177 207 267 328
#
# _framework density 17.812816000000002
#
# number of rings (size 3 to 8) (size 9 to 14) (size 15 to 20)
#    0.000    1.667    6.667    1.000    0.000    5.000 
#    0.000    0.000    0.000    0.500    0.000    0.000 
#    0.000    0.000    0.000    0.000    0.000    0.000 
#
# Total GULP energy -297485.056272 kJ/mol
# GULP energy per Si atom -12395.210678 kJ/mol
# Density = 1.777227 g / cm^3
# Si number density = 17.812816 Si / 1000 Ang^3
#
#
#
# Elastic Constant Matrix: (Units=GPa)
#
#
# Indices 1 2 3 4 5 6 
#
# 1 41.0184 31.1397 53.5098 0.0007 -2.6670 -0.0005
# 2 31.1397 62.1196 41.8568 0.0000 8.9982 -0.0001
# 3 53.5098 41.8568 156.1929 0.0007 -11.0288 -0.0008
# 4 0.0007 0.0000 0.0007 22.3308 -0.0011 9.0651
# 5 -2.6670 8.9982 -11.0288 -0.0011 32.7005 0.0009
# 6 -0.0005 -0.0001 -0.0008 9.0651 0.0009 23.5039
#
#
#
# Elastic Compliance Matrix: (Units=1/GPa)
#
#
# Indices 1 2 3 4 5 6 
#
# 1 0.059291 -0.020924 -0.014298 -0.000001 0.005771 0.000001
# 2 -0.020924 0.028923 -0.001296 0.000000 -0.010103 0.000000
# 3 -0.014298 -0.001296 0.011873 0.000000 0.003195 0.000000
# 4 -0.000001 0.000000 0.000000 0.053094 0.000002 -0.020478
# 5 0.005771 -0.010103 0.003195 0.000002 0.034909 -0.000002
# 6 0.000001 0.000000 0.000000 -0.020478 -0.000002 0.050444
#
#
# Mechanical properties :
#
#
# Convention : Reuss Voigt Hill
#
# Bulk Modulus (GPa) = 36.96468 56.92704 46.94586
# Shear Modulus (GPa) = 15.59639 24.56202 20.07920
#
# Velocity S-wave (km/s) = 2.96222 3.71738 3.36107
# Velocity P-wave (km/s) = 5.70056 7.10303 6.44009
#
# Compressibility (1/GPa) = 0.02705285
#
# Stress axis : x y z
#
# Youngs Moduli (GPa) = 16.86600 34.57409 84.22127
#
# Poissons Ratio (x) = 0.72342 1.20417
# Poissons Ratio (y) = 0.35290 0.10916
# Poissons Ratio (z) = 0.24114 0.04481
#
# Static dielectric constant tensor:
#      x y z
#    x 3.055010 0.000000 -0.249970 
#    y 0.000000 3.118400 0.000000 
#    z -0.249970 0.000000 3.747420 
# 
# 
# High freq. dielectric constant tensor:
#      x y z
#    x 1.652270 0.000000 -0.012690 
#    y 0.000000 1.671210 0.000000 
#    z -0.012690 0.000000 1.712250 
# 
# From -- ./inp_files/216239.got.cif
#   From: 2010.06.25/outbox.cif.g09.slc.cpg/sg12_109_cif.got.tgz:216239.got - 2010.06.28 00:19:55.
