data_PCOD8086537
_publ_section_title
;
Structure prediction by ZEFSAII (Michael W. Deem and Ramdas Pophale) SiO2 
 PCOD8086537
Probable space group: C 2/M
;
_chemical_formula_sum "Si O2"
_cell_formula_units_Z 64
_cell_length_a 30.751112
_cell_length_b 9.152170
_cell_length_c 16.808821
_cell_angle_alpha 90.000000
_cell_angle_beta 135.096045
_cell_angle_gamma 90.000000
_cell_volume 3339.472933
_symmetry_space_group_name_H-M "C 2/M"
_symmetry_group_IT_number 12
_symmetry_cell_setting 'monoclinic'
loop_
_space_group_symop_operation_xyz
x,y,z
-x,y,-z
-x,-y,-z
x,-y,z
1/2+x,1/2+y,z
1/2-x,1/2+y,-z
1/2-x,1/2-y,-z
1/2+x,1/2-y,z
loop_
_atom_site_type_symbol
_atom_site_label
_atom_site_fract_x
_atom_site_fract_y
_atom_site_fract_z
Si Si1 0.075438 0.167088 0.264535
Si Si2 0.941777 0.833012 0.024421
Si Si3 0.461964 0.170174 0.626947
Si Si4 0.595080 0.830854 0.750038
Si Si5 0.758063 0.667809 0.769277
Si Si6 0.369937 0.828504 0.801119
Si Si7 0.354670 0.168183 0.021398
Si Si8 0.136005 0.669170 0.635208
O O1 0.067879 0.241451 0.339833
O O2 0.128307 0.251234 0.282931
O O3 0.014063 0.177443 0.132569
O O4 0.095660 0.000000 0.304128
O O5 0.908390 0.771873 0.059291
O O6 0.921387 0.000000 0.982619
O O7 0.924289 0.736098 0.926015
O O8 0.529701 0.234448 0.694539
O O9 0.420881 0.196609 0.496286
O O10 0.464998 0.000000 0.655126
O O11 0.647279 0.808168 0.885826
O O12 0.619020 0.758879 0.699061
O O13 0.582571 0.000000 0.715942
O O14 0.738917 0.500000 0.742510
O O15 0.804546 0.705507 0.757730
O O16 0.696811 0.759489 0.677664
O O17 0.789960 0.707736 0.895606
O O18 0.380986 0.000000 0.805224
O O19 0.371757 0.000000 0.022436
O O20 0.151287 0.500000 0.665112
#
# Coordination Sequence:
#
# PCOD8086537 Si02
#       8
#     8   8   8   8   8   8   8   8
#     4  11  22  34  52  82 115 142 175 222 278 328
#     4  10  19  31  49  79 117 145 171 217 274 327
#     4  10  20  36  58  81 109 144 184 226 269 323
#     4   9  17  33  58  84 110 138 179 231 273 318
#     4   9  20  37  54  77 110 145 183 223 265 322
#     4  10  21  36  56  79 106 145 189 221 260 324
#     4   9  17  32  55  80 108 147 185 219 265 324
#     4  10  21  36  57  83 106 141 189 230 272 320
#
# _framework density 19.164701000000001
#
# number of rings (size 3 to 8) (size 9 to 14) (size 15 to 20)
#    0.000    2.250    1.250    2.625    0.000    8.000 
#    0.000    1.875    0.000    1.500    0.000    0.000 
#    0.000    0.000    0.000    0.000    0.000    0.000 
#
# Total GULP energy -396778.256518 kJ/mol
# GULP energy per Si atom -12399.320516 kJ/mol
# Density = 1.912108 g / cm^3
# Si number density = 19.164701 Si / 1000 Ang^3
#
#
#
# Elastic Constant Matrix: (Units=GPa)
#
#
# Indices 1 2 3 4 5 6 
#
# 1 100.4960 40.3478 20.8778 0.0000 -16.0225 0.0000
# 2 40.3478 75.4483 19.5203 0.0000 -3.9091 0.0000
# 3 20.8778 19.5203 33.8429 0.0000 5.2528 0.0000
# 4 0.0000 0.0000 0.0000 23.4261 0.0000 3.6795
# 5 -16.0225 -3.9091 5.2528 0.0000 25.3717 0.0000
# 6 0.0000 0.0000 0.0000 3.6795 0.0000 21.5273
#
#
#
# Elastic Compliance Matrix: (Units=1/GPa)
#
#
# Indices 1 2 3 4 5 6 
#
# 1 0.015599 -0.005731 -0.007965 0.000000 0.010617 0.000000
# 2 -0.005731 0.018175 -0.007047 0.000000 0.000640 0.000000
# 3 -0.007965 -0.007047 0.040787 0.000000 -0.014560 0.000000
# 4 0.000000 0.000000 0.000000 0.043865 0.000000 -0.007498
# 5 0.010617 0.000640 -0.014560 0.000000 0.049232 0.000000
# 6 0.000000 0.000000 0.000000 -0.007498 0.000000 0.047734
#
#
# Mechanical properties :
#
#
# Convention : Reuss Voigt Hill
#
# Bulk Modulus (GPa) = 30.23528 41.25323 35.74426
# Shear Modulus (GPa) = 18.66334 22.66776 20.66555
#
# Velocity S-wave (km/s) = 3.12403 3.44290 3.28733
# Velocity P-wave (km/s) = 5.36875 6.11368 5.75329
#
# Compressibility (1/GPa) = 0.03307394
#
# Stress axis : x y z
#
# Youngs Moduli (GPa) = 64.10622 55.01940 24.51767
#
# Poissons Ratio (x) = 0.31532 0.19529
# Poissons Ratio (y) = 0.36740 0.17278
# Poissons Ratio (z) = 0.51063 0.38774
#
# Static dielectric constant tensor:
#      x y z
#    x 3.574340 0.000000 -0.124560 
#    y 0.000000 3.417920 0.000000 
#    z -0.124560 0.000000 3.318700 
# 
# 
# High freq. dielectric constant tensor:
#      x y z
#    x 1.747880 0.000000 -0.011590 
#    y 0.000000 1.730910 0.000000 
#    z -0.011590 0.000000 1.731130 
# 
# From -- ./inp_files/295706.got.cif
#   From: 2010.06.25/outbox.cif.g09.slc.cpg/sg12_148_cif.got.tgz:295706.got - 2010.06.28 00:19:55.
