data_PCOD8086142
_publ_section_title
;
Structure prediction by ZEFSAII (Michael W. Deem and Ramdas Pophale) SiO2 
 PCOD8086142
Probable space group: C 2/M
;
_chemical_formula_sum "Si O2"
_cell_formula_units_Z 56
_cell_length_a 16.388898
_cell_length_b 14.392648
_cell_length_c 17.437362
_cell_angle_alpha 90.000000
_cell_angle_beta 127.987020
_cell_angle_gamma 90.000000
_cell_volume 3241.755335
_symmetry_space_group_name_H-M "C 2/M"
_symmetry_group_IT_number 12
_symmetry_cell_setting 'monoclinic'
loop_
_space_group_symop_operation_xyz
x,y,z
-x,y,-z
-x,-y,-z
x,-y,z
1/2+x,1/2+y,z
1/2-x,1/2+y,-z
1/2-x,1/2-y,-z
1/2+x,1/2-y,z
loop_
_atom_site_type_symbol
_atom_site_label
_atom_site_fract_x
_atom_site_fract_y
_atom_site_fract_z
Si Si1 0.281801 0.607117 0.560184
Si Si2 0.606056 0.793220 0.367567
Si Si3 0.720994 0.603892 0.266158
Si Si4 0.121405 0.401209 0.079755
Si Si5 0.896052 0.608649 0.249495
Si Si6 0.346554 0.817339 0.056050
Si Si7 0.578290 0.235112 0.180561
O O1 0.317510 0.500000 0.562275
O O2 0.373628 0.683729 0.599770
O O3 0.186933 0.636364 0.452034
O O4 0.241339 0.612927 0.624161
O O5 0.491848 0.824786 0.326632
O O6 0.615242 0.808325 0.282015
O O7 0.690822 0.500000 0.226768
O O8 0.811070 0.639161 0.262313
O O9 0.615097 0.659568 0.192225
O O10 0.165139 0.500000 0.135402
O O11 0.142326 0.322017 0.153969
O O12 0.174132 0.384270 0.027871
O O13 0.000000 0.409262 0.000000
O O14 0.926408 0.500000 0.274686
O O15 0.853625 0.626002 0.139219
O O16 0.454177 0.763290 0.101522
O O17 0.250000 0.750000 0.000000
#
# Coordination Sequence:
#
# PCOD8086142 Si02
#       7
#     8   8   8   8   8   8   8
#     4   9  17  31  50  73 100 127 158 193 235 287
#     4   9  18  30  48  75  98 126 160 195 239 282
#     4   9  18  32  49  69  95 126 157 194 238 282
#     4   9  17  29  46  66  88 117 153 191 231 274
#     4  10  19  31  49  72  97 123 157 201 241 279
#     4  10  19  31  48  68  95 126 157 196 240 284
#     4   9  18  32  49  68  93 125 159 194 235 283
#
# _framework density 17.274591999999998
#
# number of rings (size 3 to 8) (size 9 to 14) (size 15 to 20)
#    0.000    2.714    0.000    1.714    0.000    4.571 
#    0.000    3.571    0.000   13.286    0.000    9.000 
#    0.000    0.000    0.000    0.000    0.000    0.000 
#
# Total GULP energy -346976.577928 kJ/mol
# GULP energy per Si atom -12392.020640 kJ/mol
# Density = 1.723527 g / cm^3
# Si number density = 17.274592 Si / 1000 Ang^3
#
#
#
# Elastic Constant Matrix: (Units=GPa)
#
#
# Indices 1 2 3 4 5 6 
#
# 1 93.7409 51.4977 33.6943 0.0000 0.1471 0.0000
# 2 51.4977 107.4415 43.6693 0.0000 8.2170 0.0000
# 3 33.6943 43.6693 74.5572 0.0000 0.0480 0.0000
# 4 0.0000 0.0000 0.0000 25.3018 0.0000 -3.0493
# 5 0.1471 8.2170 0.0480 0.0000 17.4213 0.0000
# 6 0.0000 0.0000 0.0000 -3.0493 0.0000 15.8285
#
#
#
# Elastic Compliance Matrix: (Units=1/GPa)
#
#
# Indices 1 2 3 4 5 6 
#
# 1 0.015237 -0.006192 -0.003261 0.000000 0.002801 0.000000
# 2 -0.006192 0.015334 -0.006179 0.000000 -0.007163 0.000000
# 3 -0.003261 -0.006179 0.018503 0.000000 0.002891 0.000000
# 4 0.000000 0.000000 0.000000 0.040462 0.000000 0.007795
# 5 0.002801 -0.007163 0.002891 0.000000 0.060748 0.000000
# 6 0.000000 0.000000 0.000000 0.007795 0.000000 0.064679
#
#
# Mechanical properties :
#
#
# Convention : Reuss Voigt Hill
#
# Bulk Modulus (GPa) = 56.14393 59.27359 57.70876
# Shear Modulus (GPa) = 19.82829 21.50221 20.66525
#
# Velocity S-wave (km/s) = 3.39164 3.53190 3.46248
# Velocity P-wave (km/s) = 6.92164 7.14279 7.03308
#
# Compressibility (1/GPa) = 0.01781136
#
# Stress axis : x y z
#
# Youngs Moduli (GPa) = 65.62903 65.21258 54.04419
#
# Poissons Ratio (x) = 0.40380 0.17624
# Poissons Ratio (y) = 0.40638 0.33392
# Poissons Ratio (z) = 0.21402 0.40293
#
# Static dielectric constant tensor:
#      x y z
#    x 9.091700 0.000000 -3.629490 
#    y 0.000000 3.477350 0.000000 
#    z -3.629490 0.000000 5.232110 
# 
# 
# High freq. dielectric constant tensor:
#      x y z
#    x 1.656240 0.000000 -0.018780 
#    y 0.000000 1.671140 0.000000 
#    z -0.018780 0.000000 1.660420 
# 
# From -- ./inp_files/214321.got.cif
#   From: 2010.06.25/outbox.cif.g09.slc.cpg/sg12_108_cif.got.tgz:214321.got - 2010.06.28 00:19:55.
