data_PCOD8086368
_publ_section_title
;
Structure prediction by ZEFSAII (Michael W. Deem and Ramdas Pophale) SiO2 
 PCOD8086368
Probable space group: C 2/M
;
_chemical_formula_sum "Si O2"
_cell_formula_units_Z 48
_cell_length_a 17.823286
_cell_length_b 9.140311
_cell_length_c 15.532465
_cell_angle_alpha 90.000000
_cell_angle_beta 96.086230
_cell_angle_gamma 90.000000
_cell_volume 2516.137016
_symmetry_space_group_name_H-M "C 2/M"
_symmetry_group_IT_number 12
_symmetry_cell_setting 'monoclinic'
loop_
_space_group_symop_operation_xyz
x,y,z
-x,y,-z
-x,-y,-z
x,-y,z
1/2+x,1/2+y,z
1/2-x,1/2+y,-z
1/2-x,1/2-y,-z
1/2+x,1/2-y,z
loop_
_atom_site_type_symbol
_atom_site_label
_atom_site_fract_x
_atom_site_fract_y
_atom_site_fract_z
Si Si1 0.851859 0.666734 0.347382
Si Si2 0.916294 0.668267 0.024419
Si Si3 0.815664 0.670723 0.856541
Si Si4 0.827163 0.837852 0.694069
Si Si5 0.329917 0.327372 0.507455
Si Si6 0.857997 0.172808 0.178104
O O1 0.881307 0.500000 0.353261
O O2 0.762021 0.674013 0.331300
O O3 0.878970 0.751643 0.437548
O O4 0.886122 0.750017 0.269042
O O5 0.897115 0.500000 0.045215
O O6 0.858915 0.731031 0.945425
O O7 0.909439 0.767707 0.107692
O O8 0.000000 0.683852 0.000000
O O9 0.827527 0.500000 0.851991
O O10 0.853535 0.732118 0.773698
O O11 0.728435 0.716320 0.853094
O O12 0.867316 0.802000 0.606888
O O13 0.849301 0.000000 0.726666
O O14 0.320010 0.500000 0.487431
O O15 0.250000 0.250000 0.500000
O O16 0.868019 0.000000 0.189270
#
# Coordination Sequence:
#
# PCOD8086368 Si02
#       6
#     8   8   8   8   8   8
#     4   9  16  26  41  63  92 125 157 189 230 277
#     4  10  21  36  51  68  93 124 157 194 237 284
#     4   9  18  31  48  70  94 123 158 195 234 276
#     4   8  15  25  39  62  92 124 154 188 229 272
#     4   9  15  23  36  59  92 126 157 189 229 274
#     4  10  19  31  49  72  96 122 156 197 236 278
#
# _framework density 19.076862999999999
#
# number of rings (size 3 to 8) (size 9 to 14) (size 15 to 20)
#    0.000    2.833    0.000    3.000    0.000    6.333 
#    0.000    0.000    0.000    0.000    0.000    1.167 
#    0.000    9.333    0.000    0.000    0.000    0.000 
#
# Total GULP energy -297473.484385 kJ/mol
# GULP energy per Si atom -12394.728516 kJ/mol
# Density = 1.903344 g / cm^3
# Si number density = 19.076863 Si / 1000 Ang^3
#
#
#
# Elastic Constant Matrix: (Units=GPa)
#
#
# Indices 1 2 3 4 5 6 
#
# 1 20.8181 18.3176 19.8072 0.0000 -8.6428 0.0000
# 2 18.3176 99.2209 67.9951 0.0000 -16.1790 0.0000
# 3 19.8072 67.9951 156.0490 0.0000 -31.3572 0.0000
# 4 0.0000 0.0000 0.0000 42.6089 0.0000 -5.9921
# 5 -8.6428 -16.1790 -31.3572 0.0000 10.6420 0.0000
# 6 0.0000 0.0000 0.0000 -5.9921 0.0000 12.4848
#
#
#
# Elastic Compliance Matrix: (Units=1/GPa)
#
#
# Indices 1 2 3 4 5 6 
#
# 1 0.079493 -0.008149 0.009670 0.000000 0.080663 0.000000
# 2 -0.008149 0.015512 -0.005677 0.000000 0.000237 0.000000
# 3 0.009670 -0.005677 0.018382 0.000000 0.053387 0.000000
# 4 0.000000 0.000000 0.000000 0.025168 0.000000 0.012079
# 5 0.080663 0.000237 0.053387 0.000000 0.317146 0.000000
# 6 0.000000 0.000000 0.000000 0.012079 0.000000 0.085895
#
#
# Mechanical properties :
#
#
# Convention : Reuss Voigt Hill
#
# Bulk Modulus (GPa) = 9.51704 54.25863 31.88784
# Shear Modulus (GPa) = 8.54796 24.47833 16.51314
#
# Velocity S-wave (km/s) = 2.11909 3.58598 2.94532
# Velocity P-wave (km/s) = 3.31466 6.75645 5.32149
#
# Compressibility (1/GPa) = 0.10507465
#
# Stress axis : x y z
#
# Youngs Moduli (GPa) = 12.57965 64.46608 54.39979
#
# Poissons Ratio (x) = 0.52534 -0.52602
# Poissons Ratio (y) = 0.10251 0.30883
# Poissons Ratio (z) = -0.12164 0.36598
#
# Static dielectric constant tensor:
#      x y z
#    x 2.859730 0.000000 -0.064410 
#    y 0.000000 3.533240 0.000000 
#    z -0.064410 0.000000 4.188270 
# 
# 
# High freq. dielectric constant tensor:
#      x y z
#    x 1.669640 0.000000 -0.011890 
#    y 0.000000 1.745910 0.000000 
#    z -0.011890 0.000000 1.765190 
# 
# From -- ./inp_files/229305.got.cif
#   From: 2010.06.25/outbox.cif.g09.slc.cpg/sg12_115_cif.got.tgz:229305.got - 2010.06.28 00:19:55.
