data_PCOD8086396
_publ_section_title
;
Structure prediction by ZEFSAII (Michael W. Deem and Ramdas Pophale) SiO2 
 PCOD8086396
Probable space group: C 2/M
;
_chemical_formula_sum "Si O2"
_cell_formula_units_Z 64
_cell_length_a 24.348690
_cell_length_b 9.382618
_cell_length_c 21.163119
_cell_angle_alpha 90.000000
_cell_angle_beta 45.491205
_cell_angle_gamma 90.000000
_cell_volume 3447.909370
_symmetry_space_group_name_H-M "C 2/M"
_symmetry_group_IT_number 12
_symmetry_cell_setting 'monoclinic'
loop_
_space_group_symop_operation_xyz
x,y,z
-x,y,-z
-x,-y,-z
x,-y,z
1/2+x,1/2+y,z
1/2-x,1/2+y,-z
1/2-x,1/2-y,-z
1/2+x,1/2-y,z
loop_
_atom_site_type_symbol
_atom_site_label
_atom_site_fract_x
_atom_site_fract_y
_atom_site_fract_z
Si Si1 0.370505 0.169726 0.772014
Si Si2 0.611981 0.831426 0.097869
Si Si3 0.582103 0.164070 0.920738
Si Si4 0.051124 0.335358 0.806766
Si Si5 0.215754 0.330281 0.902041
Si Si6 0.993675 0.669158 0.432549
Si Si7 0.169579 0.338476 0.487391
Si Si8 0.311368 0.838000 0.379297
O O1 0.388014 0.220310 0.829640
O O2 0.291684 0.248299 0.818431
O O3 0.436698 0.222238 0.669346
O O4 0.359960 0.000000 0.776447
O O5 0.534167 0.766510 0.128395
O O6 0.611181 0.000000 0.095602
O O7 0.686099 0.782683 0.996270
O O8 0.596608 0.184132 0.835294
O O9 0.651856 0.228221 0.904487
O O10 0.575286 0.000000 0.947965
O O11 0.500000 0.239940 0.000000
O O12 0.038598 0.500000 0.800061
O O13 0.109302 0.267267 0.709210
O O14 0.230031 0.500000 0.886150
O O15 0.995065 0.500000 0.431021
O O16 0.912692 0.724070 0.468800
O O17 0.000000 0.725991 0.500000
O O18 0.178367 0.500000 0.455653
O O19 0.239561 0.243674 0.404962
O O20 0.180136 0.329307 0.553251
O O21 0.302537 0.000000 0.363086
#
# Coordination Sequence:
#
# PCOD8086396 Si02
#       8
#     8   8   8   8   8   8   8   8
#     4  10  20  33  50  72  95 123 162 201 236 277
#     4   9  16  28  48  72  97 126 160 196 231 273
#     4   9  15  26  44  68  94 120 151 186 223 266
#     4   9  15  25  45  71  95 120 155 194 228 267
#     4  10  19  31  49  73 100 127 157 193 234 279
#     4   9  18  33  52  70  90 123 166 203 233 275
#     4   9  17  31  49  67  91 121 154 192 234 279
#     4   9  17  28  46  73  97 117 147 192 239 278
#
# _framework density 18.561972999999998
#
# number of rings (size 3 to 8) (size 9 to 14) (size 15 to 20)
#    0.000    2.750    1.250    1.125    0.000    4.000 
#    0.000    0.625    0.000    4.125    0.000    0.000 
#    0.000    0.000    0.000    0.000    0.000    0.000 
#
# Total GULP energy -396427.093337 kJ/mol
# GULP energy per Si atom -12388.346667 kJ/mol
# Density = 1.851973 g / cm^3
# Si number density = 18.561973 Si / 1000 Ang^3
#
#
#
# Elastic Constant Matrix: (Units=GPa)
#
#
# Indices 1 2 3 4 5 6 
#
# 1 116.3145 23.5353 42.2790 0.0012 -23.7647 -0.0018
# 2 23.5353 23.5584 21.5242 0.0011 -8.3359 -0.0043
# 3 42.2790 21.5242 99.6743 -0.0016 -20.1337 -0.0003
# 4 0.0012 0.0011 -0.0016 18.4450 0.0008 -8.4187
# 5 -23.7647 -8.3359 -20.1337 0.0008 27.2847 0.0002
# 6 -0.0018 -0.0043 -0.0003 -8.4187 0.0002 19.1669
#
#
#
# Elastic Compliance Matrix: (Units=1/GPa)
#
#
# Indices 1 2 3 4 5 6 
#
# 1 0.012381 -0.008009 -0.002160 -0.000001 0.006743 -0.000001
# 2 -0.008009 0.060050 -0.008548 0.000002 0.005063 0.000014
# 3 -0.002160 -0.008548 0.013969 0.000001 0.005815 -0.000002
# 4 -0.000001 0.000002 0.000001 0.067809 -0.000002 0.029784
# 5 0.006743 0.005063 0.005815 -0.000002 0.048361 0.000000
# 6 -0.000001 0.000014 -0.000002 0.029784 0.000000 0.065255
#
#
# Mechanical properties :
#
#
# Convention : Reuss Voigt Hill
#
# Bulk Modulus (GPa) = 20.42211 46.02493 33.22352
# Shear Modulus (GPa) = 15.54812 23.12656 19.33734
#
# Velocity S-wave (km/s) = 2.89733 3.53358 3.23115
# Velocity P-wave (km/s) = 4.71367 6.44184 5.64429
#
# Compressibility (1/GPa) = 0.04896653
#
# Stress axis : x y z
#
# Youngs Moduli (GPa) = 80.77053 16.65273 71.58507
#
# Poissons Ratio (x) = 0.13338 0.15462
# Poissons Ratio (y) = 0.64692 0.61188
# Poissons Ratio (z) = 0.17446 0.14234
#
# Static dielectric constant tensor:
#      x y z
#    x 3.624370 0.000000 -0.104900 
#    y 0.000000 2.914920 0.000000 
#    z -0.104900 0.000000 3.661320 
# 
# 
# High freq. dielectric constant tensor:
#      x y z
#    x 1.728990 0.000000 -0.006370 
#    y 0.000000 1.649130 0.000000 
#    z -0.006370 0.000000 1.732810 
# 
# From -- ./inp_files/320950.got.cif
#   From: 2010.06.25/outbox.cif.g09.slc.cpg/sg12_161_cif.got.tgz:320950.got - 2010.06.28 00:19:55.
