data_PCOD8086472
_publ_section_title
;
Structure prediction by ZEFSAII (Michael W. Deem and Ramdas Pophale) SiO2 
 PCOD8086472
Probable space group: C 2/M
;
_chemical_formula_sum "Si O2"
_cell_formula_units_Z 56
_cell_length_a 28.295062
_cell_length_b 9.058291
_cell_length_c 12.998498
_cell_angle_alpha 90.000000
_cell_angle_beta 125.287888
_cell_angle_gamma 90.000000
_cell_volume 2719.433605
_symmetry_space_group_name_H-M "C 2/M"
_symmetry_group_IT_number 12
_symmetry_cell_setting 'monoclinic'
loop_
_space_group_symop_operation_xyz
x,y,z
-x,y,-z
-x,-y,-z
x,-y,z
1/2+x,1/2+y,z
1/2-x,1/2+y,-z
1/2-x,1/2-y,-z
1/2+x,1/2-y,z
loop_
_atom_site_type_symbol
_atom_site_label
_atom_site_fract_x
_atom_site_fract_y
_atom_site_fract_z
Si Si1 0.250635 0.826458 0.799641
Si Si2 0.116661 0.325214 0.030891
Si Si3 0.605541 0.662540 0.219701
Si Si4 0.447433 0.174795 0.252436
Si Si5 0.577458 0.174227 0.396013
Si Si6 0.239343 0.161915 0.385876
Si Si7 0.860921 0.325840 0.316527
O O1 0.316380 0.778936 0.909021
O O2 0.233936 0.765985 0.666698
O O3 0.199203 0.748805 0.800055
O O4 0.242644 0.000000 0.796076
O O5 0.113908 0.500000 0.043446
O O6 0.086700 0.254696 0.094817
O O7 0.079480 0.266818 0.888317
O O8 0.575356 0.500000 0.185104
O O9 0.595655 0.748610 0.313087
O O10 0.672486 0.636961 0.285615
O O11 0.513251 0.229693 0.345516
O O12 0.410969 0.233919 0.303482
O O13 0.444794 0.000000 0.248960
O O14 0.620431 0.217290 0.543310
O O15 0.577735 0.000000 0.376401
O O16 0.250000 0.250000 0.500000
O O17 0.270446 0.000000 0.425245
O O18 0.852724 0.500000 0.295204
#
# Coordination Sequence:
#
# PCOD8086472 Si02
#       7
#     8   8   8   8   8   8   8
#     4  10  20  33  51  77 108 141 177 217 262 316
#     4   9  19  37  58  79 106 142 182 219 261 316
#     4  10  21  35  52  77 110 142 174 218 269 319
#     4   9  19  37  59  80 104 139 184 228 263 308
#     4  10  20  35  57  82 107 139 180 222 266 317
#     4  10  19  31  49  74 105 141 177 217 266 318
#     4  10  20  35  57  83 109 139 177 222 271 318
#
# _framework density 20.592524999999998
#
# number of rings (size 3 to 8) (size 9 to 14) (size 15 to 20)
#    0.000    2.286    0.000    2.571    0.000    8.000 
#    0.000    5.000    0.000    1.714    0.000    0.000 
#    0.000    0.000    0.000    0.000    0.000    0.000 
#
# Total GULP energy -346958.679524 kJ/mol
# GULP energy per Si atom -12391.381412 kJ/mol
# Density = 2.054566 g / cm^3
# Si number density = 20.592525 Si / 1000 Ang^3
#
#
#
# Elastic Constant Matrix: (Units=GPa)
#
#
# Indices 1 2 3 4 5 6 
#
# 1 80.2284 21.3630 6.3676 0.0000 -8.4927 0.0000
# 2 21.3630 53.9074 19.8889 0.0000 -1.5947 0.0000
# 3 6.3676 19.8889 70.0954 0.0000 -8.1148 0.0000
# 4 0.0000 0.0000 0.0000 13.6187 0.0000 0.5509
# 5 -8.4927 -1.5947 -8.1148 0.0000 32.9424 0.0000
# 6 0.0000 0.0000 0.0000 0.5509 0.0000 26.6767
#
#
#
# Elastic Compliance Matrix: (Units=1/GPa)
#
#
# Indices 1 2 3 4 5 6 
#
# 1 0.014346 -0.005866 0.000779 0.000000 0.003606 0.000000
# 2 -0.005866 0.023124 -0.006252 0.000000 -0.001933 0.000000
# 3 0.000779 -0.006252 0.016426 0.000000 0.003944 0.000000
# 4 0.000000 0.000000 0.000000 0.073490 0.000000 -0.001518
# 5 0.003606 -0.001933 0.003944 0.000000 0.032164 0.000000
# 6 0.000000 0.000000 0.000000 -0.001518 0.000000 0.037517
#
#
# Mechanical properties :
#
#
# Convention : Reuss Voigt Hill
#
# Bulk Modulus (GPa) = 32.03283 33.27446 32.65364
# Shear Modulus (GPa) = 21.72467 25.08833 23.40650
#
# Velocity S-wave (km/s) = 3.25157 3.49423 3.37508
# Velocity P-wave (km/s) = 5.44851 5.69852 5.57492
#
# Compressibility (1/GPa) = 0.03121797
#
# Stress axis : x y z
#
# Youngs Moduli (GPa) = 69.70420 43.24421 60.87846
#
# Poissons Ratio (x) = 0.25367 -0.04740
# Poissons Ratio (y) = 0.40888 0.38063
# Poissons Ratio (z) = -0.05428 0.27037
#
# Static dielectric constant tensor:
#      x y z
#    x 3.744750 0.000000 -0.104950 
#    y 0.000000 3.690090 0.000000 
#    z -0.104950 0.000000 3.590370 
# 
# 
# High freq. dielectric constant tensor:
#      x y z
#    x 1.814850 0.000000 0.000370 
#    y 0.000000 1.783640 0.000000 
#    z 0.000370 0.000000 1.799250 
# 
# From -- ./inp_files/187773.got.cif
#   From: 2010.06.25/outbox.cif.g09.slc.cpg/sg12_94_cif.got.tgz:187773.got - 2010.06.28 00:19:55.
