data_PCOD8086350
_publ_section_title
;
Structure prediction by ZEFSAII (Michael W. Deem and Ramdas Pophale) SiO2 
 PCOD8086350
Probable space group: C 2/M
;
_chemical_formula_sum "Si O2"
_cell_formula_units_Z 56
_cell_length_a 22.880749
_cell_length_b 9.241240
_cell_length_c 14.794286
_cell_angle_alpha 90.000000
_cell_angle_beta 90.871590
_cell_angle_gamma 90.000000
_cell_volume 3127.837951
_symmetry_space_group_name_H-M "C 2/M"
_symmetry_group_IT_number 12
_symmetry_cell_setting 'monoclinic'
loop_
_space_group_symop_operation_xyz
x,y,z
-x,y,-z
-x,-y,-z
x,-y,z
1/2+x,1/2+y,z
1/2-x,1/2+y,-z
1/2-x,1/2-y,-z
1/2+x,1/2-y,z
loop_
_atom_site_type_symbol
_atom_site_label
_atom_site_fract_x
_atom_site_fract_y
_atom_site_fract_z
Si Si1 0.558252 0.668012 0.764960
Si Si2 0.639481 0.169450 0.031961
Si Si3 0.798099 0.169122 0.807208
Si Si4 0.883778 0.337324 0.695205
Si Si5 0.530446 0.159460 0.133600
Si Si6 0.336156 0.833345 0.170786
Si Si7 0.476130 0.331664 0.596424
O O1 0.566954 0.500000 0.780575
O O2 0.521208 0.727627 0.849613
O O3 0.621432 0.742599 0.763118
O O4 0.526048 0.704244 0.670640
O O5 0.679481 0.263579 0.098898
O O6 0.569900 0.200187 0.047012
O O7 0.653055 0.000000 0.049710
O O8 0.655783 0.218928 0.932028
O O9 0.826220 0.246466 0.720347
O O10 0.729221 0.194913 0.797978
O O11 0.814460 0.000000 0.806733
O O12 0.866307 0.500000 0.665220
O O13 0.924862 0.340665 0.782708
O O14 0.917486 0.259236 0.613960
O O15 0.502177 0.000000 0.121159
O O16 0.353790 0.000000 0.179762
O O17 0.500000 0.283850 0.500000
O O18 0.459257 0.500000 0.598777
#
# Coordination Sequence:
#
# PCOD8086350 Si02
#       7
#     8   8   8   8   8   8   8
#     4  10  20  32  48  71  97 126 159 195 240 292
#     4   9  18  32  49  69  93 127 170 210 246 281
#     4  10  19  31  49  71  96 130 169 206 242 279
#     4   9  17  30  50  75 100 127 159 196 238 285
#     4   8  15  29  47  65  91 126 159 195 239 285
#     4  10  21  34  47  66  97 135 168 201 244 288
#     4   9  18  34  56  80 103 124 150 192 245 296
#
# _framework density 17.903739000000002
#
# number of rings (size 3 to 8) (size 9 to 14) (size 15 to 20)
#    0.000    2.714    0.000    2.571    0.000    6.571 
#    0.000    2.857    0.000    0.857    0.000    0.000 
#    0.000    0.000    0.000    0.000    0.000    0.000 
#
# Total GULP energy -347195.903971 kJ/mol
# GULP energy per Si atom -12399.853713 kJ/mol
# Density = 1.786299 g / cm^3
# Si number density = 17.903739 Si / 1000 Ang^3
#
#
#
# Elastic Constant Matrix: (Units=GPa)
#
#
# Indices 1 2 3 4 5 6 
#
# 1 107.4594 68.3484 46.5073 0.0000 -17.7886 0.0000
# 2 68.3484 104.5008 45.7729 0.0000 -10.7433 0.0000
# 3 46.5073 45.7729 78.2799 0.0000 -26.4602 0.0000
# 4 0.0000 0.0000 0.0000 21.4690 0.0000 -2.0065
# 5 -17.7886 -10.7433 -26.4602 0.0000 25.0981 0.0000
# 6 0.0000 0.0000 0.0000 -2.0065 0.0000 33.5337
#
#
#
# Elastic Compliance Matrix: (Units=1/GPa)
#
#
# Indices 1 2 3 4 5 6 
#
# 1 0.017629 -0.009642 -0.003119 0.000000 0.005080 0.000000
# 2 -0.009642 0.018371 -0.007249 0.000000 -0.006612 0.000000
# 3 -0.003119 -0.007249 0.026521 0.000000 0.022647 0.000000
# 4 0.000000 0.000000 0.000000 0.046841 0.000000 0.002803
# 5 0.005080 -0.006612 0.022647 0.000000 0.064490 0.000000
# 6 0.000000 0.000000 0.000000 0.002803 0.000000 0.029988
#
#
# Mechanical properties :
#
#
# Convention : Reuss Voigt Hill
#
# Bulk Modulus (GPa) = 44.43933 67.94415 56.19174
# Shear Modulus (GPa) = 19.89174 24.66093 22.27633
#
# Velocity S-wave (km/s) = 3.33684 3.71538 3.53119
# Velocity P-wave (km/s) = 6.30247 7.51249 6.93393
#
# Compressibility (1/GPa) = 0.02250259
#
# Stress axis : x y z
#
# Youngs Moduli (GPa) = 56.72411 54.43390 37.70541
#
# Poissons Ratio (x) = 0.52485 0.11759
# Poissons Ratio (y) = 0.54694 0.27331
# Poissons Ratio (z) = 0.17691 0.39457
#
# Static dielectric constant tensor:
#      x y z
#    x 3.330250 0.000000 -0.249620 
#    y 0.000000 3.405270 0.000000 
#    z -0.249620 0.000000 3.127420 
# 
# 
# High freq. dielectric constant tensor:
#      x y z
#    x 1.689900 0.000000 -0.019290 
#    y 0.000000 1.697870 0.000000 
#    z -0.019290 0.000000 1.662690 
# 
# From -- ./inp_files/230956.got.cif
#   From: 2010.06.25/outbox.cif.g09.slc.cpg/sg12_116_cif.got.tgz:230956.got - 2010.06.28 00:19:55.
