data_PCOD8086575
_publ_section_title
;
Structure prediction by ZEFSAII (Michael W. Deem and Ramdas Pophale) SiO2 
 PCOD8086575
Probable space group: C 2/M
;
_chemical_formula_sum "Si O2"
_cell_formula_units_Z 40
_cell_length_a 13.233231
_cell_length_b 13.028243
_cell_length_c 22.924312
_cell_angle_alpha 90.000000
_cell_angle_beta 145.804638
_cell_angle_gamma 90.000000
_cell_volume 2221.248066
_symmetry_space_group_name_H-M "C 2/M"
_symmetry_group_IT_number 12
_symmetry_cell_setting 'monoclinic'
loop_
_space_group_symop_operation_xyz
x,y,z
-x,y,-z
-x,-y,-z
x,-y,z
1/2+x,1/2+y,z
1/2-x,1/2+y,-z
1/2-x,1/2-y,-z
1/2+x,1/2-y,z
loop_
_atom_site_type_symbol
_atom_site_label
_atom_site_fract_x
_atom_site_fract_y
_atom_site_fract_z
Si Si1 0.952273 0.883947 0.664277
Si Si2 0.779986 0.239447 0.273803
Si Si3 0.603919 0.118324 0.423473
Si Si4 0.828035 0.880150 0.879364
Si Si5 0.451101 0.192735 0.729865
O O1 0.137337 0.857968 0.720112
O O2 0.788165 0.854088 0.543453
O O3 0.946683 0.815750 0.719638
O O4 0.946996 0.000000 0.682493
O O5 0.660701 0.310028 0.173421
O O6 0.667522 0.179563 0.269307
O O7 0.943477 0.312467 0.374094
O O8 0.630570 0.139284 0.367043
O O9 0.552235 0.000000 0.408625
O O10 0.652204 0.851293 0.833952
O O11 0.821174 0.000000 0.858319
O O12 0.000000 0.854470 0.000000
#
# Coordination Sequence:
#
# PCOD8086575 Si02
#       5
#     8   8   8   8   8
#     4   9  19  32  46  68 102 137 163 192 232 280
#     4  10  19  31  50  73  98 124 159 202 242 281
#     4   9  18  33  48  68 100 135 168 196 228 274
#     4   9  19  37  56  72  93 122 157 199 246 294
#     4  10  19  31  50  73  98 124 159 202 242 281
#
# _framework density 18.007892999999999
#
# number of rings (size 3 to 8) (size 9 to 14) (size 15 to 20)
#    0.000    3.000    0.000    4.800    0.000    7.200 
#    0.000    4.000    0.000    9.600    0.000    0.000 
#    0.000    0.000    0.000    0.000    0.000    0.000 
#
# Total GULP energy -247802.638764 kJ/mol
# GULP energy per Si atom -12390.131938 kJ/mol
# Density = 1.796691 g / cm^3
# Si number density = 18.007893 Si / 1000 Ang^3
#
#
#
# Elastic Constant Matrix: (Units=GPa)
#
#
# Indices 1 2 3 4 5 6 
#
# 1 57.0453 -19.5943 7.2909 0.0000 9.9973 0.0000
# 2 -19.5943 52.9458 24.8285 0.0002 0.9486 0.0000
# 3 7.2909 24.8285 95.9984 0.0006 1.8060 0.0000
# 4 0.0000 0.0002 0.0006 28.4862 0.0000 -2.2751
# 5 9.9973 0.9486 1.8060 0.0000 9.2505 0.0000
# 6 0.0000 0.0000 0.0000 -2.2751 0.0000 11.6842
#
#
#
# Elastic Compliance Matrix: (Units=1/GPa)
#
#
# Indices 1 2 3 4 5 6 
#
# 1 0.028138 0.013310 -0.005000 0.000000 -0.030798 0.000000
# 2 0.013310 0.027802 -0.007906 0.000000 -0.015692 0.000000
# 3 -0.005000 -0.007906 0.012771 0.000000 0.003721 0.000000
# 4 0.000000 0.000000 0.000000 0.035659 0.000000 0.006943
# 5 -0.030798 -0.015692 0.003721 0.000000 0.142269 0.000000
# 6 0.000000 0.000000 0.000000 0.006943 0.000000 0.086937
#
#
# Mechanical properties :
#
#
# Convention : Reuss Voigt Hill
#
# Bulk Modulus (GPa) = 14.38461 25.67108 20.02785
# Shear Modulus (GPa) = 14.04724 22.78182 18.41453
#
# Velocity S-wave (km/s) = 2.79599 3.56069 3.20125
# Velocity P-wave (km/s) = 4.29286 5.58490 4.98095
#
# Compressibility (1/GPa) = 0.06951873
#
# Stress axis : x y z
#
# Youngs Moduli (GPa) = 35.53890 35.96910 78.30013
#
# Poissons Ratio (x) = -0.47875 0.39151
# Poissons Ratio (y) = -0.47302 0.61905
# Poissons Ratio (z) = 0.17770 0.28438
#
# Static dielectric constant tensor:
#      x y z
#    x 3.002240 0.000000 0.089220 
#    y 0.000000 3.436210 0.000000 
#    z 0.089220 0.000000 3.277760 
# 
# 
# High freq. dielectric constant tensor:
#      x y z
#    x 1.671450 0.000000 0.008580 
#    y 0.000000 1.711020 0.000000 
#    z 0.008580 0.000000 1.687190 
# 
# From -- ./inp_files/360612.got.cif
#   From: 2010.06.25/outbox.cif.g09.slc.cpg/sg12_181_cif.got.tgz:360612.got - 2010.06.28 00:19:55.
