data_PCOD8086065
_publ_section_title
;
Structure prediction by ZEFSAII (Michael W. Deem and Ramdas Pophale) SiO2 
 PCOD8086065
Probable space group: C 2/M
;
_chemical_formula_sum "Si O2"
_cell_formula_units_Z 64
_cell_length_a 15.110899
_cell_length_b 17.277511
_cell_length_c 13.989335
_cell_angle_alpha 90.000000
_cell_angle_beta 96.214406
_cell_angle_gamma 90.000000
_cell_volume 3630.855897
_symmetry_space_group_name_H-M "C 2/M"
_symmetry_group_IT_number 12
_symmetry_cell_setting 'monoclinic'
loop_
_space_group_symop_operation_xyz
x,y,z
-x,y,-z
-x,-y,-z
x,-y,z
1/2+x,1/2+y,z
1/2-x,1/2+y,-z
1/2-x,1/2-y,-z
1/2+x,1/2-y,z
loop_
_atom_site_type_symbol
_atom_site_label
_atom_site_fract_x
_atom_site_fract_y
_atom_site_fract_z
Si Si1 0.851526 0.849456 0.182332
Si Si2 0.689972 0.911505 0.059039
Si Si3 0.303798 0.589221 0.765465
Si Si4 0.155794 0.329200 0.858169
Si Si5 0.466661 0.824654 0.888992
Si Si6 0.033108 0.850837 0.111161
Si Si7 0.100029 0.091268 0.408792
Si Si8 0.601737 0.591595 0.619975
O O1 0.785703 0.906557 0.119162
O O2 0.831078 0.762886 0.145031
O O3 0.840233 0.861657 0.295096
O O4 0.951959 0.875349 0.169721
O O5 0.617594 0.881774 0.129405
O O6 0.669167 0.000000 0.028528
O O7 0.689938 0.858837 0.964585
O O8 0.278823 0.500000 0.753282
O O9 0.212891 0.632641 0.781103
O O10 0.380350 0.597987 0.855255
O O11 0.337890 0.624973 0.668494
O O12 0.050480 0.349242 0.831671
O O13 0.436821 0.737195 0.864350
O O14 0.500000 0.830390 0.000000
O O15 0.000000 0.864154 0.000000
O O16 0.138854 0.112476 0.518257
O O17 0.999720 0.122115 0.385975
O O18 0.095467 0.000000 0.396745
O O19 0.608652 0.500000 0.640221
#
# Coordination Sequence:
#
# PCOD8086065 Si02
#       8
#     8   8   8   8   8   8   8   8
#     4  11  20  32  51  75 102 132 165 202 249 297
#     4  11  21  33  51  73  98 132 176 215 239 274
#     4  11  20  31  48  73 101 132 164 196 247 306
#     4  10  21  34  48  69 102 138 165 202 246 295
#     4   8  18  35  50  64  88 131 177 209 240 273
#     4  10  19  31  47  69 102 135 161 194 243 303
#     4   8  16  30  50  74 101 129 156 198 249 296
#     4   9  16  31  52  75 100 126 163 203 243 292
#
# _framework density 17.626697
#
# number of rings (size 3 to 8) (size 9 to 14) (size 15 to 20)
#    0.000    2.250    1.250    4.125    0.000    3.500 
#    0.000    0.625    0.000    0.000    0.000    0.000 
#    0.000    4.000    0.000    0.250    0.000    0.000 
#
# Total GULP energy -396667.915971 kJ/mol
# GULP energy per Si atom -12395.872374 kJ/mol
# Density = 1.758658 g / cm^3
# Si number density = 17.626697 Si / 1000 Ang^3
#
#
#
# Elastic Constant Matrix: (Units=GPa)
#
#
# Indices 1 2 3 4 5 6 
#
# 1 70.3525 27.6662 23.5504 0.0000 -23.6465 0.0000
# 2 27.6662 53.5289 27.6130 0.0000 -0.8559 0.0000
# 3 23.5504 27.6130 102.5754 0.0000 -11.6219 0.0000
# 4 0.0000 0.0000 0.0000 14.5639 0.0000 -7.4777
# 5 -23.6465 -0.8559 -11.6219 0.0000 25.9619 0.0000
# 6 0.0000 0.0000 0.0000 -7.4777 0.0000 16.8895
#
#
#
# Elastic Compliance Matrix: (Units=1/GPa)
#
#
# Indices 1 2 3 4 5 6 
#
# 1 0.028331 -0.014362 0.000244 0.000000 0.025440 0.000000
# 2 -0.014362 0.029074 -0.006218 0.000000 -0.014906 0.000000
# 3 0.000244 -0.006218 0.011976 0.000000 0.005378 0.000000
# 4 0.000000 0.000000 0.000000 0.088864 0.000000 0.039343
# 5 0.025440 -0.014906 0.005378 0.000000 0.063605 0.000000
# 6 0.000000 0.000000 0.000000 0.039343 0.000000 0.076627
#
#
# Mechanical properties :
#
#
# Convention : Reuss Voigt Hill
#
# Bulk Modulus (GPa) = 34.83231 42.67957 38.75594
# Shear Modulus (GPa) = 14.33821 21.32487 17.83154
#
# Velocity S-wave (km/s) = 2.85518 3.48200 3.18405
# Velocity P-wave (km/s) = 5.53836 6.35856 5.96258
#
# Compressibility (1/GPa) = 0.02870898
#
# Stress axis : x y z
#
# Youngs Moduli (GPa) = 35.29693 34.39539 83.49915
#
# Poissons Ratio (x) = 0.49398 -0.02037
# Poissons Ratio (y) = 0.50693 0.51920
# Poissons Ratio (z) = -0.00861 0.21387
#
# Static dielectric constant tensor:
#      x y z
#    x 3.598310 0.000000 -0.325110 
#    y 0.000000 3.077150 0.000000 
#    z -0.325110 0.000000 3.271270 
# 
# 
# High freq. dielectric constant tensor:
#      x y z
#    x 1.678380 0.000000 -0.013890 
#    y 0.000000 1.661900 0.000000 
#    z -0.013890 0.000000 1.660730 
# 
# From -- ./inp_files/215964.got.cif
#   From: 2010.06.25/outbox.cif.g09.slc.cpg/sg12_108_cif.got.tgz:215964.got - 2010.06.28 00:19:55.
