data_PCOD8086414
_publ_section_title
;
Structure prediction by ZEFSAII (Michael W. Deem and Ramdas Pophale) SiO2 
 PCOD8086414
Probable space group: C 2/M
;
_chemical_formula_sum "Si O2"
_cell_formula_units_Z 48
_cell_length_a 22.911853
_cell_length_b 9.163689
_cell_length_c 17.169700
_cell_angle_alpha 90.000000
_cell_angle_beta 130.915146
_cell_angle_gamma 90.000000
_cell_volume 2724.152399
_symmetry_space_group_name_H-M "C 2/M"
_symmetry_group_IT_number 12
_symmetry_cell_setting 'monoclinic'
loop_
_space_group_symop_operation_xyz
x,y,z
-x,y,-z
-x,-y,-z
x,-y,z
1/2+x,1/2+y,z
1/2-x,1/2+y,-z
1/2-x,1/2-y,-z
1/2+x,1/2-y,z
loop_
_atom_site_type_symbol
_atom_site_label
_atom_site_fract_x
_atom_site_fract_y
_atom_site_fract_z
Si Si1 0.222702 0.831034 0.739670
Si Si2 0.456258 0.840672 0.254734
Si Si3 0.420729 0.839937 0.399679
Si Si4 0.633405 0.829748 0.402425
Si Si5 0.732204 0.670107 0.363741
Si Si6 0.192936 0.172115 0.891647
O O1 0.139791 0.785007 0.633058
O O2 0.279696 0.739564 0.733260
O O3 0.225314 0.790063 0.833316
O O4 0.238234 0.000000 0.739323
O O5 0.426098 0.867093 0.313957
O O6 0.544017 0.780089 0.333720
O O7 0.394197 0.727500 0.164528
O O8 0.453397 0.000000 0.209397
O O9 0.500000 0.776316 0.500000
O O10 0.400463 0.000000 0.420736
O O11 0.666404 0.737842 0.360073
O O12 0.682942 0.797522 0.524222
O O13 0.639214 0.000000 0.386709
O O14 0.716134 0.500000 0.342051
O O15 0.193184 0.000000 0.905385
O O16 0.250000 0.250000 0.000000
#
# Coordination Sequence:
#
# PCOD8086414 Si02
#       6
#     8   8   8   8   8   8
#     4  10  20  32  47  70  98 127 161 201 244 291
#     4   9  17  30  49  71  97 129 162 198 242 290
#     4   9  16  27  44  67  96 128 160 193 232 284
#     4   9  18  32  49  72 103 138 172 202 235 280
#     4  10  19  31  49  73 102 138 174 203 235 279
#     4  10  21  36  54  75  97 123 159 204 255 304
#
# _framework density 17.620161
#
# number of rings (size 3 to 8) (size 9 to 14) (size 15 to 20)
#    0.000    2.500    0.000    2.500    0.000    6.333 
#    0.000    3.333    0.000    1.000    0.000    7.000 
#    0.000    0.000    0.000    0.000    0.000    0.000 
#
# Total GULP energy -297318.765939 kJ/mol
# GULP energy per Si atom -12388.281914 kJ/mol
# Density = 1.758006 g / cm^3
# Si number density = 17.620161 Si / 1000 Ang^3
#
#
#
# Elastic Constant Matrix: (Units=GPa)
#
#
# Indices 1 2 3 4 5 6 
#
# 1 79.3058 50.0248 25.5350 0.0000 -3.0806 0.0000
# 2 50.0248 89.0725 44.6689 0.0000 -6.2848 0.0000
# 3 25.5350 44.6689 63.5100 0.0000 0.7961 0.0000
# 4 0.0000 0.0000 0.0000 28.8906 0.0000 8.0451
# 5 -3.0806 -6.2848 0.7961 0.0000 24.7363 0.0000
# 6 0.0000 0.0000 0.0000 8.0451 0.0000 39.1155
#
#
#
# Elastic Compliance Matrix: (Units=1/GPa)
#
#
# Indices 1 2 3 4 5 6 
#
# 1 0.019532 -0.010902 -0.000181 0.000000 -0.000332 0.000000
# 2 -0.010902 0.024019 -0.012575 0.000000 0.005150 0.000000
# 3 -0.000181 -0.012575 0.024713 0.000000 -0.004013 0.000000
# 4 0.000000 0.000000 0.000000 0.036716 0.000000 -0.007552
# 5 -0.000332 0.005150 -0.004013 0.000000 0.041823 0.000000
# 6 0.000000 0.000000 0.000000 -0.007552 0.000000 0.027119
#
#
# Mechanical properties :
#
#
# Convention : Reuss Voigt Hill
#
# Bulk Modulus (GPa) = 47.73703 52.48284 50.10994
# Shear Modulus (GPa) = 21.90881 25.99246 23.95063
#
# Velocity S-wave (km/s) = 3.53001 3.84494 3.69083
# Velocity P-wave (km/s) = 6.61556 7.04001 6.83108
#
# Compressibility (1/GPa) = 0.02094810
#
# Stress axis : x y z
#
# Youngs Moduli (GPa) = 51.19921 41.63381 40.46477
#
# Poissons Ratio (x) = 0.45389 0.00733
# Poissons Ratio (y) = 0.55817 0.50883
# Poissons Ratio (z) = 0.00927 0.52353
#
# Static dielectric constant tensor:
#      x y z
#    x 3.202690 0.000000 -0.200640 
#    y 0.000000 3.461480 0.000000 
#    z -0.200640 0.000000 2.850620 
# 
# 
# High freq. dielectric constant tensor:
#      x y z
#    x 1.676500 0.000000 -0.004500 
#    y 0.000000 1.685430 0.000000 
#    z -0.004500 0.000000 1.650550 
# 
# From -- ./inp_files/281813.got.cif
#   From: 2010.06.25/outbox.cif.g09.slc.cpg/sg12_141_cif.got.tgz:281813.got - 2010.06.28 00:19:55.
