data_PCOD8086270
_publ_section_title
;
Structure prediction by ZEFSAII (Michael W. Deem and Ramdas Pophale) SiO2 
 PCOD8086270
Probable space group: C 2/M
;
_chemical_formula_sum "Si O2"
_cell_formula_units_Z 48
_cell_length_a 20.315094
_cell_length_b 8.867584
_cell_length_c 22.620465
_cell_angle_alpha 90.000000
_cell_angle_beta 41.295686
_cell_angle_gamma 90.000000
_cell_volume 2689.264288
_symmetry_space_group_name_H-M "C 2/M"
_symmetry_group_IT_number 12
_symmetry_cell_setting 'monoclinic'
loop_
_space_group_symop_operation_xyz
x,y,z
-x,y,-z
-x,-y,-z
x,-y,z
1/2+x,1/2+y,z
1/2-x,1/2+y,-z
1/2-x,1/2-y,-z
1/2+x,1/2-y,z
loop_
_atom_site_type_symbol
_atom_site_label
_atom_site_fract_x
_atom_site_fract_y
_atom_site_fract_z
Si Si1 0.430549 0.327224 0.269034
Si Si2 0.759303 0.177437 0.557709
Si Si3 0.773460 0.826932 0.904662
Si Si4 0.068282 0.829689 0.289980
Si Si5 0.591476 0.171512 0.094498
Si Si6 0.458326 0.825836 0.463851
O O1 0.400240 0.500000 0.281583
O O2 0.330339 0.229973 0.339723
O O3 0.495015 0.299222 0.284282
O O4 0.494116 0.275906 0.168390
O O5 0.750000 0.250000 0.500000
O O6 0.862247 0.223521 0.518474
O O7 0.756278 0.000000 0.551602
O O8 0.816943 0.803194 0.808963
O O9 0.827632 0.706431 0.909618
O O10 0.800142 0.000000 0.906266
O O11 0.652816 0.802660 0.991114
O O12 0.044027 0.714621 0.358680
O O13 0.053368 0.000000 0.323278
O O14 0.555274 0.000000 0.124889
O O15 0.500000 0.789470 0.500000
O O16 0.428905 0.000000 0.476467
#
# Coordination Sequence:
#
# PCOD8086270 Si02
#       6
#     8   8   8   8   8   8
#     4  10  19  31  48  73 104 135 168 211 255 305
#     4  12  23  36  56  79 103 136 175 216 261 313
#     4   8  15  26  40  62  96 132 167 206 252 303
#     4   9  17  30  49  71  98 135 174 213 255 304
#     4   9  15  24  40  65  97 132 166 205 251 303
#     4  11  24  39  54  75 105 139 176 219 262 308
#
# _framework density 17.848748000000001
#
# number of rings (size 3 to 8) (size 9 to 14) (size 15 to 20)
#    0.000    2.167    1.667    4.000    0.000    4.667 
#    0.000    0.000    0.000    0.000    0.000    1.167 
#    0.000    9.333    0.000    0.000    0.000    0.000 
#
# Total GULP energy -297460.081263 kJ/mol
# GULP energy per Si atom -12394.170053 kJ/mol
# Density = 1.780812 g / cm^3
# Si number density = 17.848748 Si / 1000 Ang^3
#
#
#
# Elastic Constant Matrix: (Units=GPa)
#
#
# Indices 1 2 3 4 5 6 
#
# 1 44.3038 35.9277 37.4704 0.0000 -1.5426 -0.0001
# 2 35.9277 108.9683 57.3255 0.0001 -4.7492 -0.0001
# 3 37.4704 57.3255 164.2128 0.0000 -10.7869 0.0000
# 4 0.0000 0.0001 0.0000 33.3482 0.0000 -2.6532
# 5 -1.5426 -4.7492 -10.7869 0.0000 13.1271 0.0000
# 6 -0.0001 -0.0001 0.0000 -2.6532 0.0000 18.2673
#
#
#
# Elastic Compliance Matrix: (Units=1/GPa)
#
#
# Indices 1 2 3 4 5 6 
#
# 1 0.033585 -0.008661 -0.004848 0.000000 -0.003171 0.000000
# 2 -0.008661 0.013485 -0.002619 0.000000 0.001709 0.000000
# 3 -0.004848 -0.002619 0.008468 0.000000 0.005441 0.000000
# 4 0.000000 0.000000 0.000000 0.030337 0.000000 0.004406
# 5 -0.003171 0.001709 0.005441 0.000000 0.080895 0.000000
# 6 0.000000 0.000000 0.000000 0.004406 0.000000 0.055383
#
#
# Mechanical properties :
#
#
# Convention : Reuss Voigt Hill
#
# Bulk Modulus (GPa) = 42.95321 64.32577 53.63949
# Shear Modulus (GPa) = 19.07169 25.39926 22.23548
#
# Velocity S-wave (km/s) = 3.27236 3.77640 3.53338
# Velocity P-wave (km/s) = 6.19638 7.42513 6.83841
#
# Compressibility (1/GPa) = 0.02328115
#
# Stress axis : x y z
#
# Youngs Moduli (GPa) = 29.77521 74.15779 118.09705
#
# Poissons Ratio (x) = 0.64227 0.57257
# Poissons Ratio (y) = 0.25788 0.30929
# Poissons Ratio (z) = 0.14436 0.19421
#
# Static dielectric constant tensor:
#      x y z
#    x 2.923870 0.000000 -0.238880 
#    y 0.000000 3.392130 0.000000 
#    z -0.238880 0.000000 4.042040 
# 
# 
# High freq. dielectric constant tensor:
#      x y z
#    x 1.607180 0.000000 -0.011710 
#    y 0.000000 1.703090 0.000000 
#    z -0.011710 0.000000 1.721870 
# 
# From -- ./inp_files/345404.got.cif
#   From: 2010.06.25/outbox.cif.g09.slc.cpg/sg12_173_cif.got.tgz:345404.got - 2010.06.28 00:19:55.
