data_PCOD8086802
_publ_section_title
;
Structure prediction by ZEFSAII (Michael W. Deem and Ramdas Pophale) SiO2 
 PCOD8086802
Probable space group: C 2/M
;
_chemical_formula_sum "Si O2"
_cell_formula_units_Z 64
_cell_length_a 20.652920
_cell_length_b 9.113358
_cell_length_c 24.556101
_cell_angle_alpha 90.000000
_cell_angle_beta 129.246934
_cell_angle_gamma 90.000000
_cell_volume 3579.311621
_symmetry_space_group_name_H-M "C 2/M"
_symmetry_group_IT_number 12
_symmetry_cell_setting 'monoclinic'
loop_
_space_group_symop_operation_xyz
x,y,z
-x,y,-z
-x,-y,-z
x,-y,z
1/2+x,1/2+y,z
1/2-x,1/2+y,-z
1/2-x,1/2-y,-z
1/2+x,1/2-y,z
loop_
_atom_site_type_symbol
_atom_site_label
_atom_site_fract_x
_atom_site_fract_y
_atom_site_fract_z
Si Si1 0.713929 0.829104 0.205477
Si Si2 0.993048 0.330881 0.651715
Si Si3 0.404165 0.172788 0.952920
Si Si4 0.342644 0.167790 0.204634
Si Si5 0.241571 0.173284 0.655778
Si Si6 0.056767 0.826242 0.579744
Si Si7 0.729800 0.326107 0.045948
Si Si8 0.194769 0.674030 0.424828
O O1 0.634538 0.785635 0.126538
O O2 0.798309 0.756598 0.228815
O O3 0.699919 0.782858 0.261221
O O4 0.731888 0.000000 0.211398
O O5 0.993013 0.500000 0.633926
O O6 0.057605 0.305836 0.736639
O O7 0.019952 0.235842 0.615258
O O8 0.901621 0.279926 0.621292
O O9 0.356063 0.261193 0.974622
O O10 0.396559 0.000000 0.961828
O O11 0.500000 0.223475 0.000000
O O12 0.307944 0.214570 0.126904
O O13 0.318520 0.000000 0.201748
O O14 0.149220 0.235933 0.617682
O O15 0.277484 0.238817 0.618988
O O16 0.237938 0.000000 0.647008
O O17 0.000000 0.771675 0.500000
O O18 0.056923 0.000000 0.585070
O O19 0.719365 0.500000 0.032209
O O20 0.750000 0.250000 0.000000
O O21 0.207359 0.500000 0.435991
O O22 0.250000 0.750000 0.500000
#
# Coordination Sequence:
#
# PCOD8086802 Si02
#       8
#     8   8   8   8   8   8   8   8
#     4   9  16  30  53  77 100 132 170 208 252 299
#     4  10  20  34  52  76 103 132 166 207 258 307
#     4   9  18  33  53  81 110 137 174 216 259 311
#     4   9  18  33  52  77 105 135 168 208 259 306
#     4   9  17  31  50  73  97 128 168 205 244 294
#     4  10  19  31  51  76  99 127 166 209 248 295
#     4  10  20  35  55  79 109 144 178 216 263 313
#     4  10  21  37  53  71 100 135 170 207 254 307
#
# _framework density 17.880533
#
# number of rings (size 3 to 8) (size 9 to 14) (size 15 to 20)
#    0.000    2.500    1.250    1.125    0.000    2.500 
#    2.250    1.250    0.000    0.000    0.000    0.000 
#    0.000    0.000    0.000    0.000    0.000    0.000 
#
# Total GULP energy -396688.963727 kJ/mol
# GULP energy per Si atom -12396.530116 kJ/mol
# Density = 1.783984 g / cm^3
# Si number density = 17.880533 Si / 1000 Ang^3
#
#
#
# Elastic Constant Matrix: (Units=GPa)
#
#
# Indices 1 2 3 4 5 6 
#
# 1 150.1473 39.6922 94.1155 0.0000 -5.5583 0.0000
# 2 39.6922 35.9091 37.6851 0.0000 -2.6338 0.0000
# 3 94.1155 37.6851 143.2108 0.0000 -3.4913 0.0000
# 4 0.0000 0.0000 0.0000 22.4681 0.0000 -3.6571
# 5 -5.5583 -2.6338 -3.4913 0.0000 37.8748 0.0000
# 6 0.0000 0.0000 0.0000 -3.6571 0.0000 25.5324
#
#
#
# Elastic Compliance Matrix: (Units=1/GPa)
#
#
# Indices 1 2 3 4 5 6 
#
# 1 0.012565 -0.007165 -0.006353 0.000000 0.000760 0.000000
# 2 -0.007165 0.042674 -0.006488 0.000000 0.001318 0.000000
# 3 -0.006353 -0.006488 0.012861 0.000000 -0.000198 0.000000
# 4 0.000000 0.000000 0.000000 0.045570 0.000000 0.006527
# 5 0.000760 0.001318 -0.000198 0.000000 0.026588 0.000000
# 6 0.000000 0.000000 0.000000 0.006527 0.000000 0.040101
#
#
# Mechanical properties :
#
#
# Convention : Reuss Voigt Hill
#
# Bulk Modulus (GPa) = 35.60550 74.69474 55.15012
# Shear Modulus (GPa) = 21.76426 27.69334 24.72880
#
# Velocity S-wave (km/s) = 3.49263 3.93975 3.72291
# Velocity P-wave (km/s) = 6.01838 7.90952 7.02785
#
# Compressibility (1/GPa) = 0.02808555
#
# Stress axis : x y z
#
# Youngs Moduli (GPa) = 79.58702 23.43330 77.75683
#
# Poissons Ratio (x) = 0.16791 0.49402
# Poissons Ratio (y) = 0.57026 0.50452
# Poissons Ratio (z) = 0.50565 0.15205
#
# Static dielectric constant tensor:
#      x y z
#    x 3.644830 0.000000 0.226970 
#    y 0.000000 3.158630 0.000000 
#    z 0.226970 0.000000 3.808830 
# 
# 
# High freq. dielectric constant tensor:
#      x y z
#    x 1.681850 0.000000 0.000280 
#    y 0.000000 1.674500 0.000000 
#    z 0.000280 0.000000 1.708000 
# 
# From -- ./inp_files/346153.got.cif
#   From: 2010.06.25/outbox.cif.g09.slc.cpg/sg12_174_cif.got.tgz:346153.got - 2010.06.28 00:19:55.
