data_PCOD8086116
_publ_section_title
;
Structure prediction by ZEFSAII (Michael W. Deem and Ramdas Pophale) SiO2 
 PCOD8086116
Probable space group: C 2/M
;
_chemical_formula_sum "Si O2"
_cell_formula_units_Z 48
_cell_length_a 25.299496
_cell_length_b 8.722887
_cell_length_c 24.290823
_cell_angle_alpha 90.000000
_cell_angle_beta 150.447819
_cell_angle_gamma 90.000000
_cell_volume 2643.939514
_symmetry_space_group_name_H-M "C 2/M"
_symmetry_group_IT_number 12
_symmetry_cell_setting 'monoclinic'
loop_
_space_group_symop_operation_xyz
x,y,z
-x,y,-z
-x,-y,-z
x,-y,z
1/2+x,1/2+y,z
1/2-x,1/2+y,-z
1/2-x,1/2-y,-z
1/2+x,1/2-y,z
loop_
_atom_site_type_symbol
_atom_site_label
_atom_site_fract_x
_atom_site_fract_y
_atom_site_fract_z
Si Si1 0.093628 0.681886 0.729002
Si Si2 0.515032 0.318487 0.880847
Si Si3 0.132864 0.681130 0.886256
Si Si4 0.435122 0.817343 0.494249
Si Si5 0.687790 0.317672 0.124804
Si Si6 0.800355 0.817801 0.741529
O O1 0.097680 0.500000 0.729055
O O2 0.084385 0.735774 0.783759
O O3 0.202870 0.748556 0.802003
O O4 0.992740 0.743247 0.602058
O O5 0.525272 0.500000 0.882215
O O6 0.549891 0.237776 0.856502
O O7 0.393829 0.265987 0.784528
O O8 0.589136 0.261054 0.998235
O O9 0.144668 0.500000 0.899409
O O10 0.250000 0.750000 0.000000
O O11 0.500000 0.755917 0.500000
O O12 0.313666 0.753137 0.383137
O O13 0.433583 0.000000 0.491385
O O14 0.690696 0.500000 0.128491
O O15 0.674899 0.253185 0.174959
O O16 0.796685 0.000000 0.741439
#
# Coordination Sequence:
#
# PCOD8086116 Si02
#       6
#     8   8   8   8   8   8
#     4   9  16  26  43  68  95 121 155 199 243 281
#     4  10  19  31  47  72 104 131 158 194 239 288
#     4  11  21  34  51  71  96 129 164 198 238 284
#     4   9  14  23  41  67  98 124 153 197 244 284
#     4   9  14  24  43  69  97 124 154 196 245 285
#     4   9  16  25  43  71 100 129 158 196 243 286
#
# _framework density 18.154727000000001
#
# number of rings (size 3 to 8) (size 9 to 14) (size 15 to 20)
#    0.000    2.500    3.333    1.000    0.000    2.000 
#    0.000    0.833    0.000    2.000    0.000    1.167 
#    0.000    4.667    0.000    0.000    0.000    0.000 
#
# Total GULP energy -297503.128654 kJ/mol
# GULP energy per Si atom -12395.963694 kJ/mol
# Density = 1.811341 g / cm^3
# Si number density = 18.154727 Si / 1000 Ang^3
#
#
#
# Elastic Constant Matrix: (Units=GPa)
#
#
# Indices 1 2 3 4 5 6 
#
# 1 173.7853 24.2121 100.2820 0.0000 -0.6122 0.0000
# 2 24.2121 18.3397 16.7521 0.0000 -2.8135 0.0000
# 3 100.2820 16.7521 171.8240 0.0000 -1.4811 0.0000
# 4 0.0000 0.0000 0.0000 8.7096 0.0000 -1.1846
# 5 -0.6122 -2.8135 -1.4811 0.0000 37.8017 0.0000
# 6 0.0000 0.0000 0.0000 -1.1846 0.0000 22.9368
#
#
#
# Elastic Compliance Matrix: (Units=1/GPa)
#
#
# Indices 1 2 3 4 5 6 
#
# 1 0.009746 -0.008527 -0.004862 0.000000 -0.000667 0.000000
# 2 -0.008527 0.068001 -0.001611 0.000000 0.004860 0.000000
# 3 -0.004862 -0.001611 0.008816 0.000000 0.000147 0.000000
# 4 0.000000 0.000000 0.000000 0.115628 0.000000 0.005972
# 5 -0.000667 0.004860 0.000147 0.000000 0.026810 0.000000
# 6 0.000000 0.000000 0.000000 0.005972 0.000000 0.043907
#
#
# Mechanical properties :
#
#
# Convention : Reuss Voigt Hill
#
# Bulk Modulus (GPa) = 17.67980 71.82684 44.75332
# Shear Modulus (GPa) = 15.53938 28.73647 22.13793
#
# Velocity S-wave (km/s) = 2.92882 3.98284 3.49578
# Velocity P-wave (km/s) = 4.60401 7.79745 6.40301
#
# Compressibility (1/GPa) = 0.05656171
#
# Stress axis : x y z
#
# Youngs Moduli (GPa) = 102.60981 14.70557 113.42978
#
# Poissons Ratio (x) = 0.12540 0.55152
# Poissons Ratio (y) = 0.87498 0.18276
# Poissons Ratio (z) = 0.49892 0.02369
#
# Static dielectric constant tensor:
#      x y z
#    x 3.519510 0.000000 -0.058240 
#    y 0.000000 2.699010 0.000000 
#    z -0.058240 0.000000 3.700430 
# 
# 
# High freq. dielectric constant tensor:
#      x y z
#    x 1.708150 0.000000 -0.002680 
#    y 0.000000 1.633220 0.000000 
#    z -0.002680 0.000000 1.711340 
# 
# From -- ./inp_files/173475.got.cif
#   From: 2010.06.25/outbox.cif.g09.slc.cpg/sg12_87_cif.got.tgz:173475.got - 2010.06.28 00:19:55.
