data_PCOD8086005
_publ_section_title
;
Structure prediction by ZEFSAII (Michael W. Deem and Ramdas Pophale) SiO2 
 PCOD8086005
Probable space group: C 2/M
;
_chemical_formula_sum "Si O2"
_cell_formula_units_Z 64
_cell_length_a 17.904814
_cell_length_b 9.190879
_cell_length_c 21.478077
_cell_angle_alpha 90.000000
_cell_angle_beta 101.147768
_cell_angle_gamma 90.000000
_cell_volume 3467.764660
_symmetry_space_group_name_H-M "C 2/M"
_symmetry_group_IT_number 12
_symmetry_cell_setting 'monoclinic'
loop_
_space_group_symop_operation_xyz
x,y,z
-x,y,-z
-x,-y,-z
x,-y,z
1/2+x,1/2+y,z
1/2-x,1/2+y,-z
1/2-x,1/2-y,-z
1/2+x,1/2-y,z
loop_
_atom_site_type_symbol
_atom_site_label
_atom_site_fract_x
_atom_site_fract_y
_atom_site_fract_z
Si Si1 0.739472 0.665515 0.816360
Si Si2 0.835386 0.167369 0.562387
Si Si3 0.053886 0.833432 0.062632
Si Si4 0.417227 0.837516 0.815195
Si Si5 0.812411 0.166903 0.425777
Si Si6 0.612493 0.339202 0.302809
Si Si7 0.729322 0.331629 0.059197
Si Si8 0.291782 0.164909 0.305971
O O1 0.710667 0.500000 0.819784
O O2 0.828091 0.668523 0.814372
O O3 0.725086 0.754641 0.877380
O O4 0.691786 0.743679 0.753997
O O5 0.866430 0.186192 0.496155
O O6 0.770752 0.286229 0.564290
O O7 0.901352 0.193610 0.625538
O O8 0.804549 0.000000 0.565653
O O9 0.037700 0.748343 0.123985
O O10 0.139875 0.815456 0.054715
O O11 0.032651 0.000000 0.072368
O O12 0.000000 0.768407 0.000000
O O13 0.432972 0.769879 0.749456
O O14 0.449143 0.000000 0.819585
O O15 0.838787 0.263950 0.371176
O O16 0.809756 0.000000 0.402982
O O17 0.583913 0.500000 0.280334
O O18 0.702905 0.327781 0.307310
O O19 0.753996 0.500000 0.059645
O O20 0.750000 0.250000 0.000000
O O21 0.319659 0.000000 0.300467
#
# Coordination Sequence:
#
# PCOD8086005 Si02
#       8
#     8   8   8   8   8   8   8   8
#     4   9  16  26  39  55  74  97 128 164 201 241
#     4   8  14  21  27  37  55  81 114 152 193 234
#     4   9  18  32  48  64  83 110 142 173 207 249
#     4   9  16  24  36  55  75  95 123 162 204 242
#     4   9  14  19  27  39  56  80 113 153 194 234
#     4   8  13  21  31  42  60  88 120 154 192 235
#     4  10  19  31  47  66  88 112 139 173 211 252
#     4   9  15  22  31  44  63  88 119 155 196 238
#
# _framework density 18.455691999999999
#
# number of rings (size 3 to 8) (size 9 to 14) (size 15 to 20)
#    0.000    3.125    0.000    2.625    0.000    7.250 
#    0.000    0.000    0.000    0.000    0.000    0.000 
#    0.000    0.000    0.000    0.000    0.000    1.250 
#
# Total GULP energy -396510.767951 kJ/mol
# GULP energy per Si atom -12390.961498 kJ/mol
# Density = 1.841369 g / cm^3
# Si number density = 18.455692 Si / 1000 Ang^3
#
#
#
# Elastic Constant Matrix: (Units=GPa)
#
#
# Indices 1 2 3 4 5 6 
#
# 1 1.9546 9.1748 10.9575 0.0000 1.9531 0.0000
# 2 9.1748 145.7263 100.6494 0.0000 2.8637 0.0000
# 3 10.9575 100.6494 213.9748 0.0000 7.5837 0.0000
# 4 0.0000 0.0000 0.0000 39.0452 0.0000 -1.0739
# 5 1.9531 2.8637 7.5837 0.0000 12.9450 0.0000
# 6 0.0000 0.0000 0.0000 -1.0739 0.0000 6.7665
#
#
#
# Elastic Compliance Matrix: (Units=1/GPa)
#
#
# Indices 1 2 3 4 5 6 
#
# 1 0.972000 -0.040597 -0.026348 0.000000 -0.122235 0.000000
# 2 -0.040597 0.011864 -0.003703 0.000000 0.005670 0.000000
# 3 -0.026348 -0.003703 0.007755 0.000000 0.000251 0.000000
# 4 0.000000 0.000000 0.000000 0.025724 0.000000 0.004082
# 5 -0.122235 0.005670 0.000251 0.000000 0.094291 0.000000
# 6 0.000000 0.000000 0.000000 0.004082 0.000000 0.148436
#
#
# Mechanical properties :
#
#
# Convention : Reuss Voigt Hill
#
# Bulk Modulus (GPa) = 1.17602 67.02437 34.10020
# Shear Modulus (GPa) = 2.96770 27.80961 15.38866
#
# Velocity S-wave (km/s) = 1.26945 3.88600 2.89072
# Velocity P-wave (km/s) = 1.66951 7.51864 5.44597
#
# Compressibility (1/GPa) = 0.85032600
#
# Stress axis : x y z
#
# Youngs Moduli (GPa) = 1.02881 84.28885 128.94215
#
# Poissons Ratio (x) = 3.42184 3.39731
# Poissons Ratio (y) = 0.04177 0.47742
# Poissons Ratio (z) = 0.02711 0.31209
#
# Static dielectric constant tensor:
#      x y z
#    x 2.554480 0.000000 0.109530 
#    y 0.000000 3.570980 0.000000 
#    z 0.109530 0.000000 4.007700 
# 
# 
# High freq. dielectric constant tensor:
#      x y z
#    x 1.604900 0.000000 0.004980 
#    y 0.000000 1.728000 0.000000 
#    z 0.004980 0.000000 1.748880 
# 
# From -- ./inp_files/319260.got.cif
#   From: 2010.06.25/outbox.cif.g09.slc.cpg/sg12_160_cif.got.tgz:319260.got - 2010.06.28 00:19:55.
