data_PCOD8086441
_publ_section_title
;
Structure prediction by ZEFSAII (Michael W. Deem and Ramdas Pophale) SiO2 
 PCOD8086441
Probable space group: C 2/M
;
_chemical_formula_sum "Si O2"
_cell_formula_units_Z 64
_cell_length_a 19.072581
_cell_length_b 9.199143
_cell_length_c 20.674535
_cell_angle_alpha 90.000000
_cell_angle_beta 89.943247
_cell_angle_gamma 90.000000
_cell_volume 3627.374331
_symmetry_space_group_name_H-M "C 2/M"
_symmetry_group_IT_number 12
_symmetry_cell_setting 'monoclinic'
loop_
_space_group_symop_operation_xyz
x,y,z
-x,y,-z
-x,-y,-z
x,-y,z
1/2+x,1/2+y,z
1/2-x,1/2+y,-z
1/2-x,1/2-y,-z
1/2+x,1/2-y,z
loop_
_atom_site_type_symbol
_atom_site_label
_atom_site_fract_x
_atom_site_fract_y
_atom_site_fract_z
Si Si1 0.325862 0.329638 0.639410
Si Si2 0.824148 0.673321 0.999371
Si Si3 0.419118 0.165841 0.739656
Si Si4 0.322575 0.329672 0.359072
Si Si5 0.422327 0.172150 0.884526
Si Si6 0.922565 0.672013 0.113763
Si Si7 0.179348 0.165557 0.500727
Si Si8 0.916069 0.334303 0.258823
O O1 0.314028 0.500000 0.651513
O O2 0.380938 0.271527 0.690536
O O3 0.251672 0.250192 0.647776
O O4 0.359952 0.299832 0.567278
O O5 0.814469 0.500000 0.999779
O O6 0.867074 0.730316 0.061684
O O7 0.750000 0.750000 0.000000
O O8 0.865629 0.728918 0.935908
O O9 0.398880 0.216828 0.812252
O O10 0.501664 0.180707 0.728886
O O11 0.395006 0.000000 0.727774
O O12 0.310196 0.500000 0.347363
O O13 0.358367 0.299801 0.430432
O O14 0.376335 0.272289 0.306533
O O15 0.499689 0.236890 0.900405
O O16 0.428110 0.000000 0.888542
O O17 0.927951 0.500000 0.108515
O O18 0.897540 0.715261 0.185757
O O19 0.250000 0.250000 0.500000
O O20 0.202367 0.000000 0.500475
O O21 0.891760 0.500000 0.270821
#
# Coordination Sequence:
#
# PCOD8086441 Si02
#       8
#     8   8   8   8   8   8   8   8
#     4  10  19  32  51  73  97 126 162 201 242 288
#     4  10  19  31  49  73  99 124 154 194 238 280
#     4   9  18  33  51  72  99 128 160 200 243 286
#     4  10  19  32  51  73  97 126 162 201 242 288
#     4   8  15  30  52  72  90 121 164 200 229 272
#     4   8  15  30  52  72  90 121 164 200 229 272
#     4   8  16  30  47  68  93 123 159 199 239 282
#     4   9  18  33  51  72  99 128 160 200 243 286
#
# _framework density 17.643616000000002
#
# number of rings (size 3 to 8) (size 9 to 14) (size 15 to 20)
#    0.000    3.000    0.000    2.625    0.000    4.000 
#    0.000    4.375    0.000    6.750    0.000    0.000 
#    0.000    0.000    0.000    0.000    0.000    0.000 
#
# Total GULP energy -396478.096017 kJ/mol
# GULP energy per Si atom -12389.940501 kJ/mol
# Density = 1.760346 g / cm^3
# Si number density = 17.643616 Si / 1000 Ang^3
#
#
#
# Elastic Constant Matrix: (Units=GPa)
#
#
# Indices 1 2 3 4 5 6 
#
# 1 78.2253 34.9290 71.6954 0.0000 9.7689 0.0000
# 2 34.9290 57.3067 50.1288 0.0000 5.7940 0.0000
# 3 71.6954 50.1288 155.6763 0.0000 17.6589 0.0000
# 4 0.0000 0.0000 0.0000 24.5553 0.0000 -0.0756
# 5 9.7689 5.7940 17.6589 0.0000 10.8802 0.0000
# 6 0.0000 0.0000 0.0000 -0.0756 0.0000 30.0881
#
#
#
# Elastic Compliance Matrix: (Units=1/GPa)
#
#
# Indices 1 2 3 4 5 6 
#
# 1 0.024091 -0.006919 -0.008373 0.000000 -0.004357 0.000000
# 2 -0.006919 0.026281 -0.005384 0.000000 0.000957 0.000000
# 3 -0.008373 -0.005384 0.013280 0.000000 -0.011170 0.000000
# 4 0.000000 0.000000 0.000000 0.040725 0.000000 0.000102
# 5 -0.004357 0.000957 -0.011170 0.000000 0.113441 0.000000
# 6 0.000000 0.000000 0.000000 0.000102 0.000000 0.033236
#
#
# Mechanical properties :
#
#
# Convention : Reuss Voigt Hill
#
# Bulk Modulus (GPa) = 44.84451 67.19051 56.01751
# Shear Modulus (GPa) = 16.67558 22.06839 19.37198
#
# Velocity S-wave (km/s) = 3.07764 3.54048 3.31714
# Velocity P-wave (km/s) = 6.17261 7.40797 6.81833
#
# Compressibility (1/GPa) = 0.02229927
#
# Stress axis : x y z
#
# Youngs Moduli (GPa) = 41.50930 38.05090 75.29905
#
# Poissons Ratio (x) = 0.26328 0.63045
# Poissons Ratio (y) = 0.28721 0.40544
# Poissons Ratio (z) = 0.34754 0.20488
#
# Static dielectric constant tensor:
#      x y z
#    x 3.067720 0.000000 0.009170 
#    y 0.000000 3.026240 0.000000 
#    z 0.009170 0.000000 3.967950 
# 
# 
# High freq. dielectric constant tensor:
#      x y z
#    x 1.659340 0.000000 0.000400 
#    y 0.000000 1.658760 0.000000 
#    z 0.000400 0.000000 1.704680 
# 
# From -- ./inp_files/314042.got.cif
#   From: 2010.06.25/outbox.cif.g09.slc.cpg/sg12_158_cif.got.tgz:314042.got - 2010.06.28 00:19:55.
