data_PCOD8086552
_publ_section_title
;
Structure prediction by ZEFSAII (Michael W. Deem and Ramdas Pophale) SiO2 
 PCOD8086552
Probable space group: C 2/M
;
_chemical_formula_sum "Si O2"
_cell_formula_units_Z 64
_cell_length_a 14.013389
_cell_length_b 17.881350
_cell_length_c 14.661457
_cell_angle_alpha 90.000000
_cell_angle_beta 102.555448
_cell_angle_gamma 90.000000
_cell_volume 3585.987214
_symmetry_space_group_name_H-M "C 2/M"
_symmetry_group_IT_number 12
_symmetry_cell_setting 'monoclinic'
loop_
_space_group_symop_operation_xyz
x,y,z
-x,y,-z
-x,-y,-z
x,-y,z
1/2+x,1/2+y,z
1/2-x,1/2+y,-z
1/2-x,1/2-y,-z
1/2+x,1/2-y,z
loop_
_atom_site_type_symbol
_atom_site_label
_atom_site_fract_x
_atom_site_fract_y
_atom_site_fract_z
Si Si1 0.036590 0.283374 0.103901
Si Si2 0.258878 0.197675 0.788681
Si Si3 0.545318 0.698482 0.747874
Si Si4 0.158871 0.583369 0.331396
Si Si5 0.276118 0.086024 0.456649
Si Si6 0.957511 0.416414 0.190648
Si Si7 0.951243 0.912420 0.585795
Si Si8 0.844602 0.671198 0.299632
O O1 0.151899 0.304092 0.121067
O O2 0.021574 0.221559 0.179929
O O3 0.975431 0.359123 0.111320
O O4 0.000000 0.250990 0.000000
O O5 0.153312 0.175252 0.810314
O O6 0.275180 0.140300 0.710263
O O7 0.252844 0.281983 0.746487
O O8 0.497418 0.632204 0.680236
O O9 0.562148 0.771317 0.685904
O O10 0.200657 0.500000 0.322441
O O11 0.167299 0.603490 0.438863
O O12 0.046433 0.588491 0.280261
O O13 0.162774 0.107797 0.443328
O O14 0.332095 0.136619 0.395799
O O15 0.286289 0.000000 0.429179
O O16 0.944729 0.500000 0.148105
O O17 0.860934 0.393555 0.227235
O O18 0.000000 0.888729 0.500000
O O19 0.968829 0.000000 0.608329
#
# Coordination Sequence:
#
# PCOD8086552 Si02
#       8
#     8   8   8   8   8   8   8   8
#     4  10  20  36  57  81 105 131 173 218 265 321
#     4   9  19  34  52  75  99 138 164 211 267 306
#     4   9  20  36  50  79 107 139 168 211 266 307
#     4   9  18  32  49  72 103 139 176 214 257 303
#     4  10  19  31  50  73 101 141 183 216 250 299
#     4   9  18  35  53  72 105 137 170 217 263 312
#     4  10  20  35  55  78 106 141 182 219 251 297
#     4   9  19  33  47  76 103 138 177 207 258 314
#
# _framework density 17.847248
#
# number of rings (size 3 to 8) (size 9 to 14) (size 15 to 20)
#    0.750    1.875    0.000    1.875    0.000    3.250 
#    6.750    1.875    0.000    0.375    0.000    0.000 
#    0.000    0.000    0.000    0.000    0.000    0.000 
#
# Total GULP energy -396556.964654 kJ/mol
# GULP energy per Si atom -12392.405145 kJ/mol
# Density = 1.780663 g / cm^3
# Si number density = 17.847248 Si / 1000 Ang^3
#
#
#
# Elastic Constant Matrix: (Units=GPa)
#
#
# Indices 1 2 3 4 5 6 
#
# 1 58.4411 22.7642 32.2806 0.0000 -5.1680 0.0000
# 2 22.7642 72.8150 33.9366 0.0000 -4.5759 0.0000
# 3 32.2806 33.9366 89.2491 0.0000 2.1972 0.0000
# 4 0.0000 0.0000 0.0000 18.0048 0.0000 4.6991
# 5 -5.1680 -4.5759 2.1972 0.0000 15.1064 0.0000
# 6 0.0000 0.0000 0.0000 4.6991 0.0000 21.4606
#
#
#
# Elastic Compliance Matrix: (Units=1/GPa)
#
#
# Indices 1 2 3 4 5 6 
#
# 1 0.023147 -0.003333 -0.007301 0.000000 0.007971 0.000000
# 2 -0.003333 0.017732 -0.005661 0.000000 0.005054 0.000000
# 3 -0.007301 -0.005661 0.016160 0.000000 -0.006563 0.000000
# 4 0.000000 0.000000 0.000000 0.058907 0.000000 -0.012899
# 5 0.007971 0.005054 -0.006563 0.000000 0.071409 0.000000
# 6 0.000000 0.000000 0.000000 -0.012899 0.000000 0.049421
#
#
# Mechanical properties :
#
#
# Convention : Reuss Voigt Hill
#
# Bulk Modulus (GPa) = 40.90333 44.27422 42.58877
# Shear Modulus (GPa) = 18.01697 19.68261 18.84979
#
# Velocity S-wave (km/s) = 3.18073 3.32450 3.25341
# Velocity P-wave (km/s) = 6.03802 6.29266 6.16665
#
# Compressibility (1/GPa) = 0.02444789
#
# Stress axis : x y z
#
# Youngs Moduli (GPa) = 43.20186 56.39658 61.88279
#
# Poissons Ratio (x) = 0.18796 0.45181
# Poissons Ratio (y) = 0.14398 0.35034
# Poissons Ratio (z) = 0.31542 0.31928
#
# Static dielectric constant tensor:
#      x y z
#    x 3.308390 0.000000 -0.006140 
#    y 0.000000 3.411540 0.000000 
#    z -0.006140 0.000000 2.913830 
# 
# 
# High freq. dielectric constant tensor:
#      x y z
#    x 1.692240 0.000000 -0.002430 
#    y 0.000000 1.690390 0.000000 
#    z -0.002430 0.000000 1.658190 
# 
# From -- ./inp_files/215968.got.cif
#   From: 2010.06.25/outbox.cif.g09.slc.cpg/sg12_108_cif.got.tgz:215968.got - 2010.06.28 00:19:55.
