data_PCOD8086813
_publ_section_title
;
Structure prediction by ZEFSAII (Michael W. Deem and Ramdas Pophale) SiO2 
 PCOD8086813
Probable space group: C 2/M
;
_chemical_formula_sum "Si O2"
_cell_formula_units_Z 40
_cell_length_a 9.315062
_cell_length_b 15.496020
_cell_length_c 29.117755
_cell_angle_alpha 90.000000
_cell_angle_beta 151.924351
_cell_angle_gamma 90.000000
_cell_volume 1978.107130
_symmetry_space_group_name_H-M "C 2/M"
_symmetry_group_IT_number 12
_symmetry_cell_setting 'monoclinic'
loop_
_space_group_symop_operation_xyz
x,y,z
-x,y,-z
-x,-y,-z
x,-y,z
1/2+x,1/2+y,z
1/2-x,1/2+y,-z
1/2-x,1/2-y,-z
1/2+x,1/2-y,z
loop_
_atom_site_type_symbol
_atom_site_label
_atom_site_fract_x
_atom_site_fract_y
_atom_site_fract_z
Si Si1 0.066074 0.357710 0.753244
Si Si2 0.661659 0.283096 0.891977
Si Si3 0.165578 0.594879 0.405132
Si Si4 0.915201 0.175206 0.722155
Si Si5 0.558219 0.096570 0.180444
O O1 0.430627 0.336847 0.859569
O O2 0.978142 0.418163 0.686116
O O3 0.903861 0.267321 0.694039
O O4 0.940777 0.400559 0.764058
O O5 0.587234 0.309166 0.819027
O O6 0.635282 0.178833 0.892778
O O7 0.000000 0.313313 0.000000
O O8 0.500000 0.639702 0.500000
O O9 0.200276 0.500000 0.436716
O O10 0.933004 0.647190 0.371183
O O11 0.099746 0.106525 0.743189
O O12 0.437321 0.000000 0.131809
#
# Coordination Sequence:
#
# PCOD8086813 Si02
#       5
#     8   8   8   8   8
#     4   9  19  35  54  74 101 135 169 205 247 298
#     4   9  19  36  54  71  98 139 176 201 239 300
#     4  10  20  35  55  76 100 133 169 205 249 301
#     4   9  19  35  54  74 101 135 169 205 247 298
#     4  10  19  31  51  77 104 131 162 210 258 288
#
# _framework density 20.221352
#
# number of rings (size 3 to 8) (size 9 to 14) (size 15 to 20)
#    0.000    2.600    0.000    2.400    0.000    8.400 
#    0.000    1.000    0.000   24.000    0.000    0.000 
#    0.000    0.000    0.000    0.000    0.000    0.000 
#
# Total GULP energy -247800.661836 kJ/mol
# GULP energy per Si atom -12390.033092 kJ/mol
# Density = 2.017533 g / cm^3
# Si number density = 20.221352 Si / 1000 Ang^3
#
#
#
# Elastic Constant Matrix: (Units=GPa)
#
#
# Indices 1 2 3 4 5 6 
#
# 1 108.0127 26.6462 35.8354 -0.0004 35.5527 0.0000
# 2 26.6462 87.6663 28.9735 -0.0011 14.5025 -0.0006
# 3 35.8354 28.9735 112.7162 -0.0021 42.7037 -0.0018
# 4 -0.0004 -0.0011 -0.0021 12.2537 -0.0008 -4.5152
# 5 35.5527 14.5025 42.7037 -0.0008 33.0782 -0.0006
# 6 0.0000 -0.0006 -0.0018 -4.5152 -0.0006 -6.2372
#
#
#
# Elastic Compliance Matrix: (Units=1/GPa)
#
#
# Indices 1 2 3 4 5 6 
#
# 1 0.015160 -0.002451 0.003085 0.000000 -0.019202 0.000001
# 2 -0.002451 0.012977 -0.002738 0.000000 0.000480 -0.000001
# 3 0.003085 -0.002738 0.018392 0.000000 -0.025860 -0.000003
# 4 0.000000 0.000000 0.000000 0.064423 0.000000 -0.046637
# 5 -0.019202 0.000480 -0.025860 0.000000 0.084045 -0.000001
# 6 0.000001 -0.000001 -0.000003 -0.046637 -0.000001 -0.126567
#
#
# Mechanical properties :
#
#
# Convention : Reuss Voigt Hill
#
# Bulk Modulus (GPa) = 23.62869 54.58948 39.10908
# Shear Modulus (GPa) = 57.64033 22.28161 39.96097
#
# Velocity S-wave (km/s) = 5.34477 3.32307 4.45024
# Velocity P-wave (km/s) = 7.05685 6.46361 6.76673
#
# Compressibility (1/GPa) = 0.04232144
#
# Stress axis : x y z
#
# Youngs Moduli (GPa) = 65.96434 77.05645 54.37152
#
# Poissons Ratio (x) = 0.18885 -0.16776
# Poissons Ratio (y) = 0.16167 0.14889
# Poissons Ratio (z) = -0.20353 0.21101
#
# Static dielectric constant tensor:
#      x y z
#    x 3.834650 0.000000 0.309280 
#    y 0.000000 3.655810 0.000000 
#    z 0.309280 0.000000 3.261500 
# 
# 
# High freq. dielectric constant tensor:
#      x y z
#    x 1.802400 0.000000 0.024060 
#    y 0.000000 1.786890 0.000000 
#    z 0.024060 0.000000 1.749870 
# 
# From -- ./inp_files/194458.got.cif
#   From: 2010.06.25/outbox.cif.g09.slc.cpg/sg12_98_cif.got.tgz:194458.got - 2010.06.28 00:19:55.
