data_PCOD8086601
_publ_section_title
;
Structure prediction by ZEFSAII (Michael W. Deem and Ramdas Pophale) SiO2 
 PCOD8086601
Probable space group: C 2/M
;
_chemical_formula_sum "Si O2"
_cell_formula_units_Z 56
_cell_length_a 12.526581
_cell_length_b 19.854458
_cell_length_c 12.416044
_cell_angle_alpha 90.000000
_cell_angle_beta 98.253306
_cell_angle_gamma 90.000000
_cell_volume 3055.993550
_symmetry_space_group_name_H-M "C 2/M"
_symmetry_group_IT_number 12
_symmetry_cell_setting 'monoclinic'
loop_
_space_group_symop_operation_xyz
x,y,z
-x,y,-z
-x,-y,-z
x,-y,z
1/2+x,1/2+y,z
1/2-x,1/2+y,-z
1/2-x,1/2-y,-z
1/2+x,1/2-y,z
loop_
_atom_site_type_symbol
_atom_site_label
_atom_site_fract_x
_atom_site_fract_y
_atom_site_fract_z
Si Si1 0.770012 0.798077 0.104139
Si Si2 0.113256 0.690869 0.274094
Si Si3 0.295486 0.317449 0.455468
Si Si4 0.925856 0.924097 0.592503
Si Si5 0.505142 0.926215 0.828719
Si Si6 0.959603 0.808006 0.295397
Si Si7 0.820804 0.427067 0.980349
O O1 0.668588 0.788626 0.168957
O O2 0.884793 0.789958 0.181414
O O3 0.771880 0.873521 0.057191
O O4 0.750000 0.750000 0.000000
O O5 0.202377 0.655975 0.362554
O O6 0.018875 0.634982 0.254951
O O7 0.061674 0.758353 0.314604
O O8 0.250000 0.250000 0.500000
O O9 0.323229 0.377052 0.544421
O O10 0.398772 0.297336 0.399223
O O11 0.000000 0.933295 0.500000
O O12 0.992514 0.884728 0.696766
O O13 0.891137 0.000000 0.626362
O O14 0.412007 0.926297 0.903443
O O15 0.506996 0.000000 0.771918
O O16 0.621578 0.911486 0.897698
O O17 0.764208 0.500000 0.975718
#
# Coordination Sequence:
#
# PCOD8086601 Si02
#       7
#     8   8   8   8   8   8   8
#     4  10  20  31  47  75 104 132 174 213 253 299
#     4  10  19  31  50  74 103 133 166 209 259 305
#     4  10  19  33  53  76 102 131 168 208 261 313
#     4   9  18  33  53  78 106 134 170 217 262 309
#     4   8  14  25  43  67  93 124 160 198 246 297
#     4  10  20  32  51  77 101 135 171 207 260 308
#     4   8  14  26  43  63  92 127 159 201 250 289
#
# _framework density 18.324646999999999
#
# number of rings (size 3 to 8) (size 9 to 14) (size 15 to 20)
#    0.000    2.714    1.429    1.714    0.000    2.857 
#    0.000    5.714    0.000    1.714    0.000    4.000 
#    0.000    0.000    0.000    0.000    0.000    0.000 
#
# Total GULP energy -346893.027980 kJ/mol
# GULP energy per Si atom -12389.036714 kJ/mol
# Density = 1.828294 g / cm^3
# Si number density = 18.324647 Si / 1000 Ang^3
#
#
#
# Elastic Constant Matrix: (Units=GPa)
#
#
# Indices 1 2 3 4 5 6 
#
# 1 61.2491 42.8743 25.0767 0.0000 12.9831 0.0000
# 2 42.8743 137.1514 40.7583 0.0000 9.0613 0.0000
# 3 25.0767 40.7583 62.3162 0.0000 15.3690 0.0000
# 4 0.0000 0.0000 0.0000 26.6440 0.0000 9.3465
# 5 12.9831 9.0613 15.3690 0.0000 18.7425 0.0000
# 6 0.0000 0.0000 0.0000 9.3465 0.0000 29.1775
#
#
#
# Elastic Compliance Matrix: (Units=1/GPa)
#
#
# Indices 1 2 3 4 5 6 
#
# 1 0.024095 -0.005875 -0.003056 0.000000 -0.011345 0.000000
# 2 -0.005875 0.010488 -0.005326 0.000000 0.003366 0.000000
# 3 -0.003056 -0.005326 0.024573 0.000000 -0.015458 0.000000
# 4 0.000000 0.000000 0.000000 0.042283 0.000000 -0.013545
# 5 -0.011345 0.003366 -0.015458 0.000000 0.072262 0.000000
# 6 0.000000 0.000000 0.000000 -0.013545 0.000000 0.038612
#
#
# Mechanical properties :
#
#
# Convention : Reuss Voigt Hill
#
# Bulk Modulus (GPa) = 32.63380 53.12615 42.87998
# Shear Modulus (GPa) = 19.91720 25.04663 22.48192
#
# Velocity S-wave (km/s) = 3.30041 3.70107 3.50647
# Velocity P-wave (km/s) = 5.68954 6.87884 6.31227
#
# Compressibility (1/GPa) = 0.03064308
#
# Stress axis : x y z
#
# Youngs Moduli (GPa) = 41.50271 95.34724 40.69555
#
# Poissons Ratio (x) = 0.56012 0.12436
# Poissons Ratio (y) = 0.24381 0.21674
# Poissons Ratio (z) = 0.12682 0.50781
#
# Static dielectric constant tensor:
#      x y z
#    x 3.271920 0.000000 0.390530 
#    y 0.000000 3.822850 0.000000 
#    z 0.390530 0.000000 3.317050 
# 
# 
# High freq. dielectric constant tensor:
#      x y z
#    x 1.686760 0.000000 0.033800 
#    y 0.000000 1.718300 0.000000 
#    z 0.033800 0.000000 1.685290 
# 
# From -- ./inp_files/133246.got.cif
#   From: 2010.06.25/outbox.cif.g09.slc.cpg/sg12_67_cif.got.tgz:133246.got - 2010.06.28 00:19:55.
