data_PCOD8086994
_publ_section_title
;
Structure prediction by ZEFSAII (Michael W. Deem and Ramdas Pophale) SiO2 
 PCOD8086994
Probable space group: C 2/M
;
_chemical_formula_sum "Si O2"
_cell_formula_units_Z 64
_cell_length_a 18.757387
_cell_length_b 12.055852
_cell_length_c 31.882932
_cell_angle_alpha 90.000000
_cell_angle_beta 152.928057
_cell_angle_gamma 90.000000
_cell_volume 3281.284249
_symmetry_space_group_name_H-M "C 2/M"
_symmetry_group_IT_number 12
_symmetry_cell_setting 'monoclinic'
loop_
_space_group_symop_operation_xyz
x,y,z
-x,y,-z
-x,-y,-z
x,-y,z
1/2+x,1/2+y,z
1/2-x,1/2+y,-z
1/2-x,1/2-y,-z
1/2+x,1/2-y,z
loop_
_atom_site_type_symbol
_atom_site_label
_atom_site_fract_x
_atom_site_fract_y
_atom_site_fract_z
Si Si1 0.051993 0.368963 0.903655
Si Si2 0.621609 0.626892 0.282329
Si Si3 0.614603 0.122401 0.722750
Si Si4 0.271657 0.733151 0.290196
Si Si5 0.174906 0.123929 0.092420
Si Si6 0.587278 0.624838 0.445371
Si Si7 0.196147 0.225886 0.907997
Si Si8 0.853145 0.780329 0.612421
O O1 0.038694 0.500000 0.891744
O O2 0.153006 0.320169 0.918747
O O3 0.877933 0.317870 0.812165
O O4 0.145279 0.338104 0.995173
O O5 0.673120 0.500000 0.300732
O O6 0.728328 0.714036 0.312454
O O7 0.443078 0.638561 0.172645
O O8 0.640717 0.650873 0.341524
O O9 0.651179 0.169962 0.696568
O O10 0.774074 0.121219 0.832604
O O11 0.487086 0.188134 0.682641
O O12 0.546303 0.000000 0.679997
O O13 0.405699 0.639607 0.364174
O O14 0.280972 0.210038 0.123236
O O15 0.186602 0.000000 0.078822
O O16 0.000000 0.168868 0.000000
O O17 0.636114 0.500000 0.483578
O O18 0.687329 0.717279 0.522318
O O19 0.616440 0.637556 0.410698
#
# Coordination Sequence:
#
# PCOD8086994 Si02
#       8
#     8   8   8   8   8   8   8   8
#     4  10  20  35  55  79 113 156 193 233 282 334
#     4  11  22  39  60  86 117 152 190 237 293 340
#     4  10  19  35  57  82 113 149 189 234 281 332
#     4  10  22  37  58  86 118 151 191 237 283 347
#     4  10  19  31  52  80 112 147 186 234 284 327
#     4  10  21  40  62  85 115 152 191 236 290 342
#     4  10  20  35  55  81 114 149 196 237 273 343
#     4  10  21  38  61  87 114 149 193 237 282 348
#
# _framework density 19.504557999999999
#
# number of rings (size 3 to 8) (size 9 to 14) (size 15 to 20)
#    0.000    1.875    1.250    3.000    0.000    0.500 
#    0.000    8.750    0.000    1.500    0.000    0.000 
#    0.000    0.000    0.000    0.000    0.000    0.000 
#
# Total GULP energy -396781.146397 kJ/mol
# GULP energy per Si atom -12399.410825 kJ/mol
# Density = 1.946016 g / cm^3
# Si number density = 19.504558 Si / 1000 Ang^3
#
#
#
# Elastic Constant Matrix: (Units=GPa)
#
#
# Indices 1 2 3 4 5 6 
#
# 1 70.8084 24.1313 23.8480 0.0001 0.2211 0.0000
# 2 24.1313 104.0661 20.9415 0.0001 1.6340 0.0000
# 3 23.8480 20.9415 92.8417 0.0006 7.1680 0.0002
# 4 0.0001 0.0001 0.0006 18.4411 0.0001 -7.7119
# 5 0.2211 1.6340 7.1680 0.0001 33.7034 0.0000
# 6 0.0000 0.0000 0.0002 -7.7119 0.0000 14.1053
#
#
#
# Elastic Compliance Matrix: (Units=1/GPa)
#
#
# Indices 1 2 3 4 5 6 
#
# 1 0.016376 -0.003091 -0.003571 0.000000 0.000802 0.000000
# 2 -0.003091 0.010650 -0.001596 0.000000 -0.000157 0.000000
# 3 -0.003571 -0.001596 0.012242 -0.000001 -0.002503 0.000000
# 4 0.000000 0.000000 -0.000001 0.070300 0.000000 0.038436
# 5 0.000802 -0.000157 -0.002503 0.000000 0.030205 0.000000
# 6 0.000000 0.000000 0.000000 0.038436 0.000000 0.091910
#
#
# Mechanical properties :
#
#
# Convention : Reuss Voigt Hill
#
# Bulk Modulus (GPa) = 43.95493 45.06197 44.50845
# Shear Modulus (GPa) = 19.54778 26.50299 23.02538
#
# Velocity S-wave (km/s) = 3.16921 3.69020 3.43959
# Velocity P-wave (km/s) = 5.99804 6.42731 6.21638
#
# Compressibility (1/GPa) = 0.02275058
#
# Stress axis : x y z
#
# Youngs Moduli (GPa) = 61.06342 93.89894 81.68885
#
# Poissons Ratio (x) = 0.29028 0.29173
# Poissons Ratio (y) = 0.18877 0.13038
# Poissons Ratio (z) = 0.21807 0.14986
#
# Static dielectric constant tensor:
#      x y z
#    x 3.393230 0.000000 0.089270 
#    y 0.000000 3.477690 0.000000 
#    z 0.089270 0.000000 3.710320 
# 
# 
# High freq. dielectric constant tensor:
#      x y z
#    x 1.745990 0.000000 0.004210 
#    y 0.000000 1.760700 0.000000 
#    z 0.004210 0.000000 1.767600 
# 
# From -- ./inp_files/379122.got.cif
#   From: 2010.06.25/outbox.cif.g09.slc.cpg/sg12_190_cif.got.tgz:379122.got - 2010.06.28 00:19:55.
