data_PCOD8086273
_publ_section_title
;
Structure prediction by ZEFSAII (Michael W. Deem and Ramdas Pophale) SiO2 
 PCOD8086273
Probable space group: C 2/M
;
_chemical_formula_sum "Si O2"
_cell_formula_units_Z 64
_cell_length_a 31.380849
_cell_length_b 8.954537
_cell_length_c 23.135944
_cell_angle_alpha 90.000000
_cell_angle_beta 147.804846
_cell_angle_gamma 90.000000
_cell_volume 3463.882084
_symmetry_space_group_name_H-M "C 2/M"
_symmetry_group_IT_number 12
_symmetry_cell_setting 'monoclinic'
loop_
_space_group_symop_operation_xyz
x,y,z
-x,y,-z
-x,-y,-z
x,-y,z
1/2+x,1/2+y,z
1/2-x,1/2+y,-z
1/2-x,1/2-y,-z
1/2+x,1/2-y,z
loop_
_atom_site_type_symbol
_atom_site_label
_atom_site_fract_x
_atom_site_fract_y
_atom_site_fract_z
Si Si1 0.331775 0.334327 0.589265
Si Si2 0.754929 0.826880 0.913776
Si Si3 0.051476 0.823224 0.374044
Si Si4 0.763719 0.321829 0.800753
Si Si5 0.170643 0.836331 0.284349
Si Si6 0.868716 0.826258 0.146583
Si Si7 0.331697 0.172433 0.410541
Si Si8 0.913446 0.672663 0.904363
O O1 0.312779 0.500000 0.544784
O O2 0.250000 0.250000 0.500000
O O3 0.397732 0.262883 0.622703
O O4 0.364441 0.336468 0.691739
O O5 0.753461 0.729870 0.854286
O O6 0.679476 0.777068 0.864853
O O7 0.745834 0.000000 0.886899
O O8 0.836275 0.799095 0.044002
O O9 0.086389 0.747888 0.472386
O O10 0.960527 0.775130 0.257329
O O11 0.057248 0.000000 0.387886
O O12 0.755500 0.500000 0.786944
O O13 0.697319 0.250415 0.682119
O O14 0.852494 0.265521 0.883126
O O15 0.266089 0.807971 0.386732
O O16 0.126360 0.700818 0.202937
O O17 0.152426 0.000000 0.235374
O O18 0.857229 0.000000 0.150140
O O19 0.349112 0.000000 0.416682
O O20 0.926403 0.500000 0.930705
O O21 0.000000 0.753612 0.000000
#
# Coordination Sequence:
#
# PCOD8086273 Si02
#       8
#     8   8   8   8   8   8   8   8
#     4  10  19  31  48  73 104 139 178 216 255 305
#     4  10  20  37  61  85 108 137 178 224 272 324
#     4  10  20  34  54  79 110 146 183 221 269 327
#     4  10  20  35  57  80 106 144 182 219 268 324
#     4   9  18  31  47  70 101 138 178 216 258 306
#     4   9  20  38  58  82 111 143 175 218 274 329
#     4  10  19  33  52  77 109 142 180 224 265 313
#     4   9  19  34  50  72 103 138 177 218 259 307
#
# _framework density 18.476379999999999
#
# number of rings (size 3 to 8) (size 9 to 14) (size 15 to 20)
#    0.000    2.375    1.250    1.125    0.000    3.750 
#    0.000    1.875    0.000    3.750    0.000    0.000 
#    0.000    0.000    0.000    0.000    0.000    0.000 
#
# Total GULP energy -396572.120463 kJ/mol
# GULP energy per Si atom -12392.878764 kJ/mol
# Density = 1.843433 g / cm^3
# Si number density = 18.476380 Si / 1000 Ang^3
#
#
#
# Elastic Constant Matrix: (Units=GPa)
#
#
# Indices 1 2 3 4 5 6 
#
# 1 87.5819 32.5810 58.3592 0.0000 -8.8919 0.0000
# 2 32.5810 50.9852 38.7356 0.0000 -0.9337 0.0000
# 3 58.3592 38.7356 132.8176 0.0000 7.1825 0.0000
# 4 0.0000 0.0000 0.0000 28.1791 0.0000 -5.0821
# 5 -8.8919 -0.9337 7.1825 0.0000 25.4209 0.0000
# 6 0.0000 0.0000 0.0000 -5.0821 0.0000 26.1487
#
#
#
# Elastic Compliance Matrix: (Units=1/GPa)
#
#
# Indices 1 2 3 4 5 6 
#
# 1 0.019576 -0.007021 -0.007018 0.000000 0.008572 0.000000
# 2 -0.007021 0.027950 -0.005066 0.000000 0.000002 0.000000
# 3 -0.007018 -0.005066 0.012423 0.000000 -0.006151 0.000000
# 4 0.000000 0.000000 0.000000 0.036776 0.000000 0.007148
# 5 0.008572 0.000002 -0.006151 0.000000 0.044074 0.000000
# 6 0.000000 0.000000 0.000000 0.007148 0.000000 0.039632
#
#
# Mechanical properties :
#
#
# Convention : Reuss Voigt Hill
#
# Bulk Modulus (GPa) = 46.00195 58.97069 52.48632
# Shear Modulus (GPa) = 22.13495 25.39701 23.76598
#
# Velocity S-wave (km/s) = 3.46499 3.71154 3.59038
# Velocity P-wave (km/s) = 6.40000 7.09601 6.75697
#
# Compressibility (1/GPa) = 0.02173821
#
# Stress axis : x y z
#
# Youngs Moduli (GPa) = 51.08243 35.77880 80.49735
#
# Poissons Ratio (x) = 0.25121 0.56489
# Poissons Ratio (y) = 0.35866 0.40783
# Poissons Ratio (z) = 0.35847 0.18127
#
# Static dielectric constant tensor:
#      x y z
#    x 3.495560 0.000000 -0.006040 
#    y 0.000000 3.400970 0.000000 
#    z -0.006040 0.000000 3.446010 
# 
# 
# High freq. dielectric constant tensor:
#      x y z
#    x 1.706770 0.000000 -0.003830 
#    y 0.000000 1.715950 0.000000 
#    z -0.003830 0.000000 1.711210 
# 
# From -- ./inp_files/353531.got.cif
#   From: 2010.06.25/outbox.cif.g09.slc.cpg/sg12_177_cif.got.tgz:353531.got - 2010.06.28 00:19:55.
