data_PCOD8086725
_publ_section_title
;
Structure prediction by ZEFSAII (Michael W. Deem and Ramdas Pophale) SiO2 
 PCOD8086725
Probable space group: C 2/M
;
_chemical_formula_sum "Si O2"
_cell_formula_units_Z 44
_cell_length_a 9.085672
_cell_length_b 22.920770
_cell_length_c 10.447085
_cell_angle_alpha 90.000000
_cell_angle_beta 78.008457
_cell_angle_gamma 90.000000
_cell_volume 2128.136108
_symmetry_space_group_name_H-M "C 2/M"
_symmetry_group_IT_number 12
_symmetry_cell_setting 'monoclinic'
loop_
_space_group_symop_operation_xyz
x,y,z
-x,y,-z
-x,-y,-z
x,-y,z
1/2+x,1/2+y,z
1/2-x,1/2+y,-z
1/2-x,1/2-y,-z
1/2+x,1/2-y,z
loop_
_atom_site_type_symbol
_atom_site_label
_atom_site_fract_x
_atom_site_fract_y
_atom_site_fract_z
Si Si1 0.841051 0.638963 0.278189
Si Si2 0.803183 0.622244 0.786524
Si Si3 0.322105 0.935016 0.522080
Si Si4 0.321293 0.065373 0.042734
Si Si5 0.000000 0.753258 0.500000
Si Si6 0.704580 0.273551 0.675372
O O1 0.772610 0.608476 0.417011
O O2 0.769808 0.606921 0.167944
O O3 0.794588 0.706569 0.281091
O O4 0.019995 0.634603 0.241523
O O5 0.755407 0.585428 0.670201
O O6 0.710910 0.683620 0.796043
O O7 0.750300 0.589011 0.923307
O O8 0.500000 0.937011 0.500000
O O9 0.260788 0.000000 0.502790
O O10 0.260885 0.000000 0.078423
O O11 0.500000 0.064272 0.000000
O O12 0.858991 0.712613 0.567066
O O13 0.939037 0.789997 0.388880
#
# Coordination Sequence:
#
# PCOD8086725 Si02
#       6
#     8   8   8   8   4   8
#     4  10  19  31  50  77 110 141 178 222 267 323
#     4  10  19  31  50  77 110 141 178 222 267 323
#     4   9  16  26  44  71  99 131 174 222 268 312
#     4   9  18  33  52  77 111 145 174 223 284 320
#     4  10  20  32  52  76 114 140 178 214 272 316
#     4  11  20  33  52  80 110 150 174 222 268 324
#
# _framework density 20.675370999999998
#
# number of rings (size 3 to 8) (size 9 to 14) (size 15 to 20)
#    0.000    2.182    1.818    3.273    2.545    5.091 
#    0.000    0.000    0.000    0.000    0.000   24.182 
#    0.000    0.000    0.000    0.000    0.000    0.000 
#
# Total GULP energy -272669.622922 kJ/mol
# GULP energy per Si atom -12394.073769 kJ/mol
# Density = 2.062831 g / cm^3
# Si number density = 20.675371 Si / 1000 Ang^3
#
#
#
# Elastic Constant Matrix: (Units=GPa)
#
#
# Indices 1 2 3 4 5 6 
#
# 1 42.5142 12.0364 18.1242 0.0000 12.1440 0.0000
# 2 12.0364 183.6967 86.4716 0.0000 22.8786 0.0000
# 3 18.1242 86.4716 163.0133 0.0000 34.1425 0.0000
# 4 0.0000 0.0000 0.0000 30.9470 0.0000 10.8794
# 5 12.1440 22.8786 34.1425 0.0000 21.5087 0.0000
# 6 0.0000 0.0000 0.0000 10.8794 0.0000 23.5546
#
#
#
# Elastic Compliance Matrix: (Units=1/GPa)
#
#
# Indices 1 2 3 4 5 6 
#
# 1 0.028055 0.000072 0.000264 0.000000 -0.016336 0.000000
# 2 0.000072 0.007340 -0.003382 0.000000 -0.002479 0.000000
# 3 0.000264 -0.003382 0.010752 0.000000 -0.013618 0.000000
# 4 0.000000 0.000000 0.000000 0.038577 0.000000 -0.017818
# 5 -0.016336 -0.002479 -0.013618 0.000000 0.079970 0.000000
# 6 0.000000 0.000000 0.000000 -0.017818 0.000000 0.050684
#
#
# Mechanical properties :
#
#
# Convention : Reuss Voigt Hill
#
# Bulk Modulus (GPa) = 24.96639 69.16540 47.06589
# Shear Modulus (GPa) = 21.29271 33.37485 27.33378
#
# Velocity S-wave (km/s) = 3.21262 4.02211 3.63994
# Velocity P-wave (km/s) = 5.08556 7.42263 6.36233
#
# Compressibility (1/GPa) = 0.04005385
#
# Stress axis : x y z
#
# Youngs Moduli (GPa) = 35.64444 136.24080 93.00992
#
# Poissons Ratio (x) = -0.00981 -0.02456
# Poissons Ratio (y) = -0.00257 0.31459
# Poissons Ratio (z) = -0.00941 0.46081
#
# Static dielectric constant tensor:
#      x y z
#    x 3.298980 0.000000 0.283230 
#    y 0.000000 3.866420 0.000000 
#    z 0.283230 0.000000 3.945240 
# 
# 
# High freq. dielectric constant tensor:
#      x y z
#    x 1.750490 0.000000 0.024410 
#    y 0.000000 1.815770 0.000000 
#    z 0.024410 0.000000 1.804280 
# 
# From -- ./inp_files/121370.got.cif
#   From: 2010.06.25/outbox.cif.g09.slc.cpg/sg12_61_cif.got.tgz:121370.got - 2010.06.28 00:19:55.
