data_PCOD8086825
_publ_section_title
;
Structure prediction by ZEFSAII (Michael W. Deem and Ramdas Pophale) SiO2 
 PCOD8086825
Probable space group: C 2/M
;
_chemical_formula_sum "Si O2"
_cell_formula_units_Z 56
_cell_length_a 20.674784
_cell_length_b 8.698064
_cell_length_c 28.120746
_cell_angle_alpha 90.000000
_cell_angle_beta 145.252844
_cell_angle_gamma 90.000000
_cell_volume 2882.250548
_symmetry_space_group_name_H-M "C 2/M"
_symmetry_group_IT_number 12
_symmetry_cell_setting 'monoclinic'
loop_
_space_group_symop_operation_xyz
x,y,z
-x,y,-z
-x,-y,-z
x,-y,z
1/2+x,1/2+y,z
1/2-x,1/2+y,-z
1/2-x,1/2-y,-z
1/2+x,1/2-y,z
loop_
_atom_site_type_symbol
_atom_site_label
_atom_site_fract_x
_atom_site_fract_y
_atom_site_fract_z
Si Si1 0.432113 0.817184 0.224100
Si Si2 0.437132 0.818121 0.333288
Si Si3 0.503748 0.317684 0.055589
Si Si4 0.687340 0.181724 0.507675
Si Si5 0.832578 0.318238 0.677317
Si Si6 0.725861 0.317424 0.036320
Si Si7 0.789633 0.817577 0.753693
O O1 0.429003 0.748104 0.275342
O O2 0.544815 0.758021 0.265680
O O3 0.322191 0.755368 0.130170
O O4 0.432190 0.000000 0.225714
O O5 0.555738 0.766791 0.428169
O O6 0.332795 0.758840 0.302158
O O7 0.429028 0.000000 0.324393
O O8 0.498007 0.500000 0.049055
O O9 0.617861 0.265781 0.151318
O O10 0.500000 0.248495 0.000000
O O11 0.395164 0.254991 0.018724
O O12 0.750000 0.250000 0.500000
O O13 0.737171 0.242420 0.586916
O O14 0.699136 0.000000 0.511912
O O15 0.822437 0.500000 0.666399
O O16 0.815555 0.268144 0.720809
O O17 0.727713 0.500000 0.034591
O O18 0.750000 0.250000 0.000000
O O19 0.792899 0.000000 0.747187
#
# Coordination Sequence:
#
# PCOD8086825 Si02
#       7
#     8   8   8   8   8   8   8
#     4   9  17  32  54  77 101 141 185 218 262 322
#     4   9  18  34  57  80 104 138 182 222 262 325
#     4   9  17  31  54  83 109 138 181 231 271 310
#     4  11  21  37  60  85 110 139 181 226 273 325
#     4  11  22  37  56  79 113 149 183 223 272 326
#     4  10  19  31  51  77 107 138 175 221 267 316
#     4  10  20  35  56  82 111 143 183 227 272 322
#
# _framework density 19.429262999999999
#
# number of rings (size 3 to 8) (size 9 to 14) (size 15 to 20)
#    0.000    2.143    1.429    2.571    0.000    4.000 
#    0.000    5.000    0.000    3.429    0.000    0.000 
#    0.000    0.000    0.000    0.000    0.000    0.000 
#
# Total GULP energy -347223.025678 kJ/mol
# GULP energy per Si atom -12400.822346 kJ/mol
# Density = 1.938504 g / cm^3
# Si number density = 19.429263 Si / 1000 Ang^3
#
#
#
# Elastic Constant Matrix: (Units=GPa)
#
#
# Indices 1 2 3 4 5 6 
#
# 1 139.5699 15.7830 55.2653 0.0000 13.1509 0.0001
# 2 15.7830 30.6435 25.0208 -0.0002 1.9812 0.0009
# 3 55.2653 25.0208 146.0772 0.0000 14.1945 0.0000
# 4 0.0000 -0.0002 0.0000 21.2578 0.0000 -5.0383
# 5 13.1509 1.9812 14.1945 0.0000 42.6834 0.0000
# 6 0.0001 0.0009 0.0000 -5.0383 0.0000 30.1102
#
#
#
# Elastic Compliance Matrix: (Units=1/GPa)
#
#
# Indices 1 2 3 4 5 6 
#
# 1 0.008647 -0.002101 -0.002751 0.000000 -0.001652 0.000000
# 2 -0.002101 0.038457 -0.005871 0.000000 0.000815 -0.000001
# 3 -0.002751 -0.005871 0.009077 0.000000 -0.001898 0.000000
# 4 0.000000 0.000000 0.000000 0.048984 0.000000 0.008196
# 5 -0.001652 0.000815 -0.001898 0.000000 0.024531 0.000000
# 6 0.000000 -0.000001 0.000000 0.008196 0.000000 0.034583
#
#
# Mechanical properties :
#
#
# Convention : Reuss Voigt Hill
#
# Bulk Modulus (GPa) = 28.79012 56.49208 42.64110
# Shear Modulus (GPa) = 25.34167 33.49172 29.41669
#
# Velocity S-wave (km/s) = 3.61543 4.15634 3.89529
# Velocity P-wave (km/s) = 5.68142 7.22305 6.49812
#
# Compressibility (1/GPa) = 0.03473414
#
# Stress axis : x y z
#
# Youngs Moduli (GPa) = 115.64059 26.00323 110.17177
#
# Poissons Ratio (x) = 0.05462 0.30311
# Poissons Ratio (y) = 0.24292 0.64687
# Poissons Ratio (z) = 0.31816 0.15268
#
# Static dielectric constant tensor:
#      x y z
#    x 3.777220 0.000000 0.125640 
#    y 0.000000 3.119920 0.000000 
#    z 0.125640 0.000000 3.940570 
# 
# 
# High freq. dielectric constant tensor:
#      x y z
#    x 1.769610 0.000000 0.002080 
#    y 0.000000 1.710520 0.000000 
#    z 0.002080 0.000000 1.776260 
# 
# From -- ./inp_files/363199.got.cif
#   From: 2010.06.25/outbox.cif.g09.slc.cpg/sg12_182_cif.got.tgz:363199.got - 2010.06.28 00:19:55.
