data_PCOD8086790
_publ_section_title
;
Structure prediction by ZEFSAII (Michael W. Deem and Ramdas Pophale) SiO2 
 PCOD8086790
Probable space group: C 2/M
;
_chemical_formula_sum "Si O2"
_cell_formula_units_Z 64
_cell_length_a 30.537464
_cell_length_b 9.050840
_cell_length_c 25.733224
_cell_angle_alpha 90.000000
_cell_angle_beta 150.015151
_cell_angle_gamma 90.000000
_cell_volume 3554.570124
_symmetry_space_group_name_H-M "C 2/M"
_symmetry_group_IT_number 12
_symmetry_cell_setting 'monoclinic'
loop_
_space_group_symop_operation_xyz
x,y,z
-x,y,-z
-x,-y,-z
x,-y,z
1/2+x,1/2+y,z
1/2-x,1/2+y,-z
1/2-x,1/2-y,-z
1/2+x,1/2-y,z
loop_
_atom_site_type_symbol
_atom_site_label
_atom_site_fract_x
_atom_site_fract_y
_atom_site_fract_z
Si Si1 0.201397 0.172091 0.743269
Si Si2 0.468362 0.328355 0.369433
Si Si3 0.626635 0.171640 0.814560
Si Si4 0.385968 0.671029 0.652107
Si Si5 0.835218 0.827772 0.410374
Si Si6 0.711122 0.170520 0.535943
Si Si7 0.437250 0.174146 0.139084
Si Si8 0.798003 0.825485 0.930093
O O1 0.104210 0.217319 0.662637
O O2 0.208999 0.208736 0.690259
O O3 0.273876 0.268468 0.847765
O O4 0.219036 0.000000 0.772502
O O5 0.464319 0.500000 0.353599
O O6 0.450974 0.249833 0.296731
O O7 0.562905 0.281342 0.488034
O O8 0.617338 0.213739 0.865179
O O9 0.721339 0.223659 0.891210
O O10 0.614055 0.000000 0.791892
O O11 0.409918 0.500000 0.668556
O O12 0.361193 0.739143 0.570844
O O13 0.306783 0.693086 0.610574
O O14 0.466674 0.757511 0.759694
O O15 0.785316 0.732001 0.402053
O O16 0.825486 0.000000 0.414114
O O17 0.682964 0.000000 0.506703
O O18 0.445250 0.000000 0.138550
O O19 0.387229 0.247089 0.039329
O O20 0.812340 0.000000 0.943706
#
# Coordination Sequence:
#
# PCOD8086790 Si02
#       8
#     8   8   8   8   8   8   8   8
#     4   9  18  33  50  70 100 136 173 210 247 289
#     4   9  17  29  47  72 102 135 169 204 243 290
#     4   9  19  32  46  70 103 135 167 203 244 292
#     4  10  21  37  55  76 103 133 164 200 247 300
#     4  10  19  31  51  76 101 133 171 208 248 296
#     4  10  21  36  54  77 105 133 162 201 248 298
#     4  11  21  33  52  76 101 131 168 208 250 296
#     4  10  20  34  50  70 100 136 172 208 247 292
#
# _framework density 18.004989999999999
#
# number of rings (size 3 to 8) (size 9 to 14) (size 15 to 20)
#    0.000    2.250    0.000    3.000    0.000    7.500 
#    0.000    0.000    0.000    4.500    0.000    5.250 
#    0.000    0.000    0.000    0.000    0.000    0.000 
#
# Total GULP energy -396913.164584 kJ/mol
# GULP energy per Si atom -12403.536393 kJ/mol
# Density = 1.796401 g / cm^3
# Si number density = 18.004990 Si / 1000 Ang^3
#
#
#
# Elastic Constant Matrix: (Units=GPa)
#
#
# Indices 1 2 3 4 5 6 
#
# 1 72.5046 44.0404 42.5848 0.0000 -16.7882 0.0000
# 2 44.0404 85.8488 60.9129 0.0000 -8.7979 0.0000
# 3 42.5848 60.9129 127.3844 0.0000 -12.1054 0.0000
# 4 0.0000 0.0000 0.0000 33.7500 0.0000 -2.5006
# 5 -16.7882 -8.7979 -12.1054 0.0000 21.7048 0.0000
# 6 0.0000 0.0000 0.0000 -2.5006 0.0000 28.3722
#
#
#
# Elastic Compliance Matrix: (Units=1/GPa)
#
#
# Indices 1 2 3 4 5 6 
#
# 1 0.023857 -0.009246 -0.002277 0.000000 0.013435 0.000000
# 2 -0.009246 0.021351 -0.007367 0.000000 -0.002605 0.000000
# 3 -0.002277 -0.007367 0.012337 0.000000 0.002133 0.000000
# 4 0.000000 0.000000 0.000000 0.029824 0.000000 0.002629
# 5 0.013435 -0.002605 0.002133 0.000000 0.056598 0.000000
# 6 0.000000 0.000000 0.000000 0.002629 0.000000 0.035477
#
#
# Mechanical properties :
#
#
# Convention : Reuss Voigt Hill
#
# Bulk Modulus (GPa) = 50.59352 64.53489 57.56421
# Shear Modulus (GPa) = 22.34014 25.97871 24.15943
#
# Velocity S-wave (km/s) = 3.52629 3.80262 3.66706
# Velocity P-wave (km/s) = 6.68882 7.42970 7.06898
#
# Compressibility (1/GPa) = 0.01976538
#
# Stress axis : x y z
#
# Youngs Moduli (GPa) = 41.91707 46.83564 81.05786
#
# Poissons Ratio (x) = 0.43303 0.18461
# Poissons Ratio (y) = 0.38755 0.59711
# Poissons Ratio (z) = 0.09547 0.34502
#
# Static dielectric constant tensor:
#      x y z
#    x 3.231510 0.000000 -0.086700 
#    y 0.000000 3.331360 0.000000 
#    z -0.086700 0.000000 3.310900 
# 
# 
# High freq. dielectric constant tensor:
#      x y z
#    x 1.678250 0.000000 -0.007460 
#    y 0.000000 1.701860 0.000000 
#    z -0.007460 0.000000 1.692890 
# 
# From -- ./inp_files/243825.got.cif
#   From: 2010.06.25/outbox.cif.g09.slc.cpg/sg12_122_cif.got.tgz:243825.got - 2010.06.28 00:19:55.
