data_PCOD8086228
_publ_section_title
;
Structure prediction by ZEFSAII (Michael W. Deem and Ramdas Pophale) SiO2 
 PCOD8086228
Probable space group: C 2/M
;
_chemical_formula_sum "Si O2"
_cell_formula_units_Z 48
_cell_length_a 25.811791
_cell_length_b 8.864353
_cell_length_c 11.851157
_cell_angle_alpha 90.000000
_cell_angle_beta 90.141900
_cell_angle_gamma 90.000000
_cell_volume 2711.593611
_symmetry_space_group_name_H-M "C 2/M"
_symmetry_group_IT_number 12
_symmetry_cell_setting 'monoclinic'
loop_
_space_group_symop_operation_xyz
x,y,z
-x,y,-z
-x,-y,-z
x,-y,z
1/2+x,1/2+y,z
1/2-x,1/2+y,-z
1/2-x,1/2-y,-z
1/2+x,1/2-y,z
loop_
_atom_site_type_symbol
_atom_site_label
_atom_site_fract_x
_atom_site_fract_y
_atom_site_fract_z
Si Si1 0.806019 0.176915 0.999846
Si Si2 0.653943 0.320827 0.235597
Si Si3 0.748033 0.178558 0.621845
Si Si4 0.843998 0.177606 0.243186
Si Si5 0.558106 0.320272 0.373620
Si Si6 0.556314 0.321356 0.626689
O O1 0.838136 0.219194 0.111738
O O2 0.796664 0.000000 0.989795
O O3 0.750000 0.250000 0.000000
O O4 0.839122 0.236305 0.892985
O O5 0.651732 0.500000 0.239262
O O6 0.702374 0.262507 0.308722
O O7 0.600968 0.252756 0.288097
O O8 0.750000 0.250000 0.500000
O O9 0.697021 0.230747 0.685256
O O10 0.748002 0.000000 0.610637
O O11 0.900836 0.232911 0.283288
O O12 0.835890 0.000000 0.264929
O O13 0.560065 0.500000 0.370042
O O14 0.570597 0.263658 0.500869
O O15 0.500783 0.261793 0.337428
O O16 0.554275 0.500000 0.623339
#
# Coordination Sequence:
#
# PCOD8086228 Si02
#       6
#     8   8   8   8   8   8
#     4  10  19  32  48  67  95 130 164 199 239 284
#     4   9  17  29  45  67  95 126 160 197 239 285
#     4  11  21  32  48  71  99 126 157 197 242 291
#     4  10  19  31  48  71  98 125 160 201 239 284
#     4   8  13  24  43  65  93 125 156 193 240 291
#     4   8  14  25  43  68  94 123 157 195 241 287
#
# _framework density 17.701765999999999
#
# number of rings (size 3 to 8) (size 9 to 14) (size 15 to 20)
#    0.000    2.667    1.667    2.500    0.000    2.667 
#    0.000    0.833    0.000    5.000    0.000   11.667 
#    0.000    2.667    0.000    0.000    0.000    0.000 
#
# Total GULP energy -297483.467786 kJ/mol
# GULP energy per Si atom -12395.144491 kJ/mol
# Density = 1.766148 g / cm^3
# Si number density = 17.701766 Si / 1000 Ang^3
#
#
#
# Elastic Constant Matrix: (Units=GPa)
#
#
# Indices 1 2 3 4 5 6 
#
# 1 168.9882 18.1611 103.2975 0.0000 5.0990 0.0000
# 2 18.1611 21.0428 25.6586 0.0000 4.8759 0.0000
# 3 103.2975 25.6586 172.1344 0.0000 1.9803 0.0000
# 4 0.0000 0.0000 0.0000 17.7061 0.0000 -1.4839
# 5 5.0990 4.8759 1.9803 0.0000 28.2342 0.0000
# 6 0.0000 0.0000 0.0000 -1.4839 0.0000 18.8399
#
#
#
# Elastic Compliance Matrix: (Units=1/GPa)
#
#
# Indices 1 2 3 4 5 6 
#
# 1 0.009418 -0.001217 -0.005457 0.000000 -0.001108 0.000000
# 2 -0.001217 0.060858 -0.008230 0.000000 -0.009713 0.000000
# 3 -0.005457 -0.008230 0.010292 0.000000 0.001685 0.000000
# 4 0.000000 0.000000 0.000000 0.056853 0.000000 0.004478
# 5 -0.001108 -0.009713 0.001685 0.000000 0.037177 0.000000
# 6 0.000000 0.000000 0.000000 0.004478 0.000000 0.053432
#
#
# Mechanical properties :
#
#
# Convention : Reuss Voigt Hill
#
# Bulk Modulus (GPa) = 19.70068 72.93330 46.31699
# Shear Modulus (GPa) = 18.19790 27.29258 22.74524
#
# Velocity S-wave (km/s) = 3.20977 3.93084 3.58846
# Velocity P-wave (km/s) = 4.98900 7.86718 6.58721
#
# Compressibility (1/GPa) = 0.05075967
#
# Stress axis : x y z
#
# Youngs Moduli (GPa) = 106.18251 16.43173 97.16503
#
# Poissons Ratio (x) = 0.01999 0.53027
# Poissons Ratio (y) = 0.12920 0.79964
# Poissons Ratio (z) = 0.57949 0.13523
#
# Static dielectric constant tensor:
#      x y z
#    x 3.628680 0.000000 0.034080 
#    y 0.000000 2.878260 0.000000 
#    z 0.034080 0.000000 3.574940 
# 
# 
# High freq. dielectric constant tensor:
#      x y z
#    x 1.691830 0.000000 -0.000290 
#    y 0.000000 1.632910 0.000000 
#    z -0.000290 0.000000 1.690460 
# 
# From -- ./inp_files/172305.got.cif
#   From: 2010.06.25/outbox.cif.g09.slc.cpg/sg12_87_cif.got.tgz:172305.got - 2010.06.28 00:19:55.
