data_PCOD8086618
_publ_section_title
;
Structure prediction by ZEFSAII (Michael W. Deem and Ramdas Pophale) SiO2 
 PCOD8086618
Probable space group: C 2/M
;
_chemical_formula_sum "Si O2"
_cell_formula_units_Z 64
_cell_length_a 20.440881
_cell_length_b 8.818995
_cell_length_c 23.734399
_cell_angle_alpha 90.000000
_cell_angle_beta 121.665756
_cell_angle_gamma 90.000000
_cell_volume 3641.583737
_symmetry_space_group_name_H-M "C 2/M"
_symmetry_group_IT_number 12
_symmetry_cell_setting 'monoclinic'
loop_
_space_group_symop_operation_xyz
x,y,z
-x,y,-z
-x,-y,-z
x,-y,z
1/2+x,1/2+y,z
1/2-x,1/2+y,-z
1/2-x,1/2-y,-z
1/2+x,1/2-y,z
loop_
_atom_site_type_symbol
_atom_site_label
_atom_site_fract_x
_atom_site_fract_y
_atom_site_fract_z
Si Si1 0.990657 0.820917 0.669749
Si Si2 0.330510 0.820559 0.053330
Si Si3 0.549418 0.320122 0.469696
Si Si4 0.083446 0.176623 0.812752
Si Si5 0.442041 0.174582 0.805463
Si Si6 0.786455 0.677569 0.461681
Si Si7 0.523507 0.825397 0.951230
Si Si8 0.651238 0.322850 0.320530
O O1 0.068058 0.775083 0.740043
O O2 0.992347 0.760162 0.606358
O O3 0.913011 0.760945 0.664582
O O4 0.984761 0.000000 0.666178
O O5 0.349268 0.771591 0.126383
O O6 0.398495 0.758814 0.042453
O O7 0.324812 0.000000 0.048584
O O8 0.250000 0.750000 0.000000
O O9 0.500000 0.264206 0.500000
O O10 0.559315 0.500000 0.473031
O O11 0.631783 0.246976 0.514335
O O12 0.003154 0.210528 0.806585
O O13 0.104071 0.000000 0.827318
O O14 0.449775 0.192888 0.876511
O O15 0.359740 0.229467 0.743441
O O16 0.459585 0.000000 0.796881
O O17 0.792659 0.500000 0.475239
O O18 0.750000 0.750000 0.500000
O O19 0.734225 0.714110 0.383621
O O20 0.541831 0.000000 0.971651
O O21 0.500000 0.745388 0.000000
O O22 0.641627 0.500000 0.303611
#
# Coordination Sequence:
#
# PCOD8086618 Si02
#       8
#     8   8   8   8   8   8   8   8
#     4   8  14  28  48  71  96 125 162 200 246 295
#     4  10  19  31  50  75 100 126 161 205 247 290
#     4  10  20  35  54  75 103 136 171 212 255 305
#     4   9  16  28  47  69  98 130 162 201 245 294
#     4   9  16  26  45  74 100 123 161 205 242 288
#     4  11  21  34  53  77 103 132 170 213 257 306
#     4   8  15  29  49  72  98 127 159 197 239 284
#     4   9  17  30  48  69  99 131 160 203 252 298
#
# _framework density 17.574770999999998
#
# number of rings (size 3 to 8) (size 9 to 14) (size 15 to 20)
#    0.000    2.750    1.250    3.000    0.000    1.250 
#    0.000    0.625    2.750   13.500    0.000    0.000 
#    0.000    0.000    0.000    0.000    0.000    0.000 
#
# Total GULP energy -396460.318905 kJ/mol
# GULP energy per Si atom -12389.384966 kJ/mol
# Density = 1.753477 g / cm^3
# Si number density = 17.574771 Si / 1000 Ang^3
#
#
#
# Elastic Constant Matrix: (Units=GPa)
#
#
# Indices 1 2 3 4 5 6 
#
# 1 84.8981 30.1091 73.9864 0.0000 2.7693 0.0000
# 2 30.1091 44.7230 42.6464 0.0000 1.4338 0.0000
# 3 73.9864 42.6464 177.1197 0.0000 1.3225 0.0000
# 4 0.0000 0.0000 0.0000 30.4285 0.0000 6.7313
# 5 2.7693 1.4338 1.3225 0.0000 23.3147 0.0000
# 6 0.0000 0.0000 0.0000 6.7313 0.0000 18.4370
#
#
#
# Elastic Compliance Matrix: (Units=1/GPa)
#
#
# Indices 1 2 3 4 5 6 
#
# 1 0.020217 -0.007163 -0.006709 0.000000 -0.001580 0.000000
# 2 -0.007163 0.031607 -0.004612 0.000000 -0.000831 0.000000
# 3 -0.006709 -0.004612 0.009555 0.000000 0.000538 0.000000
# 4 0.000000 0.000000 0.000000 0.035751 0.000000 -0.013053
# 5 -0.001580 -0.000831 0.000538 0.000000 0.043100 0.000000
# 6 0.000000 0.000000 0.000000 -0.013053 0.000000 0.059004
#
#
# Mechanical properties :
#
#
# Convention : Reuss Voigt Hill
#
# Bulk Modulus (GPa) = 40.96451 66.69162 53.82807
# Shear Modulus (GPa) = 20.46349 25.10264 22.78306
#
# Velocity S-wave (km/s) = 3.41598 3.78343 3.60439
# Velocity P-wave (km/s) = 6.23842 7.55748 6.92941
#
# Compressibility (1/GPa) = 0.02441137
#
# Stress axis : x y z
#
# Youngs Moduli (GPa) = 49.46296 31.63894 104.66175
#
# Poissons Ratio (x) = 0.22664 0.70213
# Poissons Ratio (y) = 0.35431 0.48267
# Poissons Ratio (z) = 0.33183 0.14591
#
# Static dielectric constant tensor:
#      x y z
#    x 1.694700 0.000000 0.202420 
#    y 0.000000 3.145380 0.000000 
#    z 0.202420 0.000000 3.881320 
# 
# 
# High freq. dielectric constant tensor:
#      x y z
#    x 1.625970 0.000000 0.006240 
#    y 0.000000 1.664100 0.000000 
#    z 0.006240 0.000000 1.705710 
# 
# From -- ./inp_files/345594.got.cif
#   From: 2010.06.25/outbox.cif.g09.slc.cpg/sg12_173_cif.got.tgz:345594.got - 2010.06.28 00:19:55.
