data_PCOD8086982
_publ_section_title
;
Structure prediction by ZEFSAII (Michael W. Deem and Ramdas Pophale) SiO2 
 PCOD8086982
Probable space group: C 2/M
;
_chemical_formula_sum "Si O2"
_cell_formula_units_Z 64
_cell_length_a 20.548083
_cell_length_b 9.322541
_cell_length_c 24.187808
_cell_angle_alpha 90.000000
_cell_angle_beta 128.355208
_cell_angle_gamma 90.000000
_cell_volume 3633.433610
_symmetry_space_group_name_H-M "C 2/M"
_symmetry_group_IT_number 12
_symmetry_cell_setting 'monoclinic'
loop_
_space_group_symop_operation_xyz
x,y,z
-x,y,-z
-x,-y,-z
x,-y,z
1/2+x,1/2+y,z
1/2-x,1/2+y,-z
1/2-x,1/2-y,-z
1/2+x,1/2-y,z
loop_
_atom_site_type_symbol
_atom_site_label
_atom_site_fract_x
_atom_site_fract_y
_atom_site_fract_z
Si Si1 0.485828 0.167881 0.799792
Si Si2 0.121311 0.833387 0.932838
Si Si3 0.751218 0.333955 0.414241
Si Si4 0.205428 0.666873 0.288073
Si Si5 0.630633 0.836583 0.426893
Si Si6 0.792273 0.832558 0.221204
Si Si7 0.543726 0.164851 0.708481
Si Si8 0.271209 0.165619 0.929942
O O1 0.535755 0.257256 0.871711
O O2 0.390159 0.210511 0.755884
O O3 0.515897 0.213320 0.754869
O O4 0.499973 0.000000 0.818310
O O5 0.186164 0.807135 0.917811
O O6 0.104850 0.000000 0.935187
O O7 0.155407 0.762744 0.007024
O O8 0.732713 0.500000 0.393957
O O9 0.760993 0.254861 0.360923
O O10 0.674270 0.269332 0.407227
O O11 0.836138 0.310838 0.493526
O O12 0.219112 0.500000 0.307439
O O13 0.234807 0.708935 0.242400
O O14 0.532312 0.808325 0.373894
O O15 0.649561 0.000000 0.417363
O O16 0.880147 0.756035 0.273497
O O17 0.743577 0.783763 0.140568
O O18 0.811535 0.000000 0.228246
O O19 0.571137 0.000000 0.723539
O O20 0.298468 0.000000 0.948348
#
# Coordination Sequence:
#
# PCOD8086982 Si02
#       8
#     8   8   8   8   8   8   8   8
#     4  10  19  33  54  78 103 138 177 213 258 313
#     4  10  19  31  52  80 106 132 168 221 267 302
#     4  10  19  31  53  81 108 138 177 223 265 307
#     4  10  21  38  56  75 108 147 178 212 264 323
#     4   9  18  34  53  78 109 141 176 217 267 317
#     4  10  21  37  56  78 106 141 178 220 263 310
#     4  10  19  33  55  79 105 137 175 219 264 312
#     4   9  18  33  51  75 105 135 172 213 259 316
#
# _framework density 17.614194000000001
#
# number of rings (size 3 to 8) (size 9 to 14) (size 15 to 20)
#    0.000    2.250    2.500    0.750    0.000    3.000 
#    0.000    1.250    0.000    7.500    0.000    0.000 
#    0.000    0.000    0.000    0.000    0.000    0.000 
#
# Total GULP energy -396888.019845 kJ/mol
# GULP energy per Si atom -12402.750620 kJ/mol
# Density = 1.757410 g / cm^3
# Si number density = 17.614194 Si / 1000 Ang^3
#
#
#
# Elastic Constant Matrix: (Units=GPa)
#
#
# Indices 1 2 3 4 5 6 
#
# 1 72.0950 36.5392 47.4274 0.0000 -2.3745 0.0000
# 2 36.5392 72.7933 64.8589 0.0000 0.1161 0.0000
# 3 47.4274 64.8589 140.8808 0.0000 -2.4311 0.0000
# 4 0.0000 0.0000 0.0000 34.5397 0.0000 1.6347
# 5 -2.3745 0.1161 -2.4311 0.0000 25.8629 0.0000
# 6 0.0000 0.0000 0.0000 1.6347 0.0000 24.2534
#
#
#
# Elastic Compliance Matrix: (Units=1/GPa)
#
#
# Indices 1 2 3 4 5 6 
#
# 1 0.019631 -0.006767 -0.003467 0.000000 0.001507 0.000000
# 2 -0.006767 0.025657 -0.009562 0.000000 -0.001635 0.000000
# 3 -0.003467 -0.009562 0.012683 0.000000 0.000917 0.000000
# 4 0.000000 0.000000 0.000000 0.029045 0.000000 -0.001958
# 5 0.001507 -0.001635 0.000917 0.000000 0.038897 0.000000
# 6 0.000000 0.000000 0.000000 -0.001958 0.000000 0.041363
#
#
# Mechanical properties :
#
#
# Convention : Reuss Voigt Hill
#
# Bulk Modulus (GPa) = 54.41151 64.82446 59.61799
# Shear Modulus (GPa) = 23.47479 26.06078 24.76779
#
# Velocity S-wave (km/s) = 3.65460 3.85064 3.75390
# Velocity P-wave (km/s) = 6.98326 7.52677 7.26010
#
# Compressibility (1/GPa) = 0.01837846
#
# Stress axis : x y z
#
# Youngs Moduli (GPa) = 50.94046 38.97642 78.84281
#
# Poissons Ratio (x) = 0.26375 0.27338
# Poissons Ratio (y) = 0.34470 0.75389
# Poissons Ratio (z) = 0.17663 0.37269
#
# Static dielectric constant tensor:
#      x y z
#    x 3.008890 0.000000 -0.016230 
#    y 0.000000 3.260000 0.000000 
#    z -0.016230 0.000000 3.460350 
# 
# 
# High freq. dielectric constant tensor:
#      x y z
#    x 1.649270 0.000000 0.002770 
#    y 0.000000 1.682060 0.000000 
#    z 0.002770 0.000000 1.694310 
# 
# From -- ./inp_files/346024.got.cif
#   From: 2010.06.25/outbox.cif.g09.slc.cpg/sg12_174_cif.got.tgz:346024.got - 2010.06.28 00:19:55.
