data_PCOD8086651
_publ_section_title
;
Structure prediction by ZEFSAII (Michael W. Deem and Ramdas Pophale) SiO2 
 PCOD8086651
Probable space group: C 2/M
;
_chemical_formula_sum "Si O2"
_cell_formula_units_Z 64
_cell_length_a 19.329711
_cell_length_b 8.610150
_cell_length_c 20.519505
_cell_angle_alpha 90.000000
_cell_angle_beta 90.067753
_cell_angle_gamma 90.000000
_cell_volume 3415.093942
_symmetry_space_group_name_H-M "C 2/M"
_symmetry_group_IT_number 12
_symmetry_cell_setting 'monoclinic'
loop_
_space_group_symop_operation_xyz
x,y,z
-x,y,-z
-x,-y,-z
x,-y,z
1/2+x,1/2+y,z
1/2-x,1/2+y,-z
1/2-x,1/2-y,-z
1/2+x,1/2-y,z
loop_
_atom_site_type_symbol
_atom_site_label
_atom_site_fract_x
_atom_site_fract_y
_atom_site_fract_z
Si Si1 0.178571 0.682981 0.138299
Si Si2 0.429291 0.184470 0.606254
Si Si3 0.673996 0.182787 0.996495
Si Si4 0.663788 0.317075 0.865294
Si Si5 0.418010 0.182215 0.750998
Si Si6 0.673690 0.183622 0.506106
Si Si7 0.073780 0.318928 0.751874
Si Si8 0.921912 0.182253 0.386735
O O1 0.181311 0.500000 0.147593
O O2 0.257322 0.743257 0.141025
O O3 0.134220 0.760913 0.196802
O O4 0.141956 0.720009 0.068184
O O5 0.404628 0.244179 0.677593
O O6 0.372832 0.242844 0.554565
O O7 0.504060 0.254473 0.589023
O O8 0.438353 0.000000 0.605674
O O9 0.634483 0.268195 0.936903
O O10 0.675298 0.000000 0.982775
O O11 0.750000 0.250000 0.000000
O O12 0.655521 0.500000 0.855549
O O13 0.622203 0.226194 0.810978
O O14 0.495728 0.222922 0.772648
O O15 0.405331 0.000000 0.751713
O O16 0.750000 0.250000 0.500000
O O17 0.639487 0.241243 0.572401
O O18 0.677992 0.000000 0.506106
O O19 0.080784 0.500000 0.734933
O O20 0.094086 0.222376 0.688100
O O21 0.919955 0.000000 0.397324
#
# Coordination Sequence:
#
# PCOD8086651 Si02
#       8
#     8   8   8   8   8   8   8   8
#     4   8  15  28  49  75  99 129 171 215 256 306
#     4   9  19  36  58  80 105 141 179 217 264 321
#     4   9  16  28  47  71 100 134 173 215 260 312
#     4  10  19  31  50  75 103 135 173 217 262 314
#     4   8  15  31  53  75  98 127 169 214 255 303
#     4  11  23  38  56  82 115 145 178 222 270 316
#     4  10  20  35  55  77 103 135 170 214 265 316
#     4  11  22  37  58  80 105 141 182 221 263 318
#
# _framework density 18.740334000000001
#
# number of rings (size 3 to 8) (size 9 to 14) (size 15 to 20)
#    0.000    2.500    0.000    4.500    0.000    3.500 
#    0.000    3.125    0.000   26.250    0.000    0.000 
#    0.000    0.000    0.000    0.000    0.000    0.000 
#
# Total GULP energy -396650.773405 kJ/mol
# GULP energy per Si atom -12395.336669 kJ/mol
# Density = 1.869768 g / cm^3
# Si number density = 18.740334 Si / 1000 Ang^3
#
#
#
# Elastic Constant Matrix: (Units=GPa)
#
#
# Indices 1 2 3 4 5 6 
#
# 1 76.4495 12.9708 50.1743 0.0000 7.4476 0.0000
# 2 12.9708 36.7937 13.9386 0.0000 1.6680 0.0000
# 3 50.1743 13.9386 99.4768 0.0000 7.0179 0.0000
# 4 0.0000 0.0000 0.0000 26.8002 0.0000 3.7456
# 5 7.4476 1.6680 7.0179 0.0000 33.6071 0.0000
# 6 0.0000 0.0000 0.0000 3.7456 0.0000 24.8254
#
#
#
# Elastic Compliance Matrix: (Units=1/GPa)
#
#
# Indices 1 2 3 4 5 6 
#
# 1 0.020123 -0.003386 -0.009512 0.000000 -0.002305 0.000000
# 2 -0.003386 0.029283 -0.002381 0.000000 -0.000206 0.000000
# 3 -0.009512 -0.002381 0.015252 0.000000 -0.000959 0.000000
# 4 0.000000 0.000000 0.000000 0.038117 0.000000 -0.005751
# 5 -0.002305 -0.000206 -0.000959 0.000000 0.030477 0.000000
# 6 0.000000 0.000000 0.000000 -0.005751 0.000000 0.041149
#
#
# Mechanical properties :
#
#
# Convention : Reuss Voigt Hill
#
# Bulk Modulus (GPa) = 29.32586 40.76525 35.04556
# Shear Modulus (GPa) = 23.11334 26.08896 24.60115
#
# Velocity S-wave (km/s) = 3.51571 3.73517 3.62710
# Velocity P-wave (km/s) = 5.67123 6.35625 6.02349
#
# Compressibility (1/GPa) = 0.03409960
#
# Stress axis : x y z
#
# Youngs Moduli (GPa) = 49.69545 34.14899 65.56620
#
# Poissons Ratio (x) = 0.11562 0.62370
# Poissons Ratio (y) = 0.16825 0.15611
# Poissons Ratio (z) = 0.47273 0.08131
#
# Static dielectric constant tensor:
#      x y z
#    x 3.416780 0.000000 -0.127590 
#    y 0.000000 3.296700 0.000000 
#    z -0.127590 0.000000 3.937610 
# 
# 
# High freq. dielectric constant tensor:
#      x y z
#    x 1.706600 0.000000 -0.000010 
#    y 0.000000 1.712630 0.000000 
#    z -0.000010 0.000000 1.747230 
# 
# From -- ./inp_files/314172.got.cif
#   From: 2010.06.25/outbox.cif.g09.slc.cpg/sg12_158_cif.got.tgz:314172.got - 2010.06.28 00:19:55.
