data_PCOD8086373
_publ_section_title
;
Structure prediction by ZEFSAII (Michael W. Deem and Ramdas Pophale) SiO2 
 PCOD8086373
Probable space group: C 2/M
;
_chemical_formula_sum "Si O2"
_cell_formula_units_Z 56
_cell_length_a 19.130938
_cell_length_b 9.236255
_cell_length_c 26.819032
_cell_angle_alpha 90.000000
_cell_angle_beta 140.788037
_cell_angle_gamma 90.000000
_cell_volume 2995.874730
_symmetry_space_group_name_H-M "C 2/M"
_symmetry_group_IT_number 12
_symmetry_cell_setting 'monoclinic'
loop_
_space_group_symop_operation_xyz
x,y,z
-x,y,-z
-x,-y,-z
x,-y,z
1/2+x,1/2+y,z
1/2-x,1/2+y,-z
1/2-x,1/2-y,-z
1/2+x,1/2-y,z
loop_
_atom_site_type_symbol
_atom_site_label
_atom_site_fract_x
_atom_site_fract_y
_atom_site_fract_z
Si Si1 0.715784 0.832417 0.930843
Si Si2 0.099756 0.667279 0.588071
Si Si3 0.393666 0.166051 0.824729
Si Si4 0.450943 0.335557 0.023244
Si Si5 0.342192 0.662546 0.701765
Si Si6 0.059527 0.833305 0.771079
Si Si7 0.848903 0.168653 0.283357
O O1 0.613931 0.756793 0.846349
O O2 0.686389 0.000000 0.926748
O O3 0.750000 0.750000 0.000000
O O4 0.819039 0.824023 0.950113
O O5 0.077665 0.500000 0.588049
O O6 0.212538 0.687848 0.617857
O O7 0.102682 0.747497 0.642582
O O8 0.000000 0.732069 0.500000
O O9 0.499793 0.248824 0.903489
O O10 0.376726 0.216020 0.759439
O O11 0.282394 0.197021 0.794797
O O12 0.425715 0.000000 0.842280
O O13 0.491869 0.500000 0.051080
O O14 0.500000 0.266059 0.000000
O O15 0.355929 0.500000 0.731935
O O16 0.425358 0.679886 0.700760
O O17 0.094361 0.773442 0.736051
O O18 0.098178 0.000000 0.797962
O O19 0.874005 0.000000 0.305816
#
# Coordination Sequence:
#
# PCOD8086373 Si02
#       7
#     8   8   8   8   8   8   8
#     4  11  23  36  51  72 100 135 172 212 257 300
#     4   9  18  34  56  80 104 131 165 202 240 291
#     4  10  19  31  49  72  96 124 163 208 249 292
#     4  10  21  35  49  67  93 127 167 208 250 295
#     4   9  18  33  53  73  96 130 165 197 239 292
#     4  10  20  35  53  73 100 133 170 209 249 298
#     4   9  19  34  52  76 104 133 164 203 253 300
#
# _framework density 18.692371000000001
#
# number of rings (size 3 to 8) (size 9 to 14) (size 15 to 20)
#    0.000    2.286    0.000    2.571    0.000    6.857 
#    0.000    0.714    0.000    0.000    0.000    0.000 
#    0.000    0.000    0.000    0.000    0.000    0.000 
#
# Total GULP energy -347123.647729 kJ/mol
# GULP energy per Si atom -12397.273133 kJ/mol
# Density = 1.864983 g / cm^3
# Si number density = 18.692371 Si / 1000 Ang^3
#
#
#
# Elastic Constant Matrix: (Units=GPa)
#
#
# Indices 1 2 3 4 5 6 
#
# 1 109.1105 25.7544 32.4805 0.0000 10.6310 0.0000
# 2 25.7544 65.9170 35.9667 0.0000 0.2254 0.0000
# 3 32.4805 35.9667 101.0945 0.0000 9.1748 0.0000
# 4 0.0000 0.0000 0.0000 21.7944 0.0000 -2.3735
# 5 10.6310 0.2254 9.1748 0.0000 23.0849 0.0000
# 6 0.0000 0.0000 0.0000 -2.3735 0.0000 24.2867
#
#
#
# Elastic Compliance Matrix: (Units=1/GPa)
#
#
# Indices 1 2 3 4 5 6 
#
# 1 0.010916 -0.003158 -0.002002 0.000000 -0.004200 0.000000
# 2 -0.003158 0.019887 -0.006406 0.000000 0.003806 0.000000
# 3 -0.002002 -0.006406 0.013201 0.000000 -0.004262 0.000000
# 4 0.000000 0.000000 0.000000 0.046377 0.000000 0.004532
# 5 -0.004200 0.003806 -0.004262 0.000000 0.046909 0.000000
# 6 0.000000 0.000000 0.000000 0.004532 0.000000 0.041618
#
#
# Mechanical properties :
#
#
# Convention : Reuss Voigt Hill
#
# Bulk Modulus (GPa) = 47.91383 51.61390 49.76386
# Shear Modulus (GPa) = 23.92380 25.96124 24.94252
#
# Velocity S-wave (km/s) = 3.58141 3.73080 3.65686
# Velocity P-wave (km/s) = 6.54144 6.79931 6.67162
#
# Compressibility (1/GPa) = 0.02087080
#
# Stress axis : x y z
#
# Youngs Moduli (GPa) = 91.61079 50.28472 75.75219
#
# Poissons Ratio (x) = 0.15880 0.15169
# Poissons Ratio (y) = 0.28930 0.48527
# Poissons Ratio (z) = 0.18344 0.32212
#
# Static dielectric constant tensor:
#      x y z
#    x 3.636270 0.000000 0.257900 
#    y 0.000000 3.441010 0.000000 
#    z 0.257900 0.000000 3.315380 
# 
# 
# High freq. dielectric constant tensor:
#      x y z
#    x 1.733680 0.000000 0.018440 
#    y 0.000000 1.725660 0.000000 
#    z 0.018440 0.000000 1.701930 
# 
# From -- ./inp_files/280193.got.cif
#   From: 2010.06.25/outbox.cif.g09.slc.cpg/sg12_141_cif.got.tgz:280193.got - 2010.06.28 00:19:55.
