data_PCOD8086036
_publ_section_title
;
Structure prediction by ZEFSAII (Michael W. Deem and Ramdas Pophale) SiO2 
 PCOD8086036
Probable space group: C 2/M
;
_chemical_formula_sum "Si O2"
_cell_formula_units_Z 48
_cell_length_a 18.853533
_cell_length_b 11.331326
_cell_length_c 19.480133
_cell_angle_alpha 90.000000
_cell_angle_beta 138.583236
_cell_angle_gamma 90.000000
_cell_volume 2753.060791
_symmetry_space_group_name_H-M "C 2/M"
_symmetry_group_IT_number 12
_symmetry_cell_setting 'monoclinic'
loop_
_space_group_symop_operation_xyz
x,y,z
-x,y,-z
-x,-y,-z
x,-y,z
1/2+x,1/2+y,z
1/2-x,1/2+y,-z
1/2-x,1/2-y,-z
1/2+x,1/2-y,z
loop_
_atom_site_type_symbol
_atom_site_label
_atom_site_fract_x
_atom_site_fract_y
_atom_site_fract_z
Si Si1 0.913424 0.362318 0.229150
Si Si2 0.558420 0.000000 0.141667
Si Si3 0.188482 0.244767 0.075748
Si Si4 0.084714 0.638592 0.614245
Si Si5 0.507056 0.237718 0.167154
Si Si6 0.324636 0.638000 0.791731
Si Si7 0.827258 0.500000 0.906624
O O1 0.934403 0.500000 0.226052
O O2 0.786372 0.340644 0.128078
O O3 0.949367 0.330930 0.332504
O O4 0.977706 0.272836 0.226222
O O5 0.564834 0.115639 0.191979
O O6 0.662512 0.000000 0.168256
O O7 0.447496 0.000000 0.021107
O O8 0.136560 0.207036 0.111380
O O9 0.231312 0.380757 0.110400
O O10 0.099802 0.232984 0.952799
O O11 0.083269 0.500000 0.602102
O O12 0.205067 0.683738 0.686010
O O13 0.000000 0.698402 0.500000
O O14 0.594953 0.337984 0.213503
O O15 0.323376 0.500000 0.807982
#
# Coordination Sequence:
#
# PCOD8086036 Si02
#       7
#     8   4   8   8   8   8   4
#     4  10  20  33  49  72  99 129 167 202 241 289
#     4   9  16  28  46  64  93 131 165 197 230 270
#     4  10  19  31  47  68 100 138 169 196 228 278
#     4   8  16  34  56  72  89 118 160 207 248 290
#     4  11  19  31  46  71 105 131 161 198 237 285
#     4  10  20  32  50  75  98 127 166 202 239 286
#     4   9  16  28  46  66  88 131 177 197 216 274
#
# _framework density 17.435141000000002
#
# number of rings (size 3 to 8) (size 9 to 14) (size 15 to 20)
#    0.000    2.333    2.500    2.500    0.000    2.000 
#    1.500    0.833    0.000    0.000    0.000   14.583 
#    0.000    0.000    0.000    0.000    0.000    0.000 
#
# Total GULP energy -297453.087761 kJ/mol
# GULP energy per Si atom -12393.878657 kJ/mol
# Density = 1.739546 g / cm^3
# Si number density = 17.435141 Si / 1000 Ang^3
#
#
#
# Elastic Constant Matrix: (Units=GPa)
#
#
# Indices 1 2 3 4 5 6 
#
# 1 98.9836 14.1824 42.8568 0.0000 -15.0899 0.0000
# 2 14.1824 55.5791 23.6453 0.0000 -1.9623 0.0000
# 3 42.8568 23.6453 98.8641 0.0000 -9.4712 0.0000
# 4 0.0000 0.0000 0.0000 13.8214 0.0000 -3.2561
# 5 -15.0899 -1.9623 -9.4712 0.0000 12.4104 0.0000
# 6 0.0000 0.0000 0.0000 -3.2561 0.0000 25.6628
#
#
#
# Elastic Compliance Matrix: (Units=1/GPa)
#
#
# Indices 1 2 3 4 5 6 
#
# 1 0.014376 -0.001216 -0.004623 0.000000 0.013760 0.000000
# 2 -0.001216 0.020137 -0.004451 0.000000 -0.001691 0.000000
# 3 -0.004623 -0.004451 0.013570 0.000000 0.004031 0.000000
# 4 0.000000 0.000000 0.000000 0.074581 0.000000 0.009463
# 5 0.013760 -0.001691 0.004031 0.000000 0.100117 0.000000
# 6 0.000000 0.000000 0.000000 0.009463 0.000000 0.040168
#
#
# Mechanical properties :
#
#
# Convention : Reuss Voigt Hill
#
# Bulk Modulus (GPa) = 36.36016 46.08842 41.22429
# Shear Modulus (GPa) = 17.08262 21.89507 19.48885
#
# Velocity S-wave (km/s) = 3.13354 3.54757 3.34697
# Velocity P-wave (km/s) = 5.83026 6.57814 6.21546
#
# Compressibility (1/GPa) = 0.02750263
#
# Stress axis : x y z
#
# Youngs Moduli (GPa) = 69.55970 49.66100 73.69401
#
# Poissons Ratio (x) = 0.06038 0.34068
# Poissons Ratio (y) = 0.08458 0.32801
# Poissons Ratio (z) = 0.32157 0.22104
#
# Static dielectric constant tensor:
#      x y z
#    x 3.257260 0.000000 -0.083720 
#    y 0.000000 3.265430 0.000000 
#    z -0.083720 0.000000 3.170410 
# 
# 
# High freq. dielectric constant tensor:
#      x y z
#    x 1.671770 0.000000 -0.009900 
#    y 0.000000 1.661930 0.000000 
#    z -0.009900 0.000000 1.634910 
# 
# From -- ./inp_files/276749.got.cif
#   From: 2010.06.25/outbox.cif.g09.slc.cpg/sg12_139_cif.got.tgz:276749.got - 2010.06.28 00:19:55.
