data_PCOD8086040
_publ_section_title
;
Structure prediction by ZEFSAII (Michael W. Deem and Ramdas Pophale) SiO2 
 PCOD8086040
Probable space group: C 2/M
;
_chemical_formula_sum "Si O2"
_cell_formula_units_Z 64
_cell_length_a 22.833167
_cell_length_b 9.138791
_cell_length_c 17.448573
_cell_angle_alpha 90.000000
_cell_angle_beta 78.278136
_cell_angle_gamma 90.000000
_cell_volume 3565.020090
_symmetry_space_group_name_H-M "C 2/M"
_symmetry_group_IT_number 12
_symmetry_cell_setting 'monoclinic'
loop_
_space_group_symop_operation_xyz
x,y,z
-x,y,-z
-x,-y,-z
x,-y,z
1/2+x,1/2+y,z
1/2-x,1/2+y,-z
1/2-x,1/2-y,-z
1/2+x,1/2-y,z
loop_
_atom_site_type_symbol
_atom_site_label
_atom_site_fract_x
_atom_site_fract_y
_atom_site_fract_z
Si Si1 0.475629 0.329726 0.425008
Si Si2 0.306798 0.668982 0.763838
Si Si3 0.463488 0.834640 0.193838
Si Si4 0.629927 0.665706 0.868266
Si Si5 0.773854 0.670791 0.068174
Si Si6 0.286627 0.664489 0.301801
Si Si7 0.942675 0.829615 0.740096
Si Si8 0.120424 0.335162 0.636304
O O1 0.500000 0.275221 0.500000
O O2 0.459042 0.500000 0.430966
O O3 0.526360 0.295513 0.349086
O O4 0.414744 0.243284 0.423200
O O5 0.303839 0.500000 0.740689
O O6 0.274669 0.696467 0.852895
O O7 0.275555 0.758951 0.704102
O O8 0.374596 0.724022 0.753134
O O9 0.433159 0.744183 0.132764
O O10 0.525964 0.759358 0.199791
O O11 0.419950 0.832886 0.277701
O O12 0.475603 0.000000 0.163005
O O13 0.618081 0.500000 0.899604
O O14 0.663068 0.756575 0.925763
O O15 0.669855 0.665258 0.782085
O O16 0.784379 0.500000 0.049163
O O17 0.750000 0.750000 0.000000
O O18 0.273240 0.500000 0.332697
O O19 0.317664 0.750890 0.363467
O O20 0.947202 0.000000 0.759867
O O21 0.135782 0.500000 0.607349
#
# Coordination Sequence:
#
# PCOD8086040 Si02
#       8
#     8   8   8   8   8   8   8   8
#     4   9  17  29  46  68  93 120 150 185 224 265
#     4   9  18  31  47  67  92 121 151 183 221 267
#     4   9  16  26  42  66  92 117 148 187 226 262
#     4   9  16  27  44  66  90 117 149 185 225 266
#     4  10  19  31  47  68  93 120 150 184 223 266
#     4   9  16  26  43  66  90 115 147 188 228 264
#     4   9  17  30  47  67  92 122 152 182 221 268
#     4   9  16  26  42  64  90 118 149 186 225 265
#
# _framework density 17.952213
#
# number of rings (size 3 to 8) (size 9 to 14) (size 15 to 20)
#    0.000    2.875    0.000    1.875    0.000    7.250 
#    0.000    0.000    0.000    1.500    0.000    5.250 
#    0.000    0.000    0.000    0.000    0.000    0.000 
#
# Total GULP energy -396803.420337 kJ/mol
# GULP energy per Si atom -12400.106886 kJ/mol
# Density = 1.791135 g / cm^3
# Si number density = 17.952213 Si / 1000 Ang^3
#
#
#
# Elastic Constant Matrix: (Units=GPa)
#
#
# Indices 1 2 3 4 5 6 
#
# 1 138.7058 79.8605 48.2833 0.0000 47.7326 0.0000
# 2 79.8605 142.3883 55.1100 0.0000 39.1522 0.0000
# 3 48.2833 55.1100 69.3919 0.0000 39.7627 0.0000
# 4 0.0000 0.0000 0.0000 23.7887 0.0000 14.4301
# 5 47.7326 39.1522 39.7627 0.0000 36.2655 0.0000
# 6 0.0000 0.0000 0.0000 14.4301 0.0000 31.8890
#
#
#
# Elastic Compliance Matrix: (Units=1/GPa)
#
#
# Indices 1 2 3 4 5 6 
#
# 1 0.015255 -0.004889 0.004706 0.000000 -0.019960 0.000000
# 2 -0.004889 0.012164 -0.006513 0.000000 0.000444 0.000000
# 3 0.004706 -0.006513 0.042583 0.000000 -0.045852 0.000000
# 4 0.000000 0.000000 0.000000 0.057941 0.000000 -0.026219
# 5 -0.019960 0.000444 -0.045852 0.000000 0.103641 0.000000
# 6 0.000000 0.000000 0.000000 -0.026219 0.000000 0.043223
#
#
# Mechanical properties :
#
#
# Convention : Reuss Voigt Hill
#
# Bulk Modulus (GPa) = 17.66481 79.66595 48.66538
# Shear Modulus (GPa) = 16.28300 29.53746 22.91023
#
# Velocity S-wave (km/s) = 3.01494 4.06068 3.57624
# Velocity P-wave (km/s) = 4.68840 8.15221 6.64980
#
# Compressibility (1/GPa) = 0.05660973
#
# Stress axis : x y z
#
# Youngs Moduli (GPa) = 65.55143 82.21121 23.48358
#
# Poissons Ratio (x) = 0.40193 -0.11050
# Poissons Ratio (y) = 0.32048 0.15294
# Poissons Ratio (z) = -0.30846 0.53542
#
# Static dielectric constant tensor:
#      x y z
#    x 3.337840 0.000000 0.349440 
#    y 0.000000 3.479460 0.000000 
#    z 0.349440 0.000000 3.006820 
# 
# 
# High freq. dielectric constant tensor:
#      x y z
#    x 1.684990 0.000000 0.039900 
#    y 0.000000 1.705620 0.000000 
#    z 0.039900 0.000000 1.656190 
# 
# From -- ./inp_files/287720.got.cif
#   From: 2010.06.25/outbox.cif.g09.slc.cpg/sg12_144_cif.got.tgz:287720.got - 2010.06.28 00:19:55.
