data_PCOD8086045
_publ_section_title
;
Structure prediction by ZEFSAII (Michael W. Deem and Ramdas Pophale) SiO2 
 PCOD8086045
Probable space group: C 2/M
;
_chemical_formula_sum "Si O2"
_cell_formula_units_Z 56
_cell_length_a 18.838673
_cell_length_b 9.080397
_cell_length_c 20.516460
_cell_angle_alpha 90.000000
_cell_angle_beta 62.523144
_cell_angle_gamma 90.000000
_cell_volume 3113.707217
_symmetry_space_group_name_H-M "C 2/M"
_symmetry_group_IT_number 12
_symmetry_cell_setting 'monoclinic'
loop_
_space_group_symop_operation_xyz
x,y,z
-x,y,-z
-x,-y,-z
x,-y,z
1/2+x,1/2+y,z
1/2-x,1/2+y,-z
1/2-x,1/2-y,-z
1/2+x,1/2-y,z
loop_
_atom_site_type_symbol
_atom_site_label
_atom_site_fract_x
_atom_site_fract_y
_atom_site_fract_z
Si Si1 0.960754 0.325222 0.419331
Si Si2 0.565999 0.824229 0.714285
Si Si3 0.678131 0.171618 0.994206
Si Si4 0.283046 0.326323 0.286424
Si Si5 0.095721 0.329285 0.155324
Si Si6 0.260508 0.673106 0.146084
Si Si7 0.620253 0.174914 0.417490
O O1 0.964530 0.500000 0.416345
O O2 0.934951 0.265714 0.359733
O O3 0.896296 0.273298 0.501047
O O4 0.048948 0.265295 0.401223
O O5 0.641188 0.756710 0.718170
O O6 0.486484 0.759901 0.783227
O O7 0.571227 0.000000 0.715997
O O8 0.670021 0.246948 0.926511
O O9 0.696471 0.000000 0.977653
O O10 0.750000 0.250000 0.000000
O O11 0.601388 0.195577 0.074306
O O12 0.293349 0.500000 0.292204
O O13 0.274182 0.285141 0.214735
O O14 0.205167 0.263806 0.357126
O O15 0.093360 0.500000 0.173981
O O16 0.173454 0.265343 0.160318
O O17 0.267308 0.500000 0.130322
O O18 0.621222 0.000000 0.412664
#
# Coordination Sequence:
#
# PCOD8086045 Si02
#       7
#     8   8   8   8   8   8   8
#     4   8  14  26  48  74  92 114 155 199 230 263
#     4  10  19  31  47  68  95 124 155 190 227 274
#     4   9  16  28  48  73  96 118 150 193 238 278
#     4  10  20  32  46  67  97 128 154 187 234 280
#     4   8  15  29  49  69  88 116 154 192 228 267
#     4   9  17  31  50  69  90 120 159 197 231 270
#     4   8  14  27  48  72  94 117 153 197 233 268
#
# _framework density 17.984992999999999
#
# number of rings (size 3 to 8) (size 9 to 14) (size 15 to 20)
#    0.000    3.143    0.000    3.000    0.000    4.571 
#    0.000    4.286    0.000    6.857    0.000    2.000 
#    0.000    0.000    0.000    0.000    0.000    0.000 
#
# Total GULP energy -346964.564392 kJ/mol
# GULP energy per Si atom -12391.591585 kJ/mol
# Density = 1.794406 g / cm^3
# Si number density = 17.984993 Si / 1000 Ang^3
#
#
#
# Elastic Constant Matrix: (Units=GPa)
#
#
# Indices 1 2 3 4 5 6 
#
# 1 115.6521 28.0221 92.3393 0.0000 1.7598 -0.0002
# 2 28.0221 30.0707 42.7546 -0.0001 3.1201 -0.0005
# 3 92.3393 42.7546 183.4388 0.0000 7.8449 -0.0001
# 4 0.0000 -0.0001 0.0000 19.6133 0.0000 0.9336
# 5 1.7598 3.1201 7.8449 0.0000 10.9651 0.0000
# 6 -0.0002 -0.0005 -0.0001 0.9336 0.0000 24.1920
#
#
#
# Elastic Compliance Matrix: (Units=1/GPa)
#
#
# Indices 1 2 3 4 5 6 
#
# 1 0.015055 -0.005106 -0.006547 0.000000 0.003721 0.000000
# 2 -0.005106 0.051860 -0.009202 0.000000 -0.007353 0.000001
# 3 -0.006547 -0.009202 0.011074 0.000000 -0.004253 0.000000
# 4 0.000000 0.000000 0.000000 0.051080 0.000000 -0.001971
# 5 0.003721 -0.007353 -0.004253 0.000000 0.095736 0.000000
# 6 0.000000 0.000001 0.000000 -0.001971 0.000000 0.041412
#
#
# Mechanical properties :
#
#
# Convention : Reuss Voigt Hill
#
# Bulk Modulus (GPa) = 27.56564 72.82152 50.19358
# Shear Modulus (GPa) = 15.62399 22.02380 18.82390
#
# Velocity S-wave (km/s) = 2.95061 3.50318 3.23870
# Velocity P-wave (km/s) = 5.19311 7.54593 6.47725
#
# Compressibility (1/GPa) = 0.03627704
#
# Stress axis : x y z
#
# Youngs Moduli (GPa) = 66.42448 19.28262 90.30282
#
# Poissons Ratio (x) = 0.09846 0.59123
# Poissons Ratio (y) = 0.33918 0.83099
# Poissons Ratio (z) = 0.43489 0.17744
#
# Static dielectric constant tensor:
#      x y z
#    x 3.048250 0.000000 -0.203940 
#    y 0.000000 2.949700 0.000000 
#    z -0.203940 0.000000 3.758770 
# 
# 
# High freq. dielectric constant tensor:
#      x y z
#    x 1.673140 0.000000 0.002860 
#    y 0.000000 1.647710 0.000000 
#    z 0.002860 0.000000 1.721140 
# 
# From -- ./inp_files/313763.got.cif
#   From: 2010.06.25/outbox.cif.g09.slc.cpg/sg12_157_cif.got.tgz:313763.got - 2010.06.28 00:19:55.
