data_PCOD8086527
_publ_section_title
;
Structure prediction by ZEFSAII (Michael W. Deem and Ramdas Pophale) SiO2 
 PCOD8086527
Probable space group: C 2/M
;
_chemical_formula_sum "Si O2"
_cell_formula_units_Z 56
_cell_length_a 23.621406
_cell_length_b 9.466733
_cell_length_c 13.706083
_cell_angle_alpha 90.000000
_cell_angle_beta 71.618836
_cell_angle_gamma 90.000000
_cell_volume 2908.547537
_symmetry_space_group_name_H-M "C 2/M"
_symmetry_group_IT_number 12
_symmetry_cell_setting 'monoclinic'
loop_
_space_group_symop_operation_xyz
x,y,z
-x,y,-z
-x,-y,-z
x,-y,z
1/2+x,1/2+y,z
1/2-x,1/2+y,-z
1/2-x,1/2-y,-z
1/2+x,1/2-y,z
loop_
_atom_site_type_symbol
_atom_site_label
_atom_site_fract_x
_atom_site_fract_y
_atom_site_fract_z
Si Si1 0.220806 0.655074 0.289495
Si Si2 0.367587 0.662856 0.764336
Si Si3 0.522757 0.833603 0.379871
Si Si4 0.806365 0.344119 0.483862
Si Si5 0.148012 0.161933 0.819268
Si Si6 0.309804 0.336251 0.991623
Si Si7 0.084499 0.665543 0.701500
O O1 0.216502 0.500000 0.239826
O O2 0.196748 0.780178 0.235439
O O3 0.180709 0.650636 0.408148
O O4 0.290576 0.684655 0.275141
O O5 0.375864 0.500000 0.730390
O O6 0.417912 0.752722 0.683344
O O7 0.363152 0.683458 0.883486
O O8 0.500000 0.786037 0.500000
O O9 0.476376 0.793244 0.319644
O O10 0.536096 0.000000 0.374307
O O11 0.792190 0.500000 0.450382
O O12 0.750000 0.250000 0.500000
O O13 0.864578 0.283059 0.400731
O O14 0.094878 0.252370 0.797972
O O15 0.126794 0.000000 0.829427
O O16 0.161071 0.214226 0.922273
O O17 0.290654 0.500000 0.008002
O O18 0.250000 0.250000 0.000000
O O19 0.086796 0.500000 0.722492
#
# Coordination Sequence:
#
# PCOD8086527 Si02
#       7
#     8   8   8   8   8   8   8
#     4  10  19  33  54  80 113 154 191 225 281 352
#     4  11  23  37  58  88 117 147 192 248 294 335
#     4  10  22  43  66  84 112 156 199 237 285 350
#     4  10  19  31  49  77 111 143 179 223 278 341
#     4  10  20  35  56  82 114 152 189 229 285 347
#     4  10  21  37  57  85 119 154 193 237 291 346
#     4  10  21  36  56  82 113 149 190 239 288 337
#
# _framework density 19.253596000000002
#
# number of rings (size 3 to 8) (size 9 to 14) (size 15 to 20)
#    0.000    1.857    2.857    1.286    0.000    5.429 
#    0.000    2.143    0.000    4.286    0.000    0.000 
#    0.000    0.000    0.000    0.000    0.000    0.000 
#
# Total GULP energy -347045.201815 kJ/mol
# GULP energy per Si atom -12394.471493 kJ/mol
# Density = 1.920977 g / cm^3
# Si number density = 19.253596 Si / 1000 Ang^3
#
#
#
# Elastic Constant Matrix: (Units=GPa)
#
#
# Indices 1 2 3 4 5 6 
#
# 1 86.3972 47.5496 30.5775 0.0000 17.8370 0.0000
# 2 47.5496 69.3067 34.6514 0.0000 8.3697 0.0000
# 3 30.5775 34.6514 95.8542 0.0000 9.6188 0.0000
# 4 0.0000 0.0000 0.0000 26.9039 0.0000 4.3262
# 5 17.8370 8.3697 9.6188 0.0000 34.1158 0.0000
# 6 0.0000 0.0000 0.0000 4.3262 0.0000 31.0686
#
#
#
# Elastic Compliance Matrix: (Units=1/GPa)
#
#
# Indices 1 2 3 4 5 6 
#
# 1 0.020385 -0.012478 -0.001265 0.000000 -0.007240 0.000000
# 2 -0.012478 0.025477 -0.005410 0.000000 0.001799 0.000000
# 3 -0.001265 -0.005410 0.012959 0.000000 -0.001665 0.000000
# 4 0.000000 0.000000 0.000000 0.038021 0.000000 -0.005294
# 5 -0.007240 0.001799 -0.001665 0.000000 0.033125 0.000000
# 6 0.000000 0.000000 0.000000 -0.005294 0.000000 0.032924
#
#
# Mechanical properties :
#
#
# Convention : Reuss Voigt Hill
#
# Bulk Modulus (GPa) = 48.74842 53.01279 50.88061
# Shear Modulus (GPa) = 24.03433 27.66964 25.85199
#
# Velocity S-wave (km/s) = 3.53697 3.79504 3.66828
# Velocity P-wave (km/s) = 6.48493 6.84082 6.66525
#
# Compressibility (1/GPa) = 0.02051348
#
# Stress axis : x y z
#
# Youngs Moduli (GPa) = 49.05681 39.25054 77.16702
#
# Poissons Ratio (x) = 0.48979 0.09763
# Poissons Ratio (y) = 0.61215 0.41747
# Poissons Ratio (z) = 0.06207 0.21235
#
# Static dielectric constant tensor:
#      x y z
#    x 3.387010 0.000000 0.096680 
#    y 0.000000 3.448610 0.000000 
#    z 0.096680 0.000000 3.810080 
# 
# 
# High freq. dielectric constant tensor:
#      x y z
#    x 1.731710 0.000000 0.007360 
#    y 0.000000 1.743510 0.000000 
#    z 0.007360 0.000000 1.754620 
# 
# From -- ./inp_files/237367.got.cif
#   From: 2010.06.25/outbox.cif.g09.slc.cpg/sg12_119_cif.got.tgz:237367.got - 2010.06.28 00:19:55.
