data_PCOD8086970
_publ_section_title
;
Structure prediction by ZEFSAII (Michael W. Deem and Ramdas Pophale) SiO2 
 PCOD8086970
Probable space group: C 2/M
;
_chemical_formula_sum "Si O2"
_cell_formula_units_Z 56
_cell_length_a 10.401761
_cell_length_b 18.642398
_cell_length_c 17.606277
_cell_angle_alpha 90.000000
_cell_angle_beta 56.292717
_cell_angle_gamma 90.000000
_cell_volume 2840.133359
_symmetry_space_group_name_H-M "C 2/M"
_symmetry_group_IT_number 12
_symmetry_cell_setting 'monoclinic'
loop_
_space_group_symop_operation_xyz
x,y,z
-x,y,-z
-x,-y,-z
x,-y,z
1/2+x,1/2+y,z
1/2-x,1/2+y,-z
1/2-x,1/2-y,-z
1/2+x,1/2-y,z
loop_
_atom_site_type_symbol
_atom_site_label
_atom_site_fract_x
_atom_site_fract_y
_atom_site_fract_z
Si Si1 0.630931 0.583555 0.549234
Si Si2 0.136564 0.162420 0.112204
Si Si3 0.323276 0.832733 0.192462
Si Si4 0.672154 0.829175 0.088784
Si Si5 0.224507 0.833150 0.781772
Si Si6 0.639590 0.915837 0.399278
Si Si7 0.208680 0.084415 0.363816
O O1 0.609889 0.500000 0.542544
O O2 0.706134 0.601650 0.604428
O O3 0.736568 0.608372 0.442545
O O4 0.459992 0.615625 0.603891
O O5 0.216636 0.130113 0.162239
O O6 0.192060 0.244526 0.093850
O O7 0.954634 0.144655 0.172841
O O8 0.210185 0.133166 0.009476
O O9 0.501483 0.839470 0.110231
O O10 0.265535 0.752356 0.228449
O O11 0.325421 0.875463 0.270781
O O12 0.713896 0.862543 0.157412
O O13 0.341633 0.869298 0.682772
O O14 0.500000 0.891464 0.500000
O O15 0.622424 0.000000 0.384129
O O16 0.229319 0.000000 0.344440
#
# Coordination Sequence:
#
# PCOD8086970 Si02
#       7
#     8   8   8   8   8   8   8
#     4   8  16  32  51  70  91 128 179 205 231 298
#     4   9  17  33  54  75 104 137 169 206 252 311
#     4  10  19  31  52  79 106 127 168 211 254 298
#     4   9  18  31  53  79 103 135 170 207 253 305
#     4  10  20  34  52  77 104 129 173 216 253 299
#     4  10  21  36  53  71  99 139 177 209 252 310
#     4   9  17  31  52  73  98 133 168 204 247 302
#
# _framework density 19.717383000000002
#
# number of rings (size 3 to 8) (size 9 to 14) (size 15 to 20)
#    0.000    2.714    0.000    2.571    2.000    3.429 
#    2.571    0.714    0.000    5.143    0.000    0.000 
#    0.000    0.000    0.000    0.000    0.000    0.000 
#
# Total GULP energy -346909.867293 kJ/mol
# GULP energy per Si atom -12389.638118 kJ/mol
# Density = 1.967251 g / cm^3
# Si number density = 19.717383 Si / 1000 Ang^3
#
#
#
# Elastic Constant Matrix: (Units=GPa)
#
#
# Indices 1 2 3 4 5 6 
#
# 1 79.4299 15.4117 26.3466 0.0000 10.8286 0.0000
# 2 15.4117 29.7079 33.9914 0.0000 1.8200 0.0000
# 3 26.3466 33.9914 134.1603 0.0000 10.4949 0.0000
# 4 0.0000 0.0000 0.0000 11.4346 0.0000 1.9008
# 5 10.8286 1.8200 10.4949 0.0000 30.9694 0.0000
# 6 0.0000 0.0000 0.0000 1.9008 0.0000 13.7513
#
#
#
# Elastic Compliance Matrix: (Units=1/GPa)
#
#
# Indices 1 2 3 4 5 6 
#
# 1 0.014732 -0.006278 -0.000954 0.000000 -0.004459 0.000000
# 2 -0.006278 0.050131 -0.011720 0.000000 0.003221 0.000000
# 3 -0.000954 -0.011720 0.010817 0.000000 -0.002644 0.000000
# 4 0.000000 0.000000 0.000000 0.089511 0.000000 -0.012373
# 5 -0.004459 0.003221 -0.002644 0.000000 0.034556 0.000000
# 6 0.000000 0.000000 0.000000 -0.012373 0.000000 0.074431
#
#
# Mechanical properties :
#
#
# Convention : Reuss Voigt Hill
#
# Bulk Modulus (GPa) = 26.47192 43.86638 35.16915
# Shear Modulus (GPa) = 15.40004 22.40096 18.90050
#
# Velocity S-wave (km/s) = 2.79774 3.37427 3.09944
# Velocity P-wave (km/s) = 4.88787 6.12183 5.53932
#
# Compressibility (1/GPa) = 0.03777588
#
# Stress axis : x y z
#
# Youngs Moduli (GPa) = 67.87895 19.94762 92.44376
#
# Poissons Ratio (x) = 0.12524 0.08815
# Poissons Ratio (y) = 0.42617 1.08349
# Poissons Ratio (z) = 0.06473 0.23380
#
# Static dielectric constant tensor:
#      x y z
#    x 4.118410 0.000000 0.199590 
#    y 0.000000 3.011970 0.000000 
#    z 0.199590 0.000000 3.701280 
# 
# 
# High freq. dielectric constant tensor:
#      x y z
#    x 1.781490 0.000000 0.008090 
#    y 0.000000 1.702320 0.000000 
#    z 0.008090 0.000000 1.781520 
# 
# From -- ./inp_files/134817.got.cif
#   From: 2010.06.25/outbox.cif.g09.slc.cpg/sg12_68_cif.got.tgz:134817.got - 2010.06.28 00:19:55.
