data_PCOD8086867
_publ_section_title
;
Structure prediction by ZEFSAII (Michael W. Deem and Ramdas Pophale) SiO2 
 PCOD8086867
Probable space group: C 2/M
;
_chemical_formula_sum "Si O2"
_cell_formula_units_Z 56
_cell_length_a 20.769772
_cell_length_b 8.892388
_cell_length_c 30.320513
_cell_angle_alpha 90.000000
_cell_angle_beta 146.682228
_cell_angle_gamma 90.000000
_cell_volume 3075.969882
_symmetry_space_group_name_H-M "C 2/M"
_symmetry_group_IT_number 12
_symmetry_cell_setting 'monoclinic'
loop_
_space_group_symop_operation_xyz
x,y,z
-x,y,-z
-x,-y,-z
x,-y,z
1/2+x,1/2+y,z
1/2-x,1/2+y,-z
1/2-x,1/2-y,-z
1/2+x,1/2-y,z
loop_
_atom_site_type_symbol
_atom_site_label
_atom_site_fract_x
_atom_site_fract_y
_atom_site_fract_z
Si Si1 0.083489 0.826404 0.920052
Si Si2 0.307317 0.174525 0.100125
Si Si3 0.675541 0.324339 0.235428
Si Si4 0.592001 0.821295 0.676522
Si Si5 0.050179 0.821944 0.745880
Si Si6 0.565189 0.821649 0.494266
Si Si7 0.180723 0.821136 0.337215
O O1 0.112455 0.724574 0.894712
O O2 0.950598 0.790907 0.859297
O O3 0.095285 0.000000 0.911549
O O4 0.170926 0.791972 0.010571
O O5 0.339171 0.265605 0.162252
O O6 0.328933 0.000000 0.121583
O O7 0.699660 0.500000 0.254217
O O8 0.779554 0.259972 0.264539
O O9 0.678208 0.254494 0.286142
O O10 0.556264 0.742758 0.700816
O O11 0.498944 0.766619 0.586614
O O12 0.590508 0.000000 0.682213
O O13 0.930649 0.759553 0.699553
O O14 0.053005 0.000000 0.745452
O O15 0.500000 0.754536 0.500000
O O16 0.700007 0.766167 0.570754
O O17 0.559629 0.000000 0.493785
O O18 0.174037 0.000000 0.331664
#
# Coordination Sequence:
#
# PCOD8086867 Si02
#       7
#     8   8   8   8   8   8   8
#     4   9  17  31  53  80 106 134 169 209 259 311
#     4  10  19  31  51  79 107 133 170 218 257 297
#     4   9  15  29  53  79 102 132 172 210 250 304
#     4  10  20  33  54  80 106 132 170 220 259 300
#     4  11  22  36  52  71 106 147 175 205 258 319
#     4   9  15  27  50  81 105 125 165 219 261 294
#     4   9  16  28  51  77 100 133 174 208 248 306
#
# _framework density 18.205641
#
# number of rings (size 3 to 8) (size 9 to 14) (size 15 to 20)
#    0.000    2.429    2.857    0.857    0.000    1.143 
#    0.000    1.429    0.000    5.571    0.000    0.000 
#    0.000    0.000    0.000    0.000    0.000    0.000 
#
# Total GULP energy -347124.279484 kJ/mol
# GULP energy per Si atom -12397.295696 kJ/mol
# Density = 1.816420 g / cm^3
# Si number density = 18.205641 Si / 1000 Ang^3
#
#
#
# Elastic Constant Matrix: (Units=GPa)
#
#
# Indices 1 2 3 4 5 6 
#
# 1 127.1400 28.4835 72.1982 0.0000 -2.8204 0.0003
# 2 28.4835 35.3822 30.9692 -0.0002 -4.3526 0.0006
# 3 72.1982 30.9692 152.6296 0.0000 3.1499 0.0000
# 4 0.0000 -0.0002 0.0000 17.4784 0.0000 -5.7407
# 5 -2.8204 -4.3526 3.1499 0.0000 33.8398 -0.0002
# 6 0.0003 0.0006 0.0000 -5.7407 -0.0002 23.9672
#
#
#
# Elastic Compliance Matrix: (Units=1/GPa)
#
#
# Indices 1 2 3 4 5 6 
#
# 1 0.011588 -0.005392 -0.004401 0.000000 0.000682 0.000000
# 2 -0.005392 0.037769 -0.005214 0.000000 0.004894 -0.000001
# 3 -0.004401 -0.005214 0.009732 0.000000 -0.001943 0.000000
# 4 0.000000 0.000000 0.000000 0.062099 0.000000 0.014874
# 5 0.000682 0.004894 -0.001943 0.000000 0.030418 0.000000
# 6 0.000000 -0.000001 0.000000 0.014874 0.000000 0.045286
#
#
# Mechanical properties :
#
#
# Convention : Reuss Voigt Hill
#
# Bulk Modulus (GPa) = 34.39494 64.27263 49.33379
# Shear Modulus (GPa) = 21.13282 27.29044 24.21163
#
# Velocity S-wave (km/s) = 3.41072 3.87591 3.65073
# Velocity P-wave (km/s) = 5.86892 7.44382 6.70279
#
# Compressibility (1/GPa) = 0.02907404
#
# Stress axis : x y z
#
# Youngs Moduli (GPa) = 86.29701 26.47655 102.75574
#
# Poissons Ratio (x) = 0.14277 0.45227
# Poissons Ratio (y) = 0.46533 0.53576
# Poissons Ratio (z) = 0.37983 0.13805
#
# Static dielectric constant tensor:
#      x y z
#    x 3.320450 0.000000 0.179120 
#    y 0.000000 2.958730 0.000000 
#    z 0.179120 0.000000 3.685600 
# 
# 
# High freq. dielectric constant tensor:
#      x y z
#    x 1.690830 0.000000 0.009540 
#    y 0.000000 1.661230 0.000000 
#    z 0.009540 0.000000 1.723510 
# 
# From -- ./inp_files/275150.got.cif
#   From: 2010.06.25/outbox.cif.g09.slc.cpg/sg12_138_cif.got.tgz:275150.got - 2010.06.28 00:19:55.
