data_PCOD8086139
_publ_section_title
;
Structure prediction by ZEFSAII (Michael W. Deem and Ramdas Pophale) SiO2 
 PCOD8086139
Probable space group: C 2/M
;
_chemical_formula_sum "Si O2"
_cell_formula_units_Z 56
_cell_length_a 23.055687
_cell_length_b 9.218274
_cell_length_c 14.711545
_cell_angle_alpha 90.000000
_cell_angle_beta 90.575178
_cell_angle_gamma 90.000000
_cell_volume 3126.540662
_symmetry_space_group_name_H-M "C 2/M"
_symmetry_group_IT_number 12
_symmetry_cell_setting 'monoclinic'
loop_
_space_group_symop_operation_xyz
x,y,z
-x,y,-z
-x,-y,-z
x,-y,z
1/2+x,1/2+y,z
1/2-x,1/2+y,-z
1/2-x,1/2-y,-z
1/2+x,1/2-y,z
loop_
_atom_site_type_symbol
_atom_site_label
_atom_site_fract_x
_atom_site_fract_y
_atom_site_fract_z
Si Si1 0.547059 0.666174 0.771741
Si Si2 0.636869 0.331700 0.033867
Si Si3 0.786563 0.170106 0.791399
Si Si4 0.879740 0.335706 0.691050
Si Si5 0.543294 0.162825 0.128552
Si Si6 0.326559 0.667426 0.165723
Si Si7 0.474862 0.330410 0.595930
O O1 0.532284 0.500000 0.794008
O O2 0.517435 0.759503 0.850960
O O3 0.615668 0.693569 0.774374
O O4 0.523148 0.708861 0.672154
O O5 0.619998 0.500000 0.034447
O O6 0.684147 0.294502 0.111322
O O7 0.577427 0.243982 0.048747
O O8 0.663361 0.284777 0.938141
O O9 0.820790 0.248113 0.709945
O O10 0.721820 0.231405 0.790949
O O11 0.785492 0.000000 0.771109
O O12 0.864796 0.500000 0.661449
O O13 0.918138 0.332674 0.781301
O O14 0.915419 0.257154 0.611594
O O15 0.530375 0.000000 0.096081
O O16 0.306583 0.500000 0.169698
O O17 0.500000 0.280507 0.500000
O O18 0.459475 0.500000 0.596922
#
# Coordination Sequence:
#
# PCOD8086139 Si02
#       7
#     8   8   8   8   8   8   8
#     4   9  18  32  48  67  94 126 154 183 230 286
#     4   9  18  31  46  65  90 123 162 199 233 269
#     4  10  19  31  48  68  92 124 161 198 232 265
#     4   9  17  30  49  72  96 122 153 189 229 273
#     4   9  17  29  46  67  92 122 156 196 234 269
#     4  10  20  32  46  65  92 127 162 194 229 272
#     4   9  17  31  53  78  99 118 145 185 231 279
#
# _framework density 17.911169999999998
#
# number of rings (size 3 to 8) (size 9 to 14) (size 15 to 20)
#    0.000    2.714    0.000    1.714    0.000    6.000 
#    0.000    2.857    0.000    0.857    0.000    0.000 
#    0.000    0.000    0.000    0.000    0.000    0.000 
#
# Total GULP energy -347236.208863 kJ/mol
# GULP energy per Si atom -12401.293174 kJ/mol
# Density = 1.787040 g / cm^3
# Si number density = 17.911170 Si / 1000 Ang^3
#
#
#
# Elastic Constant Matrix: (Units=GPa)
#
#
# Indices 1 2 3 4 5 6 
#
# 1 114.1055 67.7841 61.0902 0.0000 -28.0827 0.0000
# 2 67.7841 102.8548 44.0350 0.0000 -23.2062 0.0000
# 3 61.0902 44.0350 59.2286 0.0000 -24.9790 0.0000
# 4 0.0000 0.0000 0.0000 17.7723 0.0000 -10.2817
# 5 -28.0827 -23.2062 -24.9790 0.0000 28.0614 0.0000
# 6 0.0000 0.0000 0.0000 -10.2817 0.0000 35.7924
#
#
#
# Elastic Compliance Matrix: (Units=1/GPa)
#
#
# Indices 1 2 3 4 5 6 
#
# 1 0.022768 -0.007189 -0.017671 0.000000 0.001111 0.000000
# 2 -0.007189 0.016786 -0.003594 0.000000 0.003488 0.000000
# 3 -0.017671 -0.003594 0.046543 0.000000 0.020775 0.000000
# 4 0.000000 0.000000 0.000000 0.067482 0.000000 0.019385
# 5 0.001111 0.003488 0.020775 0.000000 0.058125 0.000000
# 6 0.000000 0.000000 0.000000 0.019385 0.000000 0.033507
#
#
# Mechanical properties :
#
#
# Convention : Reuss Voigt Hill
#
# Bulk Modulus (GPa) = 34.25791 69.11195 51.68493
# Shear Modulus (GPa) = 16.03340 23.21052 19.62196
#
# Velocity S-wave (km/s) = 2.99517 3.60372 3.31345
# Velocity P-wave (km/s) = 5.57938 7.48234 6.59981
#
# Compressibility (1/GPa) = 0.02919034
#
# Stress axis : x y z
#
# Youngs Moduli (GPa) = 43.92033 59.57417 21.48543
#
# Poissons Ratio (x) = 0.42828 0.37966
# Poissons Ratio (y) = 0.31575 0.07721
# Poissons Ratio (z) = 0.77610 0.21409
#
# Static dielectric constant tensor:
#      x y z
#    x 3.246990 0.000000 -0.132020 
#    y 0.000000 3.387360 0.000000 
#    z -0.132020 0.000000 3.105180 
# 
# 
# High freq. dielectric constant tensor:
#      x y z
#    x 1.688540 0.000000 -0.016270 
#    y 0.000000 1.696910 0.000000 
#    z -0.016270 0.000000 1.662390 
# 
# From -- ./inp_files/230954.got.cif
#   From: 2010.06.25/outbox.cif.g09.slc.cpg/sg12_116_cif.got.tgz:230954.got - 2010.06.28 00:19:55.
