data_PCOD8086804
_publ_section_title
;
Structure prediction by ZEFSAII (Michael W. Deem and Ramdas Pophale) SiO2 
 PCOD8086804
Probable space group: C 2/M
;
_chemical_formula_sum "Si O2"
_cell_formula_units_Z 56
_cell_length_a 29.361524
_cell_length_b 9.282964
_cell_length_c 16.670241
_cell_angle_alpha 90.000000
_cell_angle_beta 133.570010
_cell_angle_gamma 90.000000
_cell_volume 3292.040314
_symmetry_space_group_name_H-M "C 2/M"
_symmetry_group_IT_number 12
_symmetry_cell_setting 'monoclinic'
loop_
_space_group_symop_operation_xyz
x,y,z
-x,y,-z
-x,-y,-z
x,-y,z
1/2+x,1/2+y,z
1/2-x,1/2+y,-z
1/2-x,1/2-y,-z
1/2+x,1/2-y,z
loop_
_atom_site_type_symbol
_atom_site_label
_atom_site_fract_x
_atom_site_fract_y
_atom_site_fract_z
Si Si1 0.789447 0.167298 0.661552
Si Si2 0.202708 0.665873 0.998788
Si Si3 0.341107 0.833662 0.582391
Si Si4 0.412459 0.163780 0.247531
Si Si5 0.055547 0.666447 0.416788
Si Si6 0.381170 0.331981 0.366903
Si Si7 0.736457 0.167515 0.215587
O O1 0.718875 0.196124 0.546163
O O2 0.838462 0.237689 0.658996
O O3 0.798229 0.240824 0.758384
O O4 0.805297 0.000000 0.688355
O O5 0.223583 0.500000 0.020607
O O6 0.131362 0.689279 0.883041
O O7 0.250000 0.750000 0.000000
O O8 0.208186 0.720859 0.096628
O O9 0.402412 0.784439 0.607495
O O10 0.344339 0.000000 0.612275
O O11 0.483451 0.194446 0.305812
O O12 0.391169 0.271125 0.290689
O O13 0.405581 0.000000 0.271085
O O14 0.069341 0.500000 0.453830
O O15 0.070778 0.757409 0.514124
O O16 0.396339 0.500000 0.383517
O O17 0.310488 0.300335 0.308594
O O18 0.722457 0.000000 0.213851
#
# Coordination Sequence:
#
# PCOD8086804 Si02
#       7
#     8   8   8   8   8   8   8
#     4  10  19  31  51  77 100 127 165 205 251 302
#     4  10  20  35  53  74  99 133 173 214 252 289
#     4   9  18  32  50  72 102 131 159 202 253 301
#     4  10  21  35  53  73 100 137 176 211 245 295
#     4  10  20  35  52  74 103 137 171 204 249 303
#     4  11  21  32  49  75 106 138 169 204 250 302
#     4  10  20  33  50  73 104 134 165 206 252 297
#
# _framework density 17.010726999999999
#
# number of rings (size 3 to 8) (size 9 to 14) (size 15 to 20)
#    0.000    2.000    2.857    1.286    0.000    4.571 
#    0.000    0.000    0.000    0.857    0.000    6.000 
#    0.000    0.000    0.000    0.000    0.000    0.000 
#
# Total GULP energy -347301.488384 kJ/mol
# GULP energy per Si atom -12403.624585 kJ/mol
# Density = 1.697201 g / cm^3
# Si number density = 17.010727 Si / 1000 Ang^3
#
#
#
# Elastic Constant Matrix: (Units=GPa)
#
#
# Indices 1 2 3 4 5 6 
#
# 1 58.8932 40.6116 35.5486 0.0000 -23.5098 0.0000
# 2 40.6116 71.5141 43.5636 0.0000 -15.5025 0.0000
# 3 35.5486 43.5636 103.9988 0.0000 -13.5801 0.0000
# 4 0.0000 0.0000 0.0000 19.2072 0.0000 -6.8476
# 5 -23.5098 -15.5025 -13.5801 0.0000 30.3596 0.0000
# 6 0.0000 0.0000 0.0000 -6.8476 0.0000 28.4810
#
#
#
# Elastic Compliance Matrix: (Units=1/GPa)
#
#
# Indices 1 2 3 4 5 6 
#
# 1 0.037220 -0.014354 -0.004145 0.000000 0.019638 0.000000
# 2 -0.014354 0.025577 -0.005898 0.000000 -0.000693 0.000000
# 3 -0.004145 -0.005898 0.013478 0.000000 -0.000193 0.000000
# 4 0.000000 0.000000 0.000000 0.056945 0.000000 0.013691
# 5 0.019638 -0.000693 -0.000193 0.000000 0.047706 0.000000
# 6 0.000000 0.000000 0.000000 0.013691 0.000000 0.038403
#
#
# Mechanical properties :
#
#
# Convention : Reuss Voigt Hill
#
# Bulk Modulus (GPa) = 36.39003 52.65038 44.52020
# Shear Modulus (GPa) = 18.03210 23.25507 20.64359
#
# Velocity S-wave (km/s) = 3.25936 3.70142 3.48740
# Velocity P-wave (km/s) = 5.96686 7.02039 6.51495
#
# Compressibility (1/GPa) = 0.02748006
#
# Stress axis : x y z
#
# Youngs Moduli (GPa) = 26.86728 39.09711 74.19617
#
# Poissons Ratio (x) = 0.56121 0.30756
# Poissons Ratio (y) = 0.38566 0.43761
# Poissons Ratio (z) = 0.11137 0.23059
#
# Static dielectric constant tensor:
#      x y z
#    x 3.154660 0.000000 -0.009250 
#    y 0.000000 3.206880 0.000000 
#    z -0.009250 0.000000 3.210940 
# 
# 
# High freq. dielectric constant tensor:
#      x y z
#    x 1.649400 0.000000 -0.008470 
#    y 0.000000 1.659670 0.000000 
#    z -0.008470 0.000000 1.642880 
# 
# From -- ./inp_files/237349.got.cif
#   From: 2010.06.25/outbox.cif.g09.slc.cpg/sg12_119_cif.got.tgz:237349.got - 2010.06.28 00:19:55.
