data_PCOD8086202
_publ_section_title
;
Structure prediction by ZEFSAII (Michael W. Deem and Ramdas Pophale) SiO2 
 PCOD8086202
Probable space group: C 2/M
;
_chemical_formula_sum "Si O2"
_cell_formula_units_Z 48
_cell_length_a 31.161132
_cell_length_b 9.413541
_cell_length_c 9.516228
_cell_angle_alpha 90.000000
_cell_angle_beta 102.579254
_cell_angle_gamma 90.000000
_cell_volume 2724.450870
_symmetry_space_group_name_H-M "C 2/M"
_symmetry_group_IT_number 12
_symmetry_cell_setting 'monoclinic'
loop_
_space_group_symop_operation_xyz
x,y,z
-x,y,-z
-x,-y,-z
x,-y,z
1/2+x,1/2+y,z
1/2-x,1/2+y,-z
1/2-x,1/2-y,-z
1/2+x,1/2-y,z
loop_
_atom_site_type_symbol
_atom_site_label
_atom_site_fract_x
_atom_site_fract_y
_atom_site_fract_z
Si Si1 0.136806 0.165239 0.602900
Si Si2 0.679537 0.836979 0.148781
Si Si3 0.950605 0.164995 0.927687
Si Si4 0.394269 0.833166 0.680317
Si Si5 0.624026 0.663405 0.908842
Si Si6 0.236863 0.835644 0.626558
O O1 0.110743 0.262477 0.475241
O O2 0.117322 0.203457 0.741542
O O3 0.188272 0.204275 0.641897
O O4 0.129646 0.000000 0.559209
O O5 0.649643 0.800205 0.262757
O O6 0.729688 0.798291 0.222934
O O7 0.673807 0.000000 0.102653
O O8 0.664993 0.747442 0.003777
O O9 0.935772 0.261307 0.786543
O O10 0.946659 0.000000 0.881752
O O11 0.921036 0.199680 0.042840
O O12 0.000000 0.207654 0.000000
O O13 0.403125 0.000000 0.669165
O O14 0.637081 0.500000 0.933000
O O15 0.250000 0.750000 0.500000
O O16 0.241303 0.000000 0.589350
#
# Coordination Sequence:
#
# PCOD8086202 Si02
#       6
#     8   8   8   8   8   8
#     4  10  20  33  50  73 103 135 166 206 249 290
#     4   9  18  32  48  70  99 132 169 206 244 289
#     4   9  18  35  58  78  97 127 166 205 247 300
#     4  10  19  32  52  76 102 132 166 204 248 296
#     4   9  19  34  51  74 101 129 165 206 251 298
#     4  10  19  31  48  71 100 133 172 209 241 284
#
# _framework density 17.618227999999998
#
# number of rings (size 3 to 8) (size 9 to 14) (size 15 to 20)
#    0.000    2.500    1.667    0.500    0.000    3.000 
#    0.000    0.833    0.000    5.000    0.000    0.000 
#    0.000    0.000    0.000    0.000    0.000    0.000 
#
# Total GULP energy -297652.358299 kJ/mol
# GULP energy per Si atom -12402.181596 kJ/mol
# Density = 1.757813 g / cm^3
# Si number density = 17.618228 Si / 1000 Ang^3
#
#
#
# Elastic Constant Matrix: (Units=GPa)
#
#
# Indices 1 2 3 4 5 6 
#
# 1 100.0757 47.7854 61.3084 0.0000 20.9206 0.0000
# 2 47.7854 78.7875 72.7144 0.0000 14.5326 0.0000
# 3 61.3084 72.7144 137.7984 0.0000 16.3825 0.0000
# 4 0.0000 0.0000 0.0000 33.2838 0.0000 7.2891
# 5 20.9206 14.5326 16.3825 0.0000 24.2633 0.0000
# 6 0.0000 0.0000 0.0000 7.2891 0.0000 22.5170
#
#
#
# Elastic Compliance Matrix: (Units=1/GPa)
#
#
# Indices 1 2 3 4 5 6 
#
# 1 0.016429 -0.005004 -0.003633 0.000000 -0.008716 0.000000
# 2 -0.005004 0.027255 -0.011664 0.000000 -0.004134 0.000000
# 3 -0.003633 -0.011664 0.015032 0.000000 -0.000031 0.000000
# 4 0.000000 0.000000 0.000000 0.032337 0.000000 -0.010468
# 5 -0.008716 -0.004134 -0.000031 0.000000 0.051227 0.000000
# 6 0.000000 0.000000 0.000000 -0.010468 0.000000 0.047800
#
#
# Mechanical properties :
#
#
# Convention : Reuss Voigt Hill
#
# Bulk Modulus (GPa) = 55.20554 75.58644 65.39599
# Shear Modulus (GPa) = 21.12195 25.00304 23.06250
#
# Velocity S-wave (km/s) = 3.46623 3.77126 3.62195
# Velocity P-wave (km/s) = 6.88636 7.87139 7.39529
#
# Compressibility (1/GPa) = 0.01811413
#
# Stress axis : x y z
#
# Youngs Moduli (GPa) = 60.86616 36.69030 66.52449
#
# Poissons Ratio (x) = 0.18360 0.24168
# Poissons Ratio (y) = 0.30458 0.77596
# Poissons Ratio (z) = 0.22112 0.42797
#
# Static dielectric constant tensor:
#      x y z
#    x 3.277860 0.000000 0.013700 
#    y 0.000000 3.259450 0.000000 
#    z 0.013700 0.000000 3.266640 
# 
# 
# High freq. dielectric constant tensor:
#      x y z
#    x 1.668380 0.000000 0.009320 
#    y 0.000000 1.680800 0.000000 
#    z 0.009320 0.000000 1.677670 
# 
# From -- ./inp_files/108712.got.cif
#   From: 2010.06.25/outbox.cif.g09.slc.cpg/sg12_55_cif.got.tgz:108712.got - 2010.06.28 00:19:55.
