data_PCOD8086099
_publ_section_title
;
Structure prediction by ZEFSAII (Michael W. Deem and Ramdas Pophale) SiO2 
 PCOD8086099
Probable space group: C 2/M
;
_chemical_formula_sum "Si O2"
_cell_formula_units_Z 56
_cell_length_a 14.292371
_cell_length_b 9.198336
_cell_length_c 28.075405
_cell_angle_alpha 90.000000
_cell_angle_beta 56.650152
_cell_angle_gamma 90.000000
_cell_volume 3083.169078
_symmetry_space_group_name_H-M "C 2/M"
_symmetry_group_IT_number 12
_symmetry_cell_setting 'monoclinic'
loop_
_space_group_symop_operation_xyz
x,y,z
-x,y,-z
-x,-y,-z
x,-y,z
1/2+x,1/2+y,z
1/2-x,1/2+y,-z
1/2-x,1/2-y,-z
1/2+x,1/2-y,z
loop_
_atom_site_type_symbol
_atom_site_label
_atom_site_fract_x
_atom_site_fract_y
_atom_site_fract_z
Si Si1 0.004757 0.668698 0.232066
Si Si2 0.451020 0.331422 0.154698
Si Si3 0.243094 0.830347 0.862422
Si Si4 0.826030 0.828054 0.551671
Si Si5 0.580414 0.827306 0.642221
Si Si6 0.009984 0.828266 0.573740
Si Si7 0.296097 0.329577 0.941205
O O1 0.979685 0.500000 0.232064
O O2 0.137335 0.700554 0.195379
O O3 0.940078 0.749148 0.207756
O O4 0.955130 0.726230 0.295613
O O5 0.435060 0.500000 0.170383
O O6 0.354277 0.276931 0.145990
O O7 0.571307 0.298991 0.097717
O O8 0.233064 0.737031 0.913224
O O9 0.228470 0.000000 0.879432
O O10 0.703217 0.764290 0.595396
O O11 0.876678 0.780559 0.486340
O O12 0.905330 0.774076 0.572001
O O13 0.822415 0.000000 0.554529
O O14 0.498332 0.755251 0.626792
O O15 0.572148 0.000000 0.640517
O O16 0.007557 0.000000 0.583492
O O17 0.269300 0.500000 0.951276
O O18 0.250000 0.250000 0.000000
#
# Coordination Sequence:
#
# PCOD8086099 Si02
#       7
#     8   8   8   8   8   8   8
#     4   9  19  33  49  70  97 126 158 196 241 285
#     4   9  19  35  54  72  95 129 165 196 231 275
#     4   9  18  35  54  71  96 131 163 195 235 279
#     4   8  16  31  48  65  92 125 156 191 238 291
#     4  10  19  31  47  70  97 123 152 196 247 286
#     4   9  17  31  49  67  88 123 163 194 230 287
#     4  10  20  34  52  77 104 129 159 196 233 275
#
# _framework density 18.163129999999999
#
# number of rings (size 3 to 8) (size 9 to 14) (size 15 to 20)
#    0.000    2.857    0.000    1.714    0.000    3.429 
#    0.000    5.000    0.000    0.000    0.000    0.000 
#    0.000    0.000    0.000    0.000    0.000    0.000 
#
# Total GULP energy -347176.919929 kJ/mol
# GULP energy per Si atom -12399.175712 kJ/mol
# Density = 1.812179 g / cm^3
# Si number density = 18.163130 Si / 1000 Ang^3
#
#
#
# Elastic Constant Matrix: (Units=GPa)
#
#
# Indices 1 2 3 4 5 6 
#
# 1 116.6050 39.4948 56.1875 0.0000 25.3999 0.0000
# 2 39.4948 50.5059 49.3903 0.0000 15.0079 0.0000
# 3 56.1875 49.3903 128.9939 0.0000 29.1101 0.0000
# 4 0.0000 0.0000 0.0000 28.6022 0.0000 9.0622
# 5 25.3999 15.0079 29.1101 0.0000 25.3728 0.0000
# 6 0.0000 0.0000 0.0000 9.0622 0.0000 27.9978
#
#
#
# Elastic Compliance Matrix: (Units=1/GPa)
#
#
# Indices 1 2 3 4 5 6 
#
# 1 0.013183 -0.006578 -0.001516 0.000000 -0.007567 0.000000
# 2 -0.006578 0.035748 -0.010170 0.000000 -0.002892 0.000000
# 3 -0.001516 -0.010170 0.014312 0.000000 -0.008887 0.000000
# 4 0.000000 0.000000 0.000000 0.038958 0.000000 -0.012610
# 5 -0.007567 -0.002892 -0.008887 0.000000 0.058894 0.000000
# 6 0.000000 0.000000 0.000000 -0.012610 0.000000 0.039799
#
#
# Mechanical properties :
#
#
# Convention : Reuss Voigt Hill
#
# Bulk Modulus (GPa) = 37.43078 65.13889 51.28484
# Shear Modulus (GPa) = 20.29845 26.46338 23.38092
#
# Velocity S-wave (km/s) = 3.34662 3.82119 3.59175
# Velocity P-wave (km/s) = 5.96540 7.44377 6.74521
#
# Compressibility (1/GPa) = 0.02671598
#
# Stress axis : x y z
#
# Youngs Moduli (GPa) = 75.85761 27.97389 69.87115
#
# Poissons Ratio (x) = 0.18400 0.10593
# Poissons Ratio (y) = 0.49896 0.71056
# Poissons Ratio (z) = 0.11500 0.28448
#
# Static dielectric constant tensor:
#      x y z
#    x 3.520920 0.000000 -0.071950 
#    y 0.000000 3.128110 0.000000 
#    z -0.071950 0.000000 3.451100 
# 
# 
# High freq. dielectric constant tensor:
#      x y z
#    x 1.707360 0.000000 0.005660 
#    y 0.000000 1.685120 0.000000 
#    z 0.005660 0.000000 1.704940 
# 
# From -- ./inp_files/308903.got.cif
#   From: 2010.06.25/outbox.cif.g09.slc.cpg/sg12_155_cif.got.tgz:308903.got - 2010.06.28 00:19:55.
