data_PCOD8086748
_publ_section_title
;
Structure prediction by ZEFSAII (Michael W. Deem and Ramdas Pophale) SiO2 
 PCOD8086748
Probable space group: C 2/M
;
_chemical_formula_sum "Si O2"
_cell_formula_units_Z 56
_cell_length_a 9.013460
_cell_length_b 33.273729
_cell_length_c 13.689202
_cell_angle_alpha 90.000000
_cell_angle_beta 48.827034
_cell_angle_gamma 90.000000
_cell_volume 3090.351211
_symmetry_space_group_name_H-M "C 2/M"
_symmetry_group_IT_number 12
_symmetry_cell_setting 'monoclinic'
loop_
_space_group_symop_operation_xyz
x,y,z
-x,y,-z
-x,-y,-z
x,-y,z
1/2+x,1/2+y,z
1/2-x,1/2+y,-z
1/2-x,1/2-y,-z
1/2+x,1/2-y,z
loop_
_atom_site_type_symbol
_atom_site_label
_atom_site_fract_x
_atom_site_fract_y
_atom_site_fract_z
Si Si1 0.513129 0.500000 0.653952
Si Si2 0.577508 0.842617 0.747770
Si Si3 0.326449 0.707701 0.499948
Si Si4 0.926881 0.157382 0.747865
Si Si5 0.024574 0.580504 0.650357
Si Si6 0.825687 0.293160 0.999954
Si Si7 0.178990 0.500000 0.653954
Si Si8 0.174733 0.080505 0.650353
O O1 0.289909 0.500000 0.710113
O O2 0.664790 0.500000 0.499998
O O3 0.550342 0.539380 0.702919
O O4 0.648412 0.816306 0.625915
O O5 0.753855 0.851676 0.746157
O O6 0.497256 0.884485 0.741300
O O7 0.400379 0.818588 0.875223
O O8 0.500000 0.715063 0.500000
O O9 0.250000 0.750000 0.500000
O O10 0.400457 0.683745 0.373868
O O11 0.020200 0.115519 0.741280
O O12 0.848981 0.181366 0.875426
O O13 0.043848 0.539378 0.702921
O O14 0.218617 0.588449 0.500005
O O15 0.832551 0.577401 0.667460
O O16 0.750000 0.250000 0.000000
O O17 0.000000 0.285498 0.000000
#
# Coordination Sequence:
#
# PCOD8086748 Si02
#       8
#     4   8   8   8   8   8   4   8
#     4   9  17  29  49  76 109 146 175 208 258 316
#     4  10  20  35  53  75 104 139 176 216 263 317
#     4  10  20  32  50  73 100 131 168 214 263 312
#     4  10  20  35  53  75 104 139 176 216 263 317
#     4  10  19  31  50  79 110 139 175 219 262 308
#     4  10  22  38  56  77 104 139 180 222 265 318
#     4   9  17  29  49  76 109 146 175 208 258 316
#     4  10  19  31  50  79 110 139 175 219 262 308
#
# _framework density 18.120916000000001
#
# number of rings (size 3 to 8) (size 9 to 14) (size 15 to 20)
#    0.000    2.143    1.429    2.143    0.000    5.143 
#    0.000    0.000    0.000    0.857    0.000    6.000 
#    0.000    0.000    0.000    0.000    0.000    0.000 
#
# Total GULP energy -347284.448307 kJ/mol
# GULP energy per Si atom -12403.016011 kJ/mol
# Density = 1.807967 g / cm^3
# Si number density = 18.120916 Si / 1000 Ang^3
#
#
#
# Elastic Constant Matrix: (Units=GPa)
#
#
# Indices 1 2 3 4 5 6 
#
# 1 75.0599 74.3608 36.4366 0.0000 -0.5885 0.0000
# 2 74.3608 193.9851 72.1669 0.0000 -0.1883 0.0000
# 3 36.4366 72.1669 113.8880 0.0000 1.5633 0.0000
# 4 0.0000 0.0000 0.0000 23.8748 0.0000 -0.6240
# 5 -0.5885 -0.1883 1.5633 0.0000 9.6654 0.0000
# 6 0.0000 0.0000 0.0000 -0.6240 0.0000 43.9599
#
#
#
# Elastic Compliance Matrix: (Units=1/GPa)
#
#
# Indices 1 2 3 4 5 6 
#
# 1 0.021919 -0.007568 -0.002238 0.000000 0.001549 0.000000
# 2 -0.007568 0.009365 -0.003517 0.000000 0.000290 0.000000
# 3 -0.002238 -0.003517 0.011754 0.000000 -0.002106 0.000000
# 4 0.000000 0.000000 0.000000 0.041901 0.000000 0.000595
# 5 0.001549 0.000290 -0.002106 0.000000 0.103902 0.000000
# 6 0.000000 0.000000 0.000000 0.000595 0.000000 0.022756
#
#
# Mechanical properties :
#
#
# Convention : Reuss Voigt Hill
#
# Bulk Modulus (GPa) = 61.00741 83.20686 72.10714
# Shear Modulus (GPa) = 20.51640 28.83126 24.67383
#
# Velocity S-wave (km/s) = 3.36846 3.99312 3.69402
# Velocity P-wave (km/s) = 6.99061 8.20227 7.62056
#
# Compressibility (1/GPa) = 0.01639145
#
# Stress axis : x y z
#
# Youngs Moduli (GPa) = 45.62260 106.78353 85.07711
#
# Poissons Ratio (x) = 0.80814 0.19042
# Poissons Ratio (y) = 0.34527 0.29920
# Poissons Ratio (z) = 0.10212 0.37554
#
# Static dielectric constant tensor:
#      x y z
#    x 3.304830 0.000000 -0.008540 
#    y 0.000000 3.428310 0.000000 
#    z -0.008540 0.000000 3.052890 
# 
# 
# High freq. dielectric constant tensor:
#      x y z
#    x 1.702910 0.000000 -0.000970 
#    y 0.000000 1.718240 0.000000 
#    z -0.000970 0.000000 1.670800 
# 
# From -- ./inp_files/200863.got.cif
#   From: 2010.06.25/outbox.cif.g09.slc.cpg/sg12_101_cif.got.tgz:200863.got - 2010.06.28 00:19:55.
