data_PCOD8086878
_publ_section_title
;
Structure prediction by ZEFSAII (Michael W. Deem and Ramdas Pophale) SiO2 
 PCOD8086878
Probable space group: C 2/M
;
_chemical_formula_sum "Si O2"
_cell_formula_units_Z 56
_cell_length_a 18.964061
_cell_length_b 8.749720
_cell_length_c 21.635025
_cell_angle_alpha 90.000000
_cell_angle_beta 55.683365
_cell_angle_gamma 90.000000
_cell_volume 2965.026543
_symmetry_space_group_name_H-M "C 2/M"
_symmetry_group_IT_number 12
_symmetry_cell_setting 'monoclinic'
loop_
_space_group_symop_operation_xyz
x,y,z
-x,y,-z
-x,-y,-z
x,-y,z
1/2+x,1/2+y,z
1/2-x,1/2+y,-z
1/2-x,1/2-y,-z
1/2+x,1/2-y,z
loop_
_atom_site_type_symbol
_atom_site_label
_atom_site_fract_x
_atom_site_fract_y
_atom_site_fract_z
Si Si1 0.719998 0.674860 0.703606
Si Si2 0.490369 0.819480 0.310328
Si Si3 0.662653 0.678320 0.258775
Si Si4 0.026559 0.822716 0.813337
Si Si5 0.255497 0.177054 0.899832
Si Si6 0.314307 0.679389 0.419825
Si Si7 0.619793 0.822728 0.047951
O O1 0.748901 0.500000 0.698816
O O2 0.786166 0.786561 0.703878
O O3 0.626115 0.700125 0.778951
O O4 0.718890 0.718843 0.632137
O O5 0.573411 0.767337 0.306906
O O6 0.500100 0.764015 0.235512
O O7 0.407517 0.750338 0.384540
O O8 0.483650 0.000000 0.314322
O O9 0.643930 0.500000 0.262914
O O10 0.719353 0.730885 0.173169
O O11 0.973162 0.752266 0.896484
O O12 0.004025 0.000000 0.815050
O O13 0.326599 0.205112 0.916455
O O14 0.246734 0.000000 0.886838
O O15 0.164665 0.239031 0.968429
O O16 0.321821 0.500000 0.426216
O O17 0.250000 0.750000 0.500000
O O18 0.610208 0.000000 0.036683
#
# Coordination Sequence:
#
# PCOD8086878 Si02
#       7
#     8   8   8   8   8   8   8
#     4   9  21  39  58  82 115 151 184 223 279 336
#     4  11  21  35  58  85 114 150 189 230 274 329
#     4  12  23  36  56  83 115 149 189 236 281 332
#     4  10  19  34  56  81 110 146 190 238 282 334
#     4  10  20  33  51  76 110 149 186 235 288 334
#     4  10  21  40  65  92 119 148 183 226 273 329
#     4  10  19  31  51  79 109 145 189 238 285 332
#
# _framework density 18.886846999999999
#
# number of rings (size 3 to 8) (size 9 to 14) (size 15 to 20)
#    0.000    1.714    1.429    5.143    0.000    4.571 
#    0.000    1.429    0.000    8.571    0.000    0.000 
#    0.000    0.000    0.000    0.000    0.000    0.000 
#
# Total GULP energy -347333.226679 kJ/mol
# GULP energy per Si atom -12404.758096 kJ/mol
# Density = 1.884386 g / cm^3
# Si number density = 18.886847 Si / 1000 Ang^3
#
#
#
# Elastic Constant Matrix: (Units=GPa)
#
#
# Indices 1 2 3 4 5 6 
#
# 1 85.0765 36.1255 37.9101 0.0000 -10.9276 0.0001
# 2 36.1255 107.5908 33.3798 -0.0001 -5.3893 0.0003
# 3 37.9101 33.3798 106.6002 0.0000 -25.7794 0.0000
# 4 0.0000 -0.0001 0.0000 36.6489 0.0000 -4.2112
# 5 -10.9276 -5.3893 -25.7794 0.0000 24.2833 0.0000
# 6 0.0001 0.0003 0.0000 -4.2112 0.0000 30.7907
#
#
#
# Elastic Compliance Matrix: (Units=1/GPa)
#
#
# Indices 1 2 3 4 5 6 
#
# 1 0.015335 -0.003886 -0.003735 0.000000 0.002073 0.000000
# 2 -0.003886 0.011322 -0.002662 0.000000 -0.002062 0.000000
# 3 -0.003735 -0.002662 0.014791 0.000000 0.013430 0.000000
# 4 0.000000 0.000000 0.000000 0.027722 0.000000 0.003791
# 5 0.002073 -0.002062 0.013430 0.000000 0.055913 0.000000
# 6 0.000000 0.000000 0.000000 0.003791 0.000000 0.032996
#
#
# Mechanical properties :
#
#
# Convention : Reuss Voigt Hill
#
# Bulk Modulus (GPa) = 47.89140 57.12205 52.50672
# Shear Modulus (GPa) = 26.93886 31.13473 29.03679
#
# Velocity S-wave (km/s) = 3.78077 4.06456 3.92523
# Velocity P-wave (km/s) = 6.66866 7.23447 6.95732
#
# Compressibility (1/GPa) = 0.02088058
#
# Stress axis : x y z
#
# Youngs Moduli (GPa) = 65.21000 88.32443 67.61041
#
# Poissons Ratio (x) = 0.34325 0.25255
# Poissons Ratio (y) = 0.25342 0.17997
# Poissons Ratio (z) = 0.24359 0.23510
#
# Static dielectric constant tensor:
#      x y z
#    x 3.346100 0.000000 -0.204420 
#    y 0.000000 3.549760 0.000000 
#    z -0.204420 0.000000 3.435660 
# 
# 
# High freq. dielectric constant tensor:
#      x y z
#    x 1.718620 0.000000 -0.018140 
#    y 0.000000 1.749200 0.000000 
#    z -0.018140 0.000000 1.727120 
# 
# From -- ./inp_files/313731.got.cif
#   From: 2010.06.25/outbox.cif.g09.slc.cpg/sg12_157_cif.got.tgz:313731.got - 2010.06.28 00:19:55.
