data_PCOD8086486
_publ_section_title
;
Structure prediction by ZEFSAII (Michael W. Deem and Ramdas Pophale) SiO2 
 PCOD8086486
Probable space group: C 2/M
;
_chemical_formula_sum "Si O2"
_cell_formula_units_Z 64
_cell_length_a 19.186293
_cell_length_b 9.065048
_cell_length_c 19.994155
_cell_angle_alpha 90.000000
_cell_angle_beta 88.958942
_cell_angle_gamma 90.000000
_cell_volume 3476.902730
_symmetry_space_group_name_H-M "C 2/M"
_symmetry_group_IT_number 12
_symmetry_cell_setting 'monoclinic'
loop_
_space_group_symop_operation_xyz
x,y,z
-x,y,-z
-x,-y,-z
x,-y,z
1/2+x,1/2+y,z
1/2-x,1/2+y,-z
1/2-x,1/2-y,-z
1/2+x,1/2-y,z
loop_
_atom_site_type_symbol
_atom_site_label
_atom_site_fract_x
_atom_site_fract_y
_atom_site_fract_z
Si Si1 0.575745 0.172151 0.611816
Si Si2 0.907927 0.828904 0.748697
Si Si3 0.935185 0.170311 0.596453
Si Si4 0.323826 0.674585 0.486096
Si Si5 0.320808 0.168641 0.988205
Si Si6 0.839368 0.327954 0.131449
Si Si7 0.953212 0.329238 0.235332
Si Si8 0.806389 0.327111 0.845101
O O1 0.504126 0.233833 0.581188
O O2 0.642193 0.258086 0.581314
O O3 0.577982 0.201881 0.690930
O O4 0.581430 0.000000 0.594432
O O5 0.904669 0.795997 0.670013
O O6 0.841328 0.752663 0.782211
O O7 0.977832 0.763810 0.779251
O O8 0.905254 0.000000 0.765141
O O9 0.874916 0.214745 0.546256
O O10 0.957260 0.000000 0.588407
O O11 0.313573 0.500000 0.478208
O O12 0.250000 0.750000 0.500000
O O13 0.367650 0.198385 0.053959
O O14 0.299429 0.000000 0.985360
O O15 0.250000 0.250000 0.000000
O O16 0.350058 0.210310 0.913591
O O17 0.821194 0.500000 0.143358
O O18 0.898649 0.275291 0.181024
O O19 0.771970 0.230736 0.147189
O O20 0.972685 0.500000 0.226329
O O21 0.805088 0.500000 0.829993
#
# Coordination Sequence:
#
# PCOD8086486 Si02
#       8
#     8   8   8   8   8   8   8   8
#     4  10  20  35  56  80 104 132 167 205 248 300
#     4  10  20  35  54  74  99 133 171 208 248 296
#     4   9  20  38  57  75  98 133 173 208 244 293
#     4  11  23  38  55  77 106 135 166 207 251 293
#     4   8  15  28  47  70  96 129 167 205 245 294
#     4   9  17  32  53  74  98 132 171 206 247 299
#     4   9  19  35  54  76 103 133 166 207 250 295
#     4  10  19  31  49  75 104 131 165 210 255 297
#
# _framework density 18.407188000000001
#
# number of rings (size 3 to 8) (size 9 to 14) (size 15 to 20)
#    0.000    2.500    0.000    1.875    0.000    5.500 
#    0.000    5.625    0.000    3.750    0.000    0.000 
#    0.000    0.000    0.000    0.000    0.000    0.000 
#
# Total GULP energy -396645.994303 kJ/mol
# GULP energy per Si atom -12395.187322 kJ/mol
# Density = 1.836529 g / cm^3
# Si number density = 18.407188 Si / 1000 Ang^3
#
#
#
# Elastic Constant Matrix: (Units=GPa)
#
#
# Indices 1 2 3 4 5 6 
#
# 1 48.8092 22.1153 12.3959 0.0000 6.1101 0.0000
# 2 22.1153 64.6847 16.0446 0.0000 -1.3784 0.0000
# 3 12.3959 16.0446 50.7770 0.0000 12.8068 0.0000
# 4 0.0000 0.0000 0.0000 25.6557 0.0000 -3.2201
# 5 6.1101 -1.3784 12.8068 0.0000 32.1067 0.0000
# 6 0.0000 0.0000 0.0000 -3.2201 0.0000 34.5601
#
#
#
# Elastic Compliance Matrix: (Units=1/GPa)
#
#
# Indices 1 2 3 4 5 6 
#
# 1 0.025336 -0.008111 -0.002578 0.000000 -0.004142 0.000000
# 2 -0.008111 0.019663 -0.005376 0.000000 0.004532 0.000000
# 3 -0.002578 -0.005376 0.024412 0.000000 -0.009478 0.000000
# 4 0.000000 0.000000 0.000000 0.039439 0.000000 0.003675
# 5 -0.004142 0.004532 -0.009478 0.000000 0.035909 0.000000
# 6 0.000000 0.000000 0.000000 0.003675 0.000000 0.029277
#
#
# Mechanical properties :
#
#
# Convention : Reuss Voigt Hill
#
# Bulk Modulus (GPa) = 26.82273 29.48693 28.15483
# Shear Modulus (GPa) = 22.87344 26.04552 24.45948
#
# Velocity S-wave (km/s) = 3.52893 3.76568 3.64923
# Velocity P-wave (km/s) = 5.58641 5.91280 5.75192
#
# Compressibility (1/GPa) = 0.03728182
#
# Stress axis : x y z
#
# Youngs Moduli (GPa) = 39.46928 50.85733 40.96272
#
# Poissons Ratio (x) = 0.41251 0.10559
# Poissons Ratio (y) = 0.32014 0.22022
# Poissons Ratio (z) = 0.10174 0.27341
#
# Static dielectric constant tensor:
#      x y z
#    x 3.132080 0.000000 0.063640 
#    y 0.000000 3.287610 0.000000 
#    z 0.063640 0.000000 3.866430 
# 
# 
# High freq. dielectric constant tensor:
#      x y z
#    x 1.688340 0.000000 0.000790 
#    y 0.000000 1.720880 0.000000 
#    z 0.000790 0.000000 1.730370 
# 
# From -- ./inp_files/314046.got.cif
#   From: 2010.06.25/outbox.cif.g09.slc.cpg/sg12_158_cif.got.tgz:314046.got - 2010.06.28 00:19:55.
