data_PCOD8086308
_publ_section_title
;
Structure prediction by ZEFSAII (Michael W. Deem and Ramdas Pophale) SiO2 
 PCOD8086308
Probable space group: C 2/M
;
_chemical_formula_sum "Si O2"
_cell_formula_units_Z 48
_cell_length_a 22.919016
_cell_length_b 9.117293
_cell_length_c 29.358441
_cell_angle_alpha 90.000000
_cell_angle_beta 152.255052
_cell_angle_gamma 90.000000
_cell_volume 2855.936804
_symmetry_space_group_name_H-M "C 2/M"
_symmetry_group_IT_number 12
_symmetry_cell_setting 'monoclinic'
loop_
_space_group_symop_operation_xyz
x,y,z
-x,y,-z
-x,-y,-z
x,-y,z
1/2+x,1/2+y,z
1/2-x,1/2+y,-z
1/2-x,1/2-y,-z
1/2+x,1/2-y,z
loop_
_atom_site_type_symbol
_atom_site_label
_atom_site_fract_x
_atom_site_fract_y
_atom_site_fract_z
Si Si1 0.196692 0.824722 0.306876
Si Si2 0.058437 0.671172 0.851887
Si Si3 0.707701 0.824929 0.724804
Si Si4 0.234517 0.330461 0.056607
Si Si5 0.357726 0.171442 0.907004
Si Si6 0.950835 0.340355 0.516755
O O1 0.215437 0.777571 0.267162
O O2 0.314166 0.762931 0.418721
O O3 0.073705 0.751550 0.242007
O O4 0.187973 0.000000 0.304703
O O5 0.037474 0.500000 0.829736
O O6 0.144816 0.732318 0.871017
O O7 0.122084 0.706203 0.944305
O O8 0.771263 0.758042 0.812646
O O9 0.563520 0.761402 0.622671
O O10 0.704115 0.000000 0.725986
O O11 0.273508 0.500000 0.079523
O O12 0.187120 0.288644 0.073621
O O13 0.346505 0.000000 0.888515
O O14 0.500000 0.225412 0.000000
O O15 0.929423 0.500000 0.524217
O O16 0.000000 0.362649 0.500000
#
# Coordination Sequence:
#
# PCOD8086308 Si02
#       6
#     8   8   8   8   8   8
#     4   9  16  28  48  71  95 123 152 183 227 279
#     4  10  19  31  49  70  91 116 152 198 232 260
#     4   9  17  29  47  71  96 122 154 190 223 262
#     4   9  19  34  48  64  91 126 155 180 224 280
#     4  10  20  33  48  67  95 127 152 179 224 279
#     4   7  12  25  44  66  92 121 151 183 223 270
#
# _framework density 16.807095
#
# number of rings (size 3 to 8) (size 9 to 14) (size 15 to 20)
#    0.000    3.000    0.000    3.500    0.000    3.667 
#    0.000    0.833    0.000    4.000    0.000    0.000 
#    0.000    0.000    0.000    0.000    0.000    0.000 
#
# Total GULP energy -297403.304418 kJ/mol
# GULP energy per Si atom -12391.804351 kJ/mol
# Density = 1.676884 g / cm^3
# Si number density = 16.807095 Si / 1000 Ang^3
#
#
#
# Elastic Constant Matrix: (Units=GPa)
#
#
# Indices 1 2 3 4 5 6 
#
# 1 88.5515 33.3609 65.6215 0.0000 8.0344 -0.0001
# 2 33.3609 40.4780 45.0484 0.0000 7.4685 -0.0004
# 3 65.6215 45.0484 152.7835 0.0004 14.9358 0.0000
# 4 0.0000 0.0000 0.0004 17.1652 0.0001 -0.5570
# 5 8.0344 7.4685 14.9358 0.0001 26.9434 0.0000
# 6 -0.0001 -0.0004 0.0000 -0.5570 0.0000 16.0311
#
#
#
# Elastic Compliance Matrix: (Units=1/GPa)
#
#
# Indices 1 2 3 4 5 6 
#
# 1 0.018816 -0.009691 -0.005221 0.000000 -0.000030 0.000000
# 2 -0.009691 0.042268 -0.007863 0.000000 -0.004467 0.000001
# 3 -0.005221 -0.007863 0.011356 0.000000 -0.002559 0.000000
# 4 0.000000 0.000000 0.000000 0.058323 0.000000 0.002026
# 5 -0.000030 -0.004467 -0.002559 0.000000 0.039781 0.000000
# 6 0.000000 0.000001 0.000000 0.002026 0.000000 0.062449
#
#
# Mechanical properties :
#
#
# Convention : Reuss Voigt Hill
#
# Bulk Modulus (GPa) = 37.19106 63.31939 50.25522
# Shear Modulus (GPa) = 17.39086 21.21342 19.30214
#
# Velocity S-wave (km/s) = 3.22022 3.55656 3.39256
# Velocity P-wave (km/s) = 6.00022 7.39063 6.73142
#
# Compressibility (1/GPa) = 0.02688819
#
# Stress axis : x y z
#
# Youngs Moduli (GPa) = 53.14679 23.65868 88.05633
#
# Poissons Ratio (x) = 0.22928 0.45975
# Poissons Ratio (y) = 0.51506 0.69243
# Poissons Ratio (z) = 0.27748 0.18604
#
# Static dielectric constant tensor:
#      x y z
#    x 2.940300 0.000000 0.088000 
#    y 0.000000 2.916870 0.000000 
#    z 0.088000 0.000000 3.472360 
# 
# 
# High freq. dielectric constant tensor:
#      x y z
#    x 1.621220 0.000000 0.010030 
#    y 0.000000 1.626260 0.000000 
#    z 0.010030 0.000000 1.661820 
# 
# From -- ./inp_files/380255.got.cif
#   From: 2010.06.25/outbox.cif.g09.slc.cpg/sg12_191_cif.got.tgz:380255.got - 2010.06.28 00:19:55.
