data_PCOD8086105
_publ_section_title
;
Structure prediction by ZEFSAII (Michael W. Deem and Ramdas Pophale) SiO2 
 PCOD8086105
Probable space group: C 2/M
;
_chemical_formula_sum "Si O2"
_cell_formula_units_Z 48
_cell_length_a 20.659529
_cell_length_b 8.950320
_cell_length_c 31.657223
_cell_angle_alpha 90.000000
_cell_angle_beta 151.811472
_cell_angle_gamma 90.000000
_cell_volume 2765.145912
_symmetry_space_group_name_H-M "C 2/M"
_symmetry_group_IT_number 12
_symmetry_cell_setting 'monoclinic'
loop_
_space_group_symop_operation_xyz
x,y,z
-x,y,-z
-x,-y,-z
x,-y,z
1/2+x,1/2+y,z
1/2-x,1/2+y,-z
1/2-x,1/2-y,-z
1/2+x,1/2-y,z
loop_
_atom_site_type_symbol
_atom_site_label
_atom_site_fract_x
_atom_site_fract_y
_atom_site_fract_z
Si Si1 0.481334 0.323668 0.942175
Si Si2 0.707816 0.669353 0.776920
Si Si3 0.173556 0.329763 0.392652
Si Si4 0.436907 0.673659 0.217806
Si Si5 0.426969 0.328848 0.584487
Si Si6 0.244293 0.177358 0.042146
O O1 0.481294 0.500000 0.943937
O O2 0.337012 0.271344 0.839897
O O3 0.500000 0.256607 0.000000
O O4 0.604961 0.265852 0.984252
O O5 0.760209 0.500000 0.807652
O O6 0.643985 0.712063 0.785732
O O7 0.591174 0.694164 0.673645
O O8 0.135982 0.500000 0.359953
O O9 0.340416 0.306876 0.490914
O O10 0.123543 0.292617 0.411031
O O11 0.096237 0.224126 0.314546
O O12 0.432143 0.500000 0.203683
O O13 0.373482 0.767276 0.143259
O O14 0.403981 0.500000 0.588272
O O15 0.249488 0.000000 0.041251
O O16 0.250000 0.250000 0.000000
#
# Coordination Sequence:
#
# PCOD8086105 Si02
#       6
#     8   8   8   8   8   8
#     4  10  20  34  51  73 100 129 165 207 249 295
#     4   9  17  28  46  71  99 130 165 203 243 290
#     4   9  15  24  41  63  93 130 164 199 244 293
#     4  10  19  31  47  70  99 130 167 206 247 294
#     4   8  15  26  38  62  97 129 161 200 244 292
#     4  11  23  38  54  73 100 132 168 208 251 297
#
# _framework density 17.35894
#
# number of rings (size 3 to 8) (size 9 to 14) (size 15 to 20)
#    0.000    2.500    1.667    2.500    0.000    5.000 
#    0.000    0.000    0.000    0.000    0.000    1.167 
#    0.000    9.333    0.000    0.000    0.000    0.000 
#
# Total GULP energy -297421.445127 kJ/mol
# GULP energy per Si atom -12392.560214 kJ/mol
# Density = 1.731943 g / cm^3
# Si number density = 17.358940 Si / 1000 Ang^3
#
#
#
# Elastic Constant Matrix: (Units=GPa)
#
#
# Indices 1 2 3 4 5 6 
#
# 1 66.4590 27.6760 49.0410 0.0002 -0.8791 -0.0004
# 2 27.6760 50.8093 36.6333 0.0003 -0.1621 -0.0006
# 3 49.0410 36.6333 157.3565 0.0005 9.1554 -0.0002
# 4 0.0002 0.0003 0.0005 34.1079 0.0002 1.0150
# 5 -0.8791 -0.1621 9.1554 0.0002 14.5875 0.0001
# 6 -0.0004 -0.0006 -0.0002 1.0150 0.0001 18.9608
#
#
#
# Elastic Compliance Matrix: (Units=1/GPa)
#
#
# Indices 1 2 3 4 5 6 
#
# 1 0.022553 -0.008423 -0.005337 0.000000 0.004615 0.000000
# 2 -0.008423 0.027008 -0.003789 0.000000 0.002171 0.000001
# 3 -0.005337 -0.003789 0.009260 0.000000 -0.006175 0.000000
# 4 0.000000 0.000000 0.000000 0.029365 0.000000 -0.001572
# 5 0.004615 0.002171 -0.006175 0.000000 0.072730 0.000000
# 6 0.000000 0.000001 0.000000 -0.001572 0.000000 0.052825
#
#
# Mechanical properties :
#
#
# Convention : Reuss Voigt Hill
#
# Bulk Modulus (GPa) = 42.15008 55.70282 48.92645
# Shear Modulus (GPa) = 19.47457 24.28287 21.87872
#
# Velocity S-wave (km/s) = 3.35307 3.74420 3.55402
# Velocity P-wave (km/s) = 6.27097 7.13096 6.71474
#
# Compressibility (1/GPa) = 0.02372475
#
# Stress axis : x y z
#
# Youngs Moduli (GPa) = 44.33939 37.02615 107.99675
#
# Poissons Ratio (x) = 0.31185 0.57633
# Poissons Ratio (y) = 0.37345 0.40919
# Poissons Ratio (z) = 0.23662 0.14029
#
# Static dielectric constant tensor:
#      x y z
#    x 2.744610 0.000000 0.129500 
#    y 0.000000 3.220350 0.000000 
#    z 0.129500 0.000000 3.751850 
# 
# 
# High freq. dielectric constant tensor:
#      x y z
#    x 1.592900 0.000000 0.013200 
#    y 0.000000 1.677220 0.000000 
#    z 0.013200 0.000000 1.697660 
# 
# From -- ./inp_files/236608.got.cif
#   From: 2010.06.25/outbox.cif.g09.slc.cpg/sg12_119_cif.got.tgz:236608.got - 2010.06.28 00:19:55.
