data_PCOD8086461
_publ_section_title
;
Structure prediction by ZEFSAII (Michael W. Deem and Ramdas Pophale) SiO2 
 PCOD8086461
Probable space group: C 2/M
;
_chemical_formula_sum "Si O2"
_cell_formula_units_Z 48
_cell_length_a 27.859068
_cell_length_b 8.970478
_cell_length_c 11.091621
_cell_angle_alpha 90.000000
_cell_angle_beta 102.795962
_cell_angle_gamma 90.000000
_cell_volume 2703.057477
_symmetry_space_group_name_H-M "C 2/M"
_symmetry_group_IT_number 12
_symmetry_cell_setting 'monoclinic'
loop_
_space_group_symop_operation_xyz
x,y,z
-x,y,-z
-x,-y,-z
x,-y,z
1/2+x,1/2+y,z
1/2-x,1/2+y,-z
1/2-x,1/2-y,-z
1/2+x,1/2-y,z
loop_
_atom_site_type_symbol
_atom_site_label
_atom_site_fract_x
_atom_site_fract_y
_atom_site_fract_z
Si Si1 0.822525 0.673166 0.610952
Si Si2 0.087015 0.173363 0.227318
Si Si3 0.489967 0.831943 0.135560
Si Si4 0.731900 0.829217 0.661930
Si Si5 0.203618 0.674066 0.913581
Si Si6 0.892969 0.826180 0.039867
O O1 0.832071 0.500000 0.640182
O O2 0.872608 0.761925 0.659870
O O3 0.780257 0.727391 0.679104
O O4 0.806459 0.707651 0.465344
O O5 0.035400 0.253380 0.228081
O O6 0.079819 0.000000 0.248342
O O7 0.104031 0.204247 0.100611
O O8 0.440279 0.740750 0.134821
O O9 0.484095 0.000000 0.181196
O O10 0.500000 0.831008 0.000000
O O11 0.704636 0.795910 0.771405
O O12 0.749902 0.000000 0.663778
O O13 0.204521 0.500000 0.944473
O O14 0.154700 0.744689 0.938394
O O15 0.250000 0.750000 0.000000
O O16 0.889769 0.000000 0.067609
#
# Coordination Sequence:
#
# PCOD8086461 Si02
#       6
#     8   8   8   8   8   8
#     4  10  19  32  52  74  96 126 165 205 243 288
#     4  10  19  31  49  74 103 131 160 199 246 290
#     4   9  17  30  49  73  99 128 164 202 240 286
#     4   9  20  36  50  69  99 131 162 201 248 290
#     4  11  22  35  51  72 100 132 165 200 241 290
#     4  10  20  33  49  72 103 134 162 197 244 292
#
# _framework density 17.757669
#
# number of rings (size 3 to 8) (size 9 to 14) (size 15 to 20)
#    0.000    2.167    0.000    3.500    0.000   10.000 
#    0.000    0.000    0.000    1.000    0.000    7.000 
#    0.000    0.000    0.000    0.000    0.000    0.000 
#
# Total GULP energy -297683.260712 kJ/mol
# GULP energy per Si atom -12403.469196 kJ/mol
# Density = 1.771725 g / cm^3
# Si number density = 17.757669 Si / 1000 Ang^3
#
#
#
# Elastic Constant Matrix: (Units=GPa)
#
#
# Indices 1 2 3 4 5 6 
#
# 1 149.9257 76.5489 48.6261 0.0000 18.0104 0.0000
# 2 76.5489 123.6866 47.2855 0.0000 7.4045 0.0000
# 3 48.6261 47.2855 54.4188 0.0000 9.7436 0.0000
# 4 0.0000 0.0000 0.0000 24.7774 0.0000 4.6613
# 5 18.0104 7.4045 9.7436 0.0000 26.5855 0.0000
# 6 0.0000 0.0000 0.0000 4.6613 0.0000 41.8131
#
#
#
# Elastic Compliance Matrix: (Units=1/GPa)
#
#
# Indices 1 2 3 4 5 6 
#
# 1 0.011311 -0.004754 -0.005182 0.000000 -0.004440 0.000000
# 2 -0.004754 0.014111 -0.008441 0.000000 0.002384 0.000000
# 3 -0.005182 -0.008441 0.031348 0.000000 -0.005628 0.000000
# 4 0.000000 0.000000 0.000000 0.041224 0.000000 -0.004596
# 5 -0.004440 0.002384 -0.005628 0.000000 0.042021 0.000000
# 6 0.000000 0.000000 0.000000 -0.004596 0.000000 0.024428
#
#
# Mechanical properties :
#
#
# Convention : Reuss Voigt Hill
#
# Bulk Modulus (GPa) = 49.95395 74.77247 62.36321
# Shear Modulus (GPa) = 24.05382 29.00657 26.53020
#
# Velocity S-wave (km/s) = 3.68443 4.04600 3.86944
# Velocity P-wave (km/s) = 6.80382 8.00159 7.42689
#
# Compressibility (1/GPa) = 0.02001844
#
# Stress axis : x y z
#
# Youngs Moduli (GPa) = 88.41010 70.86644 31.90011
#
# Poissons Ratio (x) = 0.33687 0.16529
# Poissons Ratio (y) = 0.42026 0.26926
# Poissons Ratio (z) = 0.45810 0.59815
#
# Static dielectric constant tensor:
#      x y z
#    x 3.287440 0.000000 0.148440 
#    y 0.000000 3.471630 0.000000 
#    z 0.148440 0.000000 3.145930 
# 
# 
# High freq. dielectric constant tensor:
#      x y z
#    x 1.691560 0.000000 0.017170 
#    y 0.000000 1.705640 0.000000 
#    z 0.017170 0.000000 1.657100 
# 
# From -- ./inp_files/172019.got.cif
#   From: 2010.06.25/outbox.cif.g09.slc.cpg/sg12_87_cif.got.tgz:172019.got - 2010.06.28 00:19:55.
