data_PCOD8086973
_publ_section_title
;
Structure prediction by ZEFSAII (Michael W. Deem and Ramdas Pophale) SiO2 
 PCOD8086973
Probable space group: C 2/M
;
_chemical_formula_sum "Si O2"
_cell_formula_units_Z 56
_cell_length_a 20.084474
_cell_length_b 9.008304
_cell_length_c 18.909463
_cell_angle_alpha 90.000000
_cell_angle_beta 120.420468
_cell_angle_gamma 90.000000
_cell_volume 2950.241842
_symmetry_space_group_name_H-M "C 2/M"
_symmetry_group_IT_number 12
_symmetry_cell_setting 'monoclinic'
loop_
_space_group_symop_operation_xyz
x,y,z
-x,y,-z
-x,-y,-z
x,-y,z
1/2+x,1/2+y,z
1/2-x,1/2+y,-z
1/2-x,1/2-y,-z
1/2+x,1/2-y,z
loop_
_atom_site_type_symbol
_atom_site_label
_atom_site_fract_x
_atom_site_fract_y
_atom_site_fract_z
Si Si1 0.556809 0.171678 0.847504
Si Si2 0.884296 0.323654 0.742909
Si Si3 0.529545 0.674716 0.438286
Si Si4 0.309568 0.172394 0.980341
Si Si5 0.276565 0.824893 0.807351
Si Si6 0.168511 0.676786 0.440279
Si Si7 0.105718 0.174047 0.736457
O O1 0.470152 0.235814 0.806764
O O2 0.603962 0.253077 0.811960
O O3 0.553201 0.000000 0.824592
O O4 0.602629 0.196874 0.945396
O O5 0.881335 0.500000 0.744190
O O6 0.827259 0.254360 0.771378
O O7 0.858776 0.268872 0.651807
O O8 0.500000 0.714122 0.500000
O O9 0.546091 0.500000 0.439230
O O10 0.607568 0.764497 0.465138
O O11 0.463710 0.732318 0.349423
O O12 0.303638 0.239222 0.898014
O O13 0.287096 0.000000 0.967626
O O14 0.250000 0.250000 0.000000
O O15 0.187338 0.784176 0.744359
O O16 0.289471 0.000000 0.814674
O O17 0.175149 0.500000 0.448874
O O18 0.250000 0.750000 0.500000
O O19 0.099048 0.000000 0.743728
#
# Coordination Sequence:
#
# PCOD8086973 Si02
#       7
#     8   8   8   8   8   8   8
#     4  10  19  33  54  80 108 141 176 221 272 318
#     4   9  19  35  55  78 109 142 178 222 272 323
#     4  10  22  38  59  86 113 144 187 234 277 329
#     4  10  19  31  52  79 108 138 177 224 269 317
#     4   9  18  32  52  80 107 140 182 221 266 321
#     4  11  23  39  60  83 113 150 184 229 281 334
#     4  10  19  33  56  80 106 142 181 221 264 322
#
# _framework density 18.981494000000001
#
# number of rings (size 3 to 8) (size 9 to 14) (size 15 to 20)
#    0.000    2.143    2.857    0.429    2.000    0.857 
#    0.000    2.857    0.000    3.429    0.000    2.000 
#    0.000    0.000    0.000    0.000    0.000    0.000 
#
# Total GULP energy -347197.738350 kJ/mol
# GULP energy per Si atom -12399.919227 kJ/mol
# Density = 1.893829 g / cm^3
# Si number density = 18.981494 Si / 1000 Ang^3
#
#
#
# Elastic Constant Matrix: (Units=GPa)
#
#
# Indices 1 2 3 4 5 6 
#
# 1 156.7937 36.7095 62.4398 0.0000 2.1418 0.0000
# 2 36.7095 33.7086 28.1554 0.0000 3.4635 0.0000
# 3 62.4398 28.1554 109.7370 0.0000 8.9603 0.0000
# 4 0.0000 0.0000 0.0000 22.0092 0.0000 -0.1124
# 5 2.1418 3.4635 8.9603 0.0000 39.2517 0.0000
# 6 0.0000 0.0000 0.0000 -0.1124 0.0000 23.8719
#
#
#
# Elastic Compliance Matrix: (Units=1/GPa)
#
#
# Indices 1 2 3 4 5 6 
#
# 1 0.009550 -0.007502 -0.003587 0.000000 0.000960 0.000000
# 2 -0.007502 0.043702 -0.006789 0.000000 -0.001897 0.000000
# 3 -0.003587 -0.006789 0.013074 0.000000 -0.002190 0.000000
# 4 0.000000 0.000000 0.000000 0.045437 0.000000 0.000214
# 5 0.000960 -0.001897 -0.002190 0.000000 0.026092 0.000000
# 6 0.000000 0.000000 0.000000 0.000214 0.000000 0.041891
#
#
# Mechanical properties :
#
#
# Convention : Reuss Voigt Hill
#
# Bulk Modulus (GPa) = 32.71299 61.64987 47.18143
# Shear Modulus (GPa) = 22.15411 28.55553 25.35482
#
# Velocity S-wave (km/s) = 3.42005 3.88285 3.65878
# Velocity P-wave (km/s) = 5.73300 7.25613 6.53906
#
# Compressibility (1/GPa) = 0.03056890
#
# Stress axis : x y z
#
# Youngs Moduli (GPa) = 104.71534 22.88246 76.48481
#
# Poissons Ratio (x) = 0.17167 0.27437
# Poissons Ratio (y) = 0.78560 0.51926
# Poissons Ratio (z) = 0.37564 0.15535
#
# Static dielectric constant tensor:
#      x y z
#    x 3.703910 0.000000 0.051180 
#    y 0.000000 3.136210 0.000000 
#    z 0.051180 0.000000 3.767920 
# 
# 
# High freq. dielectric constant tensor:
#      x y z
#    x 1.746490 0.000000 0.008400 
#    y 0.000000 1.699430 0.000000 
#    z 0.008400 0.000000 1.750130 
# 
# From -- ./inp_files/280882.got.cif
#   From: 2010.06.25/outbox.cif.g09.slc.cpg/sg12_141_cif.got.tgz:280882.got - 2010.06.28 00:19:55.
