data_PCOD8086409
_publ_section_title
;
Structure prediction by ZEFSAII (Michael W. Deem and Ramdas Pophale) SiO2 
 PCOD8086409
Probable space group: C 2/M
;
_chemical_formula_sum "Si O2"
_cell_formula_units_Z 56
_cell_length_a 24.857857
_cell_length_b 9.372788
_cell_length_c 32.458590
_cell_angle_alpha 90.000000
_cell_angle_beta 153.617328
_cell_angle_gamma 90.000000
_cell_volume 3360.479567
_symmetry_space_group_name_H-M "C 2/M"
_symmetry_group_IT_number 12
_symmetry_cell_setting 'monoclinic'
loop_
_space_group_symop_operation_xyz
x,y,z
-x,y,-z
-x,-y,-z
x,-y,z
1/2+x,1/2+y,z
1/2-x,1/2+y,-z
1/2-x,1/2-y,-z
1/2+x,1/2-y,z
loop_
_atom_site_type_symbol
_atom_site_label
_atom_site_fract_x
_atom_site_fract_y
_atom_site_fract_z
Si Si1 0.590205 0.831429 0.598677
Si Si2 0.309413 0.165580 0.714533
Si Si3 0.301571 0.163944 0.614650
Si Si4 0.421380 0.164060 0.099720
Si Si5 0.497391 0.334760 0.295312
Si Si6 0.678122 0.335162 0.894461
Si Si7 0.974522 0.835795 0.592871
O O1 0.500000 0.789112 0.500000
O O2 0.720388 0.762416 0.679942
O O3 0.539454 0.769097 0.606021
O O4 0.605045 0.000000 0.613141
O O5 0.306224 0.216444 0.664997
O O6 0.444039 0.191980 0.825311
O O7 0.270261 0.000000 0.691284
O O8 0.391760 0.251311 0.648251
O O9 0.168470 0.189459 0.505685
O O10 0.341214 0.000000 0.639478
O O11 0.403050 0.251196 0.128758
O O12 0.407779 0.000000 0.103230
O O13 0.320483 0.206941 0.996186
O O14 0.532245 0.500000 0.315713
O O15 0.371535 0.299791 0.185193
O O16 0.477146 0.292910 0.328842
O O17 0.659820 0.500000 0.892466
O O18 0.005347 0.000000 0.602788
#
# Coordination Sequence:
#
# PCOD8086409 Si02
#       7
#     8   8   8   8   8   8   8
#     4  11  23  36  52  74  97 125 164 210 251 285
#     4  10  19  32  52  74  99 131 164 199 242 292
#     4  10  19  31  49  73 101 134 165 196 237 290
#     4   9  17  30  48  72  99 129 163 196 239 291
#     4  10  20  32  49  74 103 134 164 199 242 287
#     4   9  17  29  47  72 102 129 158 200 242 282
#     4  10  21  36  51  69  98 136 171 198 237 293
#
# _framework density 16.664287999999999
#
# number of rings (size 3 to 8) (size 9 to 14) (size 15 to 20)
#    0.000    2.143    2.857    0.857    0.000    2.857 
#    0.000    0.000    0.000    0.857    0.000    6.000 
#    0.000    0.000    0.000    0.000    0.000    0.000 
#
# Total GULP energy -347195.074142 kJ/mol
# GULP energy per Si atom -12399.824077 kJ/mol
# Density = 1.662636 g / cm^3
# Si number density = 16.664288 Si / 1000 Ang^3
#
#
#
# Elastic Constant Matrix: (Units=GPa)
#
#
# Indices 1 2 3 4 5 6 
#
# 1 103.5100 51.6058 57.4690 0.0003 -6.8393 -0.0001
# 2 51.6058 59.2755 41.0047 -0.0001 1.9689 0.0019
# 3 57.4690 41.0047 111.4548 -0.0007 -7.9452 0.0007
# 4 0.0003 -0.0001 -0.0007 22.3704 0.0000 4.7176
# 5 -6.8393 1.9689 -7.9452 0.0000 22.6349 0.0001
# 6 -0.0001 0.0019 0.0007 4.7176 0.0001 29.3480
#
#
#
# Elastic Compliance Matrix: (Units=1/GPa)
#
#
# Indices 1 2 3 4 5 6 
#
# 1 0.019554 -0.014095 -0.004501 -0.000001 0.005554 0.000001
# 2 -0.014095 0.033359 -0.005657 0.000001 -0.009146 -0.000002
# 3 -0.004501 -0.005657 0.013654 0.000000 0.003925 0.000000
# 4 -0.000001 0.000001 0.000000 0.046270 0.000000 -0.007438
# 5 0.005554 -0.009146 0.003925 0.000000 0.048031 0.000000
# 6 0.000001 -0.000002 0.000000 -0.007438 0.000000 0.035269
#
#
# Mechanical properties :
#
#
# Convention : Reuss Voigt Hill
#
# Bulk Modulus (GPa) = 55.36832 63.82212 59.59522
# Shear Modulus (GPa) = 19.94703 23.14805 21.54754
#
# Velocity S-wave (km/s) = 3.46351 3.73108 3.59978
# Velocity P-wave (km/s) = 7.02086 7.54607 7.28820
#
# Compressibility (1/GPa) = 0.01806087
#
# Stress axis : x y z
#
# Youngs Moduli (GPa) = 51.14065 29.97734 73.23749
#
# Poissons Ratio (x) = 0.42252 0.32965
# Poissons Ratio (y) = 0.72081 0.41432
# Poissons Ratio (z) = 0.23019 0.16959
#
# Static dielectric constant tensor:
#      x y z
#    x 2.927150 0.000000 -0.123300 
#    y 0.000000 3.134260 0.000000 
#    z -0.123300 0.000000 3.467350 
# 
# 
# High freq. dielectric constant tensor:
#      x y z
#    x 1.616170 0.000000 -0.003130 
#    y 0.000000 1.642670 0.000000 
#    z -0.003130 0.000000 1.651710 
# 
# From -- ./inp_files/237469.got.cif
#   From: 2010.06.25/outbox.cif.g09.slc.cpg/sg12_119_cif.got.tgz:237469.got - 2010.06.28 00:19:55.
