data_PCOD8086610
_publ_section_title
;
Structure prediction by ZEFSAII (Michael W. Deem and Ramdas Pophale) SiO2 
 PCOD8086610
Probable space group: C 2/M
;
_chemical_formula_sum "Si O2"
_cell_formula_units_Z 56
_cell_length_a 28.456008
_cell_length_b 13.480587
_cell_length_c 9.742374
_cell_angle_alpha 90.000000
_cell_angle_beta 119.693724
_cell_angle_gamma 90.000000
_cell_volume 3246.461732
_symmetry_space_group_name_H-M "C 2/M"
_symmetry_group_IT_number 12
_symmetry_cell_setting 'monoclinic'
loop_
_space_group_symop_operation_xyz
x,y,z
-x,y,-z
-x,-y,-z
x,-y,z
1/2+x,1/2+y,z
1/2-x,1/2+y,-z
1/2-x,1/2-y,-z
1/2+x,1/2-y,z
loop_
_atom_site_type_symbol
_atom_site_label
_atom_site_fract_x
_atom_site_fract_y
_atom_site_fract_z
Si Si1 0.440215 0.613117 0.648149
Si Si2 0.624473 0.294466 0.214644
Si Si3 0.061688 0.116363 0.883793
Si Si4 0.733410 0.725377 0.821565
Si Si5 0.305202 0.885404 0.720302
Si Si6 0.739726 0.613565 0.351586
Si Si7 0.874586 0.112463 0.290589
O O1 0.433123 0.500000 0.691047
O O2 0.399717 0.685051 0.670881
O O3 0.501670 0.648758 0.753506
O O4 0.424961 0.621238 0.466749
O O5 0.640432 0.178813 0.222984
O O6 0.676357 0.363372 0.264527
O O7 0.577647 0.321245 0.039673
O O8 0.103850 0.145192 0.826239
O O9 0.063823 0.000000 0.919968
O O10 0.775405 0.646508 0.817499
O O11 0.731823 0.824141 0.727155
O O12 0.673527 0.682374 0.731902
O O13 0.750000 0.750000 0.000000
O O14 0.264967 0.861778 0.536252
O O15 0.321961 0.000000 0.752679
O O16 0.748667 0.500000 0.324863
O O17 0.852607 0.000000 0.254722
#
# Coordination Sequence:
#
# PCOD8086610 Si02
#       7
#     8   8   8   8   8   8   8
#     4  10  19  31  50  74  98 127 162 199 242 293
#     4  11  19  31  51  73  97 125 160 200 246 290
#     4  10  20  32  47  72 102 128 158 199 246 294
#     4  11  21  32  50  77 105 131 164 202 246 296
#     4  10  21  36  52  71  99 133 169 205 241 290
#     4  10  20  34  51  73 101 133 167 202 242 295
#     4  10  19  32  49  69  99 135 164 193 236 292
#
# _framework density 17.249548000000001
#
# number of rings (size 3 to 8) (size 9 to 14) (size 15 to 20)
#    0.000    1.714    0.000    7.714    0.000    7.429 
#    0.000    0.000    0.000    1.714    0.000    0.000 
#    0.000    6.857    0.000    0.000    0.000    0.000 
#
# Total GULP energy -347292.613718 kJ/mol
# GULP energy per Si atom -12403.307633 kJ/mol
# Density = 1.721029 g / cm^3
# Si number density = 17.249548 Si / 1000 Ang^3
#
#
#
# Elastic Constant Matrix: (Units=GPa)
#
#
# Indices 1 2 3 4 5 6 
#
# 1 67.4162 34.5651 12.1934 0.0000 -0.2262 0.0000
# 2 34.5651 90.0767 24.1281 0.0000 -1.8639 0.0000
# 3 12.1934 24.1281 81.3986 0.0000 -4.0953 0.0000
# 4 0.0000 0.0000 0.0000 23.5669 0.0000 -1.5241
# 5 -0.2262 -1.8639 -4.0953 0.0000 33.5820 0.0000
# 6 0.0000 0.0000 0.0000 -1.5241 0.0000 27.4042
#
#
#
# Elastic Compliance Matrix: (Units=1/GPa)
#
#
# Indices 1 2 3 4 5 6 
#
# 1 0.018510 -0.006911 -0.000742 0.000000 -0.000349 0.000000
# 2 -0.006911 0.014642 -0.003286 0.000000 0.000365 0.000000
# 3 -0.000742 -0.003286 0.013444 0.000000 0.001452 0.000000
# 4 0.000000 0.000000 0.000000 0.042586 0.000000 0.002368
# 5 -0.000349 0.000365 0.001452 0.000000 0.029973 0.000000
# 6 0.000000 0.000000 0.000000 0.002368 0.000000 0.036623
#
#
# Mechanical properties :
#
#
# Convention : Reuss Voigt Hill
#
# Bulk Modulus (GPa) = 40.45938 42.29610 41.37774
# Shear Modulus (GPa) = 26.89718 28.11094 27.50406
#
# Velocity S-wave (km/s) = 3.95308 4.04129 3.99743
# Velocity P-wave (km/s) = 6.65898 6.80804 6.73392
#
# Compressibility (1/GPa) = 0.02471615
#
# Stress axis : x y z
#
# Youngs Moduli (GPa) = 54.02567 68.29872 74.38534
#
# Poissons Ratio (x) = 0.47203 0.05517
# Poissons Ratio (y) = 0.37339 0.24446
# Poissons Ratio (z) = 0.04007 0.22445
#
# Static dielectric constant tensor:
#      x y z
#    x 3.188050 0.000000 -0.053400 
#    y 0.000000 3.143430 0.000000 
#    z -0.053400 0.000000 3.290970 
# 
# 
# High freq. dielectric constant tensor:
#      x y z
#    x 1.664480 0.000000 -0.007390 
#    y 0.000000 1.644950 0.000000 
#    z -0.007390 0.000000 1.678560 
# 
# From -- ./inp_files/103998.got.cif
#   From: 2010.06.25/outbox.cif.g09.slc.cpg/sg12_52_cif.got.tgz:103998.got - 2010.06.28 00:19:55.
