data_PCOD8086676
_publ_section_title
;
Structure prediction by ZEFSAII (Michael W. Deem and Ramdas Pophale) SiO2 
 PCOD8086676
Probable space group: C 2/M
;
_chemical_formula_sum "Si O2"
_cell_formula_units_Z 56
_cell_length_a 25.505366
_cell_length_b 8.933354
_cell_length_c 16.469958
_cell_angle_alpha 90.000000
_cell_angle_beta 124.275844
_cell_angle_gamma 90.000000
_cell_volume 3100.952877
_symmetry_space_group_name_H-M "C 2/M"
_symmetry_group_IT_number 12
_symmetry_cell_setting 'monoclinic'
loop_
_space_group_symop_operation_xyz
x,y,z
-x,y,-z
-x,-y,-z
x,-y,z
1/2+x,1/2+y,z
1/2-x,1/2+y,-z
1/2-x,1/2-y,-z
1/2+x,1/2-y,z
loop_
_atom_site_type_symbol
_atom_site_label
_atom_site_fract_x
_atom_site_fract_y
_atom_site_fract_z
Si Si1 0.901132 0.322644 0.908385
Si Si2 0.629374 0.324709 0.694457
Si Si3 0.716267 0.177183 0.545960
Si Si4 0.405902 0.326441 0.512666
Si Si5 0.472609 0.672897 0.275782
Si Si6 0.504717 0.822825 0.874376
Si Si7 0.762055 0.676911 0.748611
O O1 0.902751 0.500000 0.910685
O O2 0.828556 0.265199 0.843845
O O3 0.939941 0.268047 0.862381
O O4 0.935478 0.264071 0.020070
O O5 0.617755 0.500000 0.688510
O O6 0.597060 0.267398 0.582800
O O7 0.592603 0.259900 0.741560
O O8 0.704546 0.285068 0.761143
O O9 0.750000 0.250000 0.500000
O O10 0.643251 0.228367 0.478446
O O11 0.751020 0.235394 0.656446
O O12 0.721054 0.000000 0.545609
O O13 0.384626 0.500000 0.497970
O O14 0.475156 0.302449 0.609115
O O15 0.466320 0.500000 0.246058
O O16 0.491675 0.759636 0.212205
O O17 0.505819 0.000000 0.869133
O O18 0.763545 0.500000 0.731248
#
# Coordination Sequence:
#
# PCOD8086676 Si02
#       7
#     8   8   8   8   8   8   8
#     4   8  16  33  55  73  95 129 169 207 251 308
#     4   8  15  30  51  73  99 132 170 207 245 298
#     4  11  22  34  48  72 105 134 164 203 247 297
#     4   9  18  33  51  71  98 135 174 205 243 293
#     4  10  19  31  50  76 103 131 168 212 253 293
#     4   9  18  33  51  74 100 129 166 209 255 304
#     4   9  17  33  56  75  93 130 174 209 248 294
#
# _framework density 18.058966000000002
#
# number of rings (size 3 to 8) (size 9 to 14) (size 15 to 20)
#    0.000    2.857    0.000    3.429    2.000    2.286 
#    0.000    5.714    0.000    4.286    0.000    0.000 
#    0.000    0.000    0.000    0.000    0.000    0.000 
#
# Total GULP energy -347012.269389 kJ/mol
# GULP energy per Si atom -12393.295335 kJ/mol
# Density = 1.801786 g / cm^3
# Si number density = 18.058966 Si / 1000 Ang^3
#
#
#
# Elastic Constant Matrix: (Units=GPa)
#
#
# Indices 1 2 3 4 5 6 
#
# 1 124.7911 22.8001 55.2004 0.0000 5.4233 0.0000
# 2 22.8001 45.5620 18.2074 0.0000 3.5272 0.0000
# 3 55.2004 18.2074 70.8207 0.0000 10.7415 0.0000
# 4 0.0000 0.0000 0.0000 20.0979 0.0000 -3.4963
# 5 5.4233 3.5272 10.7415 0.0000 31.5953 0.0000
# 6 0.0000 0.0000 0.0000 -3.4963 0.0000 21.9635
#
#
#
# Elastic Compliance Matrix: (Units=1/GPa)
#
#
# Indices 1 2 3 4 5 6 
#
# 1 0.012558 -0.002669 -0.009300 0.000000 0.001304 0.000000
# 2 -0.002669 0.025040 -0.004221 0.000000 -0.000902 0.000000
# 3 -0.009300 -0.004221 0.023344 0.000000 -0.005869 0.000000
# 4 0.000000 0.000000 0.000000 0.051174 0.000000 0.008146
# 5 0.001304 -0.000902 -0.005869 0.000000 0.033522 0.000000
# 6 0.000000 0.000000 0.000000 0.008146 0.000000 0.046827
#
#
# Mechanical properties :
#
#
# Convention : Reuss Voigt Hill
#
# Bulk Modulus (GPa) = 35.00949 48.17664 41.59306
# Shear Modulus (GPa) = 21.33425 24.39572 22.86499
#
# Velocity S-wave (km/s) = 3.44083 3.67944 3.56213
# Velocity P-wave (km/s) = 5.93414 6.69226 6.32457
#
# Compressibility (1/GPa) = 0.02856369
#
# Stress axis : x y z
#
# Youngs Moduli (GPa) = 79.63007 39.93595 42.83747
#
# Poissons Ratio (x) = 0.10658 0.39838
# Poissons Ratio (y) = 0.21252 0.18080
# Poissons Ratio (z) = 0.74055 0.16855
#
# Static dielectric constant tensor:
#      x y z
#    x 3.695070 0.000000 0.251800 
#    y 0.000000 3.058160 0.000000 
#    z 0.251800 0.000000 3.291500 
# 
# 
# High freq. dielectric constant tensor:
#      x y z
#    x 1.713420 0.000000 0.006020 
#    y 0.000000 1.663230 0.000000 
#    z 0.006020 0.000000 1.687450 
# 
# From -- ./inp_files/287905.got.cif
#   From: 2010.06.25/outbox.cif.g09.slc.cpg/sg12_144_cif.got.tgz:287905.got - 2010.06.28 00:19:55.
