data_PCOD8086306
_publ_section_title
;
Structure prediction by ZEFSAII (Michael W. Deem and Ramdas Pophale) SiO2 
 PCOD8086306
Probable space group: C 2/M
;
_chemical_formula_sum "Si O2"
_cell_formula_units_Z 64
_cell_length_a 17.599381
_cell_length_b 9.358151
_cell_length_c 21.005743
_cell_angle_alpha 90.000000
_cell_angle_beta 76.041934
_cell_angle_gamma 90.000000
_cell_volume 3357.443666
_symmetry_space_group_name_H-M "C 2/M"
_symmetry_group_IT_number 12
_symmetry_cell_setting 'monoclinic'
loop_
_space_group_symop_operation_xyz
x,y,z
-x,y,-z
-x,-y,-z
x,-y,z
1/2+x,1/2+y,z
1/2-x,1/2+y,-z
1/2-x,1/2-y,-z
1/2+x,1/2-y,z
loop_
_atom_site_type_symbol
_atom_site_label
_atom_site_fract_x
_atom_site_fract_y
_atom_site_fract_z
Si Si1 0.576477 0.830408 0.016170
Si Si2 0.560814 0.661695 0.726301
Si Si3 0.129948 0.666538 0.603296
Si Si4 0.273294 0.339540 0.237699
Si Si5 0.790443 0.162437 0.641731
Si Si6 0.839314 0.339202 0.118904
Si Si7 0.006309 0.661051 0.154803
Si Si8 0.090452 0.164607 0.489350
O O1 0.651375 0.785546 0.957170
O O2 0.568864 0.000000 0.013171
O O3 0.500000 0.758697 0.000000
O O4 0.575814 0.788239 0.091586
O O5 0.535149 0.500000 0.715314
O O6 0.566975 0.751484 0.660085
O O7 0.643005 0.664823 0.745603
O O8 0.494938 0.733375 0.784564
O O9 0.107829 0.500000 0.606112
O O10 0.216922 0.692625 0.611165
O O11 0.128057 0.731533 0.533508
O O12 0.244091 0.500000 0.232008
O O13 0.210564 0.261420 0.295620
O O14 0.278688 0.262424 0.168125
O O15 0.868662 0.196129 0.586462
O O16 0.788414 0.000000 0.666524
O O17 0.805728 0.500000 0.128374
O O18 0.924330 0.335288 0.134191
O O19 0.022092 0.500000 0.176225
O O20 0.000000 0.201109 0.500000
O O21 0.104271 0.000000 0.507098
#
# Coordination Sequence:
#
# PCOD8086306 Si02
#       8
#     8   8   8   8   8   8   8   8
#     4   7  10  16  27  43  64  96 137 175 210 252
#     4   9  16  25  37  55  80 108 140 179 221 260
#     4  10  19  31  49  70  90 115 149 185 217 255
#     4   9  16  24  36  56  80 106 139 181 222 255
#     4   9  18  32  49  68  89 116 149 181 216 261
#     4   8  12  19  31  46  68 101 139 176 214 257
#     4   8  12  19  31  47  69  99 138 179 215 254
#     4  10  21  36  52  70  93 118 142 174 220 269
#
# _framework density 19.062121000000001
#
# number of rings (size 3 to 8) (size 9 to 14) (size 15 to 20)
#    0.000    3.250    0.000    3.000    0.000    4.250 
#    0.000    0.625    0.000    3.750    0.000    0.000 
#    0.000    0.000    0.000    1.125    0.000   13.750 
#
# Total GULP energy -396533.196162 kJ/mol
# GULP energy per Si atom -12391.662380 kJ/mol
# Density = 1.901873 g / cm^3
# Si number density = 19.062121 Si / 1000 Ang^3
#
#
#
# Elastic Constant Matrix: (Units=GPa)
#
#
# Indices 1 2 3 4 5 6 
#
# 1 17.0638 19.3030 27.8662 0.0000 -10.8055 0.0000
# 2 19.3030 114.4888 76.5529 0.0000 -16.7116 0.0000
# 3 27.8662 76.5529 159.4368 0.0000 -33.6047 0.0000
# 4 0.0000 0.0000 0.0000 30.2782 0.0000 -0.0030
# 5 -10.8055 -16.7116 -33.6047 0.0000 10.8183 0.0000
# 6 0.0000 0.0000 0.0000 -0.0030 0.0000 7.1755
#
#
#
# Elastic Compliance Matrix: (Units=1/GPa)
#
#
# Indices 1 2 3 4 5 6 
#
# 1 0.187341 -0.012455 0.024969 0.000000 0.245441 0.000000
# 2 -0.012455 0.013708 -0.007425 0.000000 -0.014331 0.000000
# 3 0.024969 -0.007425 0.024073 0.000000 0.088249 0.000000
# 4 0.000000 0.000000 0.000000 0.033027 0.000000 0.000014
# 5 0.245441 -0.014331 0.088249 0.000000 0.589575 0.000000
# 6 0.000000 0.000000 0.000000 0.000014 0.000000 0.139362
#
#
# Mechanical properties :
#
#
# Convention : Reuss Voigt Hill
#
# Bulk Modulus (GPa) = 4.24991 59.82595 32.03793
# Shear Modulus (GPa) = 4.73780 20.80555 12.77168
#
# Velocity S-wave (km/s) = 1.57824 3.30731 2.59125
# Velocity P-wave (km/s) = 2.35701 6.78508 5.07901
#
# Compressibility (1/GPa) = 0.23529897
#
# Stress axis : x y z
#
# Youngs Moduli (GPa) = 5.33786 72.95274 41.53948
#
# Poissons Ratio (x) = 0.90865 -1.03720
# Poissons Ratio (y) = 0.06649 0.30844
# Poissons Ratio (z) = -0.13328 0.54169
#
# Static dielectric constant tensor:
#      x y z
#    x 2.718730 0.000000 -0.179340 
#    y 0.000000 3.455000 0.000000 
#    z -0.179340 0.000000 3.936310 
# 
# 
# High freq. dielectric constant tensor:
#      x y z
#    x 1.660530 0.000000 -0.013010 
#    y 0.000000 1.728200 0.000000 
#    z -0.013010 0.000000 1.765670 
# 
# From -- ./inp_files/345545.got.cif
#   From: 2010.06.25/outbox.cif.g09.slc.cpg/sg12_173_cif.got.tgz:345545.got - 2010.06.28 00:19:55.
