data_PCOD8086749
_publ_section_title
;
Structure prediction by ZEFSAII (Michael W. Deem and Ramdas Pophale) SiO2 
 PCOD8086749
Probable space group: C 2/M
;
_chemical_formula_sum "Si O2"
_cell_formula_units_Z 64
_cell_length_a 32.223180
_cell_length_b 14.051237
_cell_length_c 8.349532
_cell_angle_alpha 90.000000
_cell_angle_beta 113.699825
_cell_angle_gamma 90.000000
_cell_volume 3461.633976
_symmetry_space_group_name_H-M "C 2/M"
_symmetry_group_IT_number 12
_symmetry_cell_setting 'monoclinic'
loop_
_space_group_symop_operation_xyz
x,y,z
-x,y,-z
-x,-y,-z
x,-y,z
1/2+x,1/2+y,z
1/2-x,1/2+y,-z
1/2-x,1/2-y,-z
1/2+x,1/2-y,z
loop_
_atom_site_type_symbol
_atom_site_label
_atom_site_fract_x
_atom_site_fract_y
_atom_site_fract_z
Si Si1 0.755105 0.785570 0.752127
Si Si2 0.025639 0.328128 0.192491
Si Si3 0.176150 0.753372 0.410343
Si Si4 0.609777 0.105148 0.152729
Si Si5 0.135513 0.108814 0.594178
Si Si6 0.548913 0.281445 0.516340
Si Si7 0.941126 0.607099 0.242466
Si Si8 0.229211 0.891038 0.903315
O O1 0.793036 0.802941 0.676776
O O2 0.706400 0.799357 0.591971
O O3 0.758028 0.678607 0.831793
O O4 0.761167 0.864763 0.897747
O O5 0.065573 0.396790 0.196635
O O6 0.045338 0.239109 0.321840
O O7 0.991768 0.389454 0.249573
O O8 0.000000 0.283360 0.000000
O O9 0.146122 0.677332 0.274041
O O10 0.145378 0.832863 0.447308
O O11 0.631066 0.000000 0.187820
O O12 0.595717 0.133479 0.950297
O O13 0.088625 0.142064 0.605160
O O14 0.175781 0.121917 0.785390
O O15 0.130260 0.000000 0.534113
O O16 0.500000 0.320458 0.500000
O O17 0.563720 0.182883 0.623662
O O18 0.932888 0.500000 0.295001
O O19 0.244584 0.000000 0.895877
#
# Coordination Sequence:
#
# PCOD8086749 Si02
#       8
#     8   8   8   8   8   8   8   8
#     4   9  20  36  58  82 108 140 178 223 271 320
#     4   9  17  32  52  75 107 142 176 212 257 323
#     4  10  20  36  56  80 109 144 178 225 274 324
#     4  10  19  31  50  79 110 141 170 212 266 325
#     4  10  21  38  57  79 106 143 190 232 272 317
#     4  10  20  34  55  81 105 147 182 227 275 315
#     4   9  19  32  50  78 110 144 179 214 258 324
#     4   9  19  37  60  82 108 142 178 218 269 331
#
# _framework density 18.488378000000001
#
# number of rings (size 3 to 8) (size 9 to 14) (size 15 to 20)
#    0.000    2.500    1.250    0.375    1.750    6.000 
#    0.000    2.500    0.000    0.375    0.000    0.000 
#    0.000    0.000    0.000    0.000    0.000    0.000 
#
# Total GULP energy -396719.310720 kJ/mol
# GULP energy per Si atom -12397.478460 kJ/mol
# Density = 1.844630 g / cm^3
# Si number density = 18.488378 Si / 1000 Ang^3
#
#
#
# Elastic Constant Matrix: (Units=GPa)
#
#
# Indices 1 2 3 4 5 6 
#
# 1 75.5723 34.0428 26.2573 0.0000 3.7266 0.0000
# 2 34.0428 78.5865 30.8239 0.0000 13.2891 0.0000
# 3 26.2573 30.8239 86.3732 0.0000 5.0785 0.0000
# 4 0.0000 0.0000 0.0000 28.5196 0.0000 5.1838
# 5 3.7266 13.2891 5.0785 0.0000 22.6347 0.0000
# 6 0.0000 0.0000 0.0000 5.1838 0.0000 16.9333
#
#
#
# Elastic Compliance Matrix: (Units=1/GPa)
#
#
# Indices 1 2 3 4 5 6 
#
# 1 0.017127 -0.006539 -0.002972 0.000000 0.001686 0.000000
# 2 -0.006539 0.018706 -0.004160 0.000000 -0.008973 0.000000
# 3 -0.002972 -0.004160 0.013978 0.000000 -0.000204 0.000000
# 4 0.000000 0.000000 0.000000 0.037130 0.000000 -0.011367
# 5 0.001686 -0.008973 -0.000204 0.000000 0.049216 0.000000
# 6 0.000000 0.000000 0.000000 -0.011367 0.000000 0.062535
#
#
# Mechanical properties :
#
#
# Convention : Reuss Voigt Hill
#
# Bulk Modulus (GPa) = 44.50593 46.97557 45.74075
# Shear Modulus (GPa) = 21.41096 23.57805 22.49451
#
# Velocity S-wave (km/s) = 3.40674 3.57500 3.49188
# Velocity P-wave (km/s) = 6.29279 6.51952 6.40716
#
# Compressibility (1/GPa) = 0.02246891
#
# Stress axis : x y z
#
# Youngs Moduli (GPa) = 58.38597 53.45745 71.54090
#
# Poissons Ratio (x) = 0.34954 0.21265
# Poissons Ratio (y) = 0.38177 0.29764
# Poissons Ratio (z) = 0.17355 0.22241
#
# Static dielectric constant tensor:
#      x y z
#    x 3.352340 0.000000 0.054430 
#    y 0.000000 3.167040 0.000000 
#    z 0.054430 0.000000 3.623550 
# 
# 
# High freq. dielectric constant tensor:
#      x y z
#    x 1.708720 0.000000 0.003900 
#    y 0.000000 1.690800 0.000000 
#    z 0.003900 0.000000 1.730840 
# 
# From -- ./inp_files/111677.got.cif
#   From: 2010.06.25/outbox.cif.g09.slc.cpg/sg12_56_cif.got.tgz:111677.got - 2010.06.28 00:19:55.
