data_PCOD8086697
_publ_section_title
;
Structure prediction by ZEFSAII (Michael W. Deem and Ramdas Pophale) SiO2 
 PCOD8086697
Probable space group: C 2/M
;
_chemical_formula_sum "Si O2"
_cell_formula_units_Z 56
_cell_length_a 20.282144
_cell_length_b 8.919269
_cell_length_c 17.187073
_cell_angle_alpha 90.000000
_cell_angle_beta 66.288273
_cell_angle_gamma 90.000000
_cell_volume 2846.698601
_symmetry_space_group_name_H-M "C 2/M"
_symmetry_group_IT_number 12
_symmetry_cell_setting 'monoclinic'
loop_
_space_group_symop_operation_xyz
x,y,z
-x,y,-z
-x,-y,-z
x,-y,z
1/2+x,1/2+y,z
1/2-x,1/2+y,-z
1/2-x,1/2-y,-z
1/2+x,1/2-y,z
loop_
_atom_site_type_symbol
_atom_site_label
_atom_site_fract_x
_atom_site_fract_y
_atom_site_fract_z
Si Si1 0.101102 0.823214 0.249536
Si Si2 0.348470 0.174666 0.096237
Si Si3 0.940095 0.829508 0.314300
Si Si4 0.235419 0.176952 0.275779
Si Si5 0.029219 0.170375 0.875234
Si Si6 0.615961 0.172028 0.086522
Si Si7 0.704368 0.822044 0.589553
O O1 0.152403 0.775342 0.297328
O O2 0.137729 0.764988 0.152442
O O3 0.019303 0.764513 0.300905
O O4 0.097141 0.000000 0.240962
O O5 0.283159 0.234036 0.180554
O O6 0.418029 0.273877 0.082669
O O7 0.365217 0.000000 0.105266
O O8 0.330485 0.198426 0.012828
O O9 0.930072 0.821239 0.226586
O O10 0.878581 0.727163 0.381708
O O11 0.931105 0.000000 0.348793
O O12 0.262878 0.242516 0.344791
O O13 0.241063 0.000000 0.277850
O O14 0.962282 0.280862 0.906100
O O15 0.004483 0.000000 0.904094
O O16 0.614474 0.000000 0.112454
O O17 0.750000 0.750000 0.500000
O O18 0.709310 0.000000 0.582447
#
# Coordination Sequence:
#
# PCOD8086697 Si02
#       7
#     8   8   8   8   8   8   8
#     4   9  19  37  58  79 110 149 190 228 264 321
#     4  10  19  32  50  75 109 147 190 233 273 324
#     4   9  18  34  56  82 109 140 179 225 271 321
#     4   9  19  37  59  81 107 147 187 223 275 329
#     4  10  19  31  50  76 108 145 189 235 275 319
#     4  10  20  31  47  75 111 149 188 231 276 320
#     4  11  22  38  63  88 111 139 174 221 275 332
#
# _framework density 19.67191
#
# number of rings (size 3 to 8) (size 9 to 14) (size 15 to 20)
#    0.000    2.286    1.429    2.571    0.000    5.714 
#    0.000    2.857    0.000    4.286    0.000    0.000 
#    0.000    0.000    0.000    0.000    0.000    0.000 
#
# Total GULP energy -347066.529256 kJ/mol
# GULP energy per Si atom -12395.233188 kJ/mol
# Density = 1.962714 g / cm^3
# Si number density = 19.671910 Si / 1000 Ang^3
#
#
#
# Elastic Constant Matrix: (Units=GPa)
#
#
# Indices 1 2 3 4 5 6 
#
# 1 103.0178 18.5422 49.1487 0.0000 6.0831 0.0000
# 2 18.5422 40.4838 27.8122 0.0000 -0.8842 -0.0001
# 3 49.1487 27.8122 117.2956 0.0000 -8.2331 0.0000
# 4 0.0000 0.0000 0.0000 29.3205 0.0000 -0.8655
# 5 6.0831 -0.8842 -8.2331 0.0000 13.3168 0.0000
# 6 0.0000 -0.0001 0.0000 -0.8655 0.0000 19.7245
#
#
#
# Elastic Compliance Matrix: (Units=1/GPa)
#
#
# Indices 1 2 3 4 5 6 
#
# 1 0.013478 -0.002428 -0.005766 0.000000 -0.009883 0.000000
# 2 -0.002428 0.030024 -0.006151 0.000000 -0.000700 0.000000
# 3 -0.005766 -0.006151 0.013126 0.000000 0.010340 0.000000
# 4 0.000000 0.000000 0.000000 0.034150 0.000000 0.001499
# 5 -0.009883 -0.000700 0.010340 0.000000 0.085954 0.000000
# 6 0.000000 0.000000 0.000000 0.001499 0.000000 0.050764
#
#
# Mechanical properties :
#
#
# Convention : Reuss Voigt Hill
#
# Bulk Modulus (GPa) = 35.79275 50.20039 42.99657
# Shear Modulus (GPa) = 18.83260 23.49198 21.16229
#
# Velocity S-wave (km/s) = 3.09744 3.45945 3.28344
# Velocity P-wave (km/s) = 5.57015 6.44448 6.02320
#
# Compressibility (1/GPa) = 0.02793862
#
# Stress axis : x y z
#
# Youngs Moduli (GPa) = 74.19300 33.30718 76.18757
#
# Poissons Ratio (x) = 0.08088 0.43926
# Poissons Ratio (y) = 0.18016 0.46860
# Poissons Ratio (z) = 0.42776 0.20486
#
# Static dielectric constant tensor:
#      x y z
#    x 3.664030 0.000000 0.033870 
#    y 0.000000 3.385430 0.000000 
#    z 0.033870 0.000000 3.582380 
# 
# 
# High freq. dielectric constant tensor:
#      x y z
#    x 1.760530 0.000000 -0.002540 
#    y 0.000000 1.749610 0.000000 
#    z -0.002540 0.000000 1.753780 
# 
# From -- ./inp_files/280976.got.cif
#   From: 2010.06.25/outbox.cif.g09.slc.cpg/sg12_141_cif.got.tgz:280976.got - 2010.06.28 00:19:55.
