data_PCOD8086652
_publ_section_title
;
Structure prediction by ZEFSAII (Michael W. Deem and Ramdas Pophale) SiO2 
 PCOD8086652
Probable space group: C 2/M
;
_chemical_formula_sum "Si O2"
_cell_formula_units_Z 64
_cell_length_a 19.967683
_cell_length_b 8.938037
_cell_length_c 20.038011
_cell_angle_alpha 90.000000
_cell_angle_beta 95.803961
_cell_angle_gamma 90.000000
_cell_volume 3557.888971
_symmetry_space_group_name_H-M "C 2/M"
_symmetry_group_IT_number 12
_symmetry_cell_setting 'monoclinic'
loop_
_space_group_symop_operation_xyz
x,y,z
-x,y,-z
-x,-y,-z
x,-y,z
1/2+x,1/2+y,z
1/2-x,1/2+y,-z
1/2-x,1/2-y,-z
1/2+x,1/2-y,z
loop_
_atom_site_type_symbol
_atom_site_label
_atom_site_fract_x
_atom_site_fract_y
_atom_site_fract_z
Si Si1 0.932874 0.332312 0.804981
Si Si2 0.707070 0.674497 0.052761
Si Si3 0.909575 0.177405 0.669324
Si Si4 0.691615 0.673065 0.534978
Si Si5 0.434217 0.829392 0.537388
Si Si6 0.724575 0.165325 0.183692
Si Si7 0.769192 0.672066 0.671877
Si Si8 0.445390 0.676437 0.939957
O O1 0.962234 0.500000 0.801879
O O2 0.947603 0.242381 0.738338
O O3 0.853810 0.335085 0.807907
O O4 0.966573 0.252100 0.872229
O O5 0.712570 0.500000 0.043084
O O6 0.740996 0.718148 0.126902
O O7 0.629057 0.728103 0.043130
O O8 0.750000 0.750000 0.000000
O O9 0.946259 0.240867 0.607436
O O10 0.831254 0.223239 0.657251
O O11 0.915385 0.000000 0.671680
O O12 0.686356 0.500000 0.513704
O O13 0.750000 0.750000 0.500000
O O14 0.622556 0.754472 0.513313
O O15 0.707658 0.692572 0.614972
O O16 0.500000 0.821167 0.500000
O O17 0.413885 0.000000 0.552041
O O18 0.759568 0.213473 0.257113
O O19 0.748219 0.000000 0.162945
O O20 0.795420 0.500000 0.674934
O O21 0.446127 0.500000 0.928506
O O22 0.500000 0.727372 0.000000
#
# Coordination Sequence:
#
# PCOD8086652 Si02
#       8
#     8   8   8   8   8   8   8   8
#     4   9  17  30  50  76 106 136 170 213 261 313
#     4  10  19  31  50  75 103 136 170 209 251 303
#     4  11  20  31  53  80 105 136 176 221 264 316
#     4  11  21  34  56  84 111 139 176 220 265 317
#     4  11  24  40  56  75 106 145 182 223 270 320
#     4   8  15  29  48  72 101 134 169 207 251 302
#     4   9  18  32  52  78 109 137 168 215 267 313
#     4   9  18  33  53  78 106 134 172 217 259 302
#
# _framework density 17.988194
#
# number of rings (size 3 to 8) (size 9 to 14) (size 15 to 20)
#    0.000    2.250    1.250    3.375    0.000    5.250 
#    0.000    0.000    2.750    0.000    0.000    0.000 
#    0.000    0.000    0.000    0.000    0.000    0.000 
#
# Total GULP energy -396742.950172 kJ/mol
# GULP energy per Si atom -12398.217193 kJ/mol
# Density = 1.794725 g / cm^3
# Si number density = 17.988194 Si / 1000 Ang^3
#
#
#
# Elastic Constant Matrix: (Units=GPa)
#
#
# Indices 1 2 3 4 5 6 
#
# 1 53.8833 36.9898 47.0183 0.0000 6.1725 0.0000
# 2 36.9898 115.6221 68.4359 0.0000 1.3137 0.0000
# 3 47.0183 68.4359 166.5478 0.0000 9.8833 0.0000
# 4 0.0000 0.0000 0.0000 35.8028 0.0000 0.4786
# 5 6.1725 1.3137 9.8833 0.0000 25.6650 0.0000
# 6 0.0000 0.0000 0.0000 0.4786 0.0000 19.5451
#
#
#
# Elastic Compliance Matrix: (Units=1/GPa)
#
#
# Indices 1 2 3 4 5 6 
#
# 1 0.027457 -0.005680 -0.005161 0.000000 -0.004325 0.000000
# 2 -0.005680 0.012643 -0.003719 0.000000 0.002151 0.000000
# 3 -0.005161 -0.003719 0.009113 0.000000 -0.002078 0.000000
# 4 0.000000 0.000000 0.000000 0.027940 0.000000 -0.000684
# 5 -0.004325 0.002151 -0.002078 0.000000 0.040694 0.000000
# 6 0.000000 0.000000 0.000000 -0.000684 0.000000 0.051180
#
#
# Mechanical properties :
#
#
# Convention : Reuss Voigt Hill
#
# Bulk Modulus (GPa) = 49.77031 71.21568 60.49300
# Shear Modulus (GPa) = 24.40883 28.44319 26.42601
#
# Velocity S-wave (km/s) = 3.68766 3.98076 3.83701
# Velocity P-wave (km/s) = 6.77201 7.79774 7.30291
#
# Compressibility (1/GPa) = 0.02009230
#
# Stress axis : x y z
#
# Youngs Moduli (GPa) = 36.42112 79.09511 109.73700
#
# Poissons Ratio (x) = 0.44928 0.56630
# Poissons Ratio (y) = 0.20688 0.40813
# Poissons Ratio (z) = 0.18795 0.29417
#
# Static dielectric constant tensor:
#      x y z
#    x -21.414760 0.000000 -34.866800 
#    y 0.000000 3.508840 0.000000 
#    z -34.866800 0.000000 -46.645890 
# 
# 
# High freq. dielectric constant tensor:
#      x y z
#    x 1.644290 0.000000 0.008150 
#    y 0.000000 1.706000 0.000000 
#    z 0.008150 0.000000 1.717250 
# 
# From -- ./inp_files/319163.got.cif
#   From: 2010.06.25/outbox.cif.g09.slc.cpg/sg12_160_cif.got.tgz:319163.got - 2010.06.28 00:19:55.
