data_PCOD8086747
_publ_section_title
;
Structure prediction by ZEFSAII (Michael W. Deem and Ramdas Pophale) SiO2 
 PCOD8086747
Probable space group: C 2/M
;
_chemical_formula_sum "Si O2"
_cell_formula_units_Z 56
_cell_length_a 10.061252
_cell_length_b 27.353340
_cell_length_c 12.532225
_cell_angle_alpha 90.000000
_cell_angle_beta 112.816105
_cell_angle_gamma 90.000000
_cell_volume 3179.111020
_symmetry_space_group_name_H-M "C 2/M"
_symmetry_group_IT_number 12
_symmetry_cell_setting 'monoclinic'
loop_
_space_group_symop_operation_xyz
x,y,z
-x,y,-z
-x,-y,-z
x,-y,z
1/2+x,1/2+y,z
1/2-x,1/2+y,-z
1/2-x,1/2-y,-z
1/2+x,1/2-y,z
loop_
_atom_site_type_symbol
_atom_site_label
_atom_site_fract_x
_atom_site_fract_y
_atom_site_fract_z
Si Si1 0.181991 0.556609 0.358306
Si Si2 0.984937 0.768245 0.873352
Si Si3 0.675818 0.556801 0.379491
Si Si4 0.072916 0.614565 0.635262
Si Si5 0.316435 0.805500 0.186311
Si Si6 0.871351 0.864935 0.033302
Si Si7 0.858695 0.942989 0.204974
O O1 0.143974 0.500000 0.357233
O O2 0.292989 0.571410 0.487638
O O3 0.248109 0.568939 0.264579
O O4 0.033282 0.585619 0.319564
O O5 0.813228 0.773942 0.801235
O O6 0.058358 0.728480 0.821841
O O7 0.064857 0.819961 0.877870
O O8 0.000000 0.751375 0.000000
O O9 0.703850 0.500000 0.371075
O O10 0.780159 0.584385 0.330570
O O11 0.514591 0.571414 0.298669
O O12 0.106734 0.666921 0.694037
O O13 0.000000 0.623487 0.500000
O O14 0.259007 0.843965 0.079595
O O15 0.816497 0.908755 0.091786
O O16 0.000000 0.886323 0.000000
O O17 0.851233 0.000000 0.168385
#
# Coordination Sequence:
#
# PCOD8086747 Si02
#       7
#     8   8   8   8   8   8   8
#     4   9  18  31  48  73 103 136 175 211 239 282
#     4   9  18  34  55  75  95 123 167 208 242 292
#     4   9  16  30  52  73  99 139 178 206 236 283
#     4  10  20  34  52  74 101 133 168 205 251 303
#     4  10  20  35  54  75  97 125 165 211 252 296
#     4   9  18  33  52  75 102 133 168 204 243 295
#     4  10  19  31  50  79 109 133 163 206 252 292
#
# _framework density 17.614985999999998
#
# number of rings (size 3 to 8) (size 9 to 14) (size 15 to 20)
#    0.000    2.857    0.000    4.286    0.000    6.000 
#    0.000    2.143    0.000    3.429    0.000    0.000 
#    0.000    0.000    0.000    0.000    0.000    0.000 
#
# Total GULP energy -347130.240938 kJ/mol
# GULP energy per Si atom -12397.508605 kJ/mol
# Density = 1.757489 g / cm^3
# Si number density = 17.614986 Si / 1000 Ang^3
#
#
#
# Elastic Constant Matrix: (Units=GPa)
#
#
# Indices 1 2 3 4 5 6 
#
# 1 125.4945 60.8486 46.3327 0.0000 -6.6391 0.0000
# 2 60.8486 72.3398 40.8253 0.0000 -12.1073 0.0000
# 3 46.3327 40.8253 42.6728 0.0000 -8.9950 0.0000
# 4 0.0000 0.0000 0.0000 47.9896 0.0000 -20.6534
# 5 -6.6391 -12.1073 -8.9950 0.0000 19.8004 0.0000
# 6 0.0000 0.0000 0.0000 -20.6534 0.0000 31.9104
#
#
#
# Elastic Compliance Matrix: (Units=1/GPa)
#
#
# Indices 1 2 3 4 5 6 
#
# 1 0.015236 -0.008008 -0.009772 0.000000 -0.004227 0.000000
# 2 -0.008008 0.034887 -0.022948 0.000000 0.008222 0.000000
# 3 -0.009772 -0.022948 0.057895 0.000000 0.008992 0.000000
# 4 0.000000 0.000000 0.000000 0.028883 0.000000 0.018694
# 5 -0.004227 0.008222 0.008992 0.000000 0.058199 0.000000
# 6 0.000000 0.000000 0.000000 0.018694 0.000000 0.043437
#
#
# Mechanical properties :
#
#
# Convention : Reuss Voigt Hill
#
# Bulk Modulus (GPa) = 37.65071 59.61336 48.63203
# Shear Modulus (GPa) = 15.20467 26.10678 20.65572
#
# Velocity S-wave (km/s) = 2.94116 3.85395 3.42807
# Velocity P-wave (km/s) = 5.74060 7.32938 6.58310
#
# Compressibility (1/GPa) = 0.02655993
#
# Stress axis : x y z
#
# Youngs Moduli (GPa) = 65.63614 28.66423 17.27277
#
# Poissons Ratio (x) = 0.22954 0.16879
# Poissons Ratio (y) = 0.52561 0.39638
# Poissons Ratio (z) = 0.64140 0.65780
#
# Static dielectric constant tensor:
#      x y z
#    x 3.356530 0.000000 -0.017830 
#    y 0.000000 3.141960 0.000000 
#    z -0.017830 0.000000 3.080600 
# 
# 
# High freq. dielectric constant tensor:
#      x y z
#    x 1.689620 0.000000 -0.001750 
#    y 0.000000 1.668020 0.000000 
#    z -0.001750 0.000000 1.661010 
# 
# From -- ./inp_files/125339.got.cif
#   From: 2010.06.25/outbox.cif.g09.slc.cpg/sg12_63_cif.got.tgz:125339.got - 2010.06.28 00:19:55.
