data_PCOD8086182
_publ_section_title
;
Structure prediction by ZEFSAII (Michael W. Deem and Ramdas Pophale) SiO2 
 PCOD8086182
Probable space group: C 2/M
;
_chemical_formula_sum "Si O2"
_cell_formula_units_Z 64
_cell_length_a 19.594890
_cell_length_b 13.900243
_cell_length_c 13.905426
_cell_angle_alpha 90.000000
_cell_angle_beta 73.334347
_cell_angle_gamma 90.000000
_cell_volume 3628.378421
_symmetry_space_group_name_H-M "C 2/M"
_symmetry_group_IT_number 12
_symmetry_cell_setting 'monoclinic'
loop_
_space_group_symop_operation_xyz
x,y,z
-x,y,-z
-x,-y,-z
x,-y,z
1/2+x,1/2+y,z
1/2-x,1/2+y,-z
1/2-x,1/2-y,-z
1/2+x,1/2-y,z
loop_
_atom_site_type_symbol
_atom_site_label
_atom_site_fract_x
_atom_site_fract_y
_atom_site_fract_z
Si Si1 0.937136 0.717285 0.447417
Si Si2 0.699316 0.885670 0.418049
Si Si3 0.874531 0.611733 0.922069
Si Si4 0.274637 0.889564 0.801438
Si Si5 0.975646 0.389670 0.240955
Si Si6 0.571745 0.801612 0.921104
Si Si7 0.613768 0.393639 0.833715
Si Si8 0.144321 0.109617 0.598236
O O1 0.871210 0.649331 0.500988
O O2 0.969516 0.677379 0.336032
O O3 0.906031 0.824657 0.447739
O O4 0.000000 0.717530 0.500000
O O5 0.700883 0.841463 0.309301
O O6 0.772832 0.856269 0.443005
O O7 0.698435 0.000000 0.412200
O O8 0.863257 0.500000 0.951694
O O9 0.813604 0.656553 0.877725
O O10 0.947523 0.628647 0.835442
O O11 0.867974 0.670290 0.025406
O O12 0.190858 0.879542 0.849661
O O13 0.299052 0.000000 0.787785
O O14 0.963211 0.500000 0.275922
O O15 0.917182 0.358683 0.183935
O O16 0.565288 0.687875 0.901514
O O17 0.500000 0.838319 0.000000
O O18 0.583480 0.500000 0.870748
O O19 0.618342 0.380965 0.717967
O O20 0.136046 0.000000 0.565373
#
# Coordination Sequence:
#
# PCOD8086182 Si02
#       8
#     8   8   8   8   8   8   8   8
#     4  12  22  31  51  81 106 130 165 210 259 299
#     4   9  18  33  53  77 103 135 169 202 247 301
#     4   9  17  30  48  70  99 131 157 188 239 297
#     4   8  15  29  49  72  96 124 159 197 235 283
#     4  10  20  33  47  69 103 132 156 193 241 297
#     4  10  19  31  48  70  96 127 164 194 237 296
#     4   9  17  32  52  70  91 122 165 209 241 277
#     4   9  19  37  55  70  98 137 176 209 240 295
#
# _framework density 17.638732999999998
#
# number of rings (size 3 to 8) (size 9 to 14) (size 15 to 20)
#    0.000    2.500    1.250    3.375    0.000    4.500 
#    0.000    0.000    0.000    0.000    0.000    0.000 
#    0.000    0.000    0.000    0.000    0.000    0.000 
#
# Total GULP energy -396585.570622 kJ/mol
# GULP energy per Si atom -12393.299082 kJ/mol
# Density = 1.759859 g / cm^3
# Si number density = 17.638733 Si / 1000 Ang^3
#
#
#
# Elastic Constant Matrix: (Units=GPa)
#
#
# Indices 1 2 3 4 5 6 
#
# 1 68.3716 28.2559 37.0021 0.0000 18.4618 0.0000
# 2 28.2559 63.0082 26.3185 0.0000 7.7334 0.0000
# 3 37.0021 26.3185 70.0404 0.0000 19.7772 0.0000
# 4 0.0000 0.0000 0.0000 25.4162 0.0000 -0.0029
# 5 18.4618 7.7334 19.7772 0.0000 21.9346 0.0000
# 6 0.0000 0.0000 0.0000 -0.0029 0.0000 23.7387
#
#
#
# Elastic Compliance Matrix: (Units=1/GPa)
#
#
# Indices 1 2 3 4 5 6 
#
# 1 0.024332 -0.006507 -0.007076 0.000000 -0.011806 0.000000
# 2 -0.006507 0.020568 -0.005084 0.000000 0.002810 0.000000
# 3 -0.007076 -0.005084 0.023797 0.000000 -0.013708 0.000000
# 4 0.000000 0.000000 0.000000 0.039345 0.000000 0.000005
# 5 -0.011806 0.002810 -0.013708 0.000000 0.066896 0.000000
# 6 0.000000 0.000000 0.000000 0.000005 0.000000 0.042125
#
#
# Mechanical properties :
#
#
# Convention : Reuss Voigt Hill
#
# Bulk Modulus (GPa) = 31.88536 42.73036 37.30786
# Shear Modulus (GPa) = 18.87843 21.54082 20.20963
#
# Velocity S-wave (km/s) = 3.27507 3.49839 3.38857
# Velocity P-wave (km/s) = 5.69364 6.37152 6.04209
#
# Compressibility (1/GPa) = 0.03136235
#
# Stress axis : x y z
#
# Youngs Moduli (GPa) = 41.09741 48.61937 42.02218
#
# Poissons Ratio (x) = 0.31637 0.29735
# Poissons Ratio (y) = 0.26743 0.21365
# Poissons Ratio (z) = 0.29081 0.24719
#
# Static dielectric constant tensor:
#      x y z
#    x 3.288920 0.000000 0.258300 
#    y 0.000000 3.161160 0.000000 
#    z 0.258300 0.000000 3.282880 
# 
# 
# High freq. dielectric constant tensor:
#      x y z
#    x 1.672480 0.000000 0.014720 
#    y 0.000000 1.667880 0.000000 
#    z 0.014720 0.000000 1.675370 
# 
# From -- ./inp_files/167251.got.cif
#   From: 2010.06.25/outbox.cif.g09.slc.cpg/sg12_84_cif.got.tgz:167251.got - 2010.06.28 00:19:55.
