data_PCOD8086330
_publ_section_title
;
Structure prediction by ZEFSAII (Michael W. Deem and Ramdas Pophale) SiO2 
 PCOD8086330
Probable space group: C 2/M
;
_chemical_formula_sum "Si O2"
_cell_formula_units_Z 56
_cell_length_a 19.051790
_cell_length_b 9.284830
_cell_length_c 17.860564
_cell_angle_alpha 90.000000
_cell_angle_beta 72.024348
_cell_angle_gamma 90.000000
_cell_volume 3005.184629
_symmetry_space_group_name_H-M "C 2/M"
_symmetry_group_IT_number 12
_symmetry_cell_setting 'monoclinic'
loop_
_space_group_symop_operation_xyz
x,y,z
-x,y,-z
-x,-y,-z
x,-y,z
1/2+x,1/2+y,z
1/2-x,1/2+y,-z
1/2-x,1/2-y,-z
1/2+x,1/2-y,z
loop_
_atom_site_type_symbol
_atom_site_label
_atom_site_fract_x
_atom_site_fract_y
_atom_site_fract_z
Si Si1 0.081390 0.332039 0.488443
Si Si2 0.218785 0.670245 0.344822
Si Si3 0.416234 0.838543 0.890107
Si Si4 0.539594 0.660853 0.907370
Si Si5 0.693366 0.829804 0.572225
Si Si6 0.790745 0.663191 0.824037
Si Si7 0.164774 0.667523 0.931633
O O1 0.073378 0.500000 0.475805
O O2 0.143575 0.274292 0.409936
O O3 0.111066 0.303767 0.564144
O O4 0.000000 0.260742 0.500000
O O5 0.230177 0.500000 0.353948
O O6 0.291523 0.755177 0.352158
O O7 0.211867 0.712289 0.260639
O O8 0.485151 0.730806 0.864389
O O9 0.374991 0.826562 0.824542
O O10 0.446457 0.000000 0.893830
O O11 0.360254 0.798582 0.975770
O O12 0.559744 0.500000 0.874773
O O13 0.613185 0.754574 0.887459
O O14 0.500000 0.662237 0.000000
O O15 0.750000 0.750000 0.500000
O O16 0.709982 0.000000 0.570810
O O17 0.761179 0.500000 0.843419
O O18 0.745543 0.768555 0.892791
O O19 0.164922 0.500000 0.913637
#
# Coordination Sequence:
#
# PCOD8086330 Si02
#       7
#     8   8   8   8   8   8   8
#     4   8  14  27  49  74  95 118 153 192 227 271
#     4   9  18  32  49  69  96 130 161 193 238 288
#     4   9  18  32  49  70  96 127 165 210 255 297
#     4   9  17  30  49  70  92 121 158 201 250 302
#     4   9  16  28  49  73  96 123 155 191 230 279
#     4  10  20  33  48  68  98 132 165 205 253 300
#     4  10  19  31  49  71  94 124 167 213 253 297
#
# _framework density 18.634461000000002
#
# number of rings (size 3 to 8) (size 9 to 14) (size 15 to 20)
#    0.000    2.857    0.000    2.571    0.000    3.429 
#    0.000    1.429    0.000   14.143    0.000    0.000 
#    0.000    0.000    0.000    0.000    0.000    0.000 
#
# Total GULP energy -347001.404677 kJ/mol
# GULP energy per Si atom -12392.907310 kJ/mol
# Density = 1.859205 g / cm^3
# Si number density = 18.634461 Si / 1000 Ang^3
#
#
#
# Elastic Constant Matrix: (Units=GPa)
#
#
# Indices 1 2 3 4 5 6 
#
# 1 103.2987 38.9074 26.8093 0.0000 27.3821 0.0000
# 2 38.9074 79.8119 24.5098 0.0000 15.8702 0.0000
# 3 26.8093 24.5098 56.2472 0.0000 27.5909 0.0000
# 4 0.0000 0.0000 0.0000 21.0666 0.0000 5.0167
# 5 27.3821 15.8702 27.5909 0.0000 28.6849 0.0000
# 6 0.0000 0.0000 0.0000 5.0167 0.0000 29.6416
#
#
#
# Elastic Compliance Matrix: (Units=1/GPa)
#
#
# Indices 1 2 3 4 5 6 
#
# 1 0.014498 -0.005023 0.001333 0.000000 -0.012343 0.000000
# 2 -0.005023 0.016413 -0.005028 0.000000 0.000550 0.000000
# 3 0.001333 -0.005028 0.035204 0.000000 -0.032352 0.000000
# 4 0.000000 0.000000 0.000000 0.049462 0.000000 -0.008371
# 5 -0.012343 0.000550 -0.032352 0.000000 0.077458 0.000000
# 6 0.000000 0.000000 0.000000 -0.008371 0.000000 0.035153
#
#
# Mechanical properties :
#
#
# Convention : Reuss Voigt Hill
#
# Bulk Modulus (GPa) = 20.54244 46.64567 33.59406
# Shear Modulus (GPa) = 19.09497 25.82071 22.45784
#
# Velocity S-wave (km/s) = 3.20459 3.72646 3.47533
# Velocity P-wave (km/s) = 4.97397 6.60315 5.84559
#
# Compressibility (1/GPa) = 0.04867970
#
# Stress axis : x y z
#
# Youngs Moduli (GPa) = 68.97298 60.92887 28.40607
#
# Poissons Ratio (x) = 0.30603 -0.03786
# Poissons Ratio (y) = 0.34644 0.14282
# Poissons Ratio (z) = -0.09193 0.30633
#
# Static dielectric constant tensor:
#      x y z
#    x 3.706770 0.000000 0.333320 
#    y 0.000000 3.464820 0.000000 
#    z 0.333320 0.000000 3.269420 
# 
# 
# High freq. dielectric constant tensor:
#      x y z
#    x 1.725450 0.000000 0.025020 
#    y 0.000000 1.712170 0.000000 
#    z 0.025020 0.000000 1.688950 
# 
# From -- ./inp_files/280254.got.cif
#   From: 2010.06.25/outbox.cif.g09.slc.cpg/sg12_141_cif.got.tgz:280254.got - 2010.06.28 00:19:55.
