data_PCOD8086122
_publ_section_title
;
Structure prediction by ZEFSAII (Michael W. Deem and Ramdas Pophale) SiO2 
 PCOD8086122
Probable space group: C 2/M
;
_chemical_formula_sum "Si O2"
_cell_formula_units_Z 64
_cell_length_a 23.508342
_cell_length_b 13.995245
_cell_length_c 10.849672
_cell_angle_alpha 90.000000
_cell_angle_beta 90.804153
_cell_angle_gamma 90.000000
_cell_volume 3569.244828
_symmetry_space_group_name_H-M "C 2/M"
_symmetry_group_IT_number 12
_symmetry_cell_setting 'monoclinic'
loop_
_space_group_symop_operation_xyz
x,y,z
-x,y,-z
-x,-y,-z
x,-y,z
1/2+x,1/2+y,z
1/2-x,1/2+y,-z
1/2-x,1/2-y,-z
1/2+x,1/2-y,z
loop_
_atom_site_type_symbol
_atom_site_label
_atom_site_fract_x
_atom_site_fract_y
_atom_site_fract_z
Si Si1 0.856860 0.395513 0.716070
Si Si2 0.486960 0.101656 0.643504
Si Si3 0.880774 0.888749 0.585602
Si Si4 0.299398 0.112042 0.964121
Si Si5 0.608255 0.390340 0.697682
Si Si6 0.699761 0.272741 0.843692
Si Si7 0.004571 0.808770 0.353893
Si Si8 0.219452 0.765983 0.372697
O O1 0.830764 0.500000 0.689519
O O2 0.921006 0.391822 0.673447
O O3 0.822129 0.323664 0.632524
O O4 0.847701 0.373443 0.861024
O O5 0.500000 0.098537 0.500000
O O6 0.512274 0.201344 0.694107
O O7 0.510655 0.000000 0.700933
O O8 0.879950 0.857641 0.442166
O O9 0.819018 0.861365 0.636765
O O10 0.929694 0.836751 0.669996
O O11 0.891999 0.000000 0.599504
O O12 0.318951 0.181729 0.075178
O O13 0.295143 0.000000 0.004051
O O14 0.237408 0.148387 0.916630
O O15 0.625242 0.500000 0.720598
O O16 0.643558 0.325022 0.792328
O O17 0.540289 0.376836 0.717627
O O18 0.735481 0.227781 0.734150
O O19 0.000000 0.820899 0.500000
O O20 0.250000 0.750000 0.500000
#
# Coordination Sequence:
#
# PCOD8086122 Si02
#       8
#     8   8   8   8   8   8   8   8
#     4   9  18  33  53  74 100 140 180 215 261 321
#     4   9  16  27  48  76 104 132 167 211 259 311
#     4  10  19  31  47  73 110 147 177 212 262 324
#     4   9  19  36  56  77 102 138 187 229 267 318
#     4  10  19  32  52  77 105 140 180 218 263 325
#     4  10  20  34  55  79 106 140 182 225 274 319
#     4   9  17  30  49  73 107 142 177 210 253 317
#     4  11  20  31  48  76 114 140 171 217 274 331
#
# _framework density 17.930963999999999
#
# number of rings (size 3 to 8) (size 9 to 14) (size 15 to 20)
#    0.000    2.375    2.500    0.750    0.000    3.000 
#    0.000    0.625    0.000    1.500    0.000    3.500 
#    0.000    0.000    0.000    0.000    0.000    0.000 
#
# Total GULP energy -396436.270524 kJ/mol
# GULP energy per Si atom -12388.633454 kJ/mol
# Density = 1.789015 g / cm^3
# Si number density = 17.930964 Si / 1000 Ang^3
#
#
#
# Elastic Constant Matrix: (Units=GPa)
#
#
# Indices 1 2 3 4 5 6 
#
# 1 91.3444 32.4191 39.4070 0.0000 2.9442 0.0000
# 2 32.4191 106.8541 43.5425 0.0000 7.2839 0.0000
# 3 39.4070 43.5425 64.3123 0.0000 2.6235 0.0000
# 4 0.0000 0.0000 0.0000 19.9609 0.0000 6.9286
# 5 2.9442 7.2839 2.6235 0.0000 24.7474 0.0000
# 6 0.0000 0.0000 0.0000 6.9286 0.0000 19.5459
#
#
#
# Elastic Compliance Matrix: (Units=1/GPa)
#
#
# Indices 1 2 3 4 5 6 
#
# 1 0.014984 -0.001071 -0.008433 0.000000 -0.000574 0.000000
# 2 -0.001071 0.013210 -0.008170 0.000000 -0.002895 0.000000
# 3 -0.008433 -0.008170 0.026222 0.000000 0.000628 0.000000
# 4 0.000000 0.000000 0.000000 0.057127 0.000000 -0.020250
# 5 -0.000574 -0.002895 0.000628 0.000000 0.041262 0.000000
# 6 0.000000 0.000000 0.000000 -0.020250 0.000000 0.058340
#
#
# Mechanical properties :
#
#
# Convention : Reuss Voigt Hill
#
# Bulk Modulus (GPa) = 52.44031 54.80531 53.62281
# Shear Modulus (GPa) = 19.77474 22.66033 21.21754
#
# Velocity S-wave (km/s) = 3.32449 3.55879 3.44363
# Velocity P-wave (km/s) = 6.63667 6.89330 6.76620
#
# Compressibility (1/GPa) = 0.01906930
#
# Stress axis : x y z
#
# Youngs Moduli (GPa) = 66.73683 75.70181 38.13573
#
# Poissons Ratio (x) = 0.08104 0.32161
# Poissons Ratio (y) = 0.07144 0.31155
# Poissons Ratio (z) = 0.56281 0.61845
#
# Static dielectric constant tensor:
#      x y z
#    x 3.408200 0.000000 -0.192480 
#    y 0.000000 3.751050 0.000000 
#    z -0.192480 0.000000 3.087790 
# 
# 
# High freq. dielectric constant tensor:
#      x y z
#    x 1.689480 0.000000 -0.012520 
#    y 0.000000 1.713630 0.000000 
#    z -0.012520 0.000000 1.651470 
# 
# From -- ./inp_files/96910.got.cif
#   From: 2010.06.25/outbox.cif.g09.slc.cpg/sg12_49_cif.got.tgz:96910.got - 2010.06.28 00:19:55.
