data_PCOD8086451
_publ_section_title
;
Structure prediction by ZEFSAII (Michael W. Deem and Ramdas Pophale) SiO2 
 PCOD8086451
Probable space group: C 2/M
;
_chemical_formula_sum "Si O2"
_cell_formula_units_Z 48
_cell_length_a 27.505584
_cell_length_b 9.043207
_cell_length_c 19.652004
_cell_angle_alpha 90.000000
_cell_angle_beta 34.563000
_cell_angle_gamma 90.000000
_cell_volume 2773.142640
_symmetry_space_group_name_H-M "C 2/M"
_symmetry_group_IT_number 12
_symmetry_cell_setting 'monoclinic'
loop_
_space_group_symop_operation_xyz
x,y,z
-x,y,-z
-x,-y,-z
x,-y,z
1/2+x,1/2+y,z
1/2-x,1/2+y,-z
1/2-x,1/2-y,-z
1/2+x,1/2-y,z
loop_
_atom_site_type_symbol
_atom_site_label
_atom_site_fract_x
_atom_site_fract_y
_atom_site_fract_z
Si Si1 0.653733 0.831743 0.467250
Si Si2 0.707618 0.671655 0.145753
Si Si3 0.807194 0.170769 0.378905
Si Si4 0.548494 0.173763 0.723414
Si Si5 0.404964 0.674938 0.598308
Si Si6 0.629001 0.671429 0.091734
O O1 0.755209 0.814151 0.367829
O O2 0.594692 0.785354 0.599214
O O3 0.633403 0.726278 0.428501
O O4 0.633317 0.000000 0.470177
O O5 0.733849 0.500000 0.121393
O O6 0.655301 0.729573 0.271042
O O7 0.647673 0.697815 0.149585
O O8 0.792532 0.769961 0.043867
O O9 0.750000 0.250000 0.500000
O O10 0.899715 0.250929 0.273222
O O11 0.819101 0.000000 0.384984
O O12 0.453515 0.236221 0.833723
O O13 0.546529 0.000000 0.738322
O O14 0.500000 0.741143 0.500000
O O15 0.409275 0.500000 0.592532
O O16 0.613897 0.500000 0.092709
#
# Coordination Sequence:
#
# PCOD8086451 Si02
#       6
#     8   8   8   8   8   8
#     4   9  19  32  47  71 101 130 159 196 240 285
#     4   9  19  34  49  70 100 130 162 199 240 287
#     4   9  17  30  47  70  99 128 161 200 243 288
#     4  10  19  31  49  74 101 128 161 201 245 290
#     4  10  20  33  50  72  99 131 163 195 234 284
#     4  10  19  32  52  73  95 127 164 203 244 285
#
# _framework density 17.308883999999999
#
# number of rings (size 3 to 8) (size 9 to 14) (size 15 to 20)
#    0.000    2.500    0.000    3.500    0.000    7.000 
#    0.000    0.000    0.000    1.000    0.000    7.000 
#    0.000    0.000    0.000    0.000    0.000    0.000 
#
# Total GULP energy -297563.423756 kJ/mol
# GULP energy per Si atom -12398.475990 kJ/mol
# Density = 1.726949 g / cm^3
# Si number density = 17.308884 Si / 1000 Ang^3
#
#
#
# Elastic Constant Matrix: (Units=GPa)
#
#
# Indices 1 2 3 4 5 6 
#
# 1 96.6254 45.5431 56.7348 -0.0063 -18.7433 0.0020
# 2 45.5431 79.9895 46.3516 -0.0115 -13.8067 0.0029
# 3 56.7348 46.3516 95.7222 -0.0177 -11.4055 0.0048
# 4 -0.0063 -0.0115 -0.0177 25.2830 0.0025 -3.8955
# 5 -18.7433 -13.8067 -11.4055 0.0025 27.7844 0.0014
# 6 0.0020 0.0029 0.0048 -3.8955 0.0014 32.3777
#
#
#
# Elastic Compliance Matrix: (Units=1/GPa)
#
#
# Indices 1 2 3 4 5 6 
#
# 1 0.018575 -0.004839 -0.007843 -0.000004 0.006906 0.000000
# 2 -0.004839 0.019460 -0.006090 0.000003 0.003906 0.000000
# 3 -0.007843 -0.006090 0.017930 0.000008 -0.000957 -0.000001
# 4 -0.000004 0.000003 0.000008 0.040299 -0.000002 0.004849
# 5 0.006906 0.003906 -0.000957 -0.000002 0.042199 -0.000003
# 6 0.000000 0.000000 -0.000001 0.004849 -0.000003 0.031469
#
#
# Mechanical properties :
#
#
# Convention : Reuss Voigt Hill
#
# Bulk Modulus (GPa) = 54.28447 63.28846 58.78646
# Shear Modulus (GPa) = 23.40650 25.33621 24.37136
#
# Velocity S-wave (km/s) = 3.68133 3.83007 3.75644
# Velocity P-wave (km/s) = 7.03561 7.49685 7.26989
#
# Compressibility (1/GPa) = 0.01842148
#
# Stress axis : x y z
#
# Youngs Moduli (GPa) = 53.83570 51.38858 55.77094
#
# Poissons Ratio (x) = 0.24866 0.43744
# Poissons Ratio (y) = 0.26050 0.33962
# Poissons Ratio (z) = 0.42226 0.31293
#
# Static dielectric constant tensor:
#      x y z
#    x 3.323600 -0.000010 -0.213800 
#    y -0.000010 3.300920 0.000010 
#    z -0.213800 0.000010 3.147100 
# 
# 
# High freq. dielectric constant tensor:
#      x y z
#    x 1.664120 0.000000 -0.023270 
#    y 0.000000 1.676480 0.000000 
#    z -0.023270 0.000000 1.648180 
# 
# From -- ./inp_files/229974.got.cif
#   From: 2010.06.25/outbox.cif.g09.slc.cpg/sg12_115_cif.got.tgz:229974.got - 2010.06.28 00:19:55.
