data_PCOD8086053
_publ_section_title
;
Structure prediction by ZEFSAII (Michael W. Deem and Ramdas Pophale) SiO2 
 PCOD8086053
Probable space group: C 2/M
;
_chemical_formula_sum "Si O2"
_cell_formula_units_Z 64
_cell_length_a 21.912904
_cell_length_b 9.487581
_cell_length_c 17.316915
_cell_angle_alpha 90.000000
_cell_angle_beta 87.540818
_cell_angle_gamma 90.000000
_cell_volume 3596.878825
_symmetry_space_group_name_H-M "C 2/M"
_symmetry_group_IT_number 12
_symmetry_cell_setting 'monoclinic'
loop_
_space_group_symop_operation_xyz
x,y,z
-x,y,-z
-x,-y,-z
x,-y,z
1/2+x,1/2+y,z
1/2-x,1/2+y,-z
1/2-x,1/2-y,-z
1/2+x,1/2-y,z
loop_
_atom_site_type_symbol
_atom_site_label
_atom_site_fract_x
_atom_site_fract_y
_atom_site_fract_z
Si Si1 0.065456 0.665864 0.721574
Si Si2 0.245896 0.335715 0.078406
Si Si3 0.341912 0.347331 0.199091
Si Si4 0.152079 0.663211 0.577225
Si Si5 0.444890 0.664257 0.704630
Si Si6 0.173703 0.845458 0.195468
Si Si7 0.754254 0.726226 0.676751
Si Si8 0.626036 0.842485 0.410528
O O1 0.053902 0.500000 0.735418
O O2 0.110897 0.722106 0.785785
O O3 0.096188 0.697522 0.637368
O O4 0.003991 0.753969 0.731257
O O5 0.232538 0.500000 0.063391
O O6 0.309778 0.312967 0.119503
O O7 0.190656 0.273913 0.132777
O O8 0.250000 0.250000 0.000000
O O9 0.375316 0.500000 0.192474
O O10 0.290582 0.366894 0.268314
O O11 0.159686 0.500000 0.563149
O O12 0.216608 0.713819 0.606744
O O13 0.137644 0.728345 0.493952
O O14 0.459093 0.500000 0.686734
O O15 0.395769 0.681190 0.775344
O O16 0.421308 0.738164 0.627970
O O17 0.217606 0.846109 0.268627
O O18 0.180359 0.000000 0.156879
O O19 0.810556 0.638821 0.639227
O O20 0.597053 0.000000 0.417554
#
# Coordination Sequence:
#
# PCOD8086053 Si02
#       8
#     8   8   8   8   8   8   8   8
#     4  10  20  34  52  71  93 128 171 212 251 294
#     4  10  20  33  54  83 114 140 160 188 231 283
#     4   9  18  32  50  75 103 130 162 199 239 287
#     4   9  18  30  45  68  97 129 165 208 259 306
#     4  10  21  36  52  70  94 128 169 213 255 295
#     4   9  18  32  52  75 100 130 165 203 244 292
#     4   9  16  28  48  72  97 128 164 205 251 301
#     4  10  19  31  47  68  96 129 166 210 257 306
#
# _framework density 17.793203999999999
#
# number of rings (size 3 to 8) (size 9 to 14) (size 15 to 20)
#    0.000    2.500    0.000    2.250    0.000    8.000 
#    0.000    6.250    0.000    0.750    0.000    5.250 
#    0.000    0.000    0.000    0.000    0.000    0.000 
#
# Total GULP energy -396641.767761 kJ/mol
# GULP energy per Si atom -12395.055243 kJ/mol
# Density = 1.775271 g / cm^3
# Si number density = 17.793204 Si / 1000 Ang^3
#
#
#
# Elastic Constant Matrix: (Units=GPa)
#
#
# Indices 1 2 3 4 5 6 
#
# 1 84.9786 61.9603 32.2074 0.0000 12.7744 0.0000
# 2 61.9603 123.8484 55.0757 0.0000 4.4872 0.0000
# 3 32.2074 55.0757 100.0301 0.0000 12.5667 0.0000
# 4 0.0000 0.0000 0.0000 24.1971 0.0000 1.3200
# 5 12.7744 4.4872 12.5667 0.0000 13.4162 0.0000
# 6 0.0000 0.0000 0.0000 1.3200 0.0000 23.8495
#
#
#
# Elastic Compliance Matrix: (Units=1/GPa)
#
#
# Indices 1 2 3 4 5 6 
#
# 1 0.022023 -0.010895 0.001229 0.000000 -0.018477 0.000000
# 2 -0.010895 0.016140 -0.006804 0.000000 0.011349 0.000000
# 3 0.001229 -0.006804 0.014970 0.000000 -0.012917 0.000000
# 4 0.000000 0.000000 0.000000 0.041452 0.000000 -0.002294
# 5 -0.018477 0.011349 -0.012917 0.000000 0.100434 0.000000
# 6 0.000000 0.000000 0.000000 -0.002294 0.000000 0.042057
#
#
# Mechanical properties :
#
#
# Convention : Reuss Voigt Hill
#
# Bulk Modulus (GPa) = 49.52253 67.48264 58.50259
# Shear Modulus (GPa) = 18.06695 22.93348 20.50022
#
# Velocity S-wave (km/s) = 3.18997 3.59401 3.39800
# Velocity P-wave (km/s) = 6.43899 7.43175 6.95311
#
# Compressibility (1/GPa) = 0.02019283
#
# Stress axis : x y z
#
# Youngs Moduli (GPa) = 45.40605 61.95835 66.79852
#
# Poissons Ratio (x) = 0.67505 -0.08210
# Poissons Ratio (y) = 0.49471 0.45452
# Poissons Ratio (z) = -0.05581 0.42158
#
# Static dielectric constant tensor:
#      x y z
#    x 3.214720 0.000000 0.087420 
#    y 0.000000 3.292500 0.000000 
#    z 0.087420 0.000000 3.260950 
# 
# 
# High freq. dielectric constant tensor:
#      x y z
#    x 1.676640 0.000000 0.006130 
#    y 0.000000 1.693340 0.000000 
#    z 0.006130 0.000000 1.671690 
# 
# From -- ./inp_files/287640.got.cif
#   From: 2010.06.25/outbox.cif.g09.slc.cpg/sg12_144_cif.got.tgz:287640.got - 2010.06.28 00:19:55.
