data_PCOD8086124
_publ_section_title
;
Structure prediction by ZEFSAII (Michael W. Deem and Ramdas Pophale) SiO2 
 PCOD8086124
Probable space group: C 2/M
;
_chemical_formula_sum "Si O2"
_cell_formula_units_Z 56
_cell_length_a 33.885849
_cell_length_b 13.407080
_cell_length_c 9.373306
_cell_angle_alpha 90.000000
_cell_angle_beta 47.131027
_cell_angle_gamma 90.000000
_cell_volume 3121.022177
_symmetry_space_group_name_H-M "C 2/M"
_symmetry_group_IT_number 12
_symmetry_cell_setting 'monoclinic'
loop_
_space_group_symop_operation_xyz
x,y,z
-x,y,-z
-x,-y,-z
x,-y,z
1/2+x,1/2+y,z
1/2-x,1/2+y,-z
1/2-x,1/2-y,-z
1/2+x,1/2-y,z
loop_
_atom_site_type_symbol
_atom_site_label
_atom_site_fract_x
_atom_site_fract_y
_atom_site_fract_z
Si Si1 0.715836 0.387948 0.469177
Si Si2 0.062441 0.882902 0.840854
Si Si3 0.857318 0.793772 0.569438
Si Si4 0.859129 0.190261 0.121276
Si Si5 0.668924 0.111031 0.929064
Si Si6 0.820931 0.112692 0.926044
Si Si7 0.800523 0.384420 0.819015
O O1 0.696677 0.500000 0.554781
O O2 0.691099 0.357875 0.378289
O O3 0.692353 0.313078 0.646117
O O4 0.779594 0.383800 0.300658
O O5 0.087953 0.814991 0.652281
O O6 0.088138 0.851275 0.928940
O O7 0.072440 0.000000 0.785911
O O8 0.000000 0.857091 0.000000
O O9 0.861802 0.828938 0.721915
O O10 0.841580 0.676283 0.614756
O O11 0.870215 0.303399 0.037515
O O12 0.844716 0.119791 0.025200
O O13 0.642698 0.000000 0.983907
O O14 0.685198 0.135821 0.050864
O O15 0.819542 0.000000 0.878212
O O16 0.759897 0.154973 0.065308
O O17 0.807028 0.500000 0.762537
#
# Coordination Sequence:
#
# PCOD8086124 Si02
#       7
#     8   8   8   8   8   8   8
#     4  10  19  31  47  73 112 151 178 205 257 322
#     4  10  23  43  61  77 102 135 173 224 284 330
#     4  11  18  33  56  77 104 148 185 210 261 319
#     4  11  20  33  52  78 106 139 179 225 263 309
#     4  10  19  32  49  75 112 150 181 208 250 311
#     4  11  19  29  51  84 116 143 179 218 253 310
#     4  10  20  32  49  80 120 151 177 209 252 310
#
# _framework density 17.942838999999999
#
# number of rings (size 3 to 8) (size 9 to 14) (size 15 to 20)
#    0.000    1.571    2.857    5.143    0.000    1.143 
#    0.000    6.429    0.000    4.286    0.000    2.000 
#    0.000    0.000    0.000    0.000    0.000    0.000 
#
# Total GULP energy -347079.578842 kJ/mol
# GULP energy per Si atom -12395.699244 kJ/mol
# Density = 1.790200 g / cm^3
# Si number density = 17.942839 Si / 1000 Ang^3
#
#
#
# Elastic Constant Matrix: (Units=GPa)
#
#
# Indices 1 2 3 4 5 6 
#
# 1 82.1984 36.2642 50.3182 0.0000 6.4061 0.0000
# 2 36.2642 105.8175 43.7723 0.0000 -1.6702 0.0000
# 3 50.3182 43.7723 88.0148 0.0000 -1.0332 0.0000
# 4 0.0000 0.0000 0.0000 29.1330 0.0000 6.6616
# 5 6.4061 -1.6702 -1.0332 0.0000 24.3429 0.0000
# 6 0.0000 0.0000 0.0000 6.6616 0.0000 24.3309
#
#
#
# Elastic Compliance Matrix: (Units=1/GPa)
#
#
# Indices 1 2 3 4 5 6 
#
# 1 0.020070 -0.002765 -0.010168 0.000000 -0.005903 0.000000
# 2 -0.002765 0.012287 -0.004513 0.000000 0.001379 0.000000
# 3 -0.010168 -0.004513 0.019457 0.000000 0.003192 0.000000
# 4 0.000000 0.000000 0.000000 0.036618 0.000000 -0.010026
# 5 -0.005903 0.001379 0.003192 0.000000 0.042863 0.000000
# 6 0.000000 0.000000 0.000000 -0.010026 0.000000 0.043845
#
#
# Mechanical properties :
#
#
# Convention : Reuss Voigt Hill
#
# Bulk Modulus (GPa) = 59.10105 59.63778 59.36941
# Shear Modulus (GPa) = 23.18315 25.27311 24.22813
#
# Velocity S-wave (km/s) = 3.59842 3.75712 3.67862
# Velocity P-wave (km/s) = 7.09047 7.22018 7.15562
#
# Compressibility (1/GPa) = 0.01692017
#
# Stress axis : x y z
#
# Youngs Moduli (GPa) = 49.82502 81.38904 51.39514
#
# Poissons Ratio (x) = 0.22505 0.52260
# Poissons Ratio (y) = 0.13777 0.23197
# Poissons Ratio (z) = 0.50663 0.36735
#
# Static dielectric constant tensor:
#      x y z
#    x 3.069390 0.000000 0.236930 
#    y 0.000000 3.514660 0.000000 
#    z 0.236930 0.000000 3.109840 
# 
# 
# High freq. dielectric constant tensor:
#      x y z
#    x 1.664440 0.000000 0.035230 
#    y 0.000000 1.710100 0.000000 
#    z 0.035230 0.000000 1.671310 
# 
# From -- ./inp_files/104421.got.cif
#   From: 2010.06.25/outbox.cif.g09.slc.cpg/sg12_53_cif.got.tgz:104421.got - 2010.06.28 00:19:55.
