data_PCOD8086861
_publ_section_title
;
Structure prediction by ZEFSAII (Michael W. Deem and Ramdas Pophale) SiO2 
 PCOD8086861
Probable space group: C 2/M
;
_chemical_formula_sum "Si O2"
_cell_formula_units_Z 64
_cell_length_a 20.236136
_cell_length_b 8.901807
_cell_length_c 20.013765
_cell_angle_alpha 90.000000
_cell_angle_beta 72.127993
_cell_angle_gamma 90.000000
_cell_volume 3431.270173
_symmetry_space_group_name_H-M "C 2/M"
_symmetry_group_IT_number 12
_symmetry_cell_setting 'monoclinic'
loop_
_space_group_symop_operation_xyz
x,y,z
-x,y,-z
-x,-y,-z
x,-y,z
1/2+x,1/2+y,z
1/2-x,1/2+y,-z
1/2-x,1/2-y,-z
1/2+x,1/2-y,z
loop_
_atom_site_type_symbol
_atom_site_label
_atom_site_fract_x
_atom_site_fract_y
_atom_site_fract_z
Si Si1 0.307292 0.827046 0.299161
Si Si2 0.573919 0.827347 0.504943
Si Si3 0.418006 0.666500 0.014965
Si Si4 0.336894 0.172047 0.652107
Si Si5 0.405467 0.827630 0.147911
Si Si6 0.946405 0.676811 0.730067
Si Si7 0.547918 0.677540 0.138052
Si Si8 0.412933 0.676897 0.361092
O O1 0.227557 0.781045 0.318938
O O2 0.339992 0.801949 0.215990
O O3 0.344081 0.725109 0.343166
O O4 0.313237 0.000000 0.319453
O O5 0.500000 0.771663 0.500000
O O6 0.632548 0.808317 0.431101
O O7 0.596231 0.724401 0.559446
O O8 0.567047 0.000000 0.531028
O O9 0.386492 0.500000 0.034935
O O10 0.383194 0.777141 0.079819
O O11 0.500000 0.661413 0.000000
O O12 0.406772 0.721783 0.941843
O O13 0.394701 0.223093 0.687258
O O14 0.314635 0.000000 0.671837
O O15 0.468434 0.729234 0.155999
O O16 0.429358 0.000000 0.138663
O O17 0.954873 0.500000 0.733778
O O18 0.917372 0.743025 0.808756
O O19 0.021605 0.743859 0.692569
O O20 0.547516 0.500000 0.148323
O O21 0.422660 0.500000 0.353294
#
# Coordination Sequence:
#
# PCOD8086861 Si02
#       8
#     8   8   8   8   8   8   8   8
#     4  11  24  40  58  83 118 154 190 237 285 334
#     4  10  20  40  64  85 115 150 184 234 289 337
#     4   8  16  29  46  74 112 146 182 229 283 332
#     4  10  23  41  62  85 112 150 190 230 286 346
#     4  10  19  31  51  78 110 150 189 230 282 334
#     4  11  21  37  59  85 115 149 190 236 285 337
#     4  10  19  31  51  82 114 147 185 233 284 333
#     4  12  24  37  60  89 115 149 192 234 280 340
#
# _framework density 18.651986000000001
#
# number of rings (size 3 to 8) (size 9 to 14) (size 15 to 20)
#    0.000    1.750    2.500    3.375    0.000    6.500 
#    0.000    0.000    0.000    0.750    0.000    0.000 
#    0.000    0.000    0.000    0.000    0.000    0.000 
#
# Total GULP energy -396862.785038 kJ/mol
# GULP energy per Si atom -12401.962032 kJ/mol
# Density = 1.860953 g / cm^3
# Si number density = 18.651986 Si / 1000 Ang^3
#
#
#
# Elastic Constant Matrix: (Units=GPa)
#
#
# Indices 1 2 3 4 5 6 
#
# 1 53.2114 31.7361 30.0605 0.0000 3.2974 0.0000
# 2 31.7361 92.7158 47.4702 -0.0001 6.9845 -0.0002
# 3 30.0605 47.4702 109.0465 0.0000 19.0937 0.0000
# 4 0.0000 -0.0001 0.0000 34.5259 0.0000 2.7946
# 5 3.2974 6.9845 19.0937 0.0000 28.7997 0.0000
# 6 0.0000 -0.0002 0.0000 2.7946 0.0000 28.2135
#
#
#
# Elastic Compliance Matrix: (Units=1/GPa)
#
#
# Indices 1 2 3 4 5 6 
#
# 1 0.025004 -0.006443 -0.004367 0.000000 0.001595 0.000000
# 2 -0.006443 0.015553 -0.005049 0.000000 0.000313 0.000000
# 3 -0.004367 -0.005049 0.013882 0.000000 -0.007479 0.000000
# 4 0.000000 0.000000 0.000000 0.029198 0.000000 -0.002892
# 5 0.001595 0.000313 -0.007479 0.000000 0.039422 0.000000
# 6 0.000000 0.000000 0.000000 -0.002892 0.000000 0.035731
#
#
# Mechanical properties :
#
#
# Convention : Reuss Voigt Hill
#
# Bulk Modulus (GPa) = 44.01469 52.61192 48.31331
# Shear Modulus (GPa) = 25.24222 28.02161 26.63191
#
# Velocity S-wave (km/s) = 3.68275 3.88021 3.78277
# Velocity P-wave (km/s) = 6.46008 6.95292 6.71102
#
# Compressibility (1/GPa) = 0.02271969
#
# Stress axis : x y z
#
# Youngs Moduli (GPa) = 39.99368 64.29829 72.03638
#
# Poissons Ratio (x) = 0.41426 0.31461
# Poissons Ratio (y) = 0.25767 0.36372
# Poissons Ratio (z) = 0.17467 0.32465
#
# Static dielectric constant tensor:
#      x y z
#    x 3.159160 0.000000 0.310190 
#    y 0.000000 3.477750 0.000000 
#    z 0.310190 0.000000 3.850840 
# 
# 
# High freq. dielectric constant tensor:
#      x y z
#    x 1.688990 0.000000 0.018570 
#    y 0.000000 1.729690 0.000000 
#    z 0.018570 0.000000 1.739530 
# 
# From -- ./inp_files/319862.got.cif
#   From: 2010.06.25/outbox.cif.g09.slc.cpg/sg12_160_cif.got.tgz:319862.got - 2010.06.28 00:19:55.
