data_PCOD8086626
_publ_section_title
;
Structure prediction by ZEFSAII (Michael W. Deem and Ramdas Pophale) SiO2 
 PCOD8086626
Probable space group: C 2/M
;
_chemical_formula_sum "Si O2"
_cell_formula_units_Z 48
_cell_length_a 22.597236
_cell_length_b 8.968236
_cell_length_c 28.868207
_cell_angle_alpha 90.000000
_cell_angle_beta 152.196826
_cell_angle_gamma 90.000000
_cell_volume 2728.813719
_symmetry_space_group_name_H-M "C 2/M"
_symmetry_group_IT_number 12
_symmetry_cell_setting 'monoclinic'
loop_
_space_group_symop_operation_xyz
x,y,z
-x,y,-z
-x,-y,-z
x,-y,z
1/2+x,1/2+y,z
1/2-x,1/2+y,-z
1/2-x,1/2-y,-z
1/2+x,1/2-y,z
loop_
_atom_site_type_symbol
_atom_site_label
_atom_site_fract_x
_atom_site_fract_y
_atom_site_fract_z
Si Si1 0.352204 0.172014 0.399309
Si Si2 0.204127 0.676443 0.814279
Si Si3 0.793710 0.328349 0.463291
Si Si4 0.707731 0.824929 0.218197
Si Si5 0.465243 0.664327 0.029427
Si Si6 0.948659 0.173235 0.646197
O O1 0.500000 0.210339 0.500000
O O2 0.297546 0.208677 0.411988
O O3 0.279617 0.279545 0.314317
O O4 0.328365 0.000000 0.369135
O O5 0.196375 0.500000 0.802160
O O6 0.224346 0.746770 0.777836
O O7 0.075720 0.738782 0.747775
O O8 0.318487 0.718811 0.929040
O O9 0.829551 0.500000 0.497933
O O10 0.896710 0.227622 0.560676
O O11 0.652953 0.291734 0.384087
O O12 0.559706 0.777407 0.120633
O O13 0.714936 0.000000 0.215871
O O14 0.479537 0.500000 0.062104
O O15 0.500000 0.653758 0.000000
O O16 0.980646 0.000000 0.664462
#
# Coordination Sequence:
#
# PCOD8086626 Si02
#       6
#     8   8   8   8   8   8
#     4  10  20  34  52  71  96 133 169 196 230 288
#     4  10  19  32  51  73  98 130 166 200 239 291
#     4   9  19  34  50  71 100 134 166 196 240 293
#     4  11  21  31  48  75 104 129 156 200 250 289
#     4   8  16  31  49  69  95 128 163 197 238 291
#     4  10  19  31  50  75 101 127 160 206 248 283
#
# _framework density 17.590060999999999
#
# number of rings (size 3 to 8) (size 9 to 14) (size 15 to 20)
#    0.000    2.333    0.000    4.500    0.000    6.667 
#    0.000    0.000    0.000    1.000    0.000    0.000 
#    0.000    0.000    0.000    0.000    0.000    0.000 
#
# Total GULP energy -297605.811059 kJ/mol
# GULP energy per Si atom -12400.242127 kJ/mol
# Density = 1.755003 g / cm^3
# Si number density = 17.590061 Si / 1000 Ang^3
#
#
#
# Elastic Constant Matrix: (Units=GPa)
#
#
# Indices 1 2 3 4 5 6 
#
# 1 67.5348 33.7478 45.2534 -0.0001 7.3062 0.0001
# 2 33.7478 97.6725 60.3307 -0.0002 8.3116 0.0004
# 3 45.2534 60.3307 122.6018 -0.0021 19.3563 -0.0003
# 4 -0.0001 -0.0002 -0.0021 28.9729 -0.0005 3.5476
# 5 7.3062 8.3116 19.3563 -0.0005 25.4393 0.0000
# 6 0.0001 0.0004 -0.0003 3.5476 0.0000 23.0237
#
#
#
# Elastic Compliance Matrix: (Units=1/GPa)
#
#
# Indices 1 2 3 4 5 6 
#
# 1 0.020455 -0.003460 -0.005795 0.000000 -0.000335 0.000000
# 2 -0.003460 0.015309 -0.006391 0.000000 0.000855 0.000000
# 3 -0.005795 -0.006391 0.014602 0.000001 -0.007358 0.000000
# 4 0.000000 0.000000 0.000001 0.035179 0.000000 -0.005421
# 5 -0.000335 0.000855 -0.007358 0.000000 0.044725 0.000000
# 6 0.000000 0.000000 0.000000 -0.005421 0.000000 0.044269
#
#
# Mechanical properties :
#
#
# Convention : Reuss Voigt Hill
#
# Bulk Modulus (GPa) = 52.42575 62.94145 57.68360
# Shear Modulus (GPa) = 23.56403 25.38567 24.47485
#
# Velocity S-wave (km/s) = 3.66406 3.80305 3.73420
# Velocity P-wave (km/s) = 6.91153 7.42592 7.17334
#
# Compressibility (1/GPa) = 0.01907459
#
# Stress axis : x y z
#
# Youngs Moduli (GPa) = 48.88707 65.32241 68.48359
#
# Poissons Ratio (x) = 0.22601 0.39685
# Poissons Ratio (y) = 0.16914 0.43769
# Poissons Ratio (z) = 0.28329 0.41748
#
# Static dielectric constant tensor:
#      x y z
#    x 3.105450 0.000000 0.309270 
#    y 0.000000 3.282700 0.000000 
#    z 0.309270 0.000000 3.593940 
# 
# 
# High freq. dielectric constant tensor:
#      x y z
#    x 1.649430 0.000000 0.018740 
#    y 0.000000 1.683490 0.000000 
#    z 0.018740 0.000000 1.686320 
# 
# From -- ./inp_files/249353.got.cif
#   From: 2010.06.25/outbox.cif.g09.slc.cpg/sg12_125_cif.got.tgz:249353.got - 2010.06.28 00:19:55.
