data_PCOD8086078
_publ_section_title
;
Structure prediction by ZEFSAII (Michael W. Deem and Ramdas Pophale) SiO2 
 PCOD8086078
Probable space group: C 2/M
;
_chemical_formula_sum "Si O2"
_cell_formula_units_Z 64
_cell_length_a 23.437589
_cell_length_b 9.543677
_cell_length_c 17.481050
_cell_angle_alpha 90.000000
_cell_angle_beta 69.472436
_cell_angle_gamma 90.000000
_cell_volume 3661.892863
_symmetry_space_group_name_H-M "C 2/M"
_symmetry_group_IT_number 12
_symmetry_cell_setting 'monoclinic'
loop_
_space_group_symop_operation_xyz
x,y,z
-x,y,-z
-x,-y,-z
x,-y,z
1/2+x,1/2+y,z
1/2-x,1/2+y,-z
1/2-x,1/2-y,-z
1/2+x,1/2-y,z
loop_
_atom_site_type_symbol
_atom_site_label
_atom_site_fract_x
_atom_site_fract_y
_atom_site_fract_z
Si Si1 0.872811 0.838692 0.868926
Si Si2 0.519661 0.338863 0.289470
Si Si3 0.238790 0.158387 0.187243
Si Si4 0.695014 0.838052 0.991842
Si Si5 0.660234 0.158741 0.475072
Si Si6 0.449886 0.159744 0.582229
Si Si7 0.268752 0.662773 0.320023
Si Si8 0.618353 0.663345 0.637704
O O1 0.940933 0.814579 0.805548
O O2 0.823058 0.797145 0.827737
O O3 0.862278 0.000000 0.898598
O O4 0.865677 0.737975 0.946814
O O5 0.522815 0.500000 0.313735
O O6 0.549883 0.249307 0.341634
O O7 0.450046 0.292693 0.306373
O O8 0.297793 0.170625 0.103398
O O9 0.249261 0.255520 0.254336
O O10 0.231926 0.000000 0.220314
O O11 0.696988 0.000000 0.017966
O O12 0.750000 0.750000 0.000000
O O13 0.616288 0.173383 0.423041
O O14 0.726610 0.202416 0.412688
O O15 0.638808 0.258308 0.552195
O O16 0.659800 0.000000 0.506776
O O17 0.500000 0.219927 0.500000
O O18 0.466361 0.000000 0.595745
O O19 0.261327 0.500000 0.303716
O O20 0.337677 0.701712 0.312018
O O21 0.623176 0.500000 0.616237
#
# Coordination Sequence:
#
# PCOD8086078 Si02
#       8
#     8   8   8   8   8   8   8   8
#     4   9  18  32  50  76 104 128 158 197 240 291
#     4  10  20  33  50  71  98 130 164 201 243 290
#     4   9  18  32  50  74 101 124 153 193 237 286
#     4   9  17  30  50  77 106 131 156 192 238 291
#     4  10  20  34  50  69  94 125 162 205 248 289
#     4  10  19  31  47  69  97 125 158 200 244 294
#     4  10  21  34  49  70  95 125 165 206 242 284
#     4  10  21  35  49  68  94 127 167 207 242 283
#
# _framework density 17.477301000000001
#
# number of rings (size 3 to 8) (size 9 to 14) (size 15 to 20)
#    0.000    2.375    1.250    2.250    0.000    4.750 
#    0.000    0.000    0.000    0.750    0.000    5.250 
#    0.000    0.000    0.000    0.000    0.000    0.000 
#
# Total GULP energy -396733.401138 kJ/mol
# GULP energy per Si atom -12397.918786 kJ/mol
# Density = 1.743752 g / cm^3
# Si number density = 17.477301 Si / 1000 Ang^3
#
#
#
# Elastic Constant Matrix: (Units=GPa)
#
#
# Indices 1 2 3 4 5 6 
#
# 1 82.1995 32.4036 42.0620 0.0000 -13.4687 0.0000
# 2 32.4036 67.9541 43.8513 0.0000 -9.9642 0.0000
# 3 42.0620 43.8513 74.9687 0.0000 -19.3192 0.0000
# 4 0.0000 0.0000 0.0000 36.0648 0.0000 -3.0449
# 5 -13.4687 -9.9642 -19.3192 0.0000 18.1767 0.0000
# 6 0.0000 0.0000 0.0000 -3.0449 0.0000 17.0454
#
#
#
# Elastic Compliance Matrix: (Units=1/GPa)
#
#
# Indices 1 2 3 4 5 6 
#
# 1 0.017689 -0.003384 -0.006949 0.000000 0.003867 0.000000
# 2 -0.003384 0.024361 -0.013160 0.000000 -0.003140 0.000000
# 3 -0.006949 -0.013160 0.029954 0.000000 0.019473 0.000000
# 4 0.000000 0.000000 0.000000 0.028152 0.000000 0.005029
# 5 0.003867 -0.003140 0.019473 0.000000 0.076856 0.000000
# 6 0.000000 0.000000 0.000000 0.005029 0.000000 0.059565
#
#
# Mechanical properties :
#
#
# Convention : Reuss Voigt Hill
#
# Bulk Modulus (GPa) = 39.97148 51.30623 45.63886
# Shear Modulus (GPa) = 17.12900 21.37775 19.25338
#
# Velocity S-wave (km/s) = 3.13401 3.50118 3.32267
# Velocity P-wave (km/s) = 6.00135 6.76491 6.39454
#
# Compressibility (1/GPa) = 0.02501784
#
# Stress axis : x y z
#
# Youngs Moduli (GPa) = 56.53329 41.04850 33.38493
#
# Poissons Ratio (x) = 0.13890 0.23198
# Poissons Ratio (y) = 0.19129 0.43936
# Poissons Ratio (z) = 0.39284 0.54022
#
# Static dielectric constant tensor:
#      x y z
#    x 3.352550 0.000000 -0.339050 
#    y 0.000000 3.348650 0.000000 
#    z -0.339050 0.000000 3.289690 
# 
# 
# High freq. dielectric constant tensor:
#      x y z
#    x 1.661380 0.000000 -0.021470 
#    y 0.000000 1.678550 0.000000 
#    z -0.021470 0.000000 1.664030 
# 
# From -- ./inp_files/287537.got.cif
#   From: 2010.06.25/outbox.cif.g09.slc.cpg/sg12_144_cif.got.tgz:287537.got - 2010.06.28 00:19:55.
