data_PCOD8086081
_publ_section_title
;
Structure prediction by ZEFSAII (Michael W. Deem and Ramdas Pophale) SiO2 
 PCOD8086081
Probable space group: C 2/M
;
_chemical_formula_sum "Si O2"
_cell_formula_units_Z 56
_cell_length_a 5.129757
_cell_length_b 17.137597
_cell_length_c 35.500713
_cell_angle_alpha 90.000000
_cell_angle_beta 106.814182
_cell_angle_gamma 90.000000
_cell_volume 2987.502164
_symmetry_space_group_name_H-M "C 2/M"
_symmetry_group_IT_number 12
_symmetry_cell_setting 'monoclinic'
loop_
_space_group_symop_operation_xyz
x,y,z
-x,y,-z
-x,-y,-z
x,-y,z
1/2+x,1/2+y,z
1/2-x,1/2+y,-z
1/2-x,1/2-y,-z
1/2+x,1/2-y,z
loop_
_atom_site_type_symbol
_atom_site_label
_atom_site_fract_x
_atom_site_fract_y
_atom_site_fract_z
Si Si1 0.974901 0.092708 0.611628
Si Si2 0.796344 0.093134 0.523158
Si Si3 0.319037 0.802356 0.267034
Si Si4 0.299581 0.408169 0.024409
Si Si5 0.930353 0.592613 0.341004
Si Si6 0.946114 0.201723 0.817407
Si Si7 0.983865 0.802108 0.098344
O O1 0.273509 0.123096 0.634546
O O2 0.885001 0.126842 0.567445
O O3 0.770687 0.123038 0.634991
O O4 0.970594 0.000000 0.609535
O O5 0.500000 0.125118 0.500000
O O6 0.000000 0.125085 0.500000
O O7 0.798365 0.000000 0.524205
O O8 0.614764 0.765258 0.272345
O O9 0.341831 0.871100 0.297905
O O10 0.201635 0.842661 0.223568
O O11 0.318337 0.500000 0.031545
O O12 0.378230 0.369227 0.066830
O O13 0.500000 0.379521 0.000000
O O14 0.000000 0.381170 0.000000
O O15 0.920952 0.500000 0.335957
O O16 0.752541 0.277104 0.817464
O O17 0.961937 0.157076 0.858325
O O18 0.760997 0.733774 0.093356
#
# Coordination Sequence:
#
# PCOD8086081 Si02
#       7
#     8   8   8   8   8   8   8
#     4   9  17  28  42  63  95 128 152 187 240 283
#     4   9  15  23  37  58  86 120 154 185 224 278
#     4  10  19  33  52  72  96 126 161 196 234 282
#     4  10  21  35  49  69 101 135 162 195 243 289
#     4  10  19  31  47  69  98 127 154 189 237 284
#     4   8  16  30  48  70  95 122 152 195 244 281
#     4  10  19  32  52  75  96 122 162 204 240 282
#
# _framework density 18.744758000000001
#
# number of rings (size 3 to 8) (size 9 to 14) (size 15 to 20)
#    0.000    2.571    0.000    2.571    0.000    5.143 
#    0.000    0.714    0.000    0.000    0.000   18.000 
#    0.000   40.000    0.000    0.000    0.000    0.000 
#
# Total GULP energy -347063.480639 kJ/mol
# GULP energy per Si atom -12395.124309 kJ/mol
# Density = 1.870209 g / cm^3
# Si number density = 18.744758 Si / 1000 Ang^3
#
#
#
# Elastic Constant Matrix: (Units=GPa)
#
#
# Indices 1 2 3 4 5 6 
#
# 1 141.5285 15.0026 63.4811 0.0000 -1.0275 0.0000
# 2 15.0026 19.2150 40.1472 0.0000 0.7220 0.0000
# 3 63.4811 40.1472 211.4395 0.0000 1.6102 0.0000
# 4 0.0000 0.0000 0.0000 26.4456 0.0000 -1.2999
# 5 -1.0275 0.7220 1.6102 0.0000 30.8724 0.0000
# 6 0.0000 0.0000 0.0000 -1.2999 0.0000 2.1532
#
#
#
# Elastic Compliance Matrix: (Units=1/GPa)
#
#
# Indices 1 2 3 4 5 6 
#
# 1 0.008221 -0.002107 -0.002072 0.000000 0.000431 0.000000
# 2 -0.002107 0.086848 -0.015848 0.000000 -0.001275 0.000000
# 3 -0.002072 -0.015848 0.008362 0.000000 -0.000134 0.000000
# 4 0.000000 0.000000 0.000000 0.038970 0.000000 0.023526
# 5 0.000431 -0.001275 -0.000134 0.000000 0.032443 0.000000
# 6 0.000000 0.000000 0.000000 0.023526 0.000000 0.478621
#
#
# Mechanical properties :
#
#
# Convention : Reuss Voigt Hill
#
# Bulk Modulus (GPa) = 15.77844 67.71607 41.74725
# Shear Modulus (GPa) = 6.99650 28.79774 17.89712
#
# Velocity S-wave (km/s) = 1.93407 3.92383 3.09330
# Velocity P-wave (km/s) = 3.66378 7.53209 5.92265
#
# Compressibility (1/GPa) = 0.06337764
#
# Stress axis : x y z
#
# Youngs Moduli (GPa) = 121.63434 11.51441 119.59450
#
# Poissons Ratio (x) = 0.02426 0.24774
# Poissons Ratio (y) = 0.25629 1.89533
# Poissons Ratio (z) = 0.25197 0.18248
#
# Static dielectric constant tensor:
#      x y z
#    x 3.601360 0.000000 -0.013330 
#    y 0.000000 2.704850 0.000000 
#    z -0.013330 0.000000 3.844870 
# 
# 
# High freq. dielectric constant tensor:
#      x y z
#    x 1.753770 0.000000 0.000030 
#    y 0.000000 1.650910 0.000000 
#    z 0.000030 0.000000 1.754790 
# 
# From -- ./inp_files/371569.got.cif
#   From: 2010.06.25/outbox.cif.g09.slc.cpg/sg12_186_cif.got.tgz:371569.got - 2010.06.28 00:19:55.
