data_PCOD8086136
_publ_section_title
;
Structure prediction by ZEFSAII (Michael W. Deem and Ramdas Pophale) SiO2 
 PCOD8086136
Probable space group: C 2/M
;
_chemical_formula_sum "Si O2"
_cell_formula_units_Z 56
_cell_length_a 28.771092
_cell_length_b 9.260534
_cell_length_c 14.642059
_cell_angle_alpha 90.000000
_cell_angle_beta 59.398663
_cell_angle_gamma 90.000000
_cell_volume 3357.851950
_symmetry_space_group_name_H-M "C 2/M"
_symmetry_group_IT_number 12
_symmetry_cell_setting 'monoclinic'
loop_
_space_group_symop_operation_xyz
x,y,z
-x,y,-z
-x,-y,-z
x,-y,z
1/2+x,1/2+y,z
1/2-x,1/2+y,-z
1/2-x,1/2-y,-z
1/2+x,1/2-y,z
loop_
_atom_site_type_symbol
_atom_site_label
_atom_site_fract_x
_atom_site_fract_y
_atom_site_fract_z
Si Si1 0.607975 0.167813 0.545709
Si Si2 0.007208 0.669044 0.390582
Si Si3 0.661605 0.661956 0.334387
Si Si4 0.198401 0.327496 0.595046
Si Si5 0.877963 0.333341 0.786630
Si Si6 0.294275 0.831412 0.015815
Si Si7 0.714982 0.838822 0.774813
O O1 0.544331 0.202505 0.623201
O O2 0.623451 0.252283 0.440005
O O3 0.643810 0.216791 0.596093
O O4 0.617589 0.000000 0.515848
O O5 0.014346 0.500000 0.396095
O O6 0.000000 0.736946 0.500000
O O7 0.060814 0.727682 0.285201
O O8 0.639359 0.500000 0.346495
O O9 0.661491 0.740228 0.237217
O O10 0.721877 0.662454 0.311659
O O11 0.208527 0.500000 0.583209
O O12 0.250000 0.250000 0.500000
O O13 0.188705 0.270605 0.709195
O O14 0.874569 0.500000 0.759863
O O15 0.854177 0.314460 0.912529
O O16 0.297356 0.762032 0.115399
O O17 0.276645 0.000000 0.038943
O O18 0.250000 0.750000 0.000000
O O19 0.692199 0.000000 0.807662
#
# Coordination Sequence:
#
# PCOD8086136 Si02
#       7
#     8   8   8   8   8   8   8
#     4  10  19  31  48  68  92 125 161 189 221 276
#     4   9  16  28  46  67  93 121 152 195 233 262
#     4  11  19  28  46  69  99 126 148 186 235 278
#     4  10  19  31  48  68  92 122 154 186 229 277
#     4  10  19  31  48  68  92 125 161 189 221 276
#     4  10  19  31  48  68  92 122 154 186 229 277
#     4   9  18  31  44  65  97 125 142 181 238 273
#
# _framework density 16.677329
#
# number of rings (size 3 to 8) (size 9 to 14) (size 15 to 20)
#    0.000    2.143    4.286    0.429    0.000    0.000 
#    0.000    2.143    0.000    0.857    0.000    6.000 
#    0.000    0.000    0.000    5.143    0.000    5.714 
#
# Total GULP energy -346934.540841 kJ/mol
# GULP energy per Si atom -12390.519316 kJ/mol
# Density = 1.663937 g / cm^3
# Si number density = 16.677329 Si / 1000 Ang^3
#
#
#
# Elastic Constant Matrix: (Units=GPa)
#
#
# Indices 1 2 3 4 5 6 
#
# 1 103.4554 20.0915 52.9220 0.0000 7.6476 0.0000
# 2 20.0915 33.6710 17.3196 0.0000 3.7299 0.0000
# 3 52.9220 17.3196 114.4681 0.0000 8.8594 0.0000
# 4 0.0000 0.0000 0.0000 14.6430 0.0000 0.3809
# 5 7.6476 3.7299 8.8594 0.0000 29.6470 0.0000
# 6 0.0000 0.0000 0.0000 0.3809 0.0000 15.5521
#
#
#
# Elastic Compliance Matrix: (Units=1/GPa)
#
#
# Indices 1 2 3 4 5 6 
#
# 1 0.013505 -0.005161 -0.005368 0.000000 -0.001230 0.000000
# 2 -0.005161 0.034384 -0.002646 0.000000 -0.002204 0.000000
# 3 -0.005368 -0.002646 0.011757 0.000000 -0.001796 0.000000
# 4 0.000000 0.000000 0.000000 0.068335 0.000000 -0.001673
# 5 -0.001230 -0.002204 -0.001796 0.000000 0.034861 0.000000
# 6 0.000000 0.000000 0.000000 -0.001673 0.000000 0.064341
#
#
# Mechanical properties :
#
#
# Convention : Reuss Voigt Hill
#
# Bulk Modulus (GPa) = 30.03291 48.02897 39.03094
# Shear Modulus (GPa) = 18.89417 22.71919 20.80668
#
# Velocity S-wave (km/s) = 3.36955 3.69491 3.53597
# Velocity P-wave (km/s) = 5.76071 6.86037 6.33445
#
# Compressibility (1/GPa) = 0.03329681
#
# Stress axis : x y z
#
# Youngs Moduli (GPa) = 74.04625 29.08343 85.05572
#
# Poissons Ratio (x) = 0.15010 0.45655
# Poissons Ratio (y) = 0.38217 0.22503
# Poissons Ratio (z) = 0.39746 0.07695
#
# Static dielectric constant tensor:
#      x y z
#    x 3.242420 0.000000 0.039050 
#    y 0.000000 2.967730 0.000000 
#    z 0.039050 0.000000 3.338160 
# 
# 
# High freq. dielectric constant tensor:
#      x y z
#    x 1.632600 0.000000 0.002510 
#    y 0.000000 1.614360 0.000000 
#    z 0.002510 0.000000 1.637680 
# 
# From -- ./inp_files/243071.got.cif
#   From: 2010.06.25/outbox.cif.g09.slc.cpg/sg12_122_cif.got.tgz:243071.got - 2010.06.28 00:19:55.
