data_PCOD8086955
_publ_section_title
;
Structure prediction by ZEFSAII (Michael W. Deem and Ramdas Pophale) SiO2 
 PCOD8086955
Probable space group: C 2/M
;
_chemical_formula_sum "Si O2"
_cell_formula_units_Z 60
_cell_length_a 30.835902
_cell_length_b 9.208412
_cell_length_c 12.072768
_cell_angle_alpha 90.000000
_cell_angle_beta 64.192915
_cell_angle_gamma 90.000000
_cell_volume 3086.161106
_symmetry_space_group_name_H-M "C 2/M"
_symmetry_group_IT_number 12
_symmetry_cell_setting 'monoclinic'
loop_
_space_group_symop_operation_xyz
x,y,z
-x,y,-z
-x,-y,-z
x,-y,z
1/2+x,1/2+y,z
1/2-x,1/2+y,-z
1/2-x,1/2-y,-z
1/2+x,1/2-y,z
loop_
_atom_site_type_symbol
_atom_site_label
_atom_site_fract_x
_atom_site_fract_y
_atom_site_fract_z
Si Si1 0.003095 0.344461 0.245001
Si Si2 0.356604 0.327755 0.691819
Si Si3 0.715499 0.168656 0.383658
Si Si4 0.308770 0.167314 0.341457
Si Si5 0.956157 0.829275 0.471948
Si Si6 0.388071 0.168168 0.862315
Si Si7 0.397746 0.829044 0.096555
Si Si8 0.500000 0.795374 0.000000
O O1 0.996330 0.500000 0.311455
O O2 0.963622 0.236209 0.340761
O O3 0.996073 0.375500 0.122282
O O4 0.056310 0.283452 0.210872
O O5 0.351120 0.500000 0.699155
O O6 0.311707 0.258543 0.679396
O O7 0.405686 0.275641 0.577849
O O8 0.356219 0.268606 0.817753
O O9 0.688515 0.193243 0.530279
O O10 0.769584 0.228490 0.329855
O O11 0.717156 0.000000 0.349127
O O12 0.360666 0.210259 0.234660
O O13 0.295720 0.000000 0.328877
O O14 0.000000 0.774142 0.500000
O O15 0.956656 0.000000 0.458949
O O16 0.380834 0.000000 0.837964
O O17 0.371730 0.196751 0.007364
O O18 0.445902 0.724219 0.053775
O O19 0.414318 0.000000 0.084636
#
# Coordination Sequence:
#
# PCOD8086955 Si02
#       8
#     8   8   8   8   8   8   8   4
#     4  10  19  31  52  78 108 145 185 227 265 316
#     4  11  22  36  55  77 107 146 185 228 276 328
#     4  10  21  37  59  86 112 138 179 233 277 324
#     4   9  19  37  60  84 112 146 179 217 277 334
#     4  10  21  36  51  72 108 150 186 223 273 327
#     4   9  18  33  52  78 109 141 180 226 270 314
#     4   9  17  32  55  82 113 148 182 221 269 325
#     4  10  19  32  53  86 121 148 181 224 269 318
#
# _framework density 19.44163
#
# number of rings (size 3 to 8) (size 9 to 14) (size 15 to 20)
#    0.000    2.267    1.333    2.800    1.867    1.867 
#    0.000    1.667    0.000    1.600    0.000    0.000 
#    0.000    0.000    0.000    0.000    0.000    0.000 
#
# Total GULP energy -371646.070770 kJ/mol
# GULP energy per Si atom -12388.202359 kJ/mol
# Density = 1.939738 g / cm^3
# Si number density = 19.441630 Si / 1000 Ang^3
#
#
#
# Elastic Constant Matrix: (Units=GPa)
#
#
# Indices 1 2 3 4 5 6 
#
# 1 103.9515 36.9660 48.3883 0.0000 12.5900 0.0000
# 2 36.9660 54.4783 27.4818 0.0000 6.3829 0.0000
# 3 48.3883 27.4818 99.3978 0.0000 -2.9840 0.0000
# 4 0.0000 0.0000 0.0000 14.7724 0.0000 -2.7446
# 5 12.5900 6.3829 -2.9840 0.0000 32.3018 0.0000
# 6 0.0000 0.0000 0.0000 -2.7446 0.0000 19.4961
#
#
#
# Elastic Compliance Matrix: (Units=1/GPa)
#
#
# Indices 1 2 3 4 5 6 
#
# 1 0.015375 -0.006944 -0.005720 0.000000 -0.005149 0.000000
# 2 -0.006944 0.025228 -0.003673 0.000000 -0.002618 0.000000
# 3 -0.005720 -0.003673 0.013988 0.000000 0.004247 0.000000
# 4 0.000000 0.000000 0.000000 0.069512 0.000000 0.009786
# 5 -0.005149 -0.002618 0.004247 0.000000 0.033874 0.000000
# 6 0.000000 0.000000 0.000000 0.009786 0.000000 0.052670
#
#
# Mechanical properties :
#
#
# Convention : Reuss Voigt Hill
#
# Bulk Modulus (GPa) = 45.62639 53.72221 49.67430
# Shear Modulus (GPa) = 19.95000 22.98015 21.46507
#
# Velocity S-wave (km/s) = 3.20683 3.44176 3.32637
# Velocity P-wave (km/s) = 6.10172 6.59446 6.35287
#
# Compressibility (1/GPa) = 0.02191714
#
# Stress axis : x y z
#
# Youngs Moduli (GPa) = 65.03924 39.63924 71.49011
#
# Poissons Ratio (x) = 0.27527 0.40889
# Poissons Ratio (y) = 0.45166 0.26258
# Poissons Ratio (z) = 0.37199 0.14559
#
# Static dielectric constant tensor:
#      x y z
#    x 3.501260 0.000000 0.054120 
#    y 0.000000 3.216720 0.000000 
#    z 0.054120 0.000000 3.584980 
# 
# 
# High freq. dielectric constant tensor:
#      x y z
#    x 1.750450 0.000000 0.008380 
#    y 0.000000 1.726010 0.000000 
#    z 0.008380 0.000000 1.759760 
# 
# From -- ./inp_files/187361.got.cif
#   From: 2010.06.25/outbox.cif.g09.slc.cpg/sg12_94_cif.got.tgz:187361.got - 2010.06.28 00:19:55.
