data_PCOD8086340
_publ_section_title
;
Structure prediction by ZEFSAII (Michael W. Deem and Ramdas Pophale) SiO2 
 PCOD8086340
Probable space group: C 2/M
;
_chemical_formula_sum "Si O2"
_cell_formula_units_Z 64
_cell_length_a 18.118934
_cell_length_b 9.119591
_cell_length_c 24.570014
_cell_angle_alpha 90.000000
_cell_angle_beta 57.471688
_cell_angle_gamma 90.000000
_cell_volume 3422.991412
_symmetry_space_group_name_H-M "C 2/M"
_symmetry_group_IT_number 12
_symmetry_cell_setting 'monoclinic'
loop_
_space_group_symop_operation_xyz
x,y,z
-x,y,-z
-x,-y,-z
x,-y,z
1/2+x,1/2+y,z
1/2-x,1/2+y,-z
1/2-x,1/2-y,-z
1/2+x,1/2-y,z
loop_
_atom_site_type_symbol
_atom_site_label
_atom_site_fract_x
_atom_site_fract_y
_atom_site_fract_z
Si Si1 0.745984 0.671051 0.558648
Si Si2 0.902560 0.828641 0.682565
Si Si3 0.570835 0.329103 0.686524
Si Si4 0.789549 0.334095 0.064488
Si Si5 0.411131 0.830552 0.566339
Si Si6 0.884231 0.834197 0.938609
Si Si7 0.195117 0.665779 0.189749
Si Si8 0.521801 0.165403 0.186461
O O1 0.737528 0.500000 0.550106
O O2 0.750000 0.750000 0.500000
O O3 0.662171 0.726494 0.625694
O O4 0.832273 0.710176 0.557835
O O5 0.904411 0.772591 0.620757
O O6 0.825155 0.746701 0.745579
O O7 0.996039 0.793321 0.672298
O O8 0.881659 0.000000 0.691986
O O9 0.572509 0.500000 0.700662
O O10 0.555132 0.241870 0.748700
O O11 0.819454 0.500000 0.064847
O O12 0.702349 0.333881 0.063350
O O13 0.772847 0.250917 0.127994
O O14 0.866746 0.251061 0.001787
O O15 0.500000 0.793962 0.500000
O O16 0.407625 0.000000 0.586200
O O17 0.962783 0.753720 0.875536
O O18 0.913040 0.000000 0.940463
O O19 0.225564 0.500000 0.189795
O O20 0.109824 0.667084 0.186311
O O21 0.493656 0.000000 0.183365
#
# Coordination Sequence:
#
# PCOD8086340 Si02
#       8
#     8   8   8   8   8   8   8   8
#     4  10  21  36  54  75  99 127 159 196 238 285
#     4  10  19  31  49  71  95 125 161 200 241 286
#     4   9  18  32  48  68  95 126 160 198 241 288
#     4   9  15  22  33  52  81 117 158 200 239 283
#     4  10  21  36  53  74 100 128 158 194 238 287
#     4   9  15  22  33  51  80 119 158 196 240 287
#     4   9  16  26  40  59  86 120 157 196 240 289
#     4   9  16  25  39  60  85 117 157 198 240 286
#
# _framework density 18.697095999999998
#
# number of rings (size 3 to 8) (size 9 to 14) (size 15 to 20)
#    0.000    2.625    0.000    2.625    0.000    7.750 
#    0.000    0.000    0.000    0.000    0.000    0.000 
#    0.000    1.000    0.000   10.750    0.000   15.500 
#
# Total GULP energy -396842.023075 kJ/mol
# GULP energy per Si atom -12401.313221 kJ/mol
# Density = 1.865454 g / cm^3
# Si number density = 18.697096 Si / 1000 Ang^3
#
#
#
# Elastic Constant Matrix: (Units=GPa)
#
#
# Indices 1 2 3 4 5 6 
#
# 1 41.7090 33.3506 48.4114 0.0001 -4.3683 0.0003
# 2 33.3506 141.6934 97.2976 0.0002 -1.2399 0.0005
# 3 48.4114 97.2976 191.6086 0.0000 -10.2480 0.0000
# 4 0.0001 0.0002 0.0000 45.4469 0.0000 3.9300
# 5 -4.3683 -1.2399 -10.2480 0.0000 15.4071 0.0001
# 6 0.0003 0.0005 0.0000 3.9300 0.0001 12.2631
#
#
#
# Elastic Compliance Matrix: (Units=1/GPa)
#
#
# Indices 1 2 3 4 5 6 
#
# 1 0.035301 -0.003576 -0.006826 0.000000 0.005181 -0.000001
# 2 -0.003576 0.011324 -0.005031 0.000000 -0.003449 0.000000
# 3 -0.006826 -0.005031 0.009719 0.000000 0.004124 0.000000
# 4 0.000000 0.000000 0.000000 0.022631 0.000000 -0.007253
# 5 0.005181 -0.003449 0.004124 0.000000 0.068840 0.000000
# 6 -0.000001 0.000000 0.000000 -0.007253 0.000000 0.083870
#
#
# Mechanical properties :
#
#
# Convention : Reuss Voigt Hill
#
# Bulk Modulus (GPa) = 39.25129 81.45891 60.35510
# Shear Modulus (GPa) = 18.44729 27.68683 23.06706
#
# Velocity S-wave (km/s) = 3.14449 3.85230 3.51625
# Velocity P-wave (km/s) = 5.85001 7.96550 6.98827
#
# Compressibility (1/GPa) = 0.02547687
#
# Stress axis : x y z
#
# Youngs Moduli (GPa) = 28.32819 88.30998 102.89241
#
# Poissons Ratio (x) = 0.31582 0.70233
# Poissons Ratio (y) = 0.10131 0.51765
# Poissons Ratio (z) = 0.19336 0.44429
#
# Static dielectric constant tensor:
#      x y z
#    x 2.899830 0.000000 -0.128090 
#    y 0.000000 3.559210 0.000000 
#    z -0.128090 0.000000 3.653040 
# 
# 
# High freq. dielectric constant tensor:
#      x y z
#    x 1.662030 0.000000 -0.003570 
#    y 0.000000 1.736020 0.000000 
#    z -0.003570 0.000000 1.745050 
# 
# From -- ./inp_files/346084.got.cif
#   From: 2010.06.25/outbox.cif.g09.slc.cpg/sg12_174_cif.got.tgz:346084.got - 2010.06.28 00:19:55.
