data_PCOD8086185
_publ_section_title
;
Structure prediction by ZEFSAII (Michael W. Deem and Ramdas Pophale) SiO2 
 PCOD8086185
Probable space group: C 2/M
;
_chemical_formula_sum "Si O2"
_cell_formula_units_Z 64
_cell_length_a 28.679632
_cell_length_b 8.854723
_cell_length_c 20.660918
_cell_angle_alpha 90.000000
_cell_angle_beta 48.125612
_cell_angle_gamma 90.000000
_cell_volume 3906.852670
_symmetry_space_group_name_H-M "C 2/M"
_symmetry_group_IT_number 12
_symmetry_cell_setting 'monoclinic'
loop_
_space_group_symop_operation_xyz
x,y,z
-x,y,-z
-x,-y,-z
x,-y,z
1/2+x,1/2+y,z
1/2-x,1/2+y,-z
1/2-x,1/2-y,-z
1/2+x,1/2-y,z
loop_
_atom_site_type_symbol
_atom_site_label
_atom_site_fract_x
_atom_site_fract_y
_atom_site_fract_z
Si Si1 0.003147 0.321496 0.100682
Si Si2 0.207489 0.179549 0.984358
Si Si3 0.430815 0.322647 0.848203
Si Si4 0.403646 0.821636 0.094906
Si Si5 0.853930 0.321253 0.671358
Si Si6 0.729523 0.179401 0.826410
Si Si7 0.545193 0.833680 0.519037
Si Si8 0.053775 0.822804 0.312943
O O1 0.006354 0.500000 0.105830
O O2 0.013297 0.248195 0.161262
O O3 0.936052 0.269729 0.132415
O O4 0.057305 0.259492 0.002506
O O5 0.231252 0.243744 0.894586
O O6 0.214238 0.000000 0.979040
O O7 0.250000 0.250000 0.000000
O O8 0.136293 0.231748 0.062917
O O9 0.437339 0.500000 0.846371
O O10 0.439333 0.267884 0.766922
O O11 0.332102 0.766845 0.155988
O O12 0.407833 0.000000 0.087424
O O13 0.844811 0.500000 0.686730
O O14 0.787863 0.236656 0.730626
O O15 0.887816 0.279868 0.571679
O O16 0.894046 0.265266 0.695130
O O17 0.731920 0.000000 0.833137
O O18 0.500000 0.844686 0.500000
O O19 0.516605 0.717627 0.597653
O O20 0.550982 0.000000 0.545738
O O21 0.065517 0.000000 0.310094
#
# Coordination Sequence:
#
# PCOD8086185 Si02
#       8
#     8   8   8   8   8   8   8   8
#     4   9  16  31  52  69  88 120 158 194 235 281
#     4  11  22  34  46  63  94 132 166 194 226 272
#     4  10  21  33  44  67  98 124 154 195 235 275
#     4   8  16  30  49  71  92 116 154 200 237 276
#     4  10  20  33  48  69  97 127 160 196 235 282
#     4  11  20  32  49  70  95 124 159 197 236 277
#     4   8  16  31  48  67  93 122 155 197 238 279
#     4  10  19  31  48  70  97 127 160 197 236 279
#
# _framework density 16.381473
#
# number of rings (size 3 to 8) (size 9 to 14) (size 15 to 20)
#    0.000    2.375    1.250    3.750    0.000    5.250 
#    0.000    2.500    0.000    0.000    0.000    0.875 
#    0.000    0.000    0.000    0.000    0.000    0.000 
#
# Total GULP energy -396688.579927 kJ/mol
# GULP energy per Si atom -12396.518123 kJ/mol
# Density = 1.634419 g / cm^3
# Si number density = 16.381473 Si / 1000 Ang^3
#
#
#
# Elastic Constant Matrix: (Units=GPa)
#
#
# Indices 1 2 3 4 5 6 
#
# 1 98.7702 27.4765 33.3205 -0.0035 -14.7633 0.0282
# 2 27.4765 47.1914 23.7506 0.0381 -4.5287 -0.0030
# 3 33.3205 23.7506 83.0254 0.0204 -19.1070 0.0124
# 4 -0.0035 0.0381 0.0204 26.5490 -0.0032 0.5142
# 5 -14.7633 -4.5287 -19.1070 -0.0032 17.8017 0.0102
# 6 0.0282 -0.0030 0.0124 0.5142 0.0102 22.0958
#
#
#
# Elastic Compliance Matrix: (Units=1/GPa)
#
#
# Indices 1 2 3 4 5 6 
#
# 1 0.013659 -0.006245 -0.001931 0.000014 0.007667 -0.000021
# 2 -0.006245 0.027650 -0.006609 -0.000036 -0.005239 0.000019
# 3 -0.001931 -0.006609 0.018532 -0.000003 0.016609 -0.000016
# 4 0.000014 -0.000036 -0.000003 0.037683 0.000006 -0.000877
# 5 0.007667 -0.005239 0.016609 0.000006 0.079026 -0.000056
# 6 -0.000021 0.000019 -0.000016 -0.000877 -0.000056 0.045278
#
#
# Mechanical properties :
#
#
# Convention : Reuss Voigt Hill
#
# Bulk Modulus (GPa) = 33.03481 44.23135 38.63308
# Shear Modulus (GPa) = 19.12121 22.91859 21.01990
#
# Velocity S-wave (km/s) = 3.42020 3.74445 3.58600
# Velocity P-wave (km/s) = 5.98388 6.76417 6.38595
#
# Compressibility (1/GPa) = 0.03027110
#
# Stress axis : x y z
#
# Youngs Moduli (GPa) = 73.21054 36.16634 53.96009
#
# Poissons Ratio (x) = 0.22587 0.10419
# Poissons Ratio (y) = 0.45723 0.35662
# Poissons Ratio (z) = 0.14136 0.23902
#
# Static dielectric constant tensor:
#      x y z
#    x 2.850050 -0.000190 -0.235210 
#    y -0.000190 3.012720 0.000010 
#    z -0.235210 0.000010 3.313260 
# 
# 
# High freq. dielectric constant tensor:
#      x y z
#    x 1.612490 0.000000 -0.007330 
#    y 0.000000 1.628000 0.000000 
#    z -0.007330 0.000000 1.619960 
# 
# From -- ./inp_files/326842.got.cif
#   From: 2010.06.25/outbox.cif.g09.slc.cpg/sg12_164_cif.got.tgz:326842.got - 2010.06.28 00:19:55.
