data_PCOD8086771
_publ_section_title
;
Structure prediction by ZEFSAII (Michael W. Deem and Ramdas Pophale) SiO2 
 PCOD8086771
Probable space group: C 2/M
;
_chemical_formula_sum "Si O2"
_cell_formula_units_Z 64
_cell_length_a 30.044966
_cell_length_b 8.867205
_cell_length_c 14.873684
_cell_angle_alpha 90.000000
_cell_angle_beta 78.121269
_cell_angle_gamma 90.000000
_cell_volume 3877.714017
_symmetry_space_group_name_H-M "C 2/M"
_symmetry_group_IT_number 12
_symmetry_cell_setting 'monoclinic'
loop_
_space_group_symop_operation_xyz
x,y,z
-x,y,-z
-x,-y,-z
x,-y,z
1/2+x,1/2+y,z
1/2-x,1/2+y,-z
1/2-x,1/2-y,-z
1/2+x,1/2-y,z
loop_
_atom_site_type_symbol
_atom_site_label
_atom_site_fract_x
_atom_site_fract_y
_atom_site_fract_z
Si Si1 0.802300 0.177383 0.072345
Si Si2 0.971599 0.175299 0.393702
Si Si3 0.554856 0.176741 0.117080
Si Si4 0.561100 0.175528 0.425797
Si Si5 0.393715 0.823202 0.086085
Si Si6 0.540152 0.675099 0.805955
Si Si7 0.374852 0.174451 0.759457
Si Si8 0.790334 0.176769 0.872475
O O1 0.844906 0.244563 0.107065
O O2 0.756492 0.242758 0.135526
O O3 0.802145 0.000000 0.084345
O O4 0.805014 0.225919 0.966735
O O5 0.934735 0.234612 0.481833
O O6 0.952516 0.205135 0.302686
O O7 0.018049 0.267073 0.386946
O O8 0.981704 0.000000 0.406080
O O9 0.508915 0.270510 0.141386
O O10 0.587622 0.227729 0.184170
O O11 0.543119 0.000000 0.127123
O O12 0.578506 0.221601 0.014221
O O13 0.606300 0.203236 0.348497
O O14 0.554148 0.000000 0.448941
O O15 0.420729 0.768418 0.161718
O O16 0.385817 0.000000 0.094784
O O17 0.544890 0.500000 0.828176
O O18 0.329374 0.271627 0.787805
O O19 0.363038 0.000000 0.781351
O O20 0.782787 0.000000 0.868078
#
# Coordination Sequence:
#
# PCOD8086771 Si02
#       8
#     8   8   8   8   8   8   8   8
#     4  10  20  34  51  72 100 131 166 208 249 291
#     4  10  20  33  48  69  98 130 164 207 252 294
#     4  10  20  34  49  69 100 136 172 207 243 288
#     4  10  19  31  51  73  96 128 165 205 249 297
#     4  11  22  35  52  71  97 134 174 211 247 290
#     4  11  23  35  49  70  99 135 173 210 249 293
#     4  10  19  32  50  74 103 133 165 203 248 297
#     4  10  20  32  51  75 100 131 166 203 248 297
#
# _framework density 16.504567999999999
#
# number of rings (size 3 to 8) (size 9 to 14) (size 15 to 20)
#    0.000    1.750    2.500    3.375    0.000    6.500 
#    0.000    0.000    0.000    0.000    0.000    0.875 
#    0.000    0.000    0.000    0.000    0.000    0.000 
#
# Total GULP energy -396926.372867 kJ/mol
# GULP energy per Si atom -12403.949152 kJ/mol
# Density = 1.646700 g / cm^3
# Si number density = 16.504568 Si / 1000 Ang^3
#
#
#
# Elastic Constant Matrix: (Units=GPa)
#
#
# Indices 1 2 3 4 5 6 
#
# 1 105.8767 39.3366 47.1216 0.0000 -10.5190 0.0000
# 2 39.3366 62.8760 32.6802 0.0000 -6.2971 0.0000
# 3 47.1216 32.6802 80.3287 0.0000 -5.1253 0.0000
# 4 0.0000 0.0000 0.0000 27.1889 0.0000 -2.3480
# 5 -10.5190 -6.2971 -5.1253 0.0000 19.5249 0.0000
# 6 0.0000 0.0000 0.0000 -2.3480 0.0000 32.2150
#
#
#
# Elastic Compliance Matrix: (Units=1/GPa)
#
#
# Indices 1 2 3 4 5 6 
#
# 1 0.014653 -0.005577 -0.006039 0.000000 0.004510 0.000000
# 2 -0.005577 0.022675 -0.005775 0.000000 0.002793 0.000000
# 3 -0.006039 -0.005775 0.018321 0.000000 -0.000307 0.000000
# 4 0.000000 0.000000 0.000000 0.037013 0.000000 0.002698
# 5 0.004510 0.002793 -0.000307 0.000000 0.054467 0.000000
# 6 0.000000 0.000000 0.000000 0.002698 0.000000 0.031238
#
#
# Mechanical properties :
#
#
# Convention : Reuss Voigt Hill
#
# Bulk Modulus (GPa) = 47.92236 54.15089 51.03663
# Shear Modulus (GPa) = 22.71664 24.44862 23.58263
#
# Velocity S-wave (km/s) = 3.71399 3.85297 3.78412
# Velocity P-wave (km/s) = 6.89133 7.25774 7.07691
#
# Compressibility (1/GPa) = 0.02086708
#
# Stress axis : x y z
#
# Youngs Moduli (GPa) = 68.24738 44.10237 54.58131
#
# Poissons Ratio (x) = 0.24594 0.32961
# Poissons Ratio (y) = 0.38058 0.31522
# Poissons Ratio (z) = 0.41214 0.25470
#
# Static dielectric constant tensor:
#      x y z
#    x 2.972770 0.000000 -0.060310 
#    y 0.000000 3.170600 0.000000 
#    z -0.060310 0.000000 3.135900 
# 
# 
# High freq. dielectric constant tensor:
#      x y z
#    x 1.617080 0.000000 -0.010190 
#    y 0.000000 1.650440 0.000000 
#    z -0.010190 0.000000 1.622690 
# 
# From -- ./inp_files/243926.got.cif
#   From: 2010.06.25/outbox.cif.g09.slc.cpg/sg12_122_cif.got.tgz:243926.got - 2010.06.28 00:19:55.
