data_PCOD8086258
_publ_section_title
;
Structure prediction by ZEFSAII (Michael W. Deem and Ramdas Pophale) SiO2 
 PCOD8086258
Probable space group: C 2/M
;
_chemical_formula_sum "Si O2"
_cell_formula_units_Z 48
_cell_length_a 11.350306
_cell_length_b 26.683837
_cell_length_c 15.028068
_cell_angle_alpha 90.000000
_cell_angle_beta 150.134442
_cell_angle_gamma 90.000000
_cell_volume 2266.517928
_symmetry_space_group_name_H-M "C 2/M"
_symmetry_group_IT_number 12
_symmetry_cell_setting 'monoclinic'
loop_
_space_group_symop_operation_xyz
x,y,z
-x,y,-z
-x,-y,-z
x,-y,z
1/2+x,1/2+y,z
1/2-x,1/2+y,-z
1/2-x,1/2-y,-z
1/2+x,1/2-y,z
loop_
_atom_site_type_symbol
_atom_site_label
_atom_site_fract_x
_atom_site_fract_y
_atom_site_fract_z
Si Si1 0.211020 0.712685 0.702792
Si Si2 0.962975 0.943944 0.827587
Si Si3 0.876594 0.443852 0.239082
Si Si4 0.095451 0.657336 0.358110
Si Si5 0.571091 0.209834 0.922854
Si Si6 0.499415 0.652852 0.248963
O O1 0.361249 0.760656 0.837710
O O2 0.390340 0.677098 0.767285
O O3 0.000000 0.730603 0.500000
O O4 0.115556 0.682840 0.724514
O O5 0.721153 0.935848 0.724748
O O6 0.986618 0.906750 0.759115
O O7 0.968857 0.000000 0.791619
O O8 0.174359 0.935353 0.034414
O O9 0.982976 0.500000 0.300272
O O10 0.076535 0.402860 0.350357
O O11 0.352840 0.670161 0.567669
O O12 0.073069 0.678255 0.245110
O O13 0.750000 0.250000 0.000000
O O14 0.727334 0.171212 0.084394
#
# Coordination Sequence:
#
# PCOD8086258 Si02
#       6
#     8   8   8   8   8   8
#     4   9  20  34  51  72  96 136 179 210 256 299
#     4   9  16  27  45  72 102 134 174 203 240 310
#     4   9  17  28  49  75 101 141 174 198 247 312
#     4  11  20  34  54  72 107 137 173 215 244 305
#     4  10  22  35  50  71  98 135 177 217 257 295
#     4  10  19  31  48  72  97 134 171 205 254 294
#
# _framework density 21.177862000000001
#
# number of rings (size 3 to 8) (size 9 to 14) (size 15 to 20)
#    0.000    2.333    3.333    1.000    0.000    9.333 
#    0.000    3.333    0.000    0.000    0.000    0.000 
#    0.000    2.667    0.000   39.500    0.000    1.000 
#
# Total GULP energy -297479.190726 kJ/mol
# GULP energy per Si atom -12394.966280 kJ/mol
# Density = 2.112966 g / cm^3
# Si number density = 21.177862 Si / 1000 Ang^3
#
#
#
# Elastic Constant Matrix: (Units=GPa)
#
#
# Indices 1 2 3 4 5 6 
#
# 1 15.5033 21.9526 18.3625 0.0001 1.2954 0.0000
# 2 21.9526 127.2316 49.4477 0.0000 4.3160 0.0000
# 3 18.3625 49.4477 103.3651 0.0001 -5.5587 0.0000
# 4 0.0001 0.0000 0.0001 29.3341 0.0001 -1.2577
# 5 1.2954 4.3160 -5.5587 0.0001 17.0319 0.0000
# 6 0.0000 0.0000 0.0000 -1.2577 0.0000 23.4688
#
#
#
# Elastic Compliance Matrix: (Units=1/GPa)
#
#
# Indices 1 2 3 4 5 6 
#
# 1 0.095720 -0.011616 -0.011889 0.000000 -0.008217 0.000000
# 2 -0.011616 0.011343 -0.003532 0.000000 -0.003144 0.000000
# 3 -0.011889 -0.003532 0.013815 0.000000 0.006308 0.000000
# 4 0.000000 0.000000 0.000000 0.034169 0.000000 0.001831
# 5 -0.008217 -0.003144 0.006308 0.000000 0.062194 0.000000
# 6 0.000000 0.000000 0.000000 0.001831 0.000000 0.042708
#
#
# Mechanical properties :
#
#
# Convention : Reuss Voigt Hill
#
# Bulk Modulus (GPa) = 14.96922 47.29175 31.13048
# Shear Modulus (GPa) = 14.86807 24.38942 19.62874
#
# Velocity S-wave (km/s) = 2.65251 3.39727 3.04773
# Velocity P-wave (km/s) = 4.05768 6.14556 5.20733
#
# Compressibility (1/GPa) = 0.06680373
#
# Stress axis : x y z
#
# Youngs Moduli (GPa) = 10.44716 88.15858 72.38325
#
# Poissons Ratio (x) = 1.02406 0.86059
# Poissons Ratio (y) = 0.12136 0.25565
# Poissons Ratio (z) = 0.12421 0.31136
#
# Static dielectric constant tensor:
#      x y z
#    x 3.276380 0.000000 0.135620 
#    y 0.000000 4.122980 0.000000 
#    z 0.135620 0.000000 4.021540 
# 
# 
# High freq. dielectric constant tensor:
#      x y z
#    x 1.760920 0.000000 -0.006240 
#    y 0.000000 1.836470 0.000000 
#    z -0.006240 0.000000 1.843710 
# 
# From -- ./inp_files/209283.got.cif
#   From: 2010.06.25/outbox.cif.g09.slc.cpg/sg12_105_cif.got.tgz:209283.got - 2010.06.28 00:19:55.
