data_PCOD8086211
_publ_section_title
;
Structure prediction by ZEFSAII (Michael W. Deem and Ramdas Pophale) SiO2 
 PCOD8086211
Probable space group: C 2/M
;
_chemical_formula_sum "Si O2"
_cell_formula_units_Z 48
_cell_length_a 23.294757
_cell_length_b 8.873405
_cell_length_c 22.777597
_cell_angle_alpha 90.000000
_cell_angle_beta 34.839759
_cell_angle_gamma 90.000000
_cell_volume 2689.725011
_symmetry_space_group_name_H-M "C 2/M"
_symmetry_group_IT_number 12
_symmetry_cell_setting 'monoclinic'
loop_
_space_group_symop_operation_xyz
x,y,z
-x,y,-z
-x,-y,-z
x,-y,z
1/2+x,1/2+y,z
1/2-x,1/2+y,-z
1/2-x,1/2-y,-z
1/2+x,1/2-y,z
loop_
_atom_site_type_symbol
_atom_site_label
_atom_site_fract_x
_atom_site_fract_y
_atom_site_fract_z
Si Si1 0.143873 0.173340 0.924803
Si Si2 0.105762 0.177304 0.384601
Si Si3 0.303942 0.672632 0.252912
Si Si4 0.007376 0.676834 0.870129
Si Si5 0.355759 0.823357 0.894430
Si Si6 0.657131 0.676702 0.211507
O O1 0.150997 0.191701 0.849568
O O2 0.226400 0.276520 0.887428
O O3 0.158691 0.000000 0.931237
O O4 0.037132 0.234729 0.036329
O O5 0.192263 0.259031 0.349246
O O6 0.107314 0.226949 0.314958
O O7 0.000000 0.228419 0.500000
O O8 0.123889 0.000000 0.375074
O O9 0.298411 0.500000 0.277637
O O10 0.378335 0.763516 0.234057
O O11 0.008320 0.500000 0.882091
O O12 0.942702 0.719016 0.867332
O O13 0.395977 0.761615 0.797998
O O14 0.338514 0.000000 0.905252
O O15 0.250000 0.750000 0.000000
O O16 0.648135 0.500000 0.208778
#
# Coordination Sequence:
#
# PCOD8086211 Si02
#       6
#     8   8   8   8   8   8
#     4  10  19  31  48  71 103 139 173 211 254 304
#     4   9  19  37  60  82 104 132 168 215 268 318
#     4  10  21  34  50  76 105 134 170 214 264 311
#     4  11  22  33  48  71 102 142 179 211 253 306
#     4  11  22  34  50  73 105 144 182 216 252 300
#     4  10  19  32  52  78 105 136 175 214 257 308
#
# _framework density 17.845690999999999
#
# number of rings (size 3 to 8) (size 9 to 14) (size 15 to 20)
#    0.000    1.833    1.667    3.000    0.000    7.000 
#    0.000    0.000    0.000    1.000    0.000    0.000 
#    0.000    0.000    0.000    0.000    0.000    0.000 
#
# Total GULP energy -297638.919603 kJ/mol
# GULP energy per Si atom -12401.621650 kJ/mol
# Density = 1.780507 g / cm^3
# Si number density = 17.845691 Si / 1000 Ang^3
#
#
#
# Elastic Constant Matrix: (Units=GPa)
#
#
# Indices 1 2 3 4 5 6 
#
# 1 103.4762 53.6619 53.8110 0.0000 -20.3775 -0.0001
# 2 53.6619 82.4285 38.4725 0.0004 -11.6126 -0.0010
# 3 53.8110 38.4725 100.6246 0.0000 -17.1844 0.0001
# 4 0.0000 0.0004 0.0000 22.7045 0.0000 -1.1810
# 5 -20.3775 -11.6126 -17.1844 0.0000 21.1255 0.0001
# 6 -0.0001 -0.0010 0.0001 -1.1810 0.0001 30.1891
#
#
#
# Elastic Compliance Matrix: (Units=1/GPa)
#
#
# Indices 1 2 3 4 5 6 
#
# 1 0.018430 -0.008333 -0.005128 0.000000 0.009025 0.000000
# 2 -0.008333 0.018846 -0.002732 0.000000 0.000099 0.000001
# 3 -0.005128 -0.002732 0.014660 0.000000 0.005477 0.000000
# 4 0.000000 0.000000 0.000000 0.044134 0.000000 0.001727
# 5 0.009025 0.000099 0.005477 0.000000 0.060551 0.000000
# 6 0.000000 0.000001 0.000000 0.001727 0.000000 0.033192
#
#
# Mechanical properties :
#
#
# Convention : Reuss Voigt Hill
#
# Bulk Modulus (GPa) = 51.15475 64.26892 57.71184
# Shear Modulus (GPa) = 21.86120 24.17609 23.01864
#
# Velocity S-wave (km/s) = 3.50382 3.68466 3.59537
# Velocity P-wave (km/s) = 6.71537 7.36167 7.04593
#
# Compressibility (1/GPa) = 0.01954853
#
# Stress axis : x y z
#
# Youngs Moduli (GPa) = 54.26061 53.06238 68.21093
#
# Poissons Ratio (x) = 0.44216 0.34981
# Poissons Ratio (y) = 0.45214 0.18638
# Poissons Ratio (z) = 0.27827 0.14499
#
# Static dielectric constant tensor:
#      x y z
#    x 3.469200 0.000000 -0.011570 
#    y 0.000000 3.367450 0.000000 
#    z -0.011570 0.000000 3.114480 
# 
# 
# High freq. dielectric constant tensor:
#      x y z
#    x 1.690980 0.000000 -0.009530 
#    y 0.000000 1.703520 0.000000 
#    z -0.009530 0.000000 1.656550 
# 
# From -- ./inp_files/172137.got.cif
#   From: 2010.06.25/outbox.cif.g09.slc.cpg/sg12_87_cif.got.tgz:172137.got - 2010.06.28 00:19:55.
