data_PCOD8086858
_publ_section_title
;
Structure prediction by ZEFSAII (Michael W. Deem and Ramdas Pophale) SiO2 
 PCOD8086858
Probable space group: C 2/M
;
_chemical_formula_sum "Si O2"
_cell_formula_units_Z 44
_cell_length_a 9.180281
_cell_length_b 19.838775
_cell_length_c 12.673651
_cell_angle_alpha 90.000000
_cell_angle_beta 88.797199
_cell_angle_gamma 90.000000
_cell_volume 2307.686804
_symmetry_space_group_name_H-M "C 2/M"
_symmetry_group_IT_number 12
_symmetry_cell_setting 'monoclinic'
loop_
_space_group_symop_operation_xyz
x,y,z
-x,y,-z
-x,-y,-z
x,-y,z
1/2+x,1/2+y,z
1/2-x,1/2+y,-z
1/2-x,1/2-y,-z
1/2+x,1/2-y,z
loop_
_atom_site_type_symbol
_atom_site_label
_atom_site_fract_x
_atom_site_fract_y
_atom_site_fract_z
Si Si1 0.389069 0.080029 0.353733
Si Si2 0.299967 0.919994 0.577368
Si Si3 0.708050 0.419805 0.159530
Si Si4 0.500000 0.757706 0.000000
Si Si5 0.388922 0.420705 0.234804
Si Si6 0.743570 0.658756 0.941306
O O1 0.553806 0.105976 0.365801
O O2 0.294292 0.106389 0.456521
O O3 0.323108 0.106606 0.244769
O O4 0.380112 0.000000 0.350784
O O5 0.159825 0.895623 0.647310
O O6 0.307666 0.000000 0.573978
O O7 0.716210 0.500000 0.138397
O O8 0.551181 0.397279 0.206180
O O9 0.738079 0.380323 0.052166
O O10 0.611225 0.711992 0.931079
O O11 0.399438 0.804404 0.926228
O O12 0.376955 0.500000 0.228516
O O13 0.272191 0.393795 0.152423
#
# Coordination Sequence:
#
# PCOD8086858 Si02
#       6
#     8   8   8   4   8   8
#     4   8  15  28  45  70 105 138 166 197 242 302
#     4   8  15  28  45  70 105 138 166 197 242 302
#     4  10  19  31  51  78 109 136 160 204 258 304
#     4  10  24  38  56  66  98 136 180 210 244 292
#     4  10  19  31  51  78 109 136 160 204 258 304
#     4  11  21  39  52  77  98 133 170 212 251 303
#
# _framework density 19.066711999999999
#
# number of rings (size 3 to 8) (size 9 to 14) (size 15 to 20)
#    0.000    2.545    1.818    1.636    2.545    2.182 
#    0.000    4.545    0.000    0.000    0.000    7.636 
#    0.000    0.000    0.000    0.000    0.000    0.000 
#
# Total GULP energy -272606.610383 kJ/mol
# GULP energy per Si atom -12391.209563 kJ/mol
# Density = 1.902332 g / cm^3
# Si number density = 19.066712 Si / 1000 Ang^3
#
#
#
# Elastic Constant Matrix: (Units=GPa)
#
#
# Indices 1 2 3 4 5 6 
#
# 1 70.8303 19.9237 19.3617 0.0000 2.4808 0.0000
# 2 19.9237 20.4345 22.7963 0.0000 2.9702 0.0000
# 3 19.3617 22.7963 81.2804 0.0000 -4.6290 0.0000
# 4 0.0000 0.0000 0.0000 2.5245 0.0000 5.9563
# 5 2.4808 2.9702 -4.6290 0.0000 27.5207 0.0000
# 6 0.0000 0.0000 0.0000 5.9563 0.0000 21.4273
#
#
#
# Elastic Compliance Matrix: (Units=1/GPa)
#
#
# Indices 1 2 3 4 5 6 
#
# 1 0.019519 -0.020336 0.001089 0.000000 0.000618 0.000000
# 2 -0.020336 0.095968 -0.022775 0.000000 -0.012355 0.000000
# 3 0.001089 -0.022775 0.018745 0.000000 0.005513 0.000000
# 4 0.000000 0.000000 0.000000 1.151113 0.000000 -0.319985
# 5 0.000618 -0.012355 0.005513 0.000000 0.038541 0.000000
# 6 0.000000 0.000000 0.000000 -0.319985 0.000000 0.135619
#
#
# Mechanical properties :
#
#
# Convention : Reuss Voigt Hill
#
# Bulk Modulus (GPa) = 19.92499 32.96764 26.44631
# Shear Modulus (GPa) = 3.20455 17.65872 10.43164
#
# Velocity S-wave (km/s) = 1.29783 3.04658 2.34158
# Velocity P-wave (km/s) = 3.56632 5.45011 4.60556
#
# Compressibility (1/GPa) = 0.05018823
#
# Stress axis : x y z
#
# Youngs Moduli (GPa) = 51.23152 10.42010 53.34697
#
# Poissons Ratio (x) = 0.21191 -0.05811
# Poissons Ratio (y) = 1.04186 1.21498
# Poissons Ratio (z) = -0.05580 0.23732
#
# Static dielectric constant tensor:
#      x y z
#    x 3.821840 0.000000 -0.073220 
#    y 0.000000 3.158150 0.000000 
#    z -0.073220 0.000000 3.733640 
# 
# 
# High freq. dielectric constant tensor:
#      x y z
#    x 1.747980 0.000000 -0.000890 
#    y 0.000000 1.691060 0.000000 
#    z -0.000890 0.000000 1.740120 
# 
# From -- ./inp_files/120830.got.cif
#   From: 2010.06.25/outbox.cif.g09.slc.cpg/sg12_61_cif.got.tgz:120830.got - 2010.06.28 00:19:55.
