data_PCOD8086261
_publ_section_title
;
Structure prediction by ZEFSAII (Michael W. Deem and Ramdas Pophale) SiO2 
 PCOD8086261
Probable space group: C 2/M
;
_chemical_formula_sum "Si O2"
_cell_formula_units_Z 64
_cell_length_a 30.564981
_cell_length_b 8.897511
_cell_length_c 14.199833
_cell_angle_alpha 90.000000
_cell_angle_beta 91.741704
_cell_angle_gamma 90.000000
_cell_volume 3859.892514
_symmetry_space_group_name_H-M "C 2/M"
_symmetry_group_IT_number 12
_symmetry_cell_setting 'monoclinic'
loop_
_space_group_symop_operation_xyz
x,y,z
-x,y,-z
-x,-y,-z
x,-y,z
1/2+x,1/2+y,z
1/2-x,1/2+y,-z
1/2-x,1/2-y,-z
1/2+x,1/2-y,z
loop_
_atom_site_type_symbol
_atom_site_label
_atom_site_fract_x
_atom_site_fract_y
_atom_site_fract_z
Si Si1 0.800358 0.176355 0.407672
Si Si2 0.298956 0.173490 0.593007
Si Si3 0.837232 0.178260 0.212695
Si Si4 0.908421 0.325074 0.908191
Si Si5 0.917662 0.324193 0.126731
Si Si6 0.758365 0.321766 0.100922
Si Si7 0.320240 0.175096 0.799918
Si Si8 0.994979 0.831199 0.888368
O O1 0.750417 0.232890 0.392322
O O2 0.820771 0.243400 0.505188
O O3 0.827696 0.230422 0.318977
O O4 0.802656 0.000000 0.416183
O O5 0.327110 0.203786 0.688973
O O6 0.297899 0.000000 0.566884
O O7 0.886119 0.229379 0.191929
O O8 0.804657 0.262257 0.140247
O O9 0.831612 0.000000 0.199969
O O10 0.917349 0.500000 0.892958
O O11 0.863577 0.272551 0.856875
O O12 0.947752 0.237131 0.859554
O O13 0.905280 0.286550 0.018190
O O14 0.913320 0.500000 0.148087
O O15 0.966875 0.270953 0.153713
O O16 0.760550 0.500000 0.091580
O O17 0.720123 0.274646 0.169134
O O18 0.750000 0.250000 0.000000
O O19 0.309407 0.000000 0.818793
O O20 0.998277 0.000000 0.848322
O O21 0.000000 0.829857 0.000000
#
# Coordination Sequence:
#
# PCOD8086261 Si02
#       8
#     8   8   8   8   8   8   8   8
#     4   9  18  32  49  69  94 125 161 204 248 288
#     4   9  17  31  50  70  94 125 161 203 247 290
#     4  11  21  35  51  70  98 130 165 204 247 291
#     4   9  18  31  49  70  97 129 160 199 241 286
#     4  10  19  31  48  73 100 129 166 201 240 290
#     4  12  24  35  48  67  96 134 170 202 238 284
#     4  10  19  34  51  71  99 130 164 202 247 291
#     4   9  17  30  48  69  95 127 162 201 242 282
#
# _framework density 16.580774000000002
#
# number of rings (size 3 to 8) (size 9 to 14) (size 15 to 20)
#    0.000    2.125    1.250    3.000    0.000    5.000 
#    0.000    0.000    0.000    0.000    0.000    0.875 
#    0.000    7.000    0.000    0.000    0.000    0.000 
#
# Total GULP energy -396837.997554 kJ/mol
# GULP energy per Si atom -12401.187424 kJ/mol
# Density = 1.654304 g / cm^3
# Si number density = 16.580774 Si / 1000 Ang^3
#
#
#
# Elastic Constant Matrix: (Units=GPa)
#
#
# Indices 1 2 3 4 5 6 
#
# 1 75.3746 27.7421 22.6148 0.0000 -15.4808 0.0000
# 2 27.7421 70.6246 29.6804 0.0000 -10.5156 0.0000
# 3 22.6148 29.6804 78.6488 0.0000 -15.8555 0.0000
# 4 0.0000 0.0000 0.0000 24.9859 0.0000 -3.5033
# 5 -15.4808 -10.5156 -15.8555 0.0000 14.9270 0.0000
# 6 0.0000 0.0000 0.0000 -3.5033 0.0000 28.8844
#
#
#
# Elastic Compliance Matrix: (Units=1/GPa)
#
#
# Indices 1 2 3 4 5 6 
#
# 1 0.018245 -0.004742 -0.000402 0.000000 0.015155 0.000000
# 2 -0.004742 0.018571 -0.005089 0.000000 0.002760 0.000000
# 3 -0.000402 -0.005089 0.017743 0.000000 0.014846 0.000000
# 4 0.000000 0.000000 0.000000 0.040715 0.000000 0.004938
# 5 0.015155 0.002760 0.014846 0.000000 0.100424 0.000000
# 6 0.000000 0.000000 0.000000 0.004938 0.000000 0.035220
#
#
# Mechanical properties :
#
#
# Convention : Reuss Voigt Hill
#
# Bulk Modulus (GPa) = 29.32830 42.74694 36.03762
# Shear Modulus (GPa) = 19.02959 23.40019 21.21489
#
# Velocity S-wave (km/s) = 3.39143 3.76078 3.58087
# Velocity P-wave (km/s) = 5.74998 6.68543 6.23527
#
# Compressibility (1/GPa) = 0.03409676
#
# Stress axis : x y z
#
# Youngs Moduli (GPa) = 54.80814 53.84614 56.35869
#
# Poissons Ratio (x) = 0.25532 0.02263
# Poissons Ratio (y) = 0.25988 0.28678
# Poissons Ratio (z) = 0.02201 0.27400
#
# Static dielectric constant tensor:
#      x y z
#    x 3.102270 0.000000 -0.033210 
#    y 0.000000 3.177160 0.000000 
#    z -0.033210 0.000000 3.090150 
# 
# 
# High freq. dielectric constant tensor:
#      x y z
#    x 1.623740 0.000000 -0.005620 
#    y 0.000000 1.645100 0.000000 
#    z -0.005620 0.000000 1.618690 
# 
# From -- ./inp_files/248339.got.cif
#   From: 2010.06.25/outbox.cif.g09.slc.cpg/sg12_125_cif.got.tgz:248339.got - 2010.06.28 00:19:55.
