data_PCOD8086154
_publ_section_title
;
Structure prediction by ZEFSAII (Michael W. Deem and Ramdas Pophale) SiO2 
 PCOD8086154
Probable space group: C 2/M
;
_chemical_formula_sum "Si O2"
_cell_formula_units_Z 48
_cell_length_a 21.651547
_cell_length_b 12.606154
_cell_length_c 24.154158
_cell_angle_alpha 90.000000
_cell_angle_beta 26.092671
_cell_angle_gamma 90.000000
_cell_volume 2899.630494
_symmetry_space_group_name_H-M "C 2/M"
_symmetry_group_IT_number 12
_symmetry_cell_setting 'monoclinic'
loop_
_space_group_symop_operation_xyz
x,y,z
-x,y,-z
-x,-y,-z
x,-y,z
1/2+x,1/2+y,z
1/2-x,1/2+y,-z
1/2-x,1/2-y,-z
1/2+x,1/2-y,z
loop_
_atom_site_type_symbol
_atom_site_label
_atom_site_fract_x
_atom_site_fract_y
_atom_site_fract_z
Si Si1 0.556598 0.257091 0.190458
Si Si2 0.171175 0.875767 0.001245
Si Si3 0.113316 0.624718 0.750592
Si Si4 0.577948 0.790694 0.996287
Si Si5 0.108984 0.124394 0.255280
Si Si6 0.929566 0.126033 0.502607
O O1 0.568098 0.349360 0.134865
O O2 0.434338 0.179654 0.268129
O O3 0.529506 0.316658 0.269409
O O4 0.687499 0.180131 0.093340
O O5 0.192352 0.000000 0.975704
O O6 0.111562 0.827589 0.991578
O O7 0.108529 0.500000 0.744966
O O8 0.270692 0.667459 0.631339
O O9 0.018423 0.650959 0.880584
O O10 0.725132 0.852736 0.872248
O O11 0.500000 0.786441 0.000000
O O12 0.023365 0.167859 0.376576
O O13 0.090113 0.000000 0.261926
O O14 0.000000 0.175313 0.500000
O O15 0.932317 0.000000 0.501482
#
# Coordination Sequence:
#
# PCOD8086154 Si02
#       6
#     8   8   8   8   8   8
#     4   9  18  29  46  70  92 120 158 188 226 278
#     4   9  17  30  46  66  97 126 148 189 237 272
#     4  10  19  31  48  69  95 123 151 190 232 272
#     4  10  20  31  47  72  93 119 159 191 225 274
#     4  10  19  31  48  69  95 123 151 190 232 272
#     4   9  18  31  46  66  93 124 152 182 229 277
#
# _framework density 16.553833999999998
#
# number of rings (size 3 to 8) (size 9 to 14) (size 15 to 20)
#    0.000    2.500    0.000    3.500    0.000    3.667 
#    0.000    0.000    0.000    0.000    0.000   10.500 
#    0.000   44.000    0.000    0.000    0.000    0.000 
#
# Total GULP energy -297403.767048 kJ/mol
# GULP energy per Si atom -12391.823627 kJ/mol
# Density = 1.651616 g / cm^3
# Si number density = 16.553834 Si / 1000 Ang^3
#
#
#
# Elastic Constant Matrix: (Units=GPa)
#
#
# Indices 1 2 3 4 5 6 
#
# 1 153.9674 42.8267 56.9937 0.0012 7.7410 -0.0001
# 2 42.8267 85.6532 25.7037 0.0026 9.5825 -0.0001
# 3 56.9937 25.7037 121.9560 0.0044 2.1336 -0.0005
# 4 0.0012 0.0026 0.0044 8.5679 -0.0009 0.9708
# 5 7.7410 9.5825 2.1336 -0.0009 23.7877 -0.0002
# 6 -0.0001 -0.0001 -0.0005 0.9708 -0.0002 23.6850
#
#
#
# Elastic Compliance Matrix: (Units=1/GPa)
#
#
# Indices 1 2 3 4 5 6 
#
# 1 0.008693 -0.003197 -0.003367 0.000001 -0.001239 0.000000
# 2 -0.003197 0.014210 -0.001421 -0.000004 -0.004556 0.000000
# 3 -0.003367 -0.001421 0.010059 -0.000004 0.000766 0.000000
# 4 0.000001 -0.000004 -0.000004 0.117259 0.000006 -0.004806
# 5 -0.001239 -0.004556 0.000766 0.000006 0.044208 0.000000
# 6 0.000000 0.000000 0.000000 -0.004806 0.000000 0.042418
#
#
# Mechanical properties :
#
#
# Convention : Reuss Voigt Hill
#
# Bulk Modulus (GPa) = 58.85322 68.06941 63.46132
# Shear Modulus (GPa) = 19.34372 26.94495 23.14433
#
# Velocity S-wave (km/s) = 3.42209 4.03887 3.74321
# Velocity P-wave (km/s) = 7.15850 7.93469 7.55657
#
# Compressibility (1/GPa) = 0.01699142
#
# Stress axis : x y z
#
# Youngs Moduli (GPa) = 115.03701 70.37364 99.41165
#
# Poissons Ratio (x) = 0.22502 0.33470
# Poissons Ratio (y) = 0.36783 0.14125
# Poissons Ratio (z) = 0.38731 0.09999
#
# Static dielectric constant tensor:
#      x y z
#    x 3.323430 0.000000 0.027540 
#    y 0.000000 2.914840 0.000000 
#    z 0.027540 0.000000 3.160870 
# 
# 
# High freq. dielectric constant tensor:
#      x y z
#    x 1.650000 0.000000 0.002440 
#    y 0.000000 1.616080 0.000000 
#    z 0.002440 0.000000 1.631960 
# 
# From -- ./inp_files/132549.got.cif
#   From: 2010.06.25/outbox.cif.g09.slc.cpg/sg12_67_cif.got.tgz:132549.got - 2010.06.28 00:19:55.
