data_PCOD8086946
_publ_section_title
;
Structure prediction by ZEFSAII (Michael W. Deem and Ramdas Pophale) SiO2 
 PCOD8086946
Probable space group: C 2/M
;
_chemical_formula_sum "Si O2"
_cell_formula_units_Z 56
_cell_length_a 19.845857
_cell_length_b 8.860268
_cell_length_c 21.533828
_cell_angle_alpha 90.000000
_cell_angle_beta 53.849896
_cell_angle_gamma 90.000000
_cell_volume 3057.501531
_symmetry_space_group_name_H-M "C 2/M"
_symmetry_group_IT_number 12
_symmetry_cell_setting 'monoclinic'
loop_
_space_group_symop_operation_xyz
x,y,z
-x,y,-z
-x,-y,-z
x,-y,z
1/2+x,1/2+y,z
1/2-x,1/2+y,-z
1/2-x,1/2-y,-z
1/2+x,1/2-y,z
loop_
_atom_site_type_symbol
_atom_site_label
_atom_site_fract_x
_atom_site_fract_y
_atom_site_fract_z
Si Si1 0.090439 0.822499 0.135863
Si Si2 0.838419 0.320948 0.459536
Si Si3 0.907026 0.319436 0.551381
Si Si4 0.854721 0.670134 0.708443
Si Si5 0.426472 0.321680 0.995520
Si Si6 0.740470 0.180836 0.123643
Si Si7 0.013090 0.328912 0.704850
O O1 0.059789 0.775186 0.083615
O O2 0.178774 0.743625 0.103779
O O3 0.016221 0.775048 0.222430
O O4 0.105356 0.000000 0.131897
O O5 0.835060 0.500000 0.461435
O O6 0.750000 0.250000 0.500000
O O7 0.865860 0.259260 0.511395
O O8 0.899939 0.267220 0.370710
O O9 0.908585 0.500000 0.555307
O O10 0.856753 0.253405 0.638986
O O11 0.000000 0.254661 0.500000
O O12 0.823388 0.500000 0.717675
O O13 0.791524 0.746278 0.792307
O O14 0.948346 0.675812 0.683581
O O15 0.426622 0.500000 0.003428
O O16 0.500000 0.253435 0.000000
O O17 0.334876 0.260363 0.064657
O O18 0.733596 0.000000 0.123874
O O19 0.021767 0.500000 0.725027
#
# Coordination Sequence:
#
# PCOD8086946 Si02
#       7
#     8   8   8   8   8   8   8
#     4  10  19  31  52  78 100 125 161 209 252 290
#     4  10  20  33  50  73 103 135 165 204 249 294
#     4   9  14  25  48  74  95 118 162 212 240 270
#     4   8  13  24  46  75  94 114 160 211 243 270
#     4   9  18  33  50  73 104 131 161 205 252 292
#     4   9  17  31  53  75  98 130 164 199 245 302
#     4   9  17  32  52  72  98 133 168 202 244 294
#
# _framework density 18.315608000000001
#
# number of rings (size 3 to 8) (size 9 to 14) (size 15 to 20)
#    0.000    2.857    1.429    1.714    0.000    0.571 
#    2.571    0.714    0.000    7.714    0.000    0.000 
#    0.000    0.000    0.000    0.000    0.000    0.000 
#
# Total GULP energy -346954.448513 kJ/mol
# GULP energy per Si atom -12391.230304 kJ/mol
# Density = 1.827392 g / cm^3
# Si number density = 18.315608 Si / 1000 Ang^3
#
#
#
# Elastic Constant Matrix: (Units=GPa)
#
#
# Indices 1 2 3 4 5 6 
#
# 1 137.4819 22.3311 87.8327 -0.0001 2.0979 -0.0006
# 2 22.3311 23.2776 25.5054 -0.0003 1.5348 -0.0010
# 3 87.8327 25.5054 157.2321 0.0000 1.5681 0.0001
# 4 -0.0001 -0.0003 0.0000 20.3382 0.0000 -1.0013
# 5 2.0979 1.5348 1.5681 0.0000 31.2455 0.0000
# 6 -0.0006 -0.0010 0.0001 -1.0013 0.0000 19.8631
#
#
#
# Elastic Compliance Matrix: (Units=1/GPa)
#
#
# Indices 1 2 3 4 5 6 
#
# 1 0.011766 -0.004952 -0.005767 0.000000 -0.000257 0.000000
# 2 -0.004952 0.054474 -0.006050 0.000001 -0.002040 0.000003
# 3 -0.005767 -0.006050 0.010561 0.000000 0.000154 -0.000001
# 4 0.000000 0.000001 0.000000 0.049291 0.000000 0.002485
# 5 -0.000257 -0.002040 0.000154 0.000000 0.032114 0.000000
# 6 0.000000 0.000003 -0.000001 0.002485 0.000000 0.050470
#
#
# Mechanical properties :
#
#
# Convention : Reuss Voigt Hill
#
# Bulk Modulus (GPa) = 23.11404 65.48111 44.29757
# Shear Modulus (GPa) = 19.48290 26.44420 22.96355
#
# Velocity S-wave (km/s) = 3.26503 3.80387 3.54470
# Velocity P-wave (km/s) = 5.18277 7.42440 6.40245
#
# Compressibility (1/GPa) = 0.04326375
#
# Stress axis : x y z
#
# Youngs Moduli (GPa) = 84.98827 18.35750 94.68405
#
# Poissons Ratio (x) = 0.09090 0.54605
# Poissons Ratio (y) = 0.42086 0.57283
# Poissons Ratio (z) = 0.49013 0.11106
#
# Static dielectric constant tensor:
#      x y z
#    x 3.251630 0.000000 0.026780 
#    y 0.000000 2.894820 0.000000 
#    z 0.026780 0.000000 3.708270 
# 
# 
# High freq. dielectric constant tensor:
#      x y z
#    x 1.693880 0.000000 0.004170 
#    y 0.000000 1.657060 0.000000 
#    z 0.004170 0.000000 1.732590 
# 
# From -- ./inp_files/319666.got.cif
#   From: 2010.06.25/outbox.cif.g09.slc.cpg/sg12_160_cif.got.tgz:319666.got - 2010.06.28 00:19:55.
