data_PCOD8086817
_publ_section_title
;
Structure prediction by ZEFSAII (Michael W. Deem and Ramdas Pophale) SiO2 
 PCOD8086817
Probable space group: C 2/M
;
_chemical_formula_sum "Si O2"
_cell_formula_units_Z 60
_cell_length_a 30.725778
_cell_length_b 12.302908
_cell_length_c 8.712014
_cell_angle_alpha 90.000000
_cell_angle_beta 102.503186
_cell_angle_gamma 90.000000
_cell_volume 3215.180713
_symmetry_space_group_name_H-M "C 2/M"
_symmetry_group_IT_number 12
_symmetry_cell_setting 'monoclinic'
loop_
_space_group_symop_operation_xyz
x,y,z
-x,y,-z
-x,-y,-z
x,-y,z
1/2+x,1/2+y,z
1/2-x,1/2+y,-z
1/2-x,1/2-y,-z
1/2+x,1/2-y,z
loop_
_atom_site_type_symbol
_atom_site_label
_atom_site_fract_x
_atom_site_fract_y
_atom_site_fract_z
Si Si1 0.253799 0.773849 0.763691
Si Si2 0.389046 0.238034 0.223193
Si Si3 0.832491 0.119679 0.396809
Si Si4 0.500000 0.233312 0.000000
Si Si5 0.329421 0.619693 0.733769
Si Si6 0.696210 0.875527 0.938698
Si Si7 0.916653 0.127172 0.978420
Si Si8 0.521330 0.127257 0.679626
O O1 0.218893 0.840686 0.635220
O O2 0.288500 0.702909 0.693577
O O3 0.226949 0.690745 0.847619
O O4 0.282037 0.863248 0.877974
O O5 0.364064 0.291252 0.346486
O O6 0.353650 0.171974 0.093860
O O7 0.426636 0.153641 0.304176
O O8 0.412452 0.337258 0.151682
O O9 0.850024 0.108491 0.581547
O O10 0.834971 0.000000 0.317766
O O11 0.542944 0.307515 0.067403
O O12 0.494916 0.169717 0.161465
O O13 0.313422 0.500000 0.780118
O O14 0.369645 0.662186 0.868770
O O15 0.694864 0.000000 0.886075
O O16 0.926460 0.000000 0.970702
O O17 0.500000 0.172060 0.500000
O O18 0.512814 0.000000 0.680829
#
# Coordination Sequence:
#
# PCOD8086817 Si02
#       8
#     8   8   8   4   8   8   8   8
#     4  10  19  33  50  75 105 144 181 224 273 322
#     4  10  20  36  57  81 109 141 183 222 274 328
#     4  10  21  34  53  78 110 146 179 223 272 326
#     4  10  22  38  64  88 114 150 186 230 280 338
#     4  10  20  34  53  77 108 145 182 224 276 327
#     4  10  19  31  51  77 104 136 182 228 267 319
#     4  10  20  36  58  82 111 144 182 228 278 333
#     4  10  22  40  63  88 116 148 185 230 281 336
#
# _framework density 18.661470999999999
#
# number of rings (size 3 to 8) (size 9 to 14) (size 15 to 20)
#    0.000    2.000    1.333    2.400    1.867    0.000 
#    0.000    0.000    0.000    4.800    0.000    0.000 
#    0.000    0.000    0.000    0.000    0.000    0.000 
#
# Total GULP energy -371652.704859 kJ/mol
# GULP energy per Si atom -12388.423495 kJ/mol
# Density = 1.861900 g / cm^3
# Si number density = 18.661471 Si / 1000 Ang^3
#
#
#
# Elastic Constant Matrix: (Units=GPa)
#
#
# Indices 1 2 3 4 5 6 
#
# 1 89.5788 27.2119 22.6965 0.0000 3.3157 0.0000
# 2 27.2119 79.6774 18.9169 0.0000 2.8597 0.0000
# 3 22.6965 18.9169 82.4040 0.0000 -3.4461 0.0000
# 4 0.0000 0.0000 0.0000 12.0353 0.0000 29.5070
# 5 3.3157 2.8597 -3.4461 0.0000 13.7449 0.0000
# 6 0.0000 0.0000 0.0000 29.5070 0.0000 -32.5926
#
#
#
# Elastic Compliance Matrix: (Units=1/GPa)
#
#
# Indices 1 2 3 4 5 6 
#
# 1 0.013134 -0.003684 -0.002903 0.000000 -0.003129 0.000000
# 2 -0.003684 0.014482 -0.002424 0.000000 -0.002732 0.000000
# 3 -0.002903 -0.002424 0.013685 0.000000 0.004636 0.000000
# 4 0.000000 0.000000 0.000000 0.025807 0.000000 0.023364
# 5 -0.003129 -0.002732 0.004636 0.000000 0.075240 0.000000
# 6 0.000000 0.000000 0.000000 0.023364 0.000000 -0.009530
#
#
# Mechanical properties :
#
#
# Convention : Reuss Voigt Hill
#
# Bulk Modulus (GPa) = 42.95594 43.25676 43.10635
# Shear Modulus (GPa) = 31.52578 10.82652 21.17615
#
# Velocity S-wave (km/s) = 4.11463 2.41125 3.37226
# Velocity P-wave (km/s) = 6.75589 5.56617 6.18968
#
# Compressibility (1/GPa) = 0.02327966
#
# Stress axis : x y z
#
# Youngs Moduli (GPa) = 76.13979 69.04921 73.07187
#
# Poissons Ratio (x) = 0.25438 0.21210
# Poissons Ratio (y) = 0.28050 0.17714
# Poissons Ratio (z) = 0.22100 0.16739
#
# Static dielectric constant tensor:
#      x y z
#    x 3.449170 0.000000 0.132230 
#    y 0.000000 3.461700 0.000000 
#    z 0.132230 0.000000 3.480890 
# 
# 
# High freq. dielectric constant tensor:
#      x y z
#    x 1.724290 0.000000 0.006930 
#    y 0.000000 1.727660 0.000000 
#    z 0.006930 0.000000 1.721230 
# 
# From -- ./inp_files/110524.got.cif
#   From: 2010.06.25/outbox.cif.g09.slc.cpg/sg12_56_cif.got.tgz:110524.got - 2010.06.28 00:19:55.
