data_PCOD8086789
_publ_section_title
;
Structure prediction by ZEFSAII (Michael W. Deem and Ramdas Pophale) SiO2 
 PCOD8086789
Probable space group: C 2/M
;
_chemical_formula_sum "Si O2"
_cell_formula_units_Z 48
_cell_length_a 5.347222
_cell_length_b 25.986006
_cell_length_c 17.792976
_cell_angle_alpha 90.000000
_cell_angle_beta 50.707642
_cell_angle_gamma 90.000000
_cell_volume 1913.440842
_symmetry_space_group_name_H-M "C 2/M"
_symmetry_group_IT_number 12
_symmetry_cell_setting 'monoclinic'
loop_
_space_group_symop_operation_xyz
x,y,z
-x,y,-z
-x,-y,-z
x,-y,z
1/2+x,1/2+y,z
1/2-x,1/2+y,-z
1/2-x,1/2-y,-z
1/2+x,1/2-y,z
loop_
_atom_site_type_symbol
_atom_site_label
_atom_site_fract_x
_atom_site_fract_y
_atom_site_fract_z
Si Si1 0.078027 0.559415 0.670009
Si Si2 0.268350 0.220192 0.613100
Si Si3 0.488895 0.771815 0.892146
Si Si4 0.931734 0.892187 0.324869
Si Si5 0.064889 0.941196 0.898662
Si Si6 0.572100 0.891800 0.895475
O O1 0.154946 0.500000 0.641889
O O2 0.416930 0.588150 0.624829
O O3 0.922040 0.583179 0.623525
O O4 0.829914 0.569302 0.784744
O O5 0.500000 0.205788 0.500000
O O6 0.484117 0.241525 0.640598
O O7 0.087249 0.169251 0.674727
O O8 0.848501 0.747794 0.837979
O O9 0.486540 0.832782 0.898479
O O10 0.250000 0.750000 0.000000
O O11 0.169794 0.911625 0.214358
O O12 0.251037 0.927395 0.942273
O O13 0.756544 0.902489 0.940556
O O14 0.947605 0.000000 0.920092
#
# Coordination Sequence:
#
# PCOD8086789 Si02
#       6
#     8   8   8   8   8   8
#     4   9  17  30  49  74 105 135 162 199 254 306
#     4  10  21  36  52  70  96 134 174 211 255 301
#     4  10  21  36  52  73  99 135 169 198 244 299
#     4  10  19  31  51  76 101 131 166 210 251 291
#     4   9  17  30  49  77 108 133 160 203 254 298
#     4  10  19  31  51  79 104 129 167 207 248 299
#
# _framework density 25.085699000000002
#
# number of rings (size 3 to 8) (size 9 to 14) (size 15 to 20)
#    0.000    2.333    0.000    3.000    0.000    5.333 
#    0.000    0.000    0.000    3.000    0.000   46.667 
#    0.000    0.000    0.000    0.000    0.000    0.000 
#
# Total GULP energy -297686.802284 kJ/mol
# GULP energy per Si atom -12403.616762 kJ/mol
# Density = 2.502860 g / cm^3
# Si number density = 25.085699 Si / 1000 Ang^3
#
#
#
# Elastic Constant Matrix: (Units=GPa)
#
#
# Indices 1 2 3 4 5 6 
#
# 1 255.8667 103.2146 15.3168 0.0000 -22.7271 0.0000
# 2 103.2146 160.8979 -6.9746 0.0000 -17.2711 0.0000
# 3 15.3168 -6.9746 27.6767 0.0000 -18.4242 0.0000
# 4 0.0000 0.0000 0.0000 1.4217 0.0000 -6.9115
# 5 -22.7271 -17.2711 -18.4242 0.0000 18.2361 0.0000
# 6 0.0000 0.0000 0.0000 -6.9115 0.0000 57.4126
#
#
#
# Elastic Compliance Matrix: (Units=1/GPa)
#
#
# Indices 1 2 3 4 5 6 
#
# 1 0.005757 -0.004468 -0.007185 0.000000 -0.004315 0.000000
# 2 -0.004468 0.016171 0.039813 0.000000 0.049970 0.000000
# 3 -0.007185 0.039813 0.211581 0.000000 0.242515 0.000000
# 4 0.000000 0.000000 0.000000 1.695795 0.000000 0.204146
# 5 -0.004315 0.049970 0.242515 0.000000 0.341801 0.000000
# 6 0.000000 0.000000 0.000000 0.204146 0.000000 0.041994
#
#
# Mechanical properties :
#
#
# Convention : Reuss Voigt Hill
#
# Bulk Modulus (GPa) = 3.45030 74.17278 38.81154
# Shear Modulus (GPa) = 2.12460 37.60639 19.86549
#
# Velocity S-wave (km/s) = 0.92129 3.87604 2.81713
# Velocity P-wave (km/s) = 1.58433 7.04724 5.10753
#
# Compressibility (1/GPa) = 0.28982964
#
# Stress axis : x y z
#
# Youngs Moduli (GPa) = 173.68814 61.83931 4.72631
#
# Poissons Ratio (x) = 0.27630 0.03396
# Poissons Ratio (y) = 0.77603 -0.18817
# Poissons Ratio (z) = 1.24789 -2.46198
#
# Static dielectric constant tensor:
#      x y z
#    x 6.107400 0.000000 -0.082960 
#    y 0.000000 4.151020 0.000000 
#    z -0.082960 0.000000 4.243420 
# 
# 
# High freq. dielectric constant tensor:
#      x y z
#    x 2.042060 0.000000 -0.009880 
#    y 0.000000 1.987520 0.000000 
#    z -0.009880 0.000000 1.995690 
# 
# From -- ./inp_files/253156.got.cif
#   From: 2010.06.25/outbox.cif.g09.slc.cpg/sg12_127_cif.got.tgz:253156.got - 2010.06.28 00:19:55.
