data_PCOD8086190
_publ_section_title
;
Structure prediction by ZEFSAII (Michael W. Deem and Ramdas Pophale) SiO2 
 PCOD8086190
Probable space group: C 2/M
;
_chemical_formula_sum "Si O2"
_cell_formula_units_Z 56
_cell_length_a 18.995845
_cell_length_b 9.054687
_cell_length_c 20.410814
_cell_angle_alpha 90.000000
_cell_angle_beta 123.183400
_cell_angle_gamma 90.000000
_cell_volume 2938.176269
_symmetry_space_group_name_H-M "C 2/M"
_symmetry_group_IT_number 12
_symmetry_cell_setting 'monoclinic'
loop_
_space_group_symop_operation_xyz
x,y,z
-x,y,-z
-x,-y,-z
x,-y,z
1/2+x,1/2+y,z
1/2-x,1/2+y,-z
1/2-x,1/2-y,-z
1/2+x,1/2-y,z
loop_
_atom_site_type_symbol
_atom_site_label
_atom_site_fract_x
_atom_site_fract_y
_atom_site_fract_z
Si Si1 0.251082 0.671025 0.809990
Si Si2 0.690282 0.332928 0.516993
Si Si3 0.498065 0.329259 0.571574
Si Si4 0.559763 0.672029 0.089858
Si Si5 0.085425 0.176046 0.746506
Si Si6 0.228342 0.331621 0.310548
Si Si7 0.537319 0.829916 0.214137
O O1 0.228184 0.500000 0.806481
O O2 0.344529 0.706806 0.884905
O O3 0.179394 0.765866 0.810531
O O4 0.251969 0.713733 0.734653
O O5 0.717700 0.500000 0.523732
O O6 0.750000 0.250000 0.500000
O O7 0.594876 0.305692 0.447268
O O8 0.705728 0.286557 0.599871
O O9 0.500000 0.252489 0.500000
O O10 0.521306 0.500000 0.573099
O O11 0.560140 0.267074 0.659844
O O12 0.551130 0.500000 0.104160
O O13 0.531498 0.767235 0.137653
O O14 0.500000 0.717600 0.000000
O O15 0.022003 0.238925 0.767859
O O16 0.082325 0.000000 0.749168
O O17 0.243487 0.500000 0.292916
O O18 0.133070 0.314847 0.288277
O O19 0.508166 0.000000 0.198394
#
# Coordination Sequence:
#
# PCOD8086190 Si02
#       7
#     8   8   8   8   8   8   8
#     4  10  20  34  55  80 104 132 168 211 257 308
#     4  10  19  31  48  70  97 130 171 218 264 306
#     4   9  18  32  50  71  97 135 181 223 260 302
#     4   9  19  38  62  85 108 134 167 208 257 316
#     4  11  21  34  53  76 107 145 182 218 260 311
#     4   9  18  33  52  73 100 136 175 216 262 313
#     4  10  20  34  54  81 111 140 174 216 261 310
#
# _framework density 19.059439999999999
#
# number of rings (size 3 to 8) (size 9 to 14) (size 15 to 20)
#    0.000    2.286    0.000    3.000    0.000    4.286 
#    0.000    1.429    0.000    3.000    0.000    0.000 
#    0.000    0.000    0.000    0.000    0.000    0.000 
#
# Total GULP energy -347089.224908 kJ/mol
# GULP energy per Si atom -12396.043747 kJ/mol
# Density = 1.901606 g / cm^3
# Si number density = 19.059440 Si / 1000 Ang^3
#
#
#
# Elastic Constant Matrix: (Units=GPa)
#
#
# Indices 1 2 3 4 5 6 
#
# 1 73.3444 32.2456 32.3615 0.0000 -0.7324 0.0000
# 2 32.2456 66.0649 37.0573 0.0000 -0.2416 0.0000
# 3 32.3615 37.0573 92.4008 0.0000 16.2508 0.0000
# 4 0.0000 0.0000 0.0000 22.6280 0.0000 -2.6099
# 5 -0.7324 -0.2416 16.2508 0.0000 21.7777 0.0000
# 6 0.0000 0.0000 0.0000 -2.6099 0.0000 36.4745
#
#
#
# Elastic Compliance Matrix: (Units=1/GPa)
#
#
# Indices 1 2 3 4 5 6 
#
# 1 0.018544 -0.006451 -0.004610 0.000000 0.003992 0.000000
# 2 -0.006451 0.022741 -0.007904 0.000000 0.005934 0.000000
# 3 -0.004610 -0.007904 0.018014 0.000000 -0.013685 0.000000
# 4 0.000000 0.000000 0.000000 0.044561 0.000000 0.003188
# 5 0.003992 0.005934 -0.013685 0.000000 0.056330 0.000000
# 6 0.000000 0.000000 0.000000 0.003188 0.000000 0.027645
#
#
# Mechanical properties :
#
#
# Convention : Reuss Voigt Hill
#
# Bulk Modulus (GPa) = 46.79767 48.34876 47.57321
# Shear Modulus (GPa) = 21.46961 24.85242 23.16101
#
# Velocity S-wave (km/s) = 3.35991 3.61493 3.48975
# Velocity P-wave (km/s) = 6.29753 6.54569 6.42281
#
# Compressibility (1/GPa) = 0.02136858
#
# Stress axis : x y z
#
# Youngs Moduli (GPa) = 53.92521 43.97378 55.51336
#
# Poissons Ratio (x) = 0.28368 0.25589
# Poissons Ratio (y) = 0.34787 0.43880
# Poissons Ratio (z) = 0.24857 0.34759
#
# Static dielectric constant tensor:
#      x y z
#    x 3.483880 0.000000 0.188800 
#    y 0.000000 3.387230 0.000000 
#    z 0.188800 0.000000 3.486130 
# 
# 
# High freq. dielectric constant tensor:
#      x y z
#    x 1.748700 0.000000 0.013040 
#    y 0.000000 1.726070 0.000000 
#    z 0.013040 0.000000 1.730070 
# 
# From -- ./inp_files/313812.got.cif
#   From: 2010.06.25/outbox.cif.g09.slc.cpg/sg12_157_cif.got.tgz:313812.got - 2010.06.28 00:19:55.
