data_PCOD8086901
_publ_section_title
;
Structure prediction by ZEFSAII (Michael W. Deem and Ramdas Pophale) SiO2 
 PCOD8086901
Probable space group: C 2/M
;
_chemical_formula_sum "Si O2"
_cell_formula_units_Z 56
_cell_length_a 23.020320
_cell_length_b 9.062755
_cell_length_c 18.823061
_cell_angle_alpha 90.000000
_cell_angle_beta 54.010225
_cell_angle_gamma 90.000000
_cell_volume 3177.428522
_symmetry_space_group_name_H-M "C 2/M"
_symmetry_group_IT_number 12
_symmetry_cell_setting 'monoclinic'
loop_
_space_group_symop_operation_xyz
x,y,z
-x,y,-z
-x,-y,-z
x,-y,z
1/2+x,1/2+y,z
1/2-x,1/2+y,-z
1/2-x,1/2-y,-z
1/2+x,1/2-y,z
loop_
_atom_site_type_symbol
_atom_site_label
_atom_site_fract_x
_atom_site_fract_y
_atom_site_fract_z
Si Si1 0.560086 0.337998 0.016438
Si Si2 0.040899 0.672369 0.816271
Si Si3 0.055242 0.668878 0.399534
Si Si4 0.691655 0.671596 0.494283
Si Si5 0.700156 0.327623 0.324036
Si Si6 0.446755 0.832226 0.355834
Si Si7 0.840172 0.825098 0.176283
O O1 0.571401 0.500000 0.043000
O O2 0.631878 0.285512 0.923508
O O3 0.500000 0.349748 0.000000
O O4 0.534734 0.224014 0.094967
O O5 0.050839 0.500000 0.823351
O O6 0.036502 0.711778 0.736755
O O7 0.109115 0.755132 0.799988
O O8 0.078856 0.500000 0.397036
O O9 0.123559 0.774013 0.351311
O O10 0.000000 0.720769 0.500000
O O11 0.019494 0.686517 0.348125
O O12 0.695404 0.500000 0.507885
O O13 0.750000 0.750000 0.500000
O O14 0.709385 0.707485 0.400282
O O15 0.612575 0.726447 0.568882
O O16 0.707753 0.500000 0.302566
O O17 0.760890 0.239933 0.237961
O O18 0.418125 0.000000 0.381177
O O19 0.839697 0.000000 0.188806
#
# Coordination Sequence:
#
# PCOD8086901 Si02
#       7
#     8   8   8   8   8   8   8
#     4   8  16  31  50  74 104 137 173 209 248 307
#     4  10  19  31  51  80 111 137 166 212 262 306
#     4  10  20  37  59  75  95 137 182 215 254 307
#     4  11  23  35  50  74 105 138 169 207 257 307
#     4  11  23  36  52  77 106 133 170 221 264 301
#     4  10  21  36  53  76 104 134 174 215 252 303
#     4  10  20  34  53  77 106 140 176 210 251 311
#
# _framework density 17.624313999999998
#
# number of rings (size 3 to 8) (size 9 to 14) (size 15 to 20)
#    0.000    2.000    1.429    3.429    0.000   10.286 
#    0.000    0.000    0.000    0.857    0.000    0.000 
#    0.000    0.000    0.000    0.000    0.000    0.000 
#
# Total GULP energy -347239.028889 kJ/mol
# GULP energy per Si atom -12401.393889 kJ/mol
# Density = 1.758420 g / cm^3
# Si number density = 17.624314 Si / 1000 Ang^3
#
#
#
# Elastic Constant Matrix: (Units=GPa)
#
#
# Indices 1 2 3 4 5 6 
#
# 1 59.7632 34.9495 24.1098 -0.0005 -18.6013 0.0003
# 2 34.9495 84.0720 56.7042 -0.0012 -11.7837 0.0010
# 3 24.1098 56.7042 102.7866 -0.0007 -28.4215 0.0006
# 4 -0.0005 -0.0012 -0.0007 32.0726 0.0005 -4.9892
# 5 -18.6013 -11.7837 -28.4215 0.0005 18.7781 -0.0004
# 6 0.0003 0.0010 0.0006 -4.9892 -0.0004 27.3162
#
#
#
# Elastic Compliance Matrix: (Units=1/GPa)
#
#
# Indices 1 2 3 4 5 6 
#
# 1 0.035707 -0.017997 0.014120 0.000000 0.045448 0.000001
# 2 -0.017997 0.028526 -0.019769 0.000001 -0.029848 -0.000001
# 3 0.014120 -0.019769 0.030542 0.000000 0.047809 0.000001
# 4 0.000000 0.000001 0.000000 0.032091 -0.000001 0.005861
# 5 0.045448 -0.029848 0.047809 -0.000001 0.151904 0.000002
# 6 0.000001 -0.000001 0.000001 0.005861 0.000002 0.037679
#
#
# Mechanical properties :
#
#
# Convention : Reuss Voigt Hill
#
# Bulk Modulus (GPa) = 21.06006 53.12766 37.09386
# Shear Modulus (GPa) = 13.17285 24.35725 18.76505
#
# Velocity S-wave (km/s) = 2.73687 3.72159 3.26655
# Velocity P-wave (km/s) = 4.68643 6.97689 5.94305
#
# Compressibility (1/GPa) = 0.04748325
#
# Stress axis : x y z
#
# Youngs Moduli (GPa) = 28.00584 35.05569 32.74146
#
# Poissons Ratio (x) = 0.63090 -0.46230
# Poissons Ratio (y) = 0.50402 0.64726
# Poissons Ratio (z) = -0.39544 0.69301
#
# Static dielectric constant tensor:
#      x y z
#    x 3.059250 0.000000 -0.058330 
#    y 0.000000 3.393190 0.000000 
#    z -0.058330 0.000000 3.637040 
# 
# 
# High freq. dielectric constant tensor:
#      x y z
#    x 1.657190 0.000000 -0.005200 
#    y 0.000000 1.691050 0.000000 
#    z -0.005200 0.000000 1.687590 
# 
# From -- ./inp_files/281014.got.cif
#   From: 2010.06.25/outbox.cif.g09.slc.cpg/sg12_141_cif.got.tgz:281014.got - 2010.06.28 00:19:55.
