data_PCOD8086399
_publ_section_title
;
Structure prediction by ZEFSAII (Michael W. Deem and Ramdas Pophale) SiO2 
 PCOD8086399
Probable space group: C 2/M
;
_chemical_formula_sum "Si O2"
_cell_formula_units_Z 56
_cell_length_a 23.834814
_cell_length_b 8.730831
_cell_length_c 20.411343
_cell_angle_alpha 90.000000
_cell_angle_beta 124.504021
_cell_angle_gamma 90.000000
_cell_volume 3500.351808
_symmetry_space_group_name_H-M "C 2/M"
_symmetry_group_IT_number 12
_symmetry_cell_setting 'monoclinic'
loop_
_space_group_symop_operation_xyz
x,y,z
-x,y,-z
-x,-y,-z
x,-y,z
1/2+x,1/2+y,z
1/2-x,1/2+y,-z
1/2-x,1/2-y,-z
1/2+x,1/2-y,z
loop_
_atom_site_type_symbol
_atom_site_label
_atom_site_fract_x
_atom_site_fract_y
_atom_site_fract_z
Si Si1 0.306562 0.818606 0.990799
Si Si2 0.050498 0.321673 0.093608
Si Si3 0.690159 0.679499 0.147982
Si Si4 0.950945 0.681013 0.137112
Si Si5 0.056194 0.325207 0.585396
Si Si6 0.179807 0.821141 0.721725
Si Si7 0.078307 0.325400 0.740648
O O1 0.379664 0.754701 0.062861
O O2 0.303207 0.000000 0.992662
O O3 0.250000 0.750000 0.000000
O O4 0.295279 0.768256 0.909250
O O5 0.070903 0.500000 0.111791
O O6 0.117572 0.221655 0.130053
O O7 0.013613 0.258235 0.134968
O O8 0.000000 0.294304 0.000000
O O9 0.694224 0.500000 0.138335
O O10 0.748605 0.732894 0.237622
O O11 0.950864 0.500000 0.129363
O O12 0.959807 0.733250 0.219055
O O13 0.069752 0.500000 0.572674
O O14 0.128201 0.234113 0.629440
O O15 0.029356 0.317595 0.643689
O O16 0.000000 0.250127 0.500000
O O17 0.145294 0.776913 0.769321
O O18 0.192772 0.000000 0.724868
O O19 0.103471 0.500000 0.768871
#
# Coordination Sequence:
#
# PCOD8086399 Si02
#       7
#     8   8   8   8   8   8   8
#     4  11  21  33  49  71  95 128 166 204 249 293
#     4  10  19  35  53  67  87 124 170 215 253 290
#     4  12  23  35  48  67  96 132 169 210 249 291
#     4   9  17  31  50  67  90 125 163 202 244 286
#     4   8  15  29  50  75 104 132 154 184 236 301
#     4  10  19  31  49  73 100 129 161 201 242 286
#     4   8  15  29  48  72 101 127 156 190 235 297
#
# _framework density 15.998392000000001
#
# number of rings (size 3 to 8) (size 9 to 14) (size 15 to 20)
#    0.857    1.429    1.429    3.429    0.000    1.714 
#    0.000    1.429    0.000    0.000    0.000    1.000 
#    0.000    0.000    0.000    0.000    0.000    0.000 
#
# Total GULP energy -346947.854758 kJ/mol
# GULP energy per Si atom -12390.994813 kJ/mol
# Density = 1.596198 g / cm^3
# Si number density = 15.998392 Si / 1000 Ang^3
#
#
#
# Elastic Constant Matrix: (Units=GPa)
#
#
# Indices 1 2 3 4 5 6 
#
# 1 93.2894 27.0195 41.3776 0.0000 14.0071 0.0000
# 2 27.0195 60.4259 25.9160 0.0000 4.9540 0.0000
# 3 41.3776 25.9160 98.9533 0.0000 9.0978 0.0000
# 4 0.0000 0.0000 0.0000 19.3958 0.0000 4.4345
# 5 14.0071 4.9540 9.0978 0.0000 16.1613 0.0000
# 6 0.0000 0.0000 0.0000 4.4345 0.0000 23.7247
#
#
#
# Elastic Compliance Matrix: (Units=1/GPa)
#
#
# Indices 1 2 3 4 5 6 
#
# 1 0.015324 -0.004168 -0.004442 0.000000 -0.009503 0.000000
# 2 -0.004168 0.019928 -0.003424 0.000000 -0.000569 0.000000
# 3 -0.004442 -0.003424 0.013087 0.000000 -0.002467 0.000000
# 4 0.000000 0.000000 0.000000 0.053859 0.000000 -0.010067
# 5 -0.009503 -0.000569 -0.002467 0.000000 0.071676 0.000000
# 6 0.000000 0.000000 0.000000 -0.010067 0.000000 0.044032
#
#
# Mechanical properties :
#
#
# Convention : Reuss Voigt Hill
#
# Bulk Modulus (GPa) = 41.20271 49.03275 45.11773
# Shear Modulus (GPa) = 19.99490 22.41341 21.20416
#
# Velocity S-wave (km/s) = 3.53910 3.74703 3.64454
# Velocity P-wave (km/s) = 6.52001 7.03103 6.78033
#
# Compressibility (1/GPa) = 0.02427025
#
# Stress axis : x y z
#
# Youngs Moduli (GPa) = 65.25885 50.18079 76.41165
#
# Poissons Ratio (x) = 0.20913 0.33945
# Poissons Ratio (y) = 0.27197 0.26165
# Poissons Ratio (z) = 0.28991 0.17183
#
# Static dielectric constant tensor:
#      x y z
#    x 2.784220 0.000000 0.034210 
#    y 0.000000 2.872240 0.000000 
#    z 0.034210 0.000000 3.023790 
# 
# 
# High freq. dielectric constant tensor:
#      x y z
#    x 1.596500 0.000000 0.004220 
#    y 0.000000 1.606190 0.000000 
#    z 0.004220 0.000000 1.598740 
# 
# From -- ./inp_files/345653.got.cif
#   From: 2010.06.25/outbox.cif.g09.slc.cpg/sg12_173_cif.got.tgz:345653.got - 2010.06.28 00:19:55.
