data_PCOD8086404
_publ_section_title
;
Structure prediction by ZEFSAII (Michael W. Deem and Ramdas Pophale) SiO2 
 PCOD8086404
Probable space group: C 2/M
;
_chemical_formula_sum "Si O2"
_cell_formula_units_Z 56
_cell_length_a 29.390236
_cell_length_b 9.121322
_cell_length_c 18.821240
_cell_angle_alpha 90.000000
_cell_angle_beta 142.321559
_cell_angle_gamma 90.000000
_cell_volume 3083.992001
_symmetry_space_group_name_H-M "C 2/M"
_symmetry_group_IT_number 12
_symmetry_cell_setting 'monoclinic'
loop_
_space_group_symop_operation_xyz
x,y,z
-x,y,-z
-x,-y,-z
x,-y,z
1/2+x,1/2+y,z
1/2-x,1/2+y,-z
1/2-x,1/2-y,-z
1/2+x,1/2-y,z
loop_
_atom_site_type_symbol
_atom_site_label
_atom_site_fract_x
_atom_site_fract_y
_atom_site_fract_z
Si Si1 0.699037 0.171831 0.593320
Si Si2 0.270131 0.334744 0.231992
Si Si3 0.938843 0.830992 0.114855
Si Si4 0.728168 0.327881 0.045112
Si Si5 0.844262 0.672288 0.720300
Si Si6 0.077940 0.669611 0.327533
Si Si7 0.400986 0.161428 0.936574
O O1 0.684082 0.251353 0.649980
O O2 0.769675 0.235373 0.639086
O O3 0.626322 0.202100 0.456641
O O4 0.712603 0.000000 0.623223
O O5 0.301224 0.500000 0.259898
O O6 0.277852 0.244182 0.168606
O O7 0.185454 0.339880 0.151342
O O8 0.000110 0.753846 0.239821
O O9 0.957399 0.000000 0.135410
O O10 0.858683 0.797379 0.048959
O O11 0.944583 0.773226 0.040831
O O12 0.745818 0.500000 0.063321
O O13 0.750000 0.250000 0.000000
O O14 0.823350 0.500000 0.694549
O O15 0.878828 0.725131 0.689019
O O16 0.904890 0.705278 0.857991
O O17 0.059121 0.500000 0.296156
O O18 0.435799 0.000000 0.991952
#
# Coordination Sequence:
#
# PCOD8086404 Si02
#       7
#     8   8   8   8   8   8   8
#     4  10  19  31  49  73 100 133 173 215 251 287
#     4   9  17  31  52  76 101 132 165 200 245 295
#     4  10  21  34  49  72 101 130 163 202 248 299
#     4  10  20  35  57  84 107 127 156 198 247 301
#     4   9  18  32  49  70  95 131 177 217 252 293
#     4  10  21  34  48  68  99 138 175 209 250 297
#     4   8  15  29  48  67  93 129 166 204 247 293
#
# _framework density 18.158283000000001
#
# number of rings (size 3 to 8) (size 9 to 14) (size 15 to 20)
#    0.000    2.571    0.000    3.000    0.000    7.429 
#    0.000    2.857    0.000    0.857    0.000    6.000 
#    0.000    0.000    0.000    0.000    0.000    0.000 
#
# Total GULP energy -347194.087277 kJ/mol
# GULP energy per Si atom -12399.788831 kJ/mol
# Density = 1.811695 g / cm^3
# Si number density = 18.158283 Si / 1000 Ang^3
#
#
#
# Elastic Constant Matrix: (Units=GPa)
#
#
# Indices 1 2 3 4 5 6 
#
# 1 65.2877 50.7501 46.9554 0.0000 -26.0513 0.0000
# 2 50.7501 119.1020 73.3604 0.0000 -11.1175 0.0000
# 3 46.9554 73.3604 118.1057 0.0000 -18.6091 0.0000
# 4 0.0000 0.0000 0.0000 33.8215 0.0000 -2.2281
# 5 -26.0513 -11.1175 -18.6091 0.0000 27.4941 0.0000
# 6 0.0000 0.0000 0.0000 -2.2281 0.0000 25.7155
#
#
#
# Elastic Compliance Matrix: (Units=1/GPa)
#
#
# Indices 1 2 3 4 5 6 
#
# 1 0.038580 -0.011501 -0.003546 0.000000 0.029505 0.000000
# 2 -0.011501 0.017029 -0.007429 0.000000 -0.009040 0.000000
# 3 -0.003546 -0.007429 0.015099 0.000000 0.003856 0.000000
# 4 0.000000 0.000000 0.000000 0.029737 0.000000 0.002577
# 5 0.029505 -0.009040 0.003856 0.000000 0.063283 0.000000
# 6 0.000000 0.000000 0.000000 0.002577 0.000000 0.039110
#
#
# Mechanical properties :
#
#
# Convention : Reuss Voigt Hill
#
# Bulk Modulus (GPa) = 38.82596 71.62525 55.22560
# Shear Modulus (GPa) = 19.50260 26.16819 22.83540
#
# Velocity S-wave (km/s) = 3.28080 3.80032 3.55008
# Velocity P-wave (km/s) = 5.98163 7.66728 6.87630
#
# Compressibility (1/GPa) = 0.02575597
#
# Stress axis : x y z
#
# Youngs Moduli (GPa) = 25.91987 58.72270 66.23031
#
# Poissons Ratio (x) = 0.67539 0.23482
# Poissons Ratio (y) = 0.29811 0.49205
# Poissons Ratio (z) = 0.09190 0.43627
#
# Static dielectric constant tensor:
#      x y z
#    x 3.124150 0.000000 -0.239320 
#    y 0.000000 3.461350 0.000000 
#    z -0.239320 0.000000 3.430340 
# 
# 
# High freq. dielectric constant tensor:
#      x y z
#    x 1.672100 0.000000 -0.018940 
#    y 0.000000 1.710950 0.000000 
#    z -0.018940 0.000000 1.703490 
# 
# From -- ./inp_files/288375.got.cif
#   From: 2010.06.25/outbox.cif.g09.slc.cpg/sg12_145_cif.got.tgz:288375.got - 2010.06.28 00:19:55.
