data_PCOD8086392
_publ_section_title
;
Structure prediction by ZEFSAII (Michael W. Deem and Ramdas Pophale) SiO2 
 PCOD8086392
Probable space group: C 2/M
;
_chemical_formula_sum "Si O2"
_cell_formula_units_Z 64
_cell_length_a 21.285085
_cell_length_b 9.009419
_cell_length_c 22.218191
_cell_angle_alpha 90.000000
_cell_angle_beta 52.770375
_cell_angle_gamma 90.000000
_cell_volume 3392.441955
_symmetry_space_group_name_H-M "C 2/M"
_symmetry_group_IT_number 12
_symmetry_cell_setting 'monoclinic'
loop_
_space_group_symop_operation_xyz
x,y,z
-x,y,-z
-x,-y,-z
x,-y,z
1/2+x,1/2+y,z
1/2-x,1/2+y,-z
1/2-x,1/2-y,-z
1/2+x,1/2-y,z
loop_
_atom_site_type_symbol
_atom_site_label
_atom_site_fract_x
_atom_site_fract_y
_atom_site_fract_z
Si Si1 0.585582 0.825544 0.579715
Si Si2 0.565733 0.336130 0.307261
Si Si3 0.219592 0.328142 0.200690
Si Si4 0.379934 0.174324 0.305649
Si Si5 0.694024 0.177066 0.081024
Si Si6 0.466942 0.336158 0.811631
Si Si7 0.741737 0.670769 0.301675
Si Si8 0.090213 0.828156 0.462797
O O1 0.505703 0.732901 0.614748
O O2 0.624898 0.780351 0.620677
O O3 0.630641 0.768248 0.493926
O O4 0.569963 0.000000 0.586315
O O5 0.589745 0.500000 0.320190
O O6 0.632147 0.212303 0.271827
O O7 0.540884 0.360550 0.253901
O O8 0.236427 0.500000 0.196408
O O9 0.230397 0.275998 0.125150
O O10 0.271387 0.246481 0.221795
O O11 0.450363 0.251590 0.227057
O O12 0.297848 0.225878 0.323474
O O13 0.395606 0.000000 0.291852
O O14 0.606127 0.239577 0.121098
O O15 0.691155 0.000000 0.076132
O O16 0.750000 0.250000 0.000000
O O17 0.467915 0.500000 0.842356
O O18 0.757885 0.500000 0.281519
O O19 0.649152 0.701602 0.371799
O O20 0.000000 0.779844 0.500000
O O21 0.093930 0.000000 0.479530
#
# Coordination Sequence:
#
# PCOD8086392 Si02
#       8
#     8   8   8   8   8   8   8   8
#     4  10  19  31  49  72  99 131 171 222 271 311
#     4   9  16  28  48  72  98 131 169 207 254 312
#     4  10  20  33  51  77 107 135 168 213 258 299
#     4   9  19  35  52  73 102 138 181 223 263 309
#     4  10  20  34  55  85 117 143 167 203 253 307
#     4   9  17  30  51  78 105 135 171 210 253 303
#     4  10  21  36  53  72 100 141 182 218 261 317
#     4  10  21  35  50  71 100 134 175 223 274 325
#
# _framework density 18.865466000000001
#
# number of rings (size 3 to 8) (size 9 to 14) (size 15 to 20)
#    0.000    2.375    0.000    2.625    0.000    7.750 
#    0.000    0.000    0.000    0.750    0.000    5.250 
#    0.000    0.000    0.000    0.000    0.000    0.000 
#
# Total GULP energy -396424.858167 kJ/mol
# GULP energy per Si atom -12388.276818 kJ/mol
# Density = 1.882253 g / cm^3
# Si number density = 18.865466 Si / 1000 Ang^3
#
#
#
# Elastic Constant Matrix: (Units=GPa)
#
#
# Indices 1 2 3 4 5 6 
#
# 1 89.9143 33.2429 45.1506 0.0001 9.3956 0.0013
# 2 33.2429 63.8840 45.3074 0.0001 4.2597 0.0030
# 3 45.1506 45.3074 106.8102 0.0000 10.5725 0.0000
# 4 0.0001 0.0001 0.0000 28.7679 -0.0001 2.3332
# 5 9.3956 4.2597 10.5725 -0.0001 24.9463 0.0003
# 6 0.0013 0.0030 0.0000 2.3332 0.0003 23.5639
#
#
#
# Elastic Compliance Matrix: (Units=1/GPa)
#
#
# Indices 1 2 3 4 5 6 
#
# 1 0.015305 -0.004844 -0.004098 0.000000 -0.003200 0.000000
# 2 -0.004844 0.023923 -0.008221 0.000000 0.001224 -0.000003
# 3 -0.004098 -0.008221 0.014916 0.000000 -0.003374 0.000001
# 4 0.000000 0.000000 0.000000 0.035042 0.000000 -0.003470
# 5 -0.003200 0.001224 -0.003374 0.000000 0.042512 0.000000
# 6 0.000000 -0.000003 0.000001 -0.003470 0.000000 0.042781
#
#
# Mechanical properties :
#
#
# Convention : Reuss Voigt Hill
#
# Bulk Modulus (GPa) = 50.46169 56.44560 53.45364
# Shear Modulus (GPa) = 23.21119 24.58280 23.89699
#
# Velocity S-wave (km/s) = 3.51144 3.61371 3.56294
# Velocity P-wave (km/s) = 6.57621 6.88454 6.73214
#
# Compressibility (1/GPa) = 0.01981701
#
# Stress axis : x y z
#
# Youngs Moduli (GPa) = 65.33811 41.80044 67.04208
#
# Poissons Ratio (x) = 0.20250 0.27474
# Poissons Ratio (y) = 0.31653 0.55117
# Poissons Ratio (z) = 0.26775 0.34365
#
# Static dielectric constant tensor:
#      x y z
#    x 3.545330 0.000000 0.179270 
#    y 0.000000 3.733260 0.000000 
#    z 0.179270 0.000000 3.447280 
# 
# 
# High freq. dielectric constant tensor:
#      x y z
#    x 1.715710 0.000000 0.015430 
#    y 0.000000 1.736540 0.000000 
#    z 0.015430 0.000000 1.717710 
# 
# From -- ./inp_files/323602.got.cif
#   From: 2010.06.25/outbox.cif.g09.slc.cpg/sg12_162_cif.got.tgz:323602.got - 2010.06.28 00:19:55.
