data_PCOD8086456
_publ_section_title
;
Structure prediction by ZEFSAII (Michael W. Deem and Ramdas Pophale) SiO2 
 PCOD8086456
Probable space group: C 2/M
;
_chemical_formula_sum "Si O2"
_cell_formula_units_Z 64
_cell_length_a 21.070511
_cell_length_b 9.086113
_cell_length_c 25.597652
_cell_angle_alpha 90.000000
_cell_angle_beta 44.039131
_cell_angle_gamma 90.000000
_cell_volume 3406.681579
_symmetry_space_group_name_H-M "C 2/M"
_symmetry_group_IT_number 12
_symmetry_cell_setting 'monoclinic'
loop_
_space_group_symop_operation_xyz
x,y,z
-x,y,-z
-x,-y,-z
x,-y,z
1/2+x,1/2+y,z
1/2-x,1/2+y,-z
1/2-x,1/2-y,-z
1/2+x,1/2-y,z
loop_
_atom_site_type_symbol
_atom_site_label
_atom_site_fract_x
_atom_site_fract_y
_atom_site_fract_z
Si Si1 0.735344 0.325991 0.697194
Si Si2 0.590430 0.171608 0.191629
Si Si3 0.797369 0.826245 0.077376
Si Si4 0.932154 0.840753 0.695495
Si Si5 0.967159 0.330042 0.961488
Si Si6 0.941036 0.669841 0.199244
Si Si7 0.919404 0.173656 0.586963
Si Si8 0.776441 0.337597 0.189927
O O1 0.740826 0.500000 0.687444
O O2 0.642726 0.262720 0.725828
O O3 0.828582 0.255027 0.619508
O O4 0.724196 0.276501 0.762925
O O5 0.695644 0.222211 0.119565
O O6 0.539300 0.237258 0.273237
O O7 0.533401 0.217761 0.174377
O O8 0.590242 0.000000 0.202108
O O9 0.827065 0.743938 0.113175
O O10 0.804133 0.000000 0.080024
O O11 0.879354 0.765009 0.992623
O O12 0.949467 0.771596 0.627308
O O13 0.825956 0.867179 0.766488
O O14 0.982440 0.000000 0.669978
O O15 0.937391 0.500000 0.978075
O O16 0.046643 0.301443 0.870800
O O17 0.000000 0.282507 0.000000
O O18 0.919689 0.500000 0.223179
O O19 0.000000 0.213256 0.500000
O O20 0.897694 0.000000 0.602317
O O21 0.821429 0.500000 0.175644
#
# Coordination Sequence:
#
# PCOD8086456 Si02
#       8
#     8   8   8   8   8   8   8   8
#     4  11  21  32  50  78 108 134 166 213 262 300
#     4   9  19  34  51  72  99 136 178 217 258 304
#     4  10  19  31  49  74 102 129 166 220 273 312
#     4   8  15  28  49  76 102 129 163 204 244 289
#     4  10  21  35  51  71  96 131 175 220 268 322
#     4  10  21  37  53  69  97 139 182 216 253 312
#     4   9  18  34  57  84 112 141 169 197 242 308
#     4   9  16  29  49  71  97 133 172 205 249 309
#
# _framework density 18.78661
#
# number of rings (size 3 to 8) (size 9 to 14) (size 15 to 20)
#    0.000    2.500    0.000    3.375    0.000    6.500 
#    0.000    0.000    0.000    0.750    0.000    0.000 
#    0.000    0.000    0.000    0.000    0.000    0.000 
#
# Total GULP energy -396427.534189 kJ/mol
# GULP energy per Si atom -12388.360443 kJ/mol
# Density = 1.874385 g / cm^3
# Si number density = 18.786610 Si / 1000 Ang^3
#
#
#
# Elastic Constant Matrix: (Units=GPa)
#
#
# Indices 1 2 3 4 5 6 
#
# 1 89.4507 43.3542 41.0868 0.0001 -11.5578 0.0005
# 2 43.3542 74.8659 41.4275 0.0002 -13.5409 0.0015
# 3 41.0868 41.4275 95.2592 0.0000 -16.3161 0.0000
# 4 0.0001 0.0002 0.0000 24.2907 -0.0001 -2.2628
# 5 -11.5578 -13.5409 -16.3161 -0.0001 27.2124 -0.0001
# 6 0.0005 0.0015 0.0000 -2.2628 -0.0001 23.6288
#
#
#
# Elastic Compliance Matrix: (Units=1/GPa)
#
#
# Indices 1 2 3 4 5 6 
#
# 1 0.016614 -0.007318 -0.003787 0.000000 0.001144 0.000000
# 2 -0.007318 0.021357 -0.005398 0.000000 0.004282 -0.000001
# 3 -0.003787 -0.005398 0.015316 0.000000 0.004889 0.000000
# 4 0.000000 0.000000 0.000000 0.041539 0.000000 0.003978
# 5 0.001144 0.004282 0.004889 0.000000 0.042296 0.000000
# 6 0.000000 -0.000001 0.000000 0.003978 0.000000 0.042702
#
#
# Mechanical properties :
#
#
# Convention : Reuss Voigt Hill
#
# Bulk Modulus (GPa) = 49.31035 56.81251 53.06143
# Shear Modulus (GPa) = 22.76976 23.94018 23.35497
#
# Velocity S-wave (km/s) = 3.48519 3.57364 3.52969
# Velocity P-wave (km/s) = 6.51920 6.88000 6.70203
#
# Compressibility (1/GPa) = 0.02027972
#
# Stress axis : x y z
#
# Youngs Moduli (GPa) = 60.19153 46.82374 65.29140
#
# Poissons Ratio (x) = 0.34267 0.24727
# Poissons Ratio (y) = 0.44050 0.35243
# Poissons Ratio (z) = 0.22795 0.25275
#
# Static dielectric constant tensor:
#      x y z
#    x 3.558710 0.000000 -0.132360 
#    y 0.000000 3.524890 0.000000 
#    z -0.132360 0.000000 3.404490 
# 
# 
# High freq. dielectric constant tensor:
#      x y z
#    x 1.718080 0.000000 -0.011790 
#    y 0.000000 1.723120 0.000000 
#    z -0.011790 0.000000 1.707850 
# 
# From -- ./inp_files/348508.got.cif
#   From: 2010.06.25/outbox.cif.g09.slc.cpg/sg12_175_cif.got.tgz:348508.got - 2010.06.28 00:19:55.
