data_PCOD8086589
_publ_section_title
;
Structure prediction by ZEFSAII (Michael W. Deem and Ramdas Pophale) SiO2 
 PCOD8086589
Probable space group: C 2/M
;
_chemical_formula_sum "Si O2"
_cell_formula_units_Z 56
_cell_length_a 28.460609
_cell_length_b 9.100760
_cell_length_c 19.054873
_cell_angle_alpha 90.000000
_cell_angle_beta 41.953129
_cell_angle_gamma 90.000000
_cell_volume 3299.467884
_symmetry_space_group_name_H-M "C 2/M"
_symmetry_group_IT_number 12
_symmetry_cell_setting 'monoclinic'
loop_
_space_group_symop_operation_xyz
x,y,z
-x,y,-z
-x,-y,-z
x,-y,z
1/2+x,1/2+y,z
1/2-x,1/2+y,-z
1/2-x,1/2-y,-z
1/2+x,1/2-y,z
loop_
_atom_site_type_symbol
_atom_site_label
_atom_site_fract_x
_atom_site_fract_y
_atom_site_fract_z
Si Si1 0.752451 0.670429 0.388168
Si Si2 0.705219 0.827121 0.310600
Si Si3 0.736571 0.170861 0.119432
Si Si4 0.942213 0.829262 0.507205
Si Si5 0.856780 0.828270 0.882933
Si Si6 0.514943 0.329353 0.698693
Si Si7 0.856332 0.670484 0.393119
O O1 0.735950 0.500000 0.394088
O O2 0.757812 0.752506 0.308063
O O3 0.824697 0.694153 0.350489
O O4 0.686976 0.736802 0.502567
O O5 0.738596 0.786769 0.198591
O O6 0.626887 0.765854 0.403844
O O7 0.702954 0.000000 0.326543
O O8 0.671800 0.252687 0.155345
O O9 0.722599 0.000000 0.124054
O O10 0.810498 0.218254 0.001942
O O11 0.972942 0.795013 0.396480
O O12 0.000000 0.781137 0.500000
O O13 0.922644 0.000000 0.537593
O O14 0.936691 0.779719 0.806914
O O15 0.853047 0.000000 0.872223
O O16 0.528326 0.500000 0.700499
O O17 0.564764 0.231402 0.692979
O O18 0.853667 0.500000 0.417559
#
# Coordination Sequence:
#
# PCOD8086589 Si02
#       7
#     8   8   8   8   8   8   8
#     4  10  20  34  51  72  99 131 167 203 244 301
#     4  11  21  32  49  74 102 133 165 205 252 292
#     4   9  19  34  51  74 102 131 170 213 247 286
#     4  10  20  32  46  69 101 134 165 198 241 299
#     4   9  18  34  54  74  98 133 173 208 245 291
#     4  10  19  31  50  74 100 132 166 203 246 296
#     4  10  20  33  51  74 100 129 162 205 252 297
#
# _framework density 16.972432999999999
#
# number of rings (size 3 to 8) (size 9 to 14) (size 15 to 20)
#    0.000    2.143    1.429    2.143    0.000    4.857 
#    0.000    0.000    0.000    0.857    0.000    6.000 
#    0.000    0.000    0.000    0.000    0.000    0.000 
#
# Total GULP energy -347258.948987 kJ/mol
# GULP energy per Si atom -12402.105321 kJ/mol
# Density = 1.693380 g / cm^3
# Si number density = 16.972433 Si / 1000 Ang^3
#
#
#
# Elastic Constant Matrix: (Units=GPa)
#
#
# Indices 1 2 3 4 5 6 
#
# 1 136.9808 61.1307 64.2051 -0.0141 0.3430 0.0101
# 2 61.1307 77.4091 47.4595 -0.0148 4.1907 0.0124
# 3 64.2051 47.4595 89.5864 -0.0061 0.1761 0.0104
# 4 -0.0141 -0.0148 -0.0061 21.8386 0.0098 -0.7447
# 5 0.3430 4.1907 0.1761 0.0098 25.8901 -0.0060
# 6 0.0101 0.0124 0.0104 -0.7447 -0.0060 32.8197
#
#
#
# Elastic Compliance Matrix: (Units=1/GPa)
#
#
# Indices 1 2 3 4 5 6 
#
# 1 0.013029 -0.006836 -0.005718 0.000002 0.000973 0.000001
# 2 -0.006836 0.022959 -0.007257 0.000010 -0.003576 -0.000005
# 3 -0.005718 -0.007257 0.019103 -0.000004 0.001120 -0.000001
# 4 0.000002 0.000010 -0.000004 0.045826 -0.000019 0.001040
# 5 0.000973 -0.003576 0.001120 -0.000019 0.039183 0.000007
# 6 0.000001 -0.000005 -0.000001 0.001040 0.000007 0.030493
#
#
# Mechanical properties :
#
#
# Convention : Reuss Voigt Hill
#
# Bulk Modulus (GPa) = 64.64396 72.17410 68.40903
# Shear Modulus (GPa) = 23.21579 24.85509 24.03544
#
# Velocity S-wave (km/s) = 3.70246 3.83095 3.76725
# Velocity P-wave (km/s) = 7.51318 7.88574 7.70171
#
# Compressibility (1/GPa) = 0.01546935
#
# Stress axis : x y z
#
# Youngs Moduli (GPa) = 76.75453 43.55496 52.34887
#
# Poissons Ratio (x) = 0.29773 0.29933
# Poissons Ratio (y) = 0.52468 0.37989
# Poissons Ratio (z) = 0.43888 0.31608
#
# Static dielectric constant tensor:
#      x y z
#    x 3.327060 -0.000030 0.042830 
#    y -0.000030 3.215260 0.000030 
#    z 0.042830 0.000030 3.195170 
# 
# 
# High freq. dielectric constant tensor:
#      x y z
#    x 1.657860 0.000000 0.001260 
#    y 0.000000 1.661080 0.000000 
#    z 0.001260 0.000000 1.635670 
# 
# From -- ./inp_files/287343.got.cif
#   From: 2010.06.25/outbox.cif.g09.slc.cpg/sg12_144_cif.got.tgz:287343.got - 2010.06.28 00:19:55.
