data_PCOD8086693
_publ_section_title
;
Structure prediction by ZEFSAII (Michael W. Deem and Ramdas Pophale) SiO2 
 PCOD8086693
Probable space group: C 2/M
;
_chemical_formula_sum "Si O2"
_cell_formula_units_Z 64
_cell_length_a 24.365605
_cell_length_b 9.011423
_cell_length_c 28.598305
_cell_angle_alpha 90.000000
_cell_angle_beta 34.990611
_cell_angle_gamma 90.000000
_cell_volume 3600.812563
_symmetry_space_group_name_H-M "C 2/M"
_symmetry_group_IT_number 12
_symmetry_cell_setting 'monoclinic'
loop_
_space_group_symop_operation_xyz
x,y,z
-x,y,-z
-x,-y,-z
x,-y,z
1/2+x,1/2+y,z
1/2-x,1/2+y,-z
1/2-x,1/2-y,-z
1/2+x,1/2-y,z
loop_
_atom_site_type_symbol
_atom_site_label
_atom_site_fract_x
_atom_site_fract_y
_atom_site_fract_z
Si Si1 0.350084 0.324375 0.671303
Si Si2 0.411381 0.826372 0.278085
Si Si3 0.097759 0.171038 0.110858
Si Si4 0.270660 0.824608 0.638684
Si Si5 0.782729 0.669923 0.044060
Si Si6 0.324417 0.327598 0.793282
Si Si7 0.484462 0.829700 0.325579
Si Si8 0.953122 0.326585 0.451479
O O1 0.350407 0.500000 0.663992
O O2 0.280723 0.249562 0.682253
O O3 0.307848 0.275906 0.751449
O O4 0.457730 0.264325 0.590256
O O5 0.508872 0.772936 0.186292
O O6 0.324955 0.733028 0.318088
O O7 0.413144 0.794042 0.332627
O O8 0.397259 0.000000 0.277315
O O9 0.181326 0.196660 0.089800
O O10 0.065847 0.000000 0.130213
O O11 0.135996 0.223059 0.033291
O O12 0.359454 0.775802 0.544495
O O13 0.264867 0.000000 0.648579
O O14 0.815774 0.500000 0.014325
O O15 0.767054 0.709348 0.110022
O O16 0.346502 0.500000 0.778876
O O17 0.417809 0.256374 0.750674
O O18 0.435418 0.787205 0.409232
O O19 0.514158 0.000000 0.304637
O O20 0.974997 0.500000 0.443689
#
# Coordination Sequence:
#
# PCOD8086693 Si02
#       8
#     8   8   8   8   8   8   8   8
#     4  10  20  34  55  80 104 131 171 219 261 299
#     4  11  22  35  52  74 105 139 173 213 256 305
#     4  10  19  31  50  76 107 139 170 204 247 303
#     4  11  23  37  53  72 100 140 179 213 257 309
#     4   9  17  30  50  77 108 136 167 204 248 301
#     4   9  17  31  52  78 106 135 166 208 257 303
#     4   9  18  32  51  75 103 134 169 210 257 305
#     4   9  19  36  55  76 102 133 170 215 263 308
#
# _framework density 17.773765000000001
#
# number of rings (size 3 to 8) (size 9 to 14) (size 15 to 20)
#    0.000    2.250    1.250    1.875    0.000    5.000 
#    0.000    0.000    0.000    0.750    0.000    5.250 
#    0.000    0.000    0.000    0.000    0.000    0.000 
#
# Total GULP energy -396788.495407 kJ/mol
# GULP energy per Si atom -12399.640481 kJ/mol
# Density = 1.773331 g / cm^3
# Si number density = 17.773765 Si / 1000 Ang^3
#
#
#
# Elastic Constant Matrix: (Units=GPa)
#
#
# Indices 1 2 3 4 5 6 
#
# 1 89.2953 27.5540 31.9954 0.0087 8.6982 -0.0140
# 2 27.5540 51.0253 21.7855 0.0084 5.4800 -0.0089
# 3 31.9954 21.7855 51.8790 0.0065 18.5183 -0.0098
# 4 0.0087 0.0084 0.0065 29.5814 -0.0065 -2.1770
# 5 8.6982 5.4800 18.5183 -0.0065 20.9001 0.0122
# 6 -0.0140 -0.0089 -0.0098 -2.1770 0.0122 28.3246
#
#
#
# Elastic Compliance Matrix: (Units=1/GPa)
#
#
# Indices 1 2 3 4 5 6 
#
# 1 0.015495 -0.005107 -0.008173 -0.000001 0.002132 0.000002
# 2 -0.005107 0.025775 -0.008805 -0.000003 0.003169 0.000001
# 3 -0.008173 -0.008805 0.037991 -0.000008 -0.027951 0.000018
# 4 -0.000001 -0.000003 -0.000008 0.033997 0.000017 0.002613
# 5 0.002132 0.003169 -0.027951 0.000017 0.070895 -0.000037
# 6 0.000002 0.000001 0.000018 0.002613 -0.000037 0.035506
#
#
# Mechanical properties :
#
#
# Convention : Reuss Voigt Hill
#
# Bulk Modulus (GPa) = 28.49709 39.42993 33.96351
# Shear Modulus (GPa) = 18.14707 23.15220 20.64963
#
# Velocity S-wave (km/s) = 3.19878 3.61308 3.41222
# Velocity P-wave (km/s) = 5.45078 6.29589 5.88852
#
# Compressibility (1/GPa) = 0.03509130
#
# Stress axis : x y z
#
# Youngs Moduli (GPa) = 64.53503 38.79712 26.32212
#
# Poissons Ratio (x) = 0.19814 0.21512
# Poissons Ratio (y) = 0.32959 0.23177
# Poissons Ratio (z) = 0.52743 0.34161
#
# Static dielectric constant tensor:
#      x y z
#    x 3.371800 -0.000010 0.370360 
#    y -0.000010 3.332710 0.000010 
#    z 0.370360 0.000010 3.339500 
# 
# 
# High freq. dielectric constant tensor:
#      x y z
#    x 1.675050 0.000000 0.025710 
#    y 0.000000 1.694620 0.000000 
#    z 0.025710 0.000000 1.679460 
# 
# From -- ./inp_files/382313.got.cif
#   From: 2010.06.25/outbox.cif.g09.slc.cpg/sg12_192_cif.got.tgz:382313.got - 2010.06.28 00:19:55.
