data_PCOD8086877
_publ_section_title
;
Structure prediction by ZEFSAII (Michael W. Deem and Ramdas Pophale) SiO2 
 PCOD8086877
Probable space group: C 2/M
;
_chemical_formula_sum "Si O2"
_cell_formula_units_Z 56
_cell_length_a 18.977173
_cell_length_b 8.808178
_cell_length_c 28.249137
_cell_angle_alpha 90.000000
_cell_angle_beta 39.354813
_cell_angle_gamma 90.000000
_cell_volume 2994.296790
_symmetry_space_group_name_H-M "C 2/M"
_symmetry_group_IT_number 12
_symmetry_cell_setting 'monoclinic'
loop_
_space_group_symop_operation_xyz
x,y,z
-x,y,-z
-x,-y,-z
x,-y,z
1/2+x,1/2+y,z
1/2-x,1/2+y,-z
1/2-x,1/2-y,-z
1/2+x,1/2-y,z
loop_
_atom_site_type_symbol
_atom_site_label
_atom_site_fract_x
_atom_site_fract_y
_atom_site_fract_z
Si Si1 0.094303 0.676333 0.549225
Si Si2 0.390423 0.822540 0.084550
Si Si3 0.803451 0.676567 0.401689
Si Si4 0.369617 0.173428 0.203573
Si Si5 0.035601 0.821961 0.756976
Si Si6 0.161816 0.320638 0.191725
Si Si7 0.120476 0.175771 0.313044
O O1 0.085545 0.500000 0.541645
O O2 0.131545 0.706481 0.583582
O O3 0.180677 0.752488 0.468309
O O4 0.974793 0.755156 0.603845
O O5 0.405878 0.783282 0.131623
O O6 0.287443 0.731059 0.116129
O O7 0.364696 0.000000 0.091399
O O8 0.500000 0.770929 0.000000
O O9 0.792838 0.500000 0.395551
O O10 0.868111 0.756168 0.325970
O O11 0.434848 0.285497 0.204165
O O12 0.237561 0.197417 0.278517
O O13 0.401798 0.000000 0.198524
O O14 0.916908 0.747158 0.807843
O O15 0.027025 0.000000 0.753659
O O16 0.152968 0.500000 0.195139
O O17 0.118887 0.263788 0.264483
O O18 0.096690 0.000000 0.314546
#
# Coordination Sequence:
#
# PCOD8086877 Si02
#       7
#     8   8   8   8   8   8   8
#     4  10  19  31  51  79 109 143 185 234 280 326
#     4   9  19  39  65  90 115 144 179 221 270 326
#     4  10  20  33  51  76 109 146 183 232 284 327
#     4   9  20  37  57  82 113 146 179 221 276 331
#     4  12  23  36  55  80 112 148 188 231 275 327
#     4  11  21  34  56  84 113 146 185 227 270 323
#     4  10  19  34  56  80 108 145 188 233 277 328
#
# _framework density 18.702220000000001
#
# number of rings (size 3 to 8) (size 9 to 14) (size 15 to 20)
#    0.000    1.857    1.429    4.714    0.000    4.286 
#    0.000    1.429    0.000    4.286    0.000    0.000 
#    0.000    0.000    0.000    0.000    0.000    0.000 
#
# Total GULP energy -347321.791510 kJ/mol
# GULP energy per Si atom -12404.349697 kJ/mol
# Density = 1.865965 g / cm^3
# Si number density = 18.702220 Si / 1000 Ang^3
#
#
#
# Elastic Constant Matrix: (Units=GPa)
#
#
# Indices 1 2 3 4 5 6 
#
# 1 97.3803 59.0037 51.6504 -0.0001 -10.4190 0.0013
# 2 59.0037 140.4804 57.0072 -0.0002 -12.3130 0.0052
# 3 51.6504 57.0072 134.9458 -0.0001 -17.8460 0.0005
# 4 -0.0001 -0.0002 -0.0001 30.2269 -0.0002 -3.5328
# 5 -10.4190 -12.3130 -17.8460 -0.0002 21.9236 0.0002
# 6 0.0013 0.0052 0.0005 -3.5328 0.0002 30.7470
#
#
#
# Elastic Compliance Matrix: (Units=1/GPa)
#
#
# Indices 1 2 3 4 5 6 
#
# 1 0.015264 -0.004810 -0.003596 0.000000 0.001626 0.000000
# 2 -0.004810 0.010194 -0.002253 0.000000 0.001605 -0.000002
# 3 -0.003596 -0.002253 0.010472 0.000000 0.005550 0.000000
# 4 0.000000 0.000000 0.000000 0.033533 0.000000 0.003853
# 5 0.001626 0.001605 0.005550 0.000000 0.051806 -0.000001
# 6 0.000000 -0.000002 0.000000 0.003853 -0.000001 0.032966
#
#
# Mechanical properties :
#
#
# Convention : Reuss Voigt Hill
#
# Bulk Modulus (GPa) = 68.42834 78.68100 73.55467
# Shear Modulus (GPa) = 27.71266 30.25584 28.98425
#
# Velocity S-wave (km/s) = 3.85357 4.02651 3.94099
# Velocity P-wave (km/s) = 7.51451 7.98616 7.75392
#
# Compressibility (1/GPa) = 0.01461383
#
# Stress axis : x y z
#
# Youngs Moduli (GPa) = 65.51252 98.10154 95.48924
#
# Poissons Ratio (x) = 0.47183 0.34333
# Poissons Ratio (y) = 0.31509 0.21514
# Poissons Ratio (z) = 0.23555 0.22103
#
# Static dielectric constant tensor:
#      x y z
#    x 3.291010 0.000000 -0.197740 
#    y 0.000000 3.464270 0.000000 
#    z -0.197740 0.000000 3.459200 
# 
# 
# High freq. dielectric constant tensor:
#      x y z
#    x 1.709540 0.000000 -0.016290 
#    y 0.000000 1.736000 0.000000 
#    z -0.016290 0.000000 1.720180 
# 
# From -- ./inp_files/362973.got.cif
#   From: 2010.06.25/outbox.cif.g09.slc.cpg/sg12_182_cif.got.tgz:362973.got - 2010.06.28 00:19:55.
