data_PCOD8086204
_publ_section_title
;
Structure prediction by ZEFSAII (Michael W. Deem and Ramdas Pophale) SiO2 
 PCOD8086204
Probable space group: C 2/M
;
_chemical_formula_sum "Si O2"
_cell_formula_units_Z 64
_cell_length_a 29.690122
_cell_length_b 9.526580
_cell_length_c 15.401097
_cell_angle_alpha 90.000000
_cell_angle_beta 131.777911
_cell_angle_gamma 90.000000
_cell_volume 3248.508193
_symmetry_space_group_name_H-M "C 2/M"
_symmetry_group_IT_number 12
_symmetry_cell_setting 'monoclinic'
loop_
_space_group_symop_operation_xyz
x,y,z
-x,y,-z
-x,-y,-z
x,-y,z
1/2+x,1/2+y,z
1/2-x,1/2+y,-z
1/2-x,1/2-y,-z
1/2+x,1/2-y,z
loop_
_atom_site_type_symbol
_atom_site_label
_atom_site_fract_x
_atom_site_fract_y
_atom_site_fract_z
Si Si1 0.703907 0.659728 0.574134
Si Si2 0.113658 0.159884 0.616953
Si Si3 0.971289 0.660896 0.597287
Si Si4 0.607919 0.156340 0.764491
Si Si5 0.185863 0.333200 0.174601
Si Si6 0.713170 0.158885 0.020943
Si Si7 0.933712 0.333021 0.890438
Si Si8 0.115725 0.337005 0.356652
O O1 0.705157 0.500000 0.541685
O O2 0.664334 0.672386 0.609714
O O3 0.770739 0.711528 0.689072
O O4 0.677092 0.755746 0.462771
O O5 0.053374 0.242411 0.511653
O O6 0.137991 0.234193 0.735547
O O7 0.096701 0.000000 0.615288
O O8 0.962955 0.500000 0.557820
O O9 0.936174 0.692359 0.640536
O O10 0.040302 0.701413 0.702247
O O11 0.644070 0.157904 0.900583
O O12 0.609559 0.000000 0.725253
O O13 0.187159 0.500000 0.167843
O O14 0.117282 0.282545 0.105996
O O15 0.210863 0.273352 0.114801
O O16 0.739754 0.000000 0.056967
O O17 0.750000 0.250000 0.000000
O O18 0.938121 0.500000 0.893998
O O19 0.911430 0.278537 0.768029
O O20 0.000000 0.270526 0.000000
O O21 0.133365 0.500000 0.372064
#
# Coordination Sequence:
#
# PCOD8086204 Si02
#       8
#     8   8   8   8   8   8   8   8
#     4   9  18  33  52  73 102 139 173 208 255 312
#     4  10  19  31  48  71 100 135 175 214 255 302
#     4   9  18  31  47  70 103 135 167 209 261 313
#     4  10  20  31  47  70  98 134 171 212 262 314
#     4   9  18  33  53  77 105 139 177 216 262 312
#     4  10  21  36  54  76 104 138 176 217 263 313
#     4   9  18  31  53  83 110 134 169 219 265 308
#     4   9  18  32  52  79 106 132 167 214 260 302
#
# _framework density 19.701352
#
# number of rings (size 3 to 8) (size 9 to 14) (size 15 to 20)
#    0.000    2.625    0.000    1.500    1.750    4.500 
#    0.000    0.625    0.000    1.125    0.000    0.000 
#    0.000    0.000    0.000    0.000    0.000    0.000 
#
# Total GULP energy -396695.913037 kJ/mol
# GULP energy per Si atom -12396.747282 kJ/mol
# Density = 1.965651 g / cm^3
# Si number density = 19.701352 Si / 1000 Ang^3
#
#
#
# Elastic Constant Matrix: (Units=GPa)
#
#
# Indices 1 2 3 4 5 6 
#
# 1 78.7668 24.5076 49.2464 0.0000 5.4978 0.0000
# 2 24.5076 58.0096 34.6335 0.0000 -1.7333 0.0000
# 3 49.2464 34.6335 131.3839 0.0000 1.3319 0.0000
# 4 0.0000 0.0000 0.0000 23.2058 0.0000 -1.2079
# 5 5.4978 -1.7333 1.3319 0.0000 36.0130 0.0000
# 6 0.0000 0.0000 0.0000 -1.2079 0.0000 14.9327
#
#
#
# Elastic Compliance Matrix: (Units=1/GPa)
#
#
# Indices 1 2 3 4 5 6 
#
# 1 0.017621 -0.004270 -0.005452 0.000000 -0.002694 0.000000
# 2 -0.004270 0.021544 -0.004097 0.000000 0.001840 0.000000
# 3 -0.005452 -0.004097 0.010732 0.000000 0.000238 0.000000
# 4 0.000000 0.000000 0.000000 0.043275 0.000000 0.003500
# 5 -0.002694 0.001840 0.000238 0.000000 0.028259 0.000000
# 6 0.000000 0.000000 0.000000 0.003500 0.000000 0.067250
#
#
# Mechanical properties :
#
#
# Convention : Reuss Voigt Hill
#
# Bulk Modulus (GPa) = 44.92583 53.88169 49.40376
# Shear Modulus (GPa) = 22.34753 25.48183 23.91468
#
# Velocity S-wave (km/s) = 3.37161 3.60030 3.48783
# Velocity P-wave (km/s) = 6.16522 6.68517 6.43045
#
# Compressibility (1/GPa) = 0.02225891
#
# Stress axis : x y z
#
# Youngs Moduli (GPa) = 56.75074 46.41751 93.17533
#
# Poissons Ratio (x) = 0.19820 0.50799
# Poissons Ratio (y) = 0.24232 0.38176
# Poissons Ratio (z) = 0.30940 0.19018
#
# Static dielectric constant tensor:
#      x y z
#    x 3.564780 0.000000 0.084700 
#    y 0.000000 3.352070 0.000000 
#    z 0.084700 0.000000 3.884490 
# 
# 
# High freq. dielectric constant tensor:
#      x y z
#    x 1.768530 0.000000 0.005610 
#    y 0.000000 1.725190 0.000000 
#    z 0.005610 0.000000 1.778420 
# 
# From -- ./inp_files/250082.got.cif
#   From: 2010.06.25/outbox.cif.g09.slc.cpg/sg12_126_cif.got.tgz:250082.got - 2010.06.28 00:19:55.
