data_PCOD8086082
_publ_section_title
;
Structure prediction by ZEFSAII (Michael W. Deem and Ramdas Pophale) SiO2 
 PCOD8086082
Probable space group: C 2/M
;
_chemical_formula_sum "Si O2"
_cell_formula_units_Z 40
_cell_length_a 14.466934
_cell_length_b 9.445207
_cell_length_c 22.000384
_cell_angle_alpha 90.000000
_cell_angle_beta 48.337298
_cell_angle_gamma 90.000000
_cell_volume 2245.846973
_symmetry_space_group_name_H-M "C 2/M"
_symmetry_group_IT_number 12
_symmetry_cell_setting 'monoclinic'
loop_
_space_group_symop_operation_xyz
x,y,z
-x,y,-z
-x,-y,-z
x,-y,z
1/2+x,1/2+y,z
1/2-x,1/2+y,-z
1/2-x,1/2-y,-z
1/2+x,1/2-y,z
loop_
_atom_site_type_symbol
_atom_site_label
_atom_site_fract_x
_atom_site_fract_y
_atom_site_fract_z
Si Si1 0.191738 0.332824 0.424638
Si Si2 0.968434 0.834173 0.302554
Si Si3 0.516296 0.167155 0.395233
Si Si4 0.141815 0.836851 0.116803
Si Si5 0.883806 0.165577 0.010539
O O1 0.196372 0.500000 0.418162
O O2 0.329676 0.270564 0.363379
O O3 0.120261 0.278268 0.396412
O O4 0.117815 0.289933 0.518107
O O5 0.042595 0.750589 0.321839
O O6 0.029453 0.802011 0.210979
O O7 0.970690 0.000000 0.316860
O O8 0.524879 0.000000 0.379386
O O9 0.260174 0.745874 0.085391
O O10 0.182127 0.000000 0.103070
O O11 0.092655 0.799650 0.070797
O O12 0.861979 0.000000 0.031279
O O13 0.000000 0.219122 0.000000
#
# Coordination Sequence:
#
# PCOD8086082 Si02
#       5
#     8   8   8   8   8
#     4   8  16  31  49  68  94 128 162 197 238 279
#     4  10  19  31  47  69  99 129 154 190 242 286
#     4   9  17  31  50  70  92 125 168 202 230 272
#     4   9  19  33  48  71 100 125 152 190 238 287
#     4   9  18  34  55  74  92 120 158 195 231 277
#
# _framework density 17.810652999999999
#
# number of rings (size 3 to 8) (size 9 to 14) (size 15 to 20)
#    0.000    3.000    0.000    1.800    0.000    2.800 
#    0.000    7.000    0.000    0.000    0.000    0.000 
#    0.000    0.000    0.000    0.000    0.000    0.000 
#
# Total GULP energy -247952.640672 kJ/mol
# GULP energy per Si atom -12397.632034 kJ/mol
# Density = 1.777012 g / cm^3
# Si number density = 17.810653 Si / 1000 Ang^3
#
#
#
# Elastic Constant Matrix: (Units=GPa)
#
#
# Indices 1 2 3 4 5 6 
#
# 1 102.1006 32.3699 39.1750 0.0000 4.1525 0.0000
# 2 32.3699 37.1113 32.5169 0.0000 2.7577 0.0001
# 3 39.1750 32.5169 88.0313 0.0000 7.8721 0.0000
# 4 0.0000 0.0000 0.0000 25.5434 0.0000 2.0226
# 5 4.1525 2.7577 7.8721 0.0000 21.1900 0.0000
# 6 0.0000 0.0001 0.0000 2.0226 0.0000 27.3592
#
#
#
# Elastic Compliance Matrix: (Units=1/GPa)
#
#
# Indices 1 2 3 4 5 6 
#
# 1 0.013913 -0.009925 -0.002480 0.000000 -0.000514 0.000000
# 2 -0.009925 0.046922 -0.012974 0.000000 0.000658 0.000000
# 3 -0.002480 -0.012974 0.017647 0.000000 -0.004382 0.000000
# 4 0.000000 0.000000 0.000000 0.039380 0.000000 -0.002911
# 5 -0.000514 0.000658 -0.004382 0.000000 0.048835 0.000000
# 6 0.000000 0.000000 0.000000 -0.002911 0.000000 0.036766
#
#
# Mechanical properties :
#
#
# Convention : Reuss Voigt Hill
#
# Bulk Modulus (GPa) = 36.06834 48.37409 42.22122
# Shear Modulus (GPa) = 18.97814 23.03063 21.00439
#
# Velocity S-wave (km/s) = 3.26782 3.59985 3.43784
# Velocity P-wave (km/s) = 5.87649 6.67066 6.28613
#
# Compressibility (1/GPa) = 0.02772514
#
# Stress axis : x y z
#
# Youngs Moduli (GPa) = 71.87482 21.31206 56.66618
#
# Poissons Ratio (x) = 0.21152 0.14051
# Poissons Ratio (y) = 0.71334 0.73520
# Poissons Ratio (z) = 0.17822 0.27651
#
# Static dielectric constant tensor:
#      x y z
#    x 3.487400 0.000000 -0.099700 
#    y 0.000000 3.024900 0.000000 
#    z -0.099700 0.000000 3.350750 
# 
# 
# High freq. dielectric constant tensor:
#      x y z
#    x 1.691560 0.000000 0.003890 
#    y 0.000000 1.663790 0.000000 
#    z 0.003890 0.000000 1.688580 
# 
# From -- ./inp_files/202954.got.cif
#   From: 2010.06.25/outbox.cif.g09.slc.cpg/sg12_102_cif.got.tgz:202954.got - 2010.06.28 00:19:55.
