data_PCOD8086162
_publ_section_title
;
Structure prediction by ZEFSAII (Michael W. Deem and Ramdas Pophale) SiO2 
 PCOD8086162
Probable space group: C 2/M
;
_chemical_formula_sum "Si O2"
_cell_formula_units_Z 48
_cell_length_a 29.999014
_cell_length_b 8.926006
_cell_length_c 12.193853
_cell_angle_alpha 90.000000
_cell_angle_beta 118.211202
_cell_angle_gamma 90.000000
_cell_volume 2877.299317
_symmetry_space_group_name_H-M "C 2/M"
_symmetry_group_IT_number 12
_symmetry_cell_setting 'monoclinic'
loop_
_space_group_symop_operation_xyz
x,y,z
-x,y,-z
-x,-y,-z
x,-y,z
1/2+x,1/2+y,z
1/2-x,1/2+y,-z
1/2-x,1/2-y,-z
1/2+x,1/2-y,z
loop_
_atom_site_type_symbol
_atom_site_label
_atom_site_fract_x
_atom_site_fract_y
_atom_site_fract_z
Si Si1 0.615271 0.674722 0.677911
Si Si2 0.228696 0.175740 0.867172
Si Si3 0.827605 0.173909 0.576152
Si Si4 0.012700 0.834413 0.642594
Si Si5 0.583805 0.824322 0.418380
Si Si6 0.748683 0.674440 0.326256
O O1 0.610846 0.500000 0.638623
O O2 0.669149 0.712553 0.792738
O O3 0.571936 0.713713 0.718649
O O4 0.607219 0.774172 0.561187
O O5 0.258013 0.246511 0.798224
O O6 0.239308 0.000000 0.881516
O O7 0.250000 0.250000 0.000000
O O8 0.883563 0.245900 0.640144
O O9 0.795120 0.252760 0.444194
O O10 0.803215 0.199934 0.667024
O O11 0.830403 0.000000 0.548968
O O12 0.975183 0.722233 0.662499
O O13 0.000000 0.834375 0.500000
O O14 0.004642 0.000000 0.683225
O O15 0.588042 0.000000 0.410069
O O16 0.760479 0.500000 0.323936
#
# Coordination Sequence:
#
# PCOD8086162 Si02
#       6
#     8   8   8   8   8   8
#     4   9  18  32  47  64  91 129 163 196 239 287
#     4  11  22  35  52  71  97 131 167 203 240 283
#     4  10  19  31  48  69  98 131 159 193 241 294
#     4   8  15  28  44  62  90 125 159 191 234 290
#     4  11  19  26  43  71  99 126 158 194 237 288
#     4  10  20  33  49  71  95 124 164 203 241 286
#
# _framework density 16.682310999999999
#
# number of rings (size 3 to 8) (size 9 to 14) (size 15 to 20)
#    0.000    2.167    1.667    4.000    0.000    5.667 
#    0.000    0.000    0.000    0.000    0.000    1.167 
#    0.000    9.333    0.000    0.000    0.000    0.000 
#
# Total GULP energy -297546.373501 kJ/mol
# GULP energy per Si atom -12397.765563 kJ/mol
# Density = 1.664434 g / cm^3
# Si number density = 16.682311 Si / 1000 Ang^3
#
#
#
# Elastic Constant Matrix: (Units=GPa)
#
#
# Indices 1 2 3 4 5 6 
#
# 1 142.8477 66.2343 39.7108 0.0000 -5.5058 0.0000
# 2 66.2343 116.3188 38.4330 0.0000 -8.2942 0.0000
# 3 39.7108 38.4330 66.3785 0.0000 -9.6269 0.0000
# 4 0.0000 0.0000 0.0000 21.1281 0.0000 -2.4223
# 5 -5.5058 -8.2942 -9.6269 0.0000 17.8107 0.0000
# 6 0.0000 0.0000 0.0000 -2.4223 0.0000 29.2857
#
#
#
# Elastic Compliance Matrix: (Units=1/GPa)
#
#
# Indices 1 2 3 4 5 6 
#
# 1 0.010093 -0.004667 -0.003471 0.000000 -0.000929 0.000000
# 2 -0.004667 0.012840 -0.004323 0.000000 0.002200 0.000000
# 3 -0.003471 -0.004323 0.020830 0.000000 0.008173 0.000000
# 4 0.000000 0.000000 0.000000 0.047783 0.000000 0.003952
# 5 -0.000929 0.002200 0.008173 0.000000 0.061301 0.000000
# 6 0.000000 0.000000 0.000000 0.003952 0.000000 0.034473
#
#
# Mechanical properties :
#
#
# Convention : Reuss Voigt Hill
#
# Bulk Modulus (GPa) = 53.07554 68.25568 60.66561
# Shear Modulus (GPa) = 22.88086 25.72270 24.30178
#
# Velocity S-wave (km/s) = 3.70748 3.93098 3.82087
# Velocity P-wave (km/s) = 7.08603 7.84903 7.47727
#
# Compressibility (1/GPa) = 0.01884107
#
# Stress axis : x y z
#
# Youngs Moduli (GPa) = 99.07428 77.88322 48.00746
#
# Poissons Ratio (x) = 0.36346 0.16664
# Poissons Ratio (y) = 0.46236 0.20755
# Poissons Ratio (z) = 0.34390 0.33671
#
# Static dielectric constant tensor:
#      x y z
#    x 3.575520 0.000000 0.096050 
#    y 0.000000 3.219220 0.000000 
#    z 0.096050 0.000000 2.603760 
# 
# 
# High freq. dielectric constant tensor:
#      x y z
#    x 1.665580 0.000000 -0.002080 
#    y 0.000000 1.653770 0.000000 
#    z -0.002080 0.000000 1.573460 
# 
# From -- ./inp_files/185728.got.cif
#   From: 2010.06.25/outbox.cif.g09.slc.cpg/sg12_93_cif.got.tgz:185728.got - 2010.06.28 00:19:55.
