data_PCOD8086356
_publ_section_title
;
Structure prediction by ZEFSAII (Michael W. Deem and Ramdas Pophale) SiO2 
 PCOD8086356
Probable space group: C 2/M
;
_chemical_formula_sum "Si O2"
_cell_formula_units_Z 64
_cell_length_a 27.206396
_cell_length_b 9.558356
_cell_length_c 14.781101
_cell_angle_alpha 90.000000
_cell_angle_beta 74.496835
_cell_angle_gamma 90.000000
_cell_volume 3703.947855
_symmetry_space_group_name_H-M "C 2/M"
_symmetry_group_IT_number 12
_symmetry_cell_setting 'monoclinic'
loop_
_space_group_symop_operation_xyz
x,y,z
-x,y,-z
-x,-y,-z
x,-y,z
1/2+x,1/2+y,z
1/2-x,1/2+y,-z
1/2-x,1/2-y,-z
1/2+x,1/2-y,z
loop_
_atom_site_type_symbol
_atom_site_label
_atom_site_fract_x
_atom_site_fract_y
_atom_site_fract_z
Si Si1 0.902594 0.656738 0.718792
Si Si2 0.521025 0.655201 0.221524
Si Si3 0.057362 0.341995 0.493508
Si Si4 0.880462 0.163066 0.186013
Si Si5 0.195938 0.838025 0.931823
Si Si6 0.589361 0.346441 0.637593
Si Si7 0.688128 0.838890 0.106073
Si Si8 0.024090 0.653482 0.893119
O O1 0.920065 0.500000 0.740853
O O2 0.940583 0.778846 0.726724
O O3 0.903462 0.663204 0.609729
O O4 0.847631 0.690891 0.789523
O O5 0.539596 0.500000 0.183704
O O6 0.466206 0.647172 0.292756
O O7 0.519029 0.759104 0.138061
O O8 0.049422 0.500000 0.532290
O O9 0.088323 0.260476 0.555618
O O10 0.000000 0.281412 0.500000
O O11 0.830129 0.196074 0.152007
O O12 0.872912 0.198096 0.297425
O O13 0.924320 0.259109 0.122928
O O14 0.896580 0.000000 0.169038
O O15 0.255038 0.796191 0.891415
O O16 0.188992 0.000000 0.960348
O O17 0.170952 0.750918 0.026899
O O18 0.605021 0.500000 0.592970
O O19 0.685395 0.000000 0.077752
O O20 0.034567 0.500000 0.842805
O O21 0.000000 0.624780 0.000000
#
# Coordination Sequence:
#
# PCOD8086356 Si02
#       8
#     8   8   8   8   8   8   8   8
#     4  10  20  33  49  72 102 133 166 206 251 297
#     4  10  20  32  47  68  97 132 168 203 243 289
#     4  10  19  31  49  71  98 134 169 202 244 293
#     4   9  19  34  51  72  97 128 166 205 248 297
#     4   9  18  35  56  76  99 130 166 206 253 300
#     4   9  18  32  48  69  96 127 165 204 242 291
#     4   9  19  34  53  76 102 130 165 208 251 299
#     4  10  21  33  45  66  97 132 166 200 241 292
#
# _framework density 17.278860999999999
#
# number of rings (size 3 to 8) (size 9 to 14) (size 15 to 20)
#    0.000    2.500    1.250    1.500    1.750    4.750 
#    0.000    0.000    0.000    0.750    0.000    0.000 
#    0.000    0.000    0.000    0.000    0.000    0.250 
#
# Total GULP energy -396551.201482 kJ/mol
# GULP energy per Si atom -12392.225046 kJ/mol
# Density = 1.723953 g / cm^3
# Si number density = 17.278861 Si / 1000 Ang^3
#
#
#
# Elastic Constant Matrix: (Units=GPa)
#
#
# Indices 1 2 3 4 5 6 
#
# 1 59.2301 34.6111 48.1409 0.0000 21.8958 0.0000
# 2 34.6111 95.6253 49.8245 0.0000 18.9944 0.0000
# 3 48.1409 49.8245 107.4457 0.0000 12.8169 0.0000
# 4 0.0000 0.0000 0.0000 29.6987 0.0000 5.8290
# 5 21.8958 18.9944 12.8169 0.0000 27.8957 0.0000
# 6 0.0000 0.0000 0.0000 5.8290 0.0000 13.7627
#
#
#
# Elastic Compliance Matrix: (Units=1/GPa)
#
#
# Indices 1 2 3 4 5 6 
#
# 1 0.036382 -0.002364 -0.012686 0.000000 -0.021119 0.000000
# 2 -0.002364 0.015291 -0.005302 0.000000 -0.006121 0.000000
# 3 -0.012686 -0.005302 0.016749 0.000000 0.005872 0.000000
# 4 0.000000 0.000000 0.000000 0.036724 0.000000 -0.015554
# 5 -0.021119 -0.006121 0.005872 0.000000 0.053894 0.000000
# 6 0.000000 0.000000 0.000000 -0.015554 0.000000 0.079248
#
#
# Mechanical properties :
#
#
# Convention : Reuss Voigt Hill
#
# Bulk Modulus (GPa) = 36.07464 58.60603 47.34033
# Shear Modulus (GPa) = 17.34720 22.91973 20.13346
#
# Velocity S-wave (km/s) = 3.17196 3.64601 3.41722
# Velocity P-wave (km/s) = 5.85989 7.19138 6.55951
#
# Compressibility (1/GPa) = 0.02772030
#
# Stress axis : x y z
#
# Youngs Moduli (GPa) = 27.48578 65.39742 59.70543
#
# Poissons Ratio (x) = 0.15458 0.75741
# Poissons Ratio (y) = 0.06497 0.31653
# Poissons Ratio (z) = 0.34868 0.34671
#
# Static dielectric constant tensor:
#      x y z
#    x 3.253270 0.000000 0.272000 
#    y 0.000000 3.464760 0.000000 
#    z 0.272000 0.000000 3.299450 
# 
# 
# High freq. dielectric constant tensor:
#      x y z
#    x 1.637670 0.000000 0.014990 
#    y 0.000000 1.677380 0.000000 
#    z 0.014990 0.000000 1.657790 
# 
# From -- ./inp_files/248316.got.cif
#   From: 2010.06.25/outbox.cif.g09.slc.cpg/sg12_125_cif.got.tgz:248316.got - 2010.06.28 00:19:55.
