data_PCOD8086938
_publ_section_title
;
Structure prediction by ZEFSAII (Michael W. Deem and Ramdas Pophale) SiO2 
 PCOD8086938
Probable space group: C 2/M
;
_chemical_formula_sum "Si O2"
_cell_formula_units_Z 64
_cell_length_a 24.333899
_cell_length_b 9.048113
_cell_length_c 16.910956
_cell_angle_alpha 90.000000
_cell_angle_beta 101.436382
_cell_angle_gamma 90.000000
_cell_volume 3649.458357
_symmetry_space_group_name_H-M "C 2/M"
_symmetry_group_IT_number 12
_symmetry_cell_setting 'monoclinic'
loop_
_space_group_symop_operation_xyz
x,y,z
-x,y,-z
-x,-y,-z
x,-y,z
1/2+x,1/2+y,z
1/2-x,1/2+y,-z
1/2-x,1/2-y,-z
1/2+x,1/2-y,z
loop_
_atom_site_type_symbol
_atom_site_label
_atom_site_fract_x
_atom_site_fract_y
_atom_site_fract_z
Si Si1 0.165118 0.331873 0.997071
Si Si2 0.107811 0.825368 0.216736
Si Si3 0.661194 0.172615 0.820587
Si Si4 0.570146 0.174498 0.672558
Si Si5 0.440648 0.174275 0.646526
Si Si6 0.785060 0.828862 0.847675
Si Si7 0.566286 0.665869 0.513515
Si Si8 0.946598 0.331753 0.937458
O O1 0.186381 0.500000 0.996805
O O2 0.161036 0.258429 0.908764
O O3 0.209003 0.246921 0.065023
O O4 0.104253 0.321154 0.017133
O O5 0.096455 0.744272 0.295283
O O6 0.169404 0.773229 0.203540
O O7 0.061649 0.773483 0.140179
O O8 0.103695 0.000000 0.228122
O O9 0.611448 0.238531 0.752321
O O10 0.722153 0.202627 0.798026
O O11 0.649045 0.000000 0.825548
O O12 0.506249 0.214685 0.677277
O O13 0.589889 0.252765 0.597630
O O14 0.577046 0.000000 0.661936
O O15 0.416337 0.241491 0.558587
O O16 0.431609 0.000000 0.642270
O O17 0.795683 0.000000 0.866261
O O18 0.500000 0.660429 0.500000
O O19 0.591118 0.500000 0.515347
O O20 0.955602 0.500000 0.909881
O O21 0.000000 0.272727 0.000000
#
# Coordination Sequence:
#
# PCOD8086938 Si02
#       8
#     8   8   8   8   8   8   8   8
#     4   9  17  29  47  69  92 123 164 204 240 278
#     4  10  20  32  47  68  96 128 162 197 238 285
#     4   9  17  30  50  72  94 123 160 203 242 281
#     4   9  18  31  50  75 100 124 156 195 239 286
#     4  10  19  31  52  76  98 125 161 196 231 283
#     4   9  18  33  49  66  93 128 164 200 241 283
#     4   9  17  31  50  72 103 132 153 184 235 290
#     4   9  18  30  46  66  94 128 162 199 239 283
#
# _framework density 17.536850000000001
#
# number of rings (size 3 to 8) (size 9 to 14) (size 15 to 20)
#    0.000    2.750    0.000    1.500    1.750    2.750 
#    0.000    1.250    0.000    0.750    0.000    0.000 
#    0.000    0.000    0.000    0.000    0.000    0.000 
#
# Total GULP energy -396730.526949 kJ/mol
# GULP energy per Si atom -12397.828967 kJ/mol
# Density = 1.749694 g / cm^3
# Si number density = 17.536850 Si / 1000 Ang^3
#
#
#
# Elastic Constant Matrix: (Units=GPa)
#
#
# Indices 1 2 3 4 5 6 
#
# 1 48.5395 21.9211 48.5826 0.0000 -0.4314 0.0000
# 2 21.9211 60.8964 44.7085 0.0000 -7.2467 0.0000
# 3 48.5826 44.7085 134.2707 0.0000 -13.1878 0.0000
# 4 0.0000 0.0000 0.0000 27.0342 0.0000 -1.6992
# 5 -0.4314 -7.2467 -13.1878 0.0000 24.9828 0.0000
# 6 0.0000 0.0000 0.0000 -1.6992 0.0000 17.0425
#
#
#
# Elastic Compliance Matrix: (Units=1/GPa)
#
#
# Indices 1 2 3 4 5 6 
#
# 1 0.034123 -0.004683 -0.011457 0.000000 -0.006817 0.000000
# 2 -0.004683 0.022541 -0.005460 0.000000 0.003575 0.000000
# 3 -0.011457 -0.005460 0.013960 0.000000 0.005587 0.000000
# 4 0.000000 0.000000 0.000000 0.037223 0.000000 0.003711
# 5 -0.006817 0.003575 0.005587 0.000000 0.043896 0.000000
# 6 0.000000 0.000000 0.000000 0.003711 0.000000 0.059047
#
#
# Mechanical properties :
#
#
# Convention : Reuss Voigt Hill
#
# Bulk Modulus (GPa) = 36.46427 52.68121 44.57274
# Shear Modulus (GPa) = 19.00186 22.37821 20.69004
#
# Velocity S-wave (km/s) = 3.29529 3.57608 3.43855
# Velocity P-wave (km/s) = 5.94278 6.86707 6.42158
#
# Compressibility (1/GPa) = 0.02742411
#
# Stress axis : x y z
#
# Youngs Moduli (GPa) = 29.30556 44.36324 71.63455
#
# Poissons Ratio (x) = 0.20777 0.82070
# Poissons Ratio (y) = 0.13725 0.39111
# Poissons Ratio (z) = 0.33575 0.24222
#
# Static dielectric constant tensor:
#      x y z
#    x 3.212780 0.000000 -0.017160 
#    y 0.000000 3.239690 0.000000 
#    z -0.017160 0.000000 3.376450 
# 
# 
# High freq. dielectric constant tensor:
#      x y z
#    x 1.661990 0.000000 -0.006980 
#    y 0.000000 1.666740 0.000000 
#    z -0.006980 0.000000 1.675560 
# 
# From -- ./inp_files/244006.got.cif
#   From: 2010.06.25/outbox.cif.g09.slc.cpg/sg12_123_cif.got.tgz:244006.got - 2010.06.28 00:19:55.
