data_PCOD8086909
_publ_section_title
;
Structure prediction by ZEFSAII (Michael W. Deem and Ramdas Pophale) SiO2 
 PCOD8086909
Probable space group: C 2/M
;
_chemical_formula_sum "Si O2"
_cell_formula_units_Z 56
_cell_length_a 26.097965
_cell_length_b 9.163296
_cell_length_c 14.436058
_cell_angle_alpha 90.000000
_cell_angle_beta 123.131744
_cell_angle_gamma 90.000000
_cell_volume 2891.001033
_symmetry_space_group_name_H-M "C 2/M"
_symmetry_group_IT_number 12
_symmetry_cell_setting 'monoclinic'
loop_
_space_group_symop_operation_xyz
x,y,z
-x,y,-z
-x,-y,-z
x,-y,z
1/2+x,1/2+y,z
1/2-x,1/2+y,-z
1/2-x,1/2-y,-z
1/2+x,1/2-y,z
loop_
_atom_site_type_symbol
_atom_site_label
_atom_site_fract_x
_atom_site_fract_y
_atom_site_fract_z
Si Si1 0.147093 0.666868 0.560227
Si Si2 0.646835 0.332511 0.737515
Si Si3 0.005198 0.669046 0.897359
Si Si4 0.211776 0.828651 0.300862
Si Si5 0.385377 0.671164 0.093158
Si Si6 0.287096 0.172586 0.882682
Si Si7 0.381025 0.830907 0.669570
O O1 0.141445 0.500000 0.582370
O O2 0.119261 0.751265 0.620847
O O3 0.217544 0.709326 0.611162
O O4 0.108947 0.702884 0.429607
O O5 0.645711 0.500000 0.709292
O O6 0.606482 0.299748 0.788739
O O7 0.716514 0.283777 0.826500
O O8 0.023034 0.500000 0.900893
O O9 0.056384 0.769717 0.903238
O O10 0.942114 0.708141 0.785018
O O11 0.000000 0.708074 0.000000
O O12 0.187470 0.741476 0.187310
O O13 0.173720 0.771387 0.350441
O O14 0.200629 0.000000 0.275688
O O15 0.377080 0.500000 0.064889
O O16 0.324341 0.755383 0.002850
O O17 0.298455 0.000000 0.892620
O O18 0.362322 0.000000 0.664859
#
# Coordination Sequence:
#
# PCOD8086909 Si02
#       7
#     8   8   8   8   8   8   8
#     4   9  19  34  53  79 109 141 177 219 263 312
#     4   9  20  36  54  79 109 140 174 215 262 316
#     4  10  22  39  57  77 103 139 180 217 259 315
#     4  10  19  31  51  81 112 140 174 216 266 318
#     4  11  22  36  55  80 108 137 175 221 267 313
#     4  10  19  33  54  79 109 143 175 210 260 318
#     4  10  20  35  54  77 107 142 182 223 263 312
#
# _framework density 19.370452
#
# number of rings (size 3 to 8) (size 9 to 14) (size 15 to 20)
#    0.000    2.143    0.000    3.000    0.000    4.857 
#    0.000    0.714    0.000    4.286    0.000    0.000 
#    0.000    0.000    0.000    0.000    0.000    0.000 
#
# Total GULP energy -347262.460337 kJ/mol
# GULP energy per Si atom -12402.230726 kJ/mol
# Density = 1.932636 g / cm^3
# Si number density = 19.370452 Si / 1000 Ang^3
#
#
#
# Elastic Constant Matrix: (Units=GPa)
#
#
# Indices 1 2 3 4 5 6 
#
# 1 79.6847 43.5934 44.3448 0.0000 -20.4733 0.0000
# 2 43.5934 83.5679 49.4995 0.0000 -12.8800 0.0000
# 3 44.3448 49.4995 135.2396 0.0000 -17.3416 0.0000
# 4 0.0000 0.0000 0.0000 30.0119 0.0000 -7.8334
# 5 -20.4733 -12.8800 -17.3416 0.0000 24.6218 0.0000
# 6 0.0000 0.0000 0.0000 -7.8334 0.0000 29.5527
#
#
#
# Elastic Compliance Matrix: (Units=1/GPa)
#
#
# Indices 1 2 3 4 5 6 
#
# 1 0.021267 -0.007714 -0.002638 0.000000 0.011790 0.000000
# 2 -0.007714 0.018535 -0.004214 0.000000 0.000313 0.000000
# 3 -0.002638 -0.004214 0.010155 0.000000 0.002754 0.000000
# 4 0.000000 0.000000 0.000000 0.035797 0.000000 0.009488
# 5 0.011790 0.000313 0.002754 0.000000 0.052522 0.000000
# 6 0.000000 0.000000 0.000000 0.009488 0.000000 0.036353
#
#
# Mechanical properties :
#
#
# Convention : Reuss Voigt Hill
#
# Bulk Modulus (GPa) = 48.02227 63.70752 55.86489
# Shear Modulus (GPa) = 23.73004 27.57425 25.65214
#
# Velocity S-wave (km/s) = 3.50389 3.77705 3.64303
# Velocity P-wave (km/s) = 6.41989 7.20985 6.82630
#
# Compressibility (1/GPa) = 0.02082367
#
# Stress axis : x y z
#
# Youngs Moduli (GPa) = 47.02094 53.95180 98.47365
#
# Poissons Ratio (x) = 0.41620 0.25978
# Poissons Ratio (y) = 0.36273 0.41501
# Poissons Ratio (z) = 0.12404 0.22738
#
# Static dielectric constant tensor:
#      x y z
#    x 3.337860 0.000000 -0.149560 
#    y 0.000000 3.514110 0.000000 
#    z -0.149560 0.000000 3.677310 
# 
# 
# High freq. dielectric constant tensor:
#      x y z
#    x 1.736210 0.000000 -0.016940 
#    y 0.000000 1.755480 0.000000 
#    z -0.016940 0.000000 1.758670 
# 
# From -- ./inp_files/238331.got.cif
#   From: 2010.06.25/outbox.cif.g09.slc.cpg/sg12_120_cif.got.tgz:238331.got - 2010.06.28 00:19:55.
