data_PCOD8086021
_publ_section_title
;
Structure prediction by ZEFSAII (Michael W. Deem and Ramdas Pophale) SiO2 
 PCOD8086021
Probable space group: C 2/M
;
_chemical_formula_sum "Si O2"
_cell_formula_units_Z 56
_cell_length_a 19.307243
_cell_length_b 9.245940
_cell_length_c 23.368873
_cell_angle_alpha 90.000000
_cell_angle_beta 51.480293
_cell_angle_gamma 90.000000
_cell_volume 3263.883213
_symmetry_space_group_name_H-M "C 2/M"
_symmetry_group_IT_number 12
_symmetry_cell_setting 'monoclinic'
loop_
_space_group_symop_operation_xyz
x,y,z
-x,y,-z
-x,-y,-z
x,-y,z
1/2+x,1/2+y,z
1/2-x,1/2+y,-z
1/2-x,1/2-y,-z
1/2+x,1/2-y,z
loop_
_atom_site_type_symbol
_atom_site_label
_atom_site_fract_x
_atom_site_fract_y
_atom_site_fract_z
Si Si1 0.484011 0.340344 0.632464
Si Si2 0.349189 0.335842 0.787213
Si Si3 0.311240 0.336547 0.642265
Si Si4 0.218355 0.834055 0.779183
Si Si5 0.415192 0.837281 0.502903
Si Si6 0.738454 0.833891 0.947648
Si Si7 0.100968 0.167098 0.940857
O O1 0.525492 0.500000 0.604321
O O2 0.452292 0.311691 0.714789
O O3 0.394796 0.328531 0.641170
O O4 0.557701 0.227953 0.572924
O O5 0.321114 0.500000 0.781920
O O6 0.292617 0.212439 0.786081
O O7 0.331334 0.321449 0.864323
O O8 0.285455 0.500000 0.639826
O O9 0.227071 0.260956 0.716823
O O10 0.334717 0.253221 0.571531
O O11 0.125777 0.811568 0.860659
O O12 0.233879 0.000000 0.753768
O O13 0.500000 0.830352 0.500000
O O14 0.382410 0.000000 0.510195
O O15 0.658549 0.768529 0.952043
O O16 0.715856 0.000000 0.972716
O O17 0.750000 0.750000 0.000000
O O18 0.116226 0.000000 0.950926
O O19 0.000000 0.214326 0.000000
#
# Coordination Sequence:
#
# PCOD8086021 Si02
#       7
#     8   8   8   8   8   8   8
#     4   8  13  21  31  43  62  91 125 159 197 241
#     4   8  15  26  38  52  73 102 134 167 205 252
#     4   9  15  22  31  43  64  95 128 161 198 242
#     4   9  15  23  37  55  74  98 131 170 208 248
#     4   9  15  20  27  42  63  88 122 162 199 236
#     4  10  19  31  47  67  90 117 150 186 224 265
#     4   9  18  32  48  66  89 117 148 183 225 270
#
# _framework density 17.157477
#
# number of rings (size 3 to 8) (size 9 to 14) (size 15 to 20)
#    0.000    3.143    0.000    2.571    0.000    6.571 
#    0.000    0.000    0.000    0.000    0.000    0.000 
#    0.000    0.000    0.000    1.286    0.000   15.714 
#
# Total GULP energy -346893.477363 kJ/mol
# GULP energy per Si atom -12389.052763 kJ/mol
# Density = 1.711843 g / cm^3
# Si number density = 17.157477 Si / 1000 Ang^3
#
#
#
# Elastic Constant Matrix: (Units=GPa)
#
#
# Indices 1 2 3 4 5 6 
#
# 1 19.0515 22.8024 29.7873 0.0000 -2.6285 -0.0001
# 2 22.8024 135.8068 87.3370 -0.0001 -8.2453 -0.0001
# 3 29.7873 87.3370 171.9506 0.0000 -13.0751 0.0000
# 4 0.0000 -0.0001 0.0000 34.7922 0.0000 -0.0925
# 5 -2.6285 -8.2453 -13.0751 0.0000 12.7043 0.0000
# 6 -0.0001 -0.0001 0.0000 -0.0925 0.0000 9.9909
#
#
#
# Elastic Compliance Matrix: (Units=1/GPa)
#
#
# Indices 1 2 3 4 5 6 
#
# 1 0.075511 -0.006310 -0.009764 0.000000 0.001479 0.000000
# 2 -0.006310 0.011489 -0.004638 0.000000 0.001378 0.000000
# 3 -0.009764 -0.004638 0.010285 0.000000 0.005555 0.000000
# 4 0.000000 0.000000 0.000000 0.028743 0.000000 0.000266
# 5 0.001479 0.001378 0.005555 0.000000 0.085631 0.000000
# 6 0.000000 0.000000 0.000000 0.000266 0.000000 0.100094
#
#
# Mechanical properties :
#
#
# Convention : Reuss Voigt Hill
#
# Bulk Modulus (GPa) = 17.90101 67.40691 42.65396
# Shear Modulus (GPa) = 13.44827 23.95629 18.70228
#
# Velocity S-wave (km/s) = 2.80270 3.74071 3.30515
# Velocity P-wave (km/s) = 4.57488 7.61772 6.28328
#
# Compressibility (1/GPa) = 0.05586276
#
# Stress axis : x y z
#
# Youngs Moduli (GPa) = 13.24316 87.04039 97.22981
#
# Poissons Ratio (x) = 0.54920 0.94930
# Poissons Ratio (y) = 0.08356 0.45091
# Poissons Ratio (z) = 0.12930 0.40366
#
# Static dielectric constant tensor:
#      x y z
#    x 2.350960 0.000000 -0.167470 
#    y 0.000000 3.366920 0.000000 
#    z -0.167470 0.000000 3.815260 
# 
# 
# High freq. dielectric constant tensor:
#      x y z
#    x 1.552450 0.000000 -0.014990 
#    y 0.000000 1.677650 0.000000 
#    z -0.014990 0.000000 1.692270 
# 
# From -- ./inp_files/323564.got.cif
#   From: 2010.06.25/outbox.cif.g09.slc.cpg/sg12_162_cif.got.tgz:323564.got - 2010.06.28 00:19:55.
