data_PCOD8086470
_publ_section_title
;
Structure prediction by ZEFSAII (Michael W. Deem and Ramdas Pophale) SiO2 
 PCOD8086470
Probable space group: C 2/M
;
_chemical_formula_sum "Si O2"
_cell_formula_units_Z 56
_cell_length_a 25.615041
_cell_length_b 14.816063
_cell_length_c 9.550069
_cell_angle_alpha 90.000000
_cell_angle_beta 52.773959
_cell_angle_gamma 90.000000
_cell_volume 2885.935215
_symmetry_space_group_name_H-M "C 2/M"
_symmetry_group_IT_number 12
_symmetry_cell_setting 'monoclinic'
loop_
_space_group_symop_operation_xyz
x,y,z
-x,y,-z
-x,-y,-z
x,-y,z
1/2+x,1/2+y,z
1/2-x,1/2+y,-z
1/2-x,1/2-y,-z
1/2+x,1/2-y,z
loop_
_atom_site_type_symbol
_atom_site_label
_atom_site_fract_x
_atom_site_fract_y
_atom_site_fract_z
Si Si1 0.512639 0.602805 0.824250
Si Si2 0.697871 0.399906 0.765369
Si Si3 0.434445 0.604414 0.688025
Si Si4 0.331659 0.901543 0.380000
Si Si5 0.293274 0.338935 0.932911
Si Si6 0.736957 0.598295 0.303163
Si Si7 0.635108 0.707668 0.630718
O O1 0.537309 0.500000 0.786075
O O2 0.448528 0.612775 0.831563
O O3 0.570619 0.664000 0.667784
O O4 0.500000 0.639138 0.000000
O O5 0.666999 0.500000 0.802160
O O6 0.768120 0.396023 0.579813
O O7 0.649499 0.330658 0.764096
O O8 0.708544 0.380189 0.910882
O O9 0.500000 0.636817 0.500000
O O10 0.418600 0.500000 0.673088
O O11 0.370754 0.667106 0.760470
O O12 0.309166 0.891881 0.254135
O O13 0.376781 0.815884 0.344711
O O14 0.366768 0.000000 0.345491
O O15 0.257876 0.400493 0.873311
O O16 0.250000 0.250000 0.000000
O O17 0.708133 0.500000 0.396674
O O18 0.693908 0.681303 0.430871
#
# Coordination Sequence:
#
# PCOD8086470 Si02
#       7
#     8   8   8   8   8   8   8
#     4  10  20  32  49  74 101 131 169 214 266 323
#     4  10  19  31  49  75 107 138 173 223 272 313
#     4  10  21  36  52  74 108 144 177 220 275 329
#     4   9  19  33  49  73 103 136 176 221 267 317
#     4  12  22  33  51  78 111 147 183 219 264 323
#     4  10  19  31  49  74 105 139 175 218 268 321
#     4  11  18  32  53  73 100 138 179 216 265 328
#
# _framework density 19.404454000000001
#
# number of rings (size 3 to 8) (size 9 to 14) (size 15 to 20)
#    0.000    1.714    0.000    8.571    0.000    2.286 
#    0.000    0.000    0.000    0.429    0.000    3.000 
#    0.000    9.143    0.000    0.000    0.000    0.000 
#
# Total GULP energy -346932.193799 kJ/mol
# GULP energy per Si atom -12390.435493 kJ/mol
# Density = 1.936029 g / cm^3
# Si number density = 19.404454 Si / 1000 Ang^3
#
#
#
# Elastic Constant Matrix: (Units=GPa)
#
#
# Indices 1 2 3 4 5 6 
#
# 1 60.2926 33.6502 22.9769 0.0000 -1.5049 0.0000
# 2 33.6502 132.4528 9.1576 0.0000 -11.8967 0.0000
# 3 22.9769 9.1576 57.1949 0.0000 13.6566 0.0000
# 4 0.0000 0.0000 0.0000 23.9503 0.0000 -2.0297
# 5 -1.5049 -11.8967 13.6566 0.0000 35.9705 0.0000
# 6 0.0000 0.0000 0.0000 -2.0297 0.0000 25.6705
#
#
#
# Elastic Compliance Matrix: (Units=1/GPa)
#
#
# Indices 1 2 3 4 5 6 
#
# 1 0.022858 -0.004933 -0.009052 0.000000 0.002761 0.000000
# 2 -0.004933 0.009070 -0.000151 0.000000 0.002851 0.000000
# 3 -0.009052 -0.000151 0.023365 0.000000 -0.009299 0.000000
# 4 0.000000 0.000000 0.000000 0.042035 0.000000 0.003324
# 5 0.002761 0.002851 -0.009299 0.000000 0.032390 0.000000
# 6 0.000000 0.000000 0.000000 0.003324 0.000000 0.039218
#
#
# Mechanical properties :
#
#
# Convention : Reuss Voigt Hill
#
# Bulk Modulus (GPa) = 37.00968 42.38995 39.69982
# Shear Modulus (GPa) = 24.24666 29.39530 26.82098
#
# Velocity S-wave (km/s) = 3.53872 3.89636 3.72184
# Velocity P-wave (km/s) = 5.98422 6.49115 6.24283
#
# Compressibility (1/GPa) = 0.02701996
#
# Stress axis : x y z
#
# Youngs Moduli (GPa) = 43.74906 110.25798 42.79866
#
# Poissons Ratio (x) = 0.54392 0.38742
# Poissons Ratio (y) = 0.21582 0.00646
# Poissons Ratio (z) = 0.39602 0.01665
#
# Static dielectric constant tensor:
#      x y z
#    x 3.597250 0.000000 0.341910 
#    y 0.000000 3.611060 0.000000 
#    z 0.341910 0.000000 3.617070 
# 
# 
# High freq. dielectric constant tensor:
#      x y z
#    x 1.738950 0.000000 0.031810 
#    y 0.000000 1.735570 0.000000 
#    z 0.031810 0.000000 1.746290 
# 
# From -- ./inp_files/96767.got.cif
#   From: 2010.06.25/outbox.cif.g09.slc.cpg/sg12_49_cif.got.tgz:96767.got - 2010.06.28 00:19:55.
