data_PCOD8086098
_publ_section_title
;
Structure prediction by ZEFSAII (Michael W. Deem and Ramdas Pophale) SiO2 
 PCOD8086098
Probable space group: C 2/M
;
_chemical_formula_sum "Si O2"
_cell_formula_units_Z 48
_cell_length_a 27.186417
_cell_length_b 8.779278
_cell_length_c 12.877339
_cell_angle_alpha 90.000000
_cell_angle_beta 95.472366
_cell_angle_gamma 90.000000
_cell_volume 3059.517910
_symmetry_space_group_name_H-M "C 2/M"
_symmetry_group_IT_number 12
_symmetry_cell_setting 'monoclinic'
loop_
_space_group_symop_operation_xyz
x,y,z
-x,y,-z
-x,-y,-z
x,-y,z
1/2+x,1/2+y,z
1/2-x,1/2+y,-z
1/2-x,1/2-y,-z
1/2+x,1/2-y,z
loop_
_atom_site_type_symbol
_atom_site_label
_atom_site_fract_x
_atom_site_fract_y
_atom_site_fract_z
Si Si1 0.299162 0.828008 0.970900
Si Si2 0.942136 0.667535 0.469997
Si Si3 0.041795 0.822437 0.730139
Si Si4 0.064462 0.319945 0.303281
Si Si5 0.879517 0.179958 0.870372
Si Si6 0.400364 0.172255 0.076503
O O1 0.340256 0.827540 0.071694
O O2 0.287292 0.000000 0.932965
O O3 0.250000 0.750000 0.000000
O O4 0.322774 0.735604 0.877895
O O5 0.921345 0.500000 0.435946
O O6 0.931136 0.782817 0.373635
O O7 0.919533 0.723820 0.575337
O O8 0.000000 0.654440 0.500000
O O9 0.078508 0.777002 0.829092
O O10 0.990883 0.732817 0.733746
O O11 0.030401 0.000000 0.732038
O O12 0.067010 0.500000 0.286323
O O13 0.103339 0.235409 0.238387
O O14 0.883102 0.000000 0.878777
O O15 0.914697 0.255485 0.966703
O O16 0.421218 0.000000 0.088414
#
# Coordination Sequence:
#
# PCOD8086098 Si02
#       6
#     8   8   8   8   8   8
#     4   9  18  32  51  70  92 120 149 186 228 275
#     4   8  16  30  46  62  85 122 161 192 224 266
#     4  11  20  29  45  68  94 123 157 196 231 265
#     4  10  19  32  47  64  92 128 161 190 226 271
#     4  10  19  31  47  70  96 118 152 192 230 274
#     4   9  19  33  47  66  93 123 155 185 226 278
#
# _framework density 15.688745000000001
#
# number of rings (size 3 to 8) (size 9 to 14) (size 15 to 20)
#    1.000    1.500    0.000    5.000    0.000    4.333 
#    0.000    3.333    0.000    0.000    0.000    1.167 
#    0.000    0.000    0.000    0.000    0.000    0.000 
#
# Total GULP energy -297375.689875 kJ/mol
# GULP energy per Si atom -12390.653745 kJ/mol
# Density = 1.565304 g / cm^3
# Si number density = 15.688745 Si / 1000 Ang^3
#
#
#
# Elastic Constant Matrix: (Units=GPa)
#
#
# Indices 1 2 3 4 5 6 
#
# 1 50.1067 20.5368 28.1025 0.0000 -20.1694 0.0000
# 2 20.5368 99.3968 34.3624 0.0000 -13.0310 0.0000
# 3 28.1025 34.3624 90.0529 0.0000 -27.3208 0.0000
# 4 0.0000 0.0000 0.0000 24.4016 0.0000 -4.4817
# 5 -20.1694 -13.0310 -27.3208 0.0000 13.6868 0.0000
# 6 0.0000 0.0000 0.0000 -4.4817 0.0000 24.7064
#
#
#
# Elastic Compliance Matrix: (Units=1/GPa)
#
#
# Indices 1 2 3 4 5 6 
#
# 1 0.062440 -0.003079 0.022099 0.000000 0.133195 0.000000
# 2 -0.003079 0.011913 -0.003855 0.000000 -0.000890 0.000000
# 3 0.022099 -0.003855 0.036627 0.000000 0.102008 0.000000
# 4 0.000000 0.000000 0.000000 0.042393 0.000000 0.007690
# 5 0.133195 -0.000890 0.102008 0.000000 0.472118 0.000000
# 6 0.000000 0.000000 0.000000 0.007690 0.000000 0.041870
#
#
# Mechanical properties :
#
#
# Convention : Reuss Voigt Hill
#
# Bulk Modulus (GPa) = 7.07664 45.06221 26.06943
# Shear Modulus (GPa) = 7.30850 22.99593 15.15221
#
# Velocity S-wave (km/s) = 2.16068 3.83268 3.11111
# Velocity P-wave (km/s) = 3.27798 6.95492 5.43673
#
# Compressibility (1/GPa) = 0.14130992
#
# Stress axis : x y z
#
# Youngs Moduli (GPa) = 16.01535 83.94323 27.30228
#
# Poissons Ratio (x) = 0.25845 -0.60335
# Poissons Ratio (y) = 0.04931 0.10525
# Poissons Ratio (z) = -0.35392 0.32360
#
# Static dielectric constant tensor:
#      x y z
#    x 2.622990 0.000000 -0.168770 
#    y 0.000000 3.074830 0.000000 
#    z -0.168770 0.000000 3.155790 
# 
# 
# High freq. dielectric constant tensor:
#      x y z
#    x 1.555790 0.000000 -0.013950 
#    y 0.000000 1.620040 0.000000 
#    z -0.013950 0.000000 1.596260 
# 
# From -- ./inp_files/185508.got.cif
#   From: 2010.06.25/outbox.cif.g09.slc.cpg/sg12_93_cif.got.tgz:185508.got - 2010.06.28 00:19:55.
