data_PCOD8086401
_publ_section_title
;
Structure prediction by ZEFSAII (Michael W. Deem and Ramdas Pophale) SiO2 
 PCOD8086401
Probable space group: C 2/M
;
_chemical_formula_sum "Si O2"
_cell_formula_units_Z 64
_cell_length_a 23.530968
_cell_length_b 9.376381
_cell_length_c 21.283879
_cell_angle_alpha 90.000000
_cell_angle_beta 52.420139
_cell_angle_gamma 90.000000
_cell_volume 3721.579613
_symmetry_space_group_name_H-M "C 2/M"
_symmetry_group_IT_number 12
_symmetry_cell_setting 'monoclinic'
loop_
_space_group_symop_operation_xyz
x,y,z
-x,y,-z
-x,-y,-z
x,-y,z
1/2+x,1/2+y,z
1/2-x,1/2+y,-z
1/2-x,1/2-y,-z
1/2+x,1/2-y,z
loop_
_atom_site_type_symbol
_atom_site_label
_atom_site_fract_x
_atom_site_fract_y
_atom_site_fract_z
Si Si1 0.638460 0.333728 0.162727
Si Si2 0.740487 0.664081 0.599214
Si Si3 0.038801 0.334356 0.835815
Si Si4 0.902890 0.836187 0.950234
Si Si5 0.642929 0.164988 0.573378
Si Si6 0.770714 0.835972 0.125857
Si Si7 0.679823 0.664262 0.770371
Si Si8 0.503411 0.163136 0.277727
O O1 0.638837 0.500000 0.177912
O O2 0.633201 0.301587 0.092378
O O3 0.711382 0.266347 0.137630
O O4 0.571121 0.264078 0.244396
O O5 0.723286 0.500000 0.597272
O O6 0.679866 0.751103 0.604610
O O7 0.819853 0.702921 0.518676
O O8 0.735877 0.698049 0.676307
O O9 0.040212 0.500000 0.852383
O O10 0.110905 0.263551 0.812227
O O11 0.031728 0.308286 0.766380
O O12 0.971502 0.262619 0.916377
O O13 0.928178 0.000000 0.935637
O O14 0.846186 0.800614 0.042454
O O15 0.557998 0.200947 0.629305
O O16 0.652720 0.000000 0.583967
O O17 0.777538 0.802992 0.194850
O O18 0.749036 0.000000 0.127756
O O19 0.654020 0.500000 0.785698
O O20 0.529506 0.000000 0.266103
#
# Coordination Sequence:
#
# PCOD8086401 Si02
#       8
#     8   8   8   8   8   8   8   8
#     4  10  20  33  52  75  95 118 159 210 250 283
#     4   9  17  28  46  72 101 129 158 196 234 278
#     4  10  19  31  49  73 100 130 161 198 243 286
#     4   9  19  35  53  72  95 124 159 204 250 291
#     4   9  16  28  47  73 101 127 158 194 238 284
#     4  10  21  36  52  69  94 131 167 197 241 295
#     4  10  20  33  49  70 100 135 165 194 233 290
#     4   9  17  30  49  72  99 128 157 193 241 291
#
# _framework density 17.196997
#
# number of rings (size 3 to 8) (size 9 to 14) (size 15 to 20)
#    0.000    2.500    1.250    1.125    0.000    3.000 
#    0.000    2.500    0.000    0.750    0.000    5.250 
#    0.000    0.000    0.000    0.000    0.000    0.000 
#
# Total GULP energy -396787.076811 kJ/mol
# GULP energy per Si atom -12399.596150 kJ/mol
# Density = 1.715786 g / cm^3
# Si number density = 17.196997 Si / 1000 Ang^3
#
#
#
# Elastic Constant Matrix: (Units=GPa)
#
#
# Indices 1 2 3 4 5 6 
#
# 1 25.5950 25.4807 27.5768 -0.0003 4.3835 -0.0006
# 2 25.4807 70.5547 39.7920 0.0005 -3.5352 -0.0015
# 3 27.5768 39.7920 119.5786 -0.0003 -1.0210 0.0000
# 4 -0.0003 0.0005 -0.0003 19.6753 0.0000 -8.1753
# 5 4.3835 -3.5352 -1.0210 0.0000 16.5813 0.0004
# 6 -0.0006 -0.0015 0.0000 -8.1753 0.0004 30.6365
#
#
#
# Elastic Compliance Matrix: (Units=1/GPa)
#
#
# Indices 1 2 3 4 5 6 
#
# 1 0.078534 -0.023817 -0.010412 0.000002 -0.026481 0.000001
# 2 -0.023817 0.024861 -0.002683 -0.000001 0.011432 0.000000
# 3 -0.010412 -0.002683 0.011681 0.000000 0.002900 0.000000
# 4 0.000002 -0.000001 0.000000 0.057163 -0.000001 0.015254
# 5 -0.026481 0.011432 0.002900 -0.000001 0.069926 -0.000001
# 6 0.000001 0.000000 0.000000 0.015254 -0.000001 0.036711
#
#
# Mechanical properties :
#
#
# Convention : Reuss Voigt Hill
#
# Bulk Modulus (GPa) = 24.24066 44.60303 34.42184
# Shear Modulus (GPa) = 13.64441 21.57052 17.60747
#
# Velocity S-wave (km/s) = 2.81982 3.54548 3.20327
# Velocity P-wave (km/s) = 4.97276 6.53861 5.80869
#
# Compressibility (1/GPa) = 0.04125300
#
# Stress axis : x y z
#
# Youngs Moduli (GPa) = 12.73332 40.22410 85.60718
#
# Poissons Ratio (x) = 0.95803 0.89132
# Poissons Ratio (y) = 0.30327 0.22965
# Poissons Ratio (z) = 0.13258 0.10791
#
# Static dielectric constant tensor:
#      x y z
#    x 2.890370 0.000000 -0.090850 
#    y 0.000000 3.273880 0.000000 
#    z -0.090850 0.000000 3.524310 
# 
# 
# High freq. dielectric constant tensor:
#      x y z
#    x 1.631380 0.000000 -0.014490 
#    y 0.000000 1.668040 0.000000 
#    z -0.014490 0.000000 1.672250 
# 
# From -- ./inp_files/319851.got.cif
#   From: 2010.06.25/outbox.cif.g09.slc.cpg/sg12_160_cif.got.tgz:319851.got - 2010.06.28 00:19:55.
