data_PCOD8086016
_publ_section_title
;
Structure prediction by ZEFSAII (Michael W. Deem and Ramdas Pophale) SiO2 
 PCOD8086016
Probable space group: C 2/M
;
_chemical_formula_sum "Si O2"
_cell_formula_units_Z 64
_cell_length_a 24.043001
_cell_length_b 9.531358
_cell_length_c 16.884020
_cell_angle_alpha 90.000000
_cell_angle_beta 84.801438
_cell_angle_gamma 90.000000
_cell_volume 3853.268171
_symmetry_space_group_name_H-M "C 2/M"
_symmetry_group_IT_number 12
_symmetry_cell_setting 'monoclinic'
loop_
_space_group_symop_operation_xyz
x,y,z
-x,y,-z
-x,-y,-z
x,-y,z
1/2+x,1/2+y,z
1/2-x,1/2+y,-z
1/2-x,1/2-y,-z
1/2+x,1/2-y,z
loop_
_atom_site_type_symbol
_atom_site_label
_atom_site_fract_x
_atom_site_fract_y
_atom_site_fract_z
Si Si1 0.866731 0.662594 0.965782
Si Si2 0.062313 0.163667 0.771063
Si Si3 0.282256 0.166410 0.845689
Si Si4 0.456370 0.334393 0.400425
Si Si5 0.920457 0.834132 0.571644
Si Si6 0.631889 0.163429 0.292236
Si Si7 0.040703 0.340612 0.172883
Si Si8 0.343274 0.336016 0.119778
O O1 0.857934 0.500000 0.989264
O O2 0.815207 0.720132 0.919180
O O3 0.924362 0.683863 0.911522
O O4 0.870752 0.753570 0.044077
O O5 0.067956 0.220718 0.680004
O O6 0.120734 0.193718 0.806491
O O7 0.012615 0.240586 0.823303
O O8 0.047310 0.000000 0.773518
O O9 0.312833 0.217166 0.761353
O O10 0.218990 0.221672 0.855406
O O11 0.286101 0.000000 0.845766
O O12 0.458055 0.500000 0.402469
O O13 0.417554 0.286862 0.479433
O O14 0.519756 0.282370 0.402822
O O15 0.872846 0.752460 0.626498
O O16 0.911376 0.000000 0.583421
O O17 0.578679 0.193741 0.243739
O O18 0.636274 0.000000 0.313514
O O19 0.019359 0.500000 0.179819
O O20 0.342197 0.500000 0.098429
#
# Coordination Sequence:
#
# PCOD8086016 Si02
#       8
#     8   8   8   8   8   8   8   8
#     4   9  18  33  51  67  88 118 150 187 228 268
#     4  10  19  31  47  66  92 122 151 183 219 266
#     4   8  16  32  50  67  90 118 149 187 227 265
#     4   8  15  27  43  65  93 122 146 176 220 267
#     4   9  15  26  46  68  91 118 148 182 221 263
#     4   9  16  28  47  69  92 116 146 186 226 263
#     4   9  18  31  46  66  91 121 150 178 223 273
#     4  10  20  32  48  69  89 116 154 190 224 262
#
# _framework density 16.609278
#
# number of rings (size 3 to 8) (size 9 to 14) (size 15 to 20)
#    0.000    3.000    1.250    2.625    0.000    1.500 
#    0.000    6.875    0.000    0.750    0.000    0.000 
#    0.000    0.000    0.000    0.000    0.000    0.000 
#
# Total GULP energy -396666.785765 kJ/mol
# GULP energy per Si atom -12395.837055 kJ/mol
# Density = 1.657148 g / cm^3
# Si number density = 16.609278 Si / 1000 Ang^3
#
#
#
# Elastic Constant Matrix: (Units=GPa)
#
#
# Indices 1 2 3 4 5 6 
#
# 1 64.4822 27.8061 47.3359 0.0000 4.7369 0.0000
# 2 27.8061 41.8118 42.7287 0.0000 -3.1614 0.0000
# 3 47.3359 42.7287 133.1970 0.0000 -3.3498 0.0000
# 4 0.0000 0.0000 0.0000 28.5527 0.0000 -5.0639
# 5 4.7369 -3.1614 -3.3498 0.0000 19.8986 0.0000
# 6 0.0000 0.0000 0.0000 -5.0639 0.0000 17.7957
#
#
#
# Elastic Compliance Matrix: (Units=1/GPa)
#
#
# Indices 1 2 3 4 5 6 
#
# 1 0.025256 -0.011996 -0.005349 0.000000 -0.008819 0.000000
# 2 -0.011996 0.041560 -0.008868 0.000000 0.007966 0.000000
# 3 -0.005349 -0.008868 0.012302 0.000000 0.001935 0.000000
# 4 0.000000 0.000000 0.000000 0.036884 0.000000 0.010496
# 5 -0.008819 0.007966 0.001935 0.000000 0.053945 0.000000
# 6 0.000000 0.000000 0.000000 0.010496 0.000000 0.059180
#
#
# Mechanical properties :
#
#
# Convention : Reuss Voigt Hill
#
# Bulk Modulus (GPa) = 37.46685 52.80361 45.13523
# Shear Modulus (GPa) = 17.21457 21.35742 19.28600
#
# Velocity S-wave (km/s) = 3.22288 3.58980 3.41127
# Velocity P-wave (km/s) = 6.03788 7.00306 6.53830
#
# Compressibility (1/GPa) = 0.02669026
#
# Stress axis : x y z
#
# Youngs Moduli (GPa) = 39.59523 24.06169 81.28650
#
# Poissons Ratio (x) = 0.28865 0.43479
# Poissons Ratio (y) = 0.47500 0.72089
# Poissons Ratio (z) = 0.21179 0.21339
#
# Static dielectric constant tensor:
#      x y z
#    x 3.040050 0.000000 -0.049590 
#    y 0.000000 2.845040 0.000000 
#    z -0.049590 0.000000 3.338380 
# 
# 
# High freq. dielectric constant tensor:
#      x y z
#    x 1.615760 0.000000 -0.009700 
#    y 0.000000 1.614270 0.000000 
#    z -0.009700 0.000000 1.646310 
# 
# From -- ./inp_files/287569.got.cif
#   From: 2010.06.25/outbox.cif.g09.slc.cpg/sg12_144_cif.got.tgz:287569.got - 2010.06.28 00:19:55.
