data_PCOD8086379
_publ_section_title
;
Structure prediction by ZEFSAII (Michael W. Deem and Ramdas Pophale) SiO2 
 PCOD8086379
Probable space group: C 2/M
;
_chemical_formula_sum "Si O2"
_cell_formula_units_Z 40
_cell_length_a 22.599845
_cell_length_b 9.072223
_cell_length_c 18.653112
_cell_angle_alpha 90.000000
_cell_angle_beta 143.769213
_cell_angle_gamma 90.000000
_cell_volume 2260.407574
_symmetry_space_group_name_H-M "C 2/M"
_symmetry_group_IT_number 12
_symmetry_cell_setting 'monoclinic'
loop_
_space_group_symop_operation_xyz
x,y,z
-x,y,-z
-x,-y,-z
x,-y,z
1/2+x,1/2+y,z
1/2-x,1/2+y,-z
1/2-x,1/2-y,-z
1/2+x,1/2-y,z
loop_
_atom_site_type_symbol
_atom_site_label
_atom_site_fract_x
_atom_site_fract_y
_atom_site_fract_z
Si Si1 0.305025 0.670624 0.953969
Si Si2 0.597516 0.828609 0.822453
Si Si3 0.888449 0.825797 0.884556
Si Si4 0.603629 0.328345 0.395649
Si Si5 0.783611 0.172182 0.639368
O O1 0.333249 0.500000 0.993960
O O2 0.189384 0.701203 0.858408
O O3 0.323828 0.719195 0.890715
O O4 0.377609 0.765089 0.075084
O O5 0.502892 0.747446 0.695966
O O6 0.573397 0.000000 0.807060
O O7 0.833911 0.763679 0.760601
O O8 0.896706 0.000000 0.884373
O O9 0.000000 0.758206 0.000000
O O10 0.593409 0.500000 0.401836
O O11 0.681006 0.259712 0.527652
O O12 0.639508 0.297017 0.349891
O O13 0.757458 0.000000 0.619607
#
# Coordination Sequence:
#
# PCOD8086379 Si02
#       5
#     8   8   8   8   8
#     4   9  18  32  50  73  98 125 160 198 237 283
#     4  10  19  31  49  72  98 128 161 197 236 281
#     4   9  16  29  51  75  97 122 154 195 241 285
#     4  10  19  32  51  72  96 127 161 198 239 283
#     4   9  18  32  51  74  97 123 159 200 239 282
#
# _framework density 17.695924000000002
#
# number of rings (size 3 to 8) (size 9 to 14) (size 15 to 20)
#    0.000    2.600    0.000    2.400    0.000    4.800 
#    0.000    2.000    0.000    8.400    0.000    0.000 
#    0.000    0.000    0.000    0.000    0.000    0.000 
#
# Total GULP energy -248048.573066 kJ/mol
# GULP energy per Si atom -12402.428653 kJ/mol
# Density = 1.765565 g / cm^3
# Si number density = 17.695924 Si / 1000 Ang^3
#
#
#
# Elastic Constant Matrix: (Units=GPa)
#
#
# Indices 1 2 3 4 5 6 
#
# 1 92.4082 33.8056 76.3545 0.0000 -7.2421 0.0000
# 2 33.8056 66.7197 60.6753 0.0000 8.2111 0.0000
# 3 76.3545 60.6753 170.2083 0.0000 0.5816 0.0000
# 4 0.0000 0.0000 0.0000 30.7708 0.0000 1.7229
# 5 -7.2421 8.2111 0.5816 0.0000 31.9889 0.0000
# 6 0.0000 0.0000 0.0000 1.7229 0.0000 19.7522
#
#
#
# Elastic Compliance Matrix: (Units=1/GPa)
#
#
# Indices 1 2 3 4 5 6 
#
# 1 0.018270 -0.003589 -0.006934 0.000000 0.005184 0.000000
# 2 -0.003589 0.023914 -0.006891 0.000000 -0.006826 0.000000
# 3 -0.006934 -0.006891 0.011442 0.000000 -0.000009 0.000000
# 4 0.000000 0.000000 0.000000 0.032658 0.000000 -0.002849
# 5 0.005184 -0.006826 -0.000009 0.000000 0.034187 0.000000
# 6 0.000000 0.000000 0.000000 -0.002849 0.000000 0.050876
#
#
# Mechanical properties :
#
#
# Convention : Reuss Voigt Hill
#
# Bulk Modulus (GPa) = 53.19970 74.55635 63.87802
# Shear Modulus (GPa) = 23.53587 27.06910 25.30249
#
# Velocity S-wave (km/s) = 3.65090 3.91536 3.78544
# Velocity P-wave (km/s) = 6.92102 7.91602 7.43519
#
# Compressibility (1/GPa) = 0.01879710
#
# Stress axis : x y z
#
# Youngs Moduli (GPa) = 54.73322 41.81721 87.39403
#
# Poissons Ratio (x) = 0.15009 0.60601
# Poissons Ratio (y) = 0.19645 0.60225
# Poissons Ratio (z) = 0.37954 0.28817
#
# Static dielectric constant tensor:
#      x y z
#    x 3.250860 0.000000 0.017270 
#    y 0.000000 3.142960 0.000000 
#    z 0.017270 0.000000 3.363360 
# 
# 
# High freq. dielectric constant tensor:
#      x y z
#    x 1.676340 0.000000 0.007570 
#    y 0.000000 1.668690 0.000000 
#    z 0.007570 0.000000 1.689360 
# 
# From -- ./inp_files/162378.got.cif
#   From: 2010.06.25/outbox.cif.g09.slc.cpg/sg12_82_cif.got.tgz:162378.got - 2010.06.28 00:19:55.
