data_PCOD8086489
_publ_section_title
;
Structure prediction by ZEFSAII (Michael W. Deem and Ramdas Pophale) SiO2 
 PCOD8086489
Probable space group: C 2/M
;
_chemical_formula_sum "Si O2"
_cell_formula_units_Z 56
_cell_length_a 8.733337
_cell_length_b 19.223614
_cell_length_c 22.104766
_cell_angle_alpha 90.000000
_cell_angle_beta 53.655996
_cell_angle_gamma 90.000000
_cell_volume 2989.182044
_symmetry_space_group_name_H-M "C 2/M"
_symmetry_group_IT_number 12
_symmetry_cell_setting 'monoclinic'
loop_
_space_group_symop_operation_xyz
x,y,z
-x,y,-z
-x,-y,-z
x,-y,z
1/2+x,1/2+y,z
1/2-x,1/2+y,-z
1/2-x,1/2-y,-z
1/2+x,1/2-y,z
loop_
_atom_site_type_symbol
_atom_site_label
_atom_site_fract_x
_atom_site_fract_y
_atom_site_fract_z
Si Si1 0.817731 0.173747 0.500000
Si Si2 0.811643 0.323460 0.078565
Si Si3 0.517820 0.577140 0.367008
Si Si4 0.547337 0.323460 0.921435
Si Si5 0.222791 0.418296 0.801258
Si Si6 0.873436 0.581704 0.801257
Si Si7 0.381156 0.922860 0.367008
O O1 0.750000 0.250000 0.500000
O O2 0.645572 0.132836 0.573215
O O3 0.000000 0.178184 0.500000
O O4 0.865216 0.132836 0.426785
O O5 0.647805 0.314661 0.068130
O O6 0.844978 0.250000 0.103348
O O7 0.750381 0.379837 0.141986
O O8 0.000000 0.349311 0.000000
O O9 0.424427 0.500000 0.385252
O O10 0.595599 0.600306 0.283183
O O11 0.692486 0.572907 0.371676
O O12 0.676339 0.379837 0.858014
O O13 0.500000 0.349312 0.000000
O O14 0.215779 0.500000 0.815377
O O15 0.028647 0.393694 0.814235
O O16 0.838092 0.500000 0.815376
O O17 0.945149 0.600306 0.716817
O O18 0.419818 0.000000 0.385251
#
# Coordination Sequence:
#
# PCOD8086489 Si02
#       7
#     8   8   8   8   8   8   8
#     4  10  19  31  49  75 105 134 170 212 254 300
#     4  11  22  37  56  77 104 137 174 213 257 309
#     4   8  15  30  53  76  98 131 174 214 250 295
#     4  11  22  37  56  77 104 137 174 213 257 309
#     4   9  18  34  55  79 106 135 171 215 261 308
#     4   9  18  34  55  79 106 135 171 215 261 308
#     4   8  15  30  53  76  98 131 174 214 250 295
#
# _framework density 18.734221000000002
#
# number of rings (size 3 to 8) (size 9 to 14) (size 15 to 20)
#    0.000    2.571    0.000    5.571    0.000    4.000 
#    0.000    4.286    0.000    3.429    0.000    0.000 
#    0.000    0.000    0.000    0.000    0.000    0.000 
#
# Total GULP energy -347172.788730 kJ/mol
# GULP energy per Si atom -12399.028169 kJ/mol
# Density = 1.869158 g / cm^3
# Si number density = 18.734221 Si / 1000 Ang^3
#
#
#
# Elastic Constant Matrix: (Units=GPa)
#
#
# Indices 1 2 3 4 5 6 
#
# 1 82.9152 35.1684 43.2459 -0.0005 -0.0006 0.0003
# 2 35.1684 104.9113 87.1323 0.0000 -0.0025 0.0001
# 3 43.2459 87.1323 148.3573 -0.0004 -0.0034 0.0001
# 4 -0.0005 0.0000 -0.0004 28.7609 0.0004 -0.0003
# 5 -0.0006 -0.0025 -0.0034 0.0004 20.1791 -0.0002
# 6 0.0003 0.0001 0.0001 -0.0003 -0.0002 28.2234
#
#
#
# Elastic Compliance Matrix: (Units=1/GPa)
#
#
# Indices 1 2 3 4 5 6 
#
# 1 0.014592 -0.002653 -0.002695 0.000000 0.000000 0.000000
# 2 -0.002653 0.019091 -0.010439 0.000000 0.000001 0.000000
# 3 -0.002695 -0.010439 0.013657 0.000000 0.000001 0.000000
# 4 0.000000 0.000000 0.000000 0.034769 -0.000001 0.000000
# 5 0.000000 0.000001 0.000001 -0.000001 0.049556 0.000000
# 6 0.000000 0.000000 0.000000 0.000000 0.000000 0.035432
#
#
# Mechanical properties :
#
#
# Convention : Reuss Voigt Hill
#
# Bulk Modulus (GPa) = 63.43074 74.14190 68.78632
# Shear Modulus (GPa) = 24.51851 26.80848 25.66350
#
# Velocity S-wave (km/s) = 3.62160 3.78695 3.70519
# Velocity P-wave (km/s) = 7.17075 7.66700 7.42302
#
# Compressibility (1/GPa) = 0.01576523
#
# Stress axis : x y z
#
# Youngs Moduli (GPa) = 68.53294 52.37973 73.22051
#
# Poissons Ratio (x) = 0.13895 0.19736
# Poissons Ratio (y) = 0.18180 0.76437
# Poissons Ratio (z) = 0.18472 0.54681
#
# Static dielectric constant tensor:
#      x y z
#    x 3.111930 0.000000 -0.000020 
#    y 0.000000 3.435320 0.000000 
#    z -0.000020 0.000000 3.686590 
# 
# 
# High freq. dielectric constant tensor:
#      x y z
#    x 1.696250 0.000000 0.000000 
#    y 0.000000 1.724980 0.000000 
#    z 0.000000 0.000000 1.739940 
# 
# From -- ./inp_files/301640.got.cif
#   From: 2010.06.25/outbox.cif.g09.slc.cpg/sg12_151_cif.got.tgz:301640.got - 2010.06.28 00:19:55.
