data_PCOD8086664
_publ_section_title
;
Structure prediction by ZEFSAII (Michael W. Deem and Ramdas Pophale) SiO2 
 PCOD8086664
Probable space group: C 2/M
;
_chemical_formula_sum "Si O2"
_cell_formula_units_Z 48
_cell_length_a 5.101036
_cell_length_b 17.276666
_cell_length_c 29.480608
_cell_angle_alpha 90.000000
_cell_angle_beta 84.980290
_cell_angle_gamma 90.000000
_cell_volume 2588.128835
_symmetry_space_group_name_H-M "C 2/M"
_symmetry_group_IT_number 12
_symmetry_cell_setting 'monoclinic'
loop_
_space_group_symop_operation_xyz
x,y,z
-x,y,-z
-x,-y,-z
x,-y,z
1/2+x,1/2+y,z
1/2-x,1/2+y,-z
1/2-x,1/2-y,-z
1/2+x,1/2-y,z
loop_
_atom_site_type_symbol
_atom_site_label
_atom_site_fract_x
_atom_site_fract_y
_atom_site_fract_z
Si Si1 0.236675 0.090882 0.528697
Si Si2 0.041248 0.591821 0.949150
Si Si3 0.129894 0.197797 0.808746
Si Si4 0.427740 0.408299 0.106355
Si Si5 0.580895 0.298150 0.711093
Si Si6 0.769717 0.198018 0.386431
O O1 0.500000 0.119047 0.500000
O O2 0.204407 0.131276 0.577271
O O3 0.000000 0.116328 0.500000
O O4 0.239133 0.000000 0.538082
O O5 0.023062 0.500000 0.952300
O O6 0.319544 0.619129 0.925689
O O7 0.818733 0.622841 0.918583
O O8 0.000000 0.627156 0.000000
O O9 0.413725 0.234320 0.814852
O O10 0.069015 0.129842 0.844546
O O11 0.123870 0.157796 0.758466
O O12 0.422569 0.500000 0.113660
O O13 0.272937 0.277236 0.711059
O O14 0.671893 0.342314 0.663742
O O15 0.478089 0.233497 0.392297
#
# Coordination Sequence:
#
# PCOD8086664 Si02
#       6
#     8   8   8   8   8   8
#     4  10  21  35  49  69 101 135 161 191 240 295
#     4   9  17  30  49  71  95 125 159 195 237 282
#     4  10  19  33  52  71  97 131 160 187 236 298
#     4  10  19  31  50  75  97 119 158 205 236 270
#     4   8  16  30  48  70  94 123 157 194 235 282
#     4  10  19  32  52  75  96 121 163 209 238 270
#
# _framework density 18.546216000000001
#
# number of rings (size 3 to 8) (size 9 to 14) (size 15 to 20)
#    0.000    2.500    0.000    2.500    0.000    4.000 
#    0.000    0.833    0.000   10.000    0.000   21.000 
#    0.000    0.000    0.000    0.000    0.000    0.000 
#
# Total GULP energy -297474.464950 kJ/mol
# GULP energy per Si atom -12394.769373 kJ/mol
# Density = 1.850400 g / cm^3
# Si number density = 18.546216 Si / 1000 Ang^3
#
#
#
# Elastic Constant Matrix: (Units=GPa)
#
#
# Indices 1 2 3 4 5 6 
#
# 1 80.5211 15.0743 15.3485 0.0000 7.1848 0.0000
# 2 15.0743 27.0341 48.3647 0.0000 -1.5374 0.0000
# 3 15.3485 48.3647 174.9936 0.0000 0.2975 0.0000
# 4 0.0000 0.0000 0.0000 12.0877 0.0000 -14.1649
# 5 7.1848 -1.5374 0.2975 0.0000 27.4187 0.0000
# 6 0.0000 0.0000 0.0000 -14.1649 0.0000 -19.2608
#
#
#
# Elastic Compliance Matrix: (Units=1/GPa)
#
#
# Indices 1 2 3 4 5 6 
#
# 1 0.014712 -0.012201 0.002089 0.000000 -0.004562 0.000000
# 2 -0.012201 0.083803 -0.022105 0.000000 0.008136 0.000000
# 3 0.002089 -0.022105 0.011644 0.000000 -0.001913 0.000000
# 4 0.000000 0.000000 0.000000 0.044435 0.000000 -0.032678
# 5 -0.004562 0.008136 -0.001913 0.000000 0.038144 0.000000
# 6 0.000000 0.000000 0.000000 -0.032678 0.000000 -0.027886
#
#
# Mechanical properties :
#
#
# Convention : Reuss Voigt Hill
#
# Bulk Modulus (GPa) = 21.86964 48.90263 35.38614
# Shear Modulus (GPa) = 20.44771 17.63321 19.04046
#
# Velocity S-wave (km/s) = 3.32404 3.08680 3.20761
# Velocity P-wave (km/s) = 5.15265 6.25537 5.73060
#
# Compressibility (1/GPa) = 0.04572549
#
# Stress axis : x y z
#
# Youngs Moduli (GPa) = 67.97162 11.93277 85.88206
#
# Poissons Ratio (x) = 0.14559 -0.17945
# Poissons Ratio (y) = 0.82932 1.89843
# Poissons Ratio (z) = -0.14203 0.26377
#
# Static dielectric constant tensor:
#      x y z
#    x 3.689780 0.000000 -0.014600 
#    y 0.000000 2.761660 0.000000 
#    z -0.014600 0.000000 3.819270 
# 
# 
# High freq. dielectric constant tensor:
#      x y z
#    x 1.745710 0.000000 0.000190 
#    y 0.000000 1.650110 0.000000 
#    z 0.000190 0.000000 1.746350 
# 
# From -- ./inp_files/330981.got.cif
#   From: 2010.06.25/outbox.cif.g09.slc.cpg/sg12_166_cif.got.tgz:330981.got - 2010.06.28 00:19:55.
