data_PCOD8086096
_publ_section_title
;
Structure prediction by ZEFSAII (Michael W. Deem and Ramdas Pophale) SiO2 
 PCOD8086096
Probable space group: C 2/M
;
_chemical_formula_sum "Si O2"
_cell_formula_units_Z 48
_cell_length_a 26.650827
_cell_length_b 9.032415
_cell_length_c 19.824295
_cell_angle_alpha 90.000000
_cell_angle_beta 34.892181
_cell_angle_gamma 90.000000
_cell_volume 2729.820718
_symmetry_space_group_name_H-M "C 2/M"
_symmetry_group_IT_number 12
_symmetry_cell_setting 'monoclinic'
loop_
_space_group_symop_operation_xyz
x,y,z
-x,y,-z
-x,-y,-z
x,-y,z
1/2+x,1/2+y,z
1/2-x,1/2+y,-z
1/2-x,1/2-y,-z
1/2+x,1/2-y,z
loop_
_atom_site_type_symbol
_atom_site_label
_atom_site_fract_x
_atom_site_fract_y
_atom_site_fract_z
Si Si1 0.740813 0.833674 0.260263
Si Si2 0.946286 0.171053 0.741374
Si Si3 0.566454 0.670359 0.483938
Si Si4 0.085873 0.674042 0.944734
Si Si5 0.401636 0.825326 0.914787
Si Si6 0.274463 0.168200 0.882136
O O1 0.657427 0.756431 0.385515
O O2 0.830365 0.750731 0.182106
O O3 0.732515 0.829698 0.189903
O O4 0.745703 0.000000 0.282808
O O5 0.969507 0.246397 0.788172
O O6 0.865139 0.256322 0.799172
O O7 0.027488 0.189813 0.601484
O O8 0.922414 0.000000 0.778129
O O9 0.500000 0.734020 0.500000
O O10 0.586114 0.500000 0.444546
O O11 0.100365 0.500000 0.922209
O O12 0.074130 0.720448 0.035881
O O13 0.000000 0.728196 0.000000
O O14 0.403994 0.000000 0.902012
O O15 0.305639 0.763774 0.998954
O O16 0.270841 0.000000 0.913829
#
# Coordination Sequence:
#
# PCOD8086096 Si02
#       6
#     8   8   8   8   8   8
#     4  10  20  32  51  79 107 134 168 214 259 298
#     4  11  21  32  48  70 101 139 174 207 246 294
#     4  10  20  34  51  71 101 143 182 210 242 294
#     4   9  19  37  60  80  99 129 168 211 260 312
#     4  10  20  33  50  73 101 130 165 209 256 304
#     4  10  19  31  47  70 102 137 171 205 247 298
#
# _framework density 17.583572
#
# number of rings (size 3 to 8) (size 9 to 14) (size 15 to 20)
#    0.000    2.000    1.667    2.500    0.000    4.000 
#    0.000    0.000    0.000    1.000    0.000    0.000 
#    0.000    0.000    0.000    0.000    0.000    0.000 
#
# Total GULP energy -297620.617325 kJ/mol
# GULP energy per Si atom -12400.859055 kJ/mol
# Density = 1.754355 g / cm^3
# Si number density = 17.583572 Si / 1000 Ang^3
#
#
#
# Elastic Constant Matrix: (Units=GPa)
#
#
# Indices 1 2 3 4 5 6 
#
# 1 66.4431 39.6562 44.2738 0.0035 -21.2751 -0.0028
# 2 39.6562 104.6113 60.6622 0.0024 -3.4131 -0.0083
# 3 44.2738 60.6622 109.4014 0.0055 -9.3955 -0.0083
# 4 0.0035 0.0024 0.0055 31.0909 -0.0007 4.2644
# 5 -21.2751 -3.4131 -9.3955 -0.0007 20.2706 0.0024
# 6 -0.0028 -0.0083 -0.0083 4.2644 0.0024 21.0850
#
#
#
# Elastic Compliance Matrix: (Units=1/GPa)
#
#
# Indices 1 2 3 4 5 6 
#
# 1 0.034611 -0.008172 -0.006742 -0.000001 0.031825 -0.000005
# 2 -0.008172 0.016052 -0.006351 0.000000 -0.008818 0.000004
# 3 -0.006742 -0.006351 0.015300 -0.000002 -0.001054 0.000003
# 4 -0.000001 0.000000 -0.000002 0.033081 0.000000 -0.006691
# 5 0.031825 -0.008818 -0.001054 0.000000 0.080761 -0.000009
# 6 -0.000005 0.000004 0.000003 -0.006691 -0.000009 0.048780
#
#
# Mechanical properties :
#
#
# Convention : Reuss Voigt Hill
#
# Bulk Modulus (GPa) = 42.67541 63.29337 52.98439
# Shear Modulus (GPa) = 17.92576 23.54688 20.73632
#
# Velocity S-wave (km/s) = 3.19636 3.66340 3.43782
# Velocity P-wave (km/s) = 6.15996 7.34628 6.77912
#
# Compressibility (1/GPa) = 0.02343270
#
# Stress axis : x y z
#
# Youngs Moduli (GPa) = 28.89241 62.29665 65.35911
#
# Poissons Ratio (x) = 0.50912 0.44066
# Poissons Ratio (y) = 0.23612 0.41508
# Poissons Ratio (z) = 0.19480 0.39563
#
# Static dielectric constant tensor:
#      x y z
#    x 3.219160 -0.000010 0.186840 
#    y -0.000010 3.431340 0.000020 
#    z 0.186840 0.000020 3.320350 
# 
# 
# High freq. dielectric constant tensor:
#      x y z
#    x 1.652890 0.000000 0.015050 
#    y 0.000000 1.690970 0.000000 
#    z 0.015050 0.000000 1.676370 
# 
# From -- ./inp_files/180258.got.cif
#   From: 2010.06.25/outbox.cif.g09.slc.cpg/sg12_91_cif.got.tgz:180258.got - 2010.06.28 00:19:55.
