data_PCOD8086449
_publ_section_title
;
Structure prediction by ZEFSAII (Michael W. Deem and Ramdas Pophale) SiO2 
 PCOD8086449
Probable space group: C 2/M
;
_chemical_formula_sum "Si O2"
_cell_formula_units_Z 36
_cell_length_a 12.798102
_cell_length_b 32.053841
_cell_length_c 13.121665
_cell_angle_alpha 90.000000
_cell_angle_beta 22.364425
_cell_angle_gamma 90.000000
_cell_volume 2048.165158
_symmetry_space_group_name_H-M "C 2/M"
_symmetry_group_IT_number 12
_symmetry_cell_setting 'monoclinic'
loop_
_space_group_symop_operation_xyz
x,y,z
-x,y,-z
-x,-y,-z
x,-y,z
1/2+x,1/2+y,z
1/2-x,1/2+y,-z
1/2-x,1/2-y,-z
1/2+x,1/2-y,z
loop_
_atom_site_type_symbol
_atom_site_label
_atom_site_fract_x
_atom_site_fract_y
_atom_site_fract_z
Si Si1 0.199655 0.409879 0.225237
Si Si2 0.805314 0.303717 0.264996
Si Si3 0.954492 0.791281 0.156621
Si Si4 0.999535 0.331083 0.705187
Si Si5 0.797937 0.500000 0.775165
O O1 0.124628 0.376363 0.206903
O O2 0.166716 0.455543 0.198385
O O3 0.000000 0.405990 0.500000
O O4 0.500000 0.402137 0.000000
O O5 0.500000 0.305893 0.500000
O O6 0.880346 0.256992 0.230231
O O7 0.837257 0.332882 0.335308
O O8 0.000000 0.320364 0.000000
O O9 0.704427 0.816910 0.430873
O O10 0.000000 0.806927 0.000000
O O11 0.244865 0.799115 0.950535
O O12 0.000000 0.500000 0.500000
O O13 0.500000 0.500000 0.000000
#
# Coordination Sequence:
#
# PCOD8086449 Si02
#       5
#     8   8   8   8   4
#     4  10  19  31  49  74 101 124 151 187 236 293
#     4  11  23  37  49  66  95 133 170 204 239 275
#     4  11  21  34  50  72  99 125 158 201 246 290
#     4  12  21  33  52  73  95 128 165 202 237 280
#     4   8  16  30  46  68 100 128 144 176 232 296
#
# _framework density 17.576706999999999
#
# number of rings (size 3 to 8) (size 9 to 14) (size 15 to 20)
#    0.000    1.333    0.000    9.333    0.000    0.000 
#    0.000    0.000    0.000    0.000    0.000    1.556 
#    0.000    0.000    0.000    0.000    0.000    0.000 
#
# Total GULP energy -223120.901275 kJ/mol
# GULP energy per Si atom -12395.605626 kJ/mol
# Density = 1.753670 g / cm^3
# Si number density = 17.576707 Si / 1000 Ang^3
#
#
#
# Elastic Constant Matrix: (Units=GPa)
#
#
# Indices 1 2 3 4 5 6 
#
# 1 101.4966 76.7516 36.5292 -0.0001 -10.4681 0.0000
# 2 76.7516 111.8384 45.2891 0.0000 -1.0433 0.0006
# 3 36.5292 45.2891 129.0744 -0.0005 -16.0834 0.0009
# 4 -0.0001 0.0000 -0.0005 20.5466 0.0003 -4.4381
# 5 -10.4681 -1.0433 -16.0834 0.0003 29.9615 -0.0009
# 6 0.0000 0.0006 0.0009 -4.4381 -0.0009 12.2706
#
#
#
# Elastic Compliance Matrix: (Units=1/GPa)
#
#
# Indices 1 2 3 4 5 6 
#
# 1 0.021907 -0.014938 -0.000075 0.000000 0.007094 0.000001
# 2 -0.014938 0.020691 -0.003851 0.000000 -0.006565 -0.000001
# 3 -0.000075 -0.003851 0.009752 0.000000 0.005075 0.000000
# 4 0.000000 0.000000 0.000000 0.052794 0.000000 0.019095
# 5 0.007094 -0.006565 0.005075 0.000000 0.038350 0.000003
# 6 0.000001 -0.000001 0.000000 0.019095 0.000003 0.088402
#
#
# Mechanical properties :
#
#
# Convention : Reuss Voigt Hill
#
# Bulk Modulus (GPa) = 68.38071 73.28322 70.83196
# Shear Modulus (GPa) = 18.21518 24.81170 21.51344
#
# Velocity S-wave (km/s) = 3.22269 3.76123 3.50233
# Velocity P-wave (km/s) = 7.26886 7.78758 7.53268
#
# Compressibility (1/GPa) = 0.01462401
#
# Stress axis : x y z
#
# Youngs Moduli (GPa) = 45.64766 48.33058 102.54320
#
# Poissons Ratio (x) = 0.72195 0.00765
# Poissons Ratio (y) = 0.68187 0.39484
# Poissons Ratio (z) = 0.00341 0.18610
#
# Static dielectric constant tensor:
#      x y z
#    x 3.067070 0.000000 -0.111760 
#    y 0.000000 4.950560 0.000000 
#    z -0.111760 0.000000 3.510760 
# 
# 
# High freq. dielectric constant tensor:
#      x y z
#    x 1.645990 0.000000 -0.014110 
#    y 0.000000 1.664640 0.000000 
#    z -0.014110 0.000000 1.710330 
# 
# From -- ./inp_files/219316.got.cif
#   From: 2010.06.25/outbox.cif.g09.slc.cpg/sg12_110_cif.got.tgz:219316.got - 2010.06.28 00:19:55.
