data_PCOD8086010
_publ_section_title
;
Structure prediction by ZEFSAII (Michael W. Deem and Ramdas Pophale) SiO2 
 PCOD8086010
Probable space group: C 2/M
;
_chemical_formula_sum "Si O2"
_cell_formula_units_Z 44
_cell_length_a 16.408165
_cell_length_b 17.790173
_cell_length_c 12.758310
_cell_angle_alpha 90.000000
_cell_angle_beta 39.815178
_cell_angle_gamma 90.000000
_cell_volume 2384.656290
_symmetry_space_group_name_H-M "C 2/M"
_symmetry_group_IT_number 12
_symmetry_cell_setting 'monoclinic'
loop_
_space_group_symop_operation_xyz
x,y,z
-x,y,-z
-x,-y,-z
x,-y,z
1/2+x,1/2+y,z
1/2-x,1/2+y,-z
1/2-x,1/2-y,-z
1/2+x,1/2-y,z
loop_
_atom_site_type_symbol
_atom_site_label
_atom_site_fract_x
_atom_site_fract_y
_atom_site_fract_z
Si Si1 0.500000 0.690786 0.000000
Si Si2 0.396895 0.087429 0.878139
Si Si3 0.362059 0.835134 0.113789
Si Si4 0.629182 0.911575 0.326789
Si Si5 0.311407 0.087056 0.363222
Si Si6 0.155298 0.087437 0.720375
O O1 0.621989 0.744398 0.905368
O O2 0.531478 0.638233 0.868119
O O3 0.346057 0.116938 0.816178
O O4 0.547853 0.104448 0.732679
O O5 0.368438 0.000000 0.924058
O O6 0.317681 0.133370 0.044913
O O7 0.274463 0.862835 0.297433
O O8 0.500000 0.873753 0.000000
O O9 0.500000 0.874345 0.500000
O O10 0.746552 0.891598 0.284559
O O11 0.606724 0.000000 0.342846
O O12 0.212016 0.109552 0.552019
O O13 0.297042 0.000000 0.347390
O O14 0.117288 0.000000 0.761070
#
# Coordination Sequence:
#
# PCOD8086010 Si02
#       6
#     4   8   8   8   8   8
#     4  10  21  32  41  62  96 128 152 174 207 262
#     4   9  14  25  45  69  93 109 134 183 234 273
#     4   8  17  29  41  64  93 116 147 174 221 266
#     4   9  15  25  44  69  90 109 142 187 230 262
#     4   9  15  26  47  69  88 111 143 186 227 260
#     4  10  19  31  47  66  88 119 154 185 217 255
#
# _framework density 18.451295999999999
#
# number of rings (size 3 to 8) (size 9 to 14) (size 15 to 20)
#    0.545    2.364    1.818    0.818    0.000    2.909 
#    0.000    0.909    0.000    0.000    0.000    1.273 
#    0.000    7.273    0.000    0.000    0.000    2.182 
#
# Total GULP energy -272589.393715 kJ/mol
# GULP energy per Si atom -12390.426987 kJ/mol
# Density = 1.840930 g / cm^3
# Si number density = 18.451296 Si / 1000 Ang^3
#
#
#
# Elastic Constant Matrix: (Units=GPa)
#
#
# Indices 1 2 3 4 5 6 
#
# 1 34.4266 19.4071 36.0492 0.0001 23.8858 -0.0001
# 2 19.4071 83.5769 72.1864 0.0000 14.7155 0.0000
# 3 36.0492 72.1864 149.5455 0.0000 36.9350 0.0000
# 4 0.0001 0.0000 0.0000 23.8992 0.0000 -2.0072
# 5 23.8858 14.7155 36.9350 0.0000 25.8467 0.0000
# 6 -0.0001 0.0000 0.0000 -2.0072 0.0000 4.2034
#
#
#
# Elastic Compliance Matrix: (Units=1/GPa)
#
#
# Indices 1 2 3 4 5 6 
#
# 1 0.084477 -0.008412 0.002774 0.000000 -0.077243 0.000002
# 2 -0.008412 0.021605 -0.011256 0.000000 0.011557 0.000000
# 3 0.002774 -0.011256 0.016230 0.000000 -0.019348 0.000000
# 4 0.000000 0.000000 0.000000 0.043591 0.000000 0.020816
# 5 -0.077243 0.011557 -0.019348 0.000000 0.131141 -0.000002
# 6 0.000002 0.000000 0.000000 0.020816 -0.000002 0.247845
#
#
# Mechanical properties :
#
#
# Convention : Reuss Voigt Hill
#
# Bulk Modulus (GPa) = 11.29622 58.09270 34.69446
# Shear Modulus (GPa) = 8.22121 20.11694 14.16908
#
# Velocity S-wave (km/s) = 2.11313 3.30551 2.77414
# Velocity P-wave (km/s) = 3.47695 6.79126 5.39493
#
# Compressibility (1/GPa) = 0.08852515
#
# Stress axis : x y z
#
# Youngs Moduli (GPa) = 11.83758 46.28574 61.61461
#
# Poissons Ratio (x) = 0.38935 -0.17093
# Poissons Ratio (y) = 0.09958 0.69350
# Poissons Ratio (z) = -0.03284 0.52097
#
# Static dielectric constant tensor:
#      x y z
#    x 2.988560 0.000000 0.356970 
#    y 0.000000 3.108000 0.000000 
#    z 0.356970 0.000000 3.531240 
# 
# 
# High freq. dielectric constant tensor:
#      x y z
#    x 1.659490 0.000000 0.032840 
#    y 0.000000 1.692740 0.000000 
#    z 0.032840 0.000000 1.721400 
# 
# From -- ./inp_files/158567.got.cif
#   From: 2010.06.25/outbox.cif.g09.slc.cpg/sg12_80_cif.got.tgz:158567.got - 2010.06.28 00:19:55.
