data_PCOD8086526
_publ_section_title
;
Structure prediction by ZEFSAII (Michael W. Deem and Ramdas Pophale) SiO2 
 PCOD8086526
Probable space group: C 2/M
;
_chemical_formula_sum "Si O2"
_cell_formula_units_Z 64
_cell_length_a 21.949894
_cell_length_b 9.462535
_cell_length_c 21.748932
_cell_angle_alpha 90.000000
_cell_angle_beta 48.134180
_cell_angle_gamma 90.000000
_cell_volume 3364.069328
_symmetry_space_group_name_H-M "C 2/M"
_symmetry_group_IT_number 12
_symmetry_cell_setting 'monoclinic'
loop_
_space_group_symop_operation_xyz
x,y,z
-x,y,-z
-x,-y,-z
x,-y,z
1/2+x,1/2+y,z
1/2-x,1/2+y,-z
1/2-x,1/2-y,-z
1/2+x,1/2-y,z
loop_
_atom_site_type_symbol
_atom_site_label
_atom_site_fract_x
_atom_site_fract_y
_atom_site_fract_z
Si Si1 0.835973 0.343482 0.745101
Si Si2 0.059015 0.163043 0.514970
Si Si3 0.485190 0.165969 0.813153
Si Si4 0.796687 0.161496 0.663917
Si Si5 0.838395 0.837734 0.093642
Si Si6 0.986200 0.657332 0.338648
Si Si7 0.833819 0.831794 0.957120
Si Si8 0.119553 0.334114 0.820280
O O1 0.822719 0.500000 0.726965
O O2 0.850153 0.241221 0.678493
O O3 0.757792 0.298979 0.837896
O O4 0.915613 0.335786 0.733314
O O5 0.155042 0.184571 0.432625
O O6 0.000000 0.222253 0.500000
O O7 0.049175 0.239186 0.586605
O O8 0.037266 0.000000 0.540343
O O9 0.538317 0.195396 0.714992
O O10 0.404908 0.264205 0.867616
O O11 0.543200 0.210482 0.830367
O O12 0.460664 0.000000 0.833087
O O13 0.702493 0.214151 0.728007
O O14 0.799347 0.000000 0.681885
O O15 0.888521 0.743227 0.108512
O O16 0.855789 0.000000 0.098816
O O17 0.863391 0.804298 0.007193
O O18 0.956429 0.500000 0.376689
O O19 0.823209 0.000000 0.951304
O O20 0.750000 0.750000 0.000000
O O21 0.120432 0.500000 0.832596
#
# Coordination Sequence:
#
# PCOD8086526 Si02
#       8
#     8   8   8   8   8   8   8   8
#     4   9  16  28  48  73 100 133 169 211 263 319
#     4  10  19  31  49  77 111 139 170 224 282 331
#     4  10  22  40  57  77 109 147 187 231 274 322
#     4   9  17  31  50  74 104 136 172 218 271 322
#     4   9  19  35  55  80 110 141 178 225 273 319
#     4  10  20  33  51  74 105 142 180 222 272 331
#     4  11  23  39  60  86 116 147 179 222 276 331
#     4   9  19  36  58  79 104 145 192 230 269 322
#
# _framework density 19.02458
#
# number of rings (size 3 to 8) (size 9 to 14) (size 15 to 20)
#    0.000    2.375    1.250    1.125    0.000    5.250 
#    0.000    5.625    0.000    0.000    0.000    0.000 
#    0.000    0.000    0.000    0.000    0.000    0.000 
#
# Total GULP energy -396633.665108 kJ/mol
# GULP energy per Si atom -12394.802035 kJ/mol
# Density = 1.898128 g / cm^3
# Si number density = 19.024580 Si / 1000 Ang^3
#
#
#
# Elastic Constant Matrix: (Units=GPa)
#
#
# Indices 1 2 3 4 5 6 
#
# 1 70.3636 35.4992 23.6129 0.0002 9.4005 -0.0002
# 2 35.4992 69.0133 43.9884 0.0004 8.1770 -0.0006
# 3 23.6129 43.9884 88.5591 0.0001 13.0523 -0.0002
# 4 0.0002 0.0004 0.0001 33.9460 -0.0001 4.3908
# 5 9.4005 8.1770 13.0523 -0.0001 25.3006 0.0001
# 6 -0.0002 -0.0006 -0.0002 4.3908 0.0001 24.3265
#
#
#
# Elastic Compliance Matrix: (Units=1/GPa)
#
#
# Indices 1 2 3 4 5 6 
#
# 1 0.019613 -0.009732 0.000233 0.000000 -0.004262 0.000000
# 2 -0.009732 0.026087 -0.010448 0.000000 0.000575 0.000000
# 3 0.000233 -0.010448 0.017246 0.000000 -0.005607 0.000000
# 4 0.000000 0.000000 0.000000 0.030163 0.000000 -0.005444
# 5 -0.004262 0.000575 -0.005607 0.000000 0.043815 0.000000
# 6 0.000000 0.000000 0.000000 -0.005444 0.000000 0.042090
#
#
# Mechanical properties :
#
#
# Convention : Reuss Voigt Hill
#
# Bulk Modulus (GPa) = 43.38017 48.23744 45.80881
# Shear Modulus (GPa) = 22.06617 25.03699 23.55158
#
# Velocity S-wave (km/s) = 3.40939 3.63165 3.52228
# Velocity P-wave (km/s) = 6.19276 6.55710 6.37753
#
# Compressibility (1/GPa) = 0.02305201
#
# Stress axis : x y z
#
# Youngs Moduli (GPa) = 50.98637 38.33334 57.98574
#
# Poissons Ratio (x) = 0.37306 -0.01349
# Poissons Ratio (y) = 0.49619 0.60581
# Poissons Ratio (z) = -0.01186 0.40049
#
# Static dielectric constant tensor:
#      x y z
#    x 3.373200 0.000000 -0.036360 
#    y 0.000000 3.447250 0.000000 
#    z -0.036360 0.000000 3.486450 
# 
# 
# High freq. dielectric constant tensor:
#      x y z
#    x 1.721370 0.000000 -0.000480 
#    y 0.000000 1.734650 0.000000 
#    z -0.000480 0.000000 1.740440 
# 
# From -- ./inp_files/324108.got.cif
#   From: 2010.06.25/outbox.cif.g09.slc.cpg/sg12_163_cif.got.tgz:324108.got - 2010.06.28 00:19:55.
