data_PCOD8086475
_publ_section_title
;
Structure prediction by ZEFSAII (Michael W. Deem and Ramdas Pophale) SiO2 
 PCOD8086475
Probable space group: C 2/M
;
_chemical_formula_sum "Si O2"
_cell_formula_units_Z 56
_cell_length_a 25.764800
_cell_length_b 9.294219
_cell_length_c 17.257561
_cell_angle_alpha 90.000000
_cell_angle_beta 43.457832
_cell_angle_gamma 90.000000
_cell_volume 2842.459150
_symmetry_space_group_name_H-M "C 2/M"
_symmetry_group_IT_number 12
_symmetry_cell_setting 'monoclinic'
loop_
_space_group_symop_operation_xyz
x,y,z
-x,y,-z
-x,-y,-z
x,-y,z
1/2+x,1/2+y,z
1/2-x,1/2+y,-z
1/2-x,1/2-y,-z
1/2+x,1/2-y,z
loop_
_atom_site_type_symbol
_atom_site_label
_atom_site_fract_x
_atom_site_fract_y
_atom_site_fract_z
Si Si1 0.564700 0.652757 0.988316
Si Si2 0.651671 0.165137 0.779789
Si Si3 0.927111 0.669111 0.625970
Si Si4 0.541703 0.167957 0.233039
Si Si5 0.799750 0.333028 0.007228
Si Si6 0.779799 0.165007 0.749834
Si Si7 0.941421 0.832037 0.240660
O O1 0.610926 0.500000 0.949529
O O2 0.521229 0.698009 0.112679
O O3 0.500000 0.610459 0.000000
O O4 0.611010 0.784874 0.902985
O O5 0.739464 0.181877 0.708890
O O6 0.628886 0.260143 0.729564
O O7 0.629917 0.000000 0.786317
O O8 0.915605 0.500000 0.630890
O O9 0.934983 0.717311 0.706294
O O10 0.854476 0.741208 0.666339
O O11 0.000000 0.721815 0.500000
O O12 0.612281 0.205343 0.100145
O O13 0.463136 0.252105 0.297269
O O14 0.521944 0.000000 0.251883
O O15 0.785370 0.500000 0.007749
O O16 0.750000 0.250000 0.000000
O O17 0.776113 0.284934 0.119652
O O18 0.802392 0.000000 0.739386
O O19 0.922198 0.000000 0.273582
#
# Coordination Sequence:
#
# PCOD8086475 Si02
#       7
#     8   8   8   8   8   8   8
#     4   8  15  27  41  64 101 141 180 216 253 303
#     4  10  19  31  49  74 106 144 182 221 264 317
#     4  10  22  40  61  83 106 138 182 227 274 328
#     4  10  20  35  55  80 111 145 180 221 270 322
#     4  10  19  32  51  79 113 147 182 219 267 323
#     4  10  21  35  54  82 114 145 182 223 269 325
#     4  10  20  32  48  74 107 143 182 222 265 317
#
# _framework density 19.701252
#
# number of rings (size 3 to 8) (size 9 to 14) (size 15 to 20)
#    0.000    2.286    1.429    2.571    0.000    6.857 
#    0.000    0.000    0.000    0.857    0.000    0.000 
#    0.000    0.000    0.000    0.000    0.000    0.000 
#
# Total GULP energy -346898.975466 kJ/mol
# GULP energy per Si atom -12389.249124 kJ/mol
# Density = 1.965641 g / cm^3
# Si number density = 19.701252 Si / 1000 Ang^3
#
#
#
# Elastic Constant Matrix: (Units=GPa)
#
#
# Indices 1 2 3 4 5 6 
#
# 1 134.9151 68.5667 21.0205 0.0000 -16.9703 -0.0030
# 2 68.5667 90.4273 22.3327 -0.0055 -10.8298 0.0032
# 3 21.0205 22.3327 64.8518 -0.0033 -13.6937 0.0025
# 4 0.0000 -0.0055 -0.0033 16.9932 0.0013 -3.6908
# 5 -16.9703 -10.8298 -13.6937 0.0013 8.8074 -0.0025
# 6 -0.0030 0.0032 0.0025 -3.6908 -0.0025 29.7253
#
#
#
# Elastic Compliance Matrix: (Units=1/GPa)
#
#
# Indices 1 2 3 4 5 6 
#
# 1 0.014098 -0.008925 0.002862 -0.000003 0.020640 0.000003
# 2 -0.008925 0.018736 -0.003462 0.000005 0.000458 -0.000002
# 3 0.002862 -0.003462 0.023746 0.000001 0.038177 0.000002
# 4 -0.000003 0.000005 0.000001 0.060478 -0.000005 0.007509
# 5 0.020640 0.000458 0.038177 -0.000005 0.213231 0.000016
# 6 0.000003 -0.000002 0.000002 0.007509 0.000016 0.034574
#
#
# Mechanical properties :
#
#
# Convention : Reuss Voigt Hill
#
# Bulk Modulus (GPa) = 26.64591 57.11487 41.88039
# Shear Modulus (GPa) = 12.61280 22.99014 17.80147
#
# Velocity S-wave (km/s) = 2.53297 3.41975 3.00921
# Velocity P-wave (km/s) = 4.70201 6.68179 5.77734
#
# Compressibility (1/GPa) = 0.03752921
#
# Stress axis : x y z
#
# Youngs Moduli (GPa) = 70.93105 53.37345 42.11307
#
# Poissons Ratio (x) = 0.47635 -0.12053
# Poissons Ratio (y) = 0.63305 0.14581
# Poissons Ratio (z) = -0.20301 0.18480
#
# Static dielectric constant tensor:
#      x y z
#    x 3.677670 -0.000010 0.094960 
#    y -0.000010 3.554640 0.000000 
#    z 0.094960 0.000000 3.150220 
# 
# 
# High freq. dielectric constant tensor:
#      x y z
#    x 1.784680 0.000000 0.001530 
#    y 0.000000 1.772160 0.000000 
#    z 0.001530 0.000000 1.711660 
# 
# From -- ./inp_files/292428.got.cif
#   From: 2010.06.25/outbox.cif.g09.slc.cpg/sg12_147_cif.got.tgz:292428.got - 2010.06.28 00:19:55.
