data_PCOD8086608
_publ_section_title
;
Structure prediction by ZEFSAII (Michael W. Deem and Ramdas Pophale) SiO2 
 PCOD8086608
Probable space group: C 2/M
;
_chemical_formula_sum "Si O2"
_cell_formula_units_Z 56
_cell_length_a 15.380823
_cell_length_b 18.414592
_cell_length_c 19.087848
_cell_angle_alpha 90.000000
_cell_angle_beta 142.614303
_cell_angle_gamma 90.000000
_cell_volume 3282.572436
_symmetry_space_group_name_H-M "C 2/M"
_symmetry_group_IT_number 12
_symmetry_cell_setting 'monoclinic'
loop_
_space_group_symop_operation_xyz
x,y,z
-x,y,-z
-x,-y,-z
x,-y,z
1/2+x,1/2+y,z
1/2-x,1/2+y,-z
1/2-x,1/2-y,-z
1/2+x,1/2-y,z
loop_
_atom_site_type_symbol
_atom_site_label
_atom_site_fract_x
_atom_site_fract_y
_atom_site_fract_z
Si Si1 0.093744 0.414572 0.756793
Si Si2 0.301984 0.915993 0.642515
Si Si3 0.630000 0.670348 0.636744
Si Si4 0.049352 0.084671 0.375563
Si Si5 0.901016 0.085576 0.750748
Si Si6 0.127361 0.335152 0.636154
Si Si7 0.901788 0.085692 0.999124
O O1 0.097940 0.500000 0.743038
O O2 0.071621 0.373549 0.670050
O O3 0.238943 0.386615 0.887203
O O4 0.962327 0.395014 0.723139
O O5 0.265629 0.868971 0.687893
O O6 0.196339 0.898025 0.510365
O O7 0.288467 0.000000 0.654837
O O8 0.500000 0.665371 0.500000
O O9 0.584215 0.628643 0.678012
O O10 0.671484 0.752536 0.681705
O O11 0.067703 0.111538 0.307793
O O12 0.010873 0.000000 0.354732
O O13 0.761454 0.123996 0.690181
O O14 0.871818 0.000000 0.735191
O O15 0.035816 0.108380 0.885394
O O16 0.000000 0.337515 0.500000
O O17 0.903001 0.000000 0.991907
O O18 0.000000 0.119448 0.000000
#
# Coordination Sequence:
#
# PCOD8086608 Si02
#       7
#     8   8   8   8   8   8   8
#     4  10  19  31  50  74  97 124 159 199 241 284
#     4   9  17  31  52  75  97 123 159 202 240 278
#     4   9  19  33  48  69  98 134 166 189 231 290
#     4   9  17  31  52  75  97 123 159 202 240 278
#     4  10  19  31  50  74  97 124 159 199 241 284
#     4  11  21  30  45  71 103 133 154 190 242 289
#     4   9  16  30  50  70  94 126 162 195 233 286
#
# _framework density 17.059792000000002
#
# number of rings (size 3 to 8) (size 9 to 14) (size 15 to 20)
#    0.000    2.429    1.429    1.714    0.000    5.143 
#    0.000    4.286    0.000    6.000    0.000    5.000 
#    0.000    0.000    0.000    0.000    0.000    0.000 
#
# Total GULP energy -347205.115156 kJ/mol
# GULP energy per Si atom -12400.182684 kJ/mol
# Density = 1.702096 g / cm^3
# Si number density = 17.059792 Si / 1000 Ang^3
#
#
#
# Elastic Constant Matrix: (Units=GPa)
#
#
# Indices 1 2 3 4 5 6 
#
# 1 119.9172 46.6427 35.9609 -0.0009 23.9691 -0.0006
# 2 46.6427 60.4140 21.6384 -0.0009 9.0696 -0.0006
# 3 35.9609 21.6384 71.1230 -0.0009 19.4521 -0.0009
# 4 -0.0009 -0.0009 -0.0009 9.9966 -0.0003 -1.0151
# 5 23.9691 9.0696 19.4521 -0.0003 12.7579 -0.0003
# 6 -0.0006 -0.0006 -0.0009 -1.0151 -0.0003 9.2573
#
#
#
# Elastic Compliance Matrix: (Units=1/GPa)
#
#
# Indices 1 2 3 4 5 6 
#
# 1 0.017224 -0.009749 0.002079 0.000000 -0.028600 0.000000
# 2 -0.009749 0.024567 -0.004765 0.000001 0.008117 0.000001
# 3 0.002079 -0.004765 0.025044 0.000001 -0.038704 0.000001
# 4 0.000000 0.000001 0.000001 0.101161 0.000000 0.011093
# 5 -0.028600 0.008117 -0.038704 0.000000 0.185359 0.000001
# 6 0.000000 0.000001 0.000001 0.011093 0.000001 0.109239
#
#
# Mechanical properties :
#
#
# Convention : Reuss Voigt Hill
#
# Bulk Modulus (GPa) = 23.82868 51.10423 37.46646
# Shear Modulus (GPa) = 9.97103 16.21650 13.09377
#
# Velocity S-wave (km/s) = 2.42022 3.08647 2.77342
# Velocity P-wave (km/s) = 4.66990 6.53626 5.68026
#
# Compressibility (1/GPa) = 0.04196623
#
# Stress axis : x y z
#
# Youngs Moduli (GPa) = 58.05825 40.70429 39.92952
#
# Poissons Ratio (x) = 0.39683 -0.08303
# Poissons Ratio (y) = 0.56602 0.19026
# Poissons Ratio (z) = -0.12072 0.19396
#
# Static dielectric constant tensor:
#      x y z
#    x 3.332370 0.000000 -0.054770 
#    y 0.000000 3.136050 0.000000 
#    z -0.054770 0.000000 3.307860 
# 
# 
# High freq. dielectric constant tensor:
#      x y z
#    x 1.667070 0.000000 0.001140 
#    y 0.000000 1.639930 0.000000 
#    z 0.001140 0.000000 1.639710 
# 
# From -- ./inp_files/271445.got.cif
#   From: 2010.06.25/outbox.cif.g09.slc.cpg/sg12_136_cif.got.tgz:271445.got - 2010.06.28 00:19:55.
