data_PCOD8086428
_publ_section_title
;
Structure prediction by ZEFSAII (Michael W. Deem and Ramdas Pophale) SiO2 
 PCOD8086428
Probable space group: C 2/M
;
_chemical_formula_sum "Si O2"
_cell_formula_units_Z 40
_cell_length_a 20.280620
_cell_length_b 9.033355
_cell_length_c 24.145920
_cell_angle_alpha 90.000000
_cell_angle_beta 34.737930
_cell_angle_gamma 90.000000
_cell_volume 2520.661577
_symmetry_space_group_name_H-M "C 2/M"
_symmetry_group_IT_number 12
_symmetry_cell_setting 'monoclinic'
loop_
_space_group_symop_operation_xyz
x,y,z
-x,y,-z
-x,-y,-z
x,-y,z
1/2+x,1/2+y,z
1/2-x,1/2+y,-z
1/2-x,1/2-y,-z
1/2+x,1/2-y,z
loop_
_atom_site_type_symbol
_atom_site_label
_atom_site_fract_x
_atom_site_fract_y
_atom_site_fract_z
Si Si1 0.027474 0.170118 0.392182
Si Si2 0.514573 0.833491 0.288681
Si Si3 0.413151 0.324925 0.263509
Si Si4 0.813339 0.170864 0.615428
Si Si5 0.863468 0.332593 0.902306
O O1 0.904485 0.208949 0.504352
O O2 0.048637 0.269340 0.324180
O O3 0.129757 0.203870 0.364564
O O4 0.030401 0.000000 0.372023
O O5 0.415527 0.736559 0.325525
O O6 0.629193 0.833126 0.170191
O O7 0.466912 0.000000 0.329022
O O8 0.424414 0.500000 0.255825
O O9 0.295623 0.277519 0.314967
O O10 0.521828 0.253679 0.154708
O O11 0.774696 0.000000 0.637866
O O12 0.863028 0.500000 0.926012
O O13 0.750000 0.250000 0.000000
#
# Coordination Sequence:
#
# PCOD8086428 Si02
#       5
#     8   8   8   8   8
#     4   9  18  32  51  70  96 133 166 197 239 288
#     4   9  19  32  48  72  99 125 159 203 242 282
#     4  10  19  31  49  73  97 128 164 199 240 285
#     4   9  18  33  49  70  99 131 165 200 238 284
#     4   9  18  32  51  74  97 124 155 198 246 289
#
# _framework density 15.868849000000001
#
# number of rings (size 3 to 8) (size 9 to 14) (size 15 to 20)
#    1.200    1.600    0.000    3.600    0.000    2.400 
#    0.000    2.000    0.000    1.200    0.000    8.400 
#    0.000    0.000    0.000    0.000    0.000    0.000 
#
# Total GULP energy -247827.187886 kJ/mol
# GULP energy per Si atom -12391.359394 kJ/mol
# Density = 1.583273 g / cm^3
# Si number density = 15.868849 Si / 1000 Ang^3
#
#
#
# Elastic Constant Matrix: (Units=GPa)
#
#
# Indices 1 2 3 4 5 6 
#
# 1 72.5780 54.6971 44.2905 0.0000 -15.6458 0.0000
# 2 54.6971 141.6980 57.0289 0.0001 -17.1509 -0.0001
# 3 44.2905 57.0289 77.1244 0.0001 -17.7263 0.0000
# 4 0.0000 0.0001 0.0001 29.1062 -0.0001 -1.2179
# 5 -15.6458 -17.1509 -17.7263 -0.0001 11.4975 0.0000
# 6 0.0000 -0.0001 0.0000 -1.2179 0.0000 31.8724
#
#
#
# Elastic Compliance Matrix: (Units=1/GPa)
#
#
# Indices 1 2 3 4 5 6 
#
# 1 0.025367 -0.004944 -0.007238 0.000000 0.015986 0.000000
# 2 -0.004944 0.011238 -0.004901 0.000000 0.002481 0.000000
# 3 -0.007238 -0.004901 0.026024 0.000000 0.022964 0.000000
# 4 0.000000 0.000000 0.000000 0.034412 0.000000 0.001315
# 5 0.015986 0.002481 0.022964 0.000000 0.147834 0.000000
# 6 0.000000 0.000000 0.000000 0.001315 0.000000 0.031425
#
#
# Mechanical properties :
#
#
# Convention : Reuss Voigt Hill
#
# Bulk Modulus (GPa) = 35.13097 67.04815 51.08956
# Shear Modulus (GPa) = 15.62722 23.52080 19.57401
#
# Velocity S-wave (km/s) = 3.14151 3.85411 3.51591
# Velocity P-wave (km/s) = 5.94518 7.88345 6.98190
#
# Compressibility (1/GPa) = 0.02846491
#
# Stress axis : x y z
#
# Youngs Moduli (GPa) = 39.42095 88.98053 38.42598
#
# Poissons Ratio (x) = 0.43994 0.27811
# Poissons Ratio (y) = 0.19491 0.18831
# Poissons Ratio (z) = 0.28531 0.43606
#
# Static dielectric constant tensor:
#      x y z
#    x 2.798890 0.000000 -0.010740 
#    y 0.000000 3.030160 0.000000 
#    z -0.010740 0.000000 2.787150 
# 
# 
# High freq. dielectric constant tensor:
#      x y z
#    x 1.590780 0.000000 -0.004450 
#    y 0.000000 1.622470 0.000000 
#    z -0.004450 0.000000 1.589140 
# 
# From -- ./inp_files/313530.got.cif
#   From: 2010.06.25/outbox.cif.g09.slc.cpg/sg12_157_cif.got.tgz:313530.got - 2010.06.28 00:19:55.
