data_PCOD8086424
_publ_section_title
;
Structure prediction by ZEFSAII (Michael W. Deem and Ramdas Pophale) SiO2 
 PCOD8086424
Probable space group: C 2/M
;
_chemical_formula_sum "Si O2"
_cell_formula_units_Z 64
_cell_length_a 10.025209
_cell_length_b 16.130659
_cell_length_c 30.716534
_cell_angle_alpha 90.000000
_cell_angle_beta 43.496498
_cell_angle_gamma 90.000000
_cell_volume 3419.022702
_symmetry_space_group_name_H-M "C 2/M"
_symmetry_group_IT_number 12
_symmetry_cell_setting 'monoclinic'
loop_
_space_group_symop_operation_xyz
x,y,z
-x,y,-z
-x,-y,-z
x,-y,z
1/2+x,1/2+y,z
1/2-x,1/2+y,-z
1/2-x,1/2-y,-z
1/2+x,1/2-y,z
loop_
_atom_site_type_symbol
_atom_site_label
_atom_site_fract_x
_atom_site_fract_y
_atom_site_fract_z
Si Si1 0.221526 0.245667 0.456087
Si Si2 0.721520 0.321429 0.746035
Si Si3 0.922056 0.821785 0.743507
Si Si4 0.787005 0.905994 0.384305
Si Si5 0.154269 0.327274 0.000827
Si Si6 0.508367 0.906622 0.620085
Si Si7 0.138366 0.590433 0.868069
Si Si8 0.948719 0.090348 0.869949
O O1 0.250000 0.250000 0.500000
O O2 0.290557 0.333992 0.419804
O O3 0.334894 0.165970 0.409909
O O4 0.000000 0.227419 0.500000
O O5 0.875385 0.250420 0.720571
O O6 0.559388 0.288829 0.750199
O O7 0.625290 0.350047 0.814506
O O8 0.840416 0.396662 0.696158
O O9 0.714292 0.853196 0.810580
O O10 0.031304 0.894208 0.691237
O O11 0.586314 0.896746 0.405325
O O12 0.800599 0.000000 0.400847
O O13 0.054409 0.376283 0.063622
O O14 0.250000 0.250000 0.000000
O O15 0.330742 0.379655 0.939681
O O16 0.000000 0.302491 0.000000
O O17 0.596053 0.000000 0.604316
O O18 0.088273 0.500000 0.861163
O O19 0.309656 0.583791 0.861840
O O20 0.033148 0.000000 0.861423
#
# Coordination Sequence:
#
# PCOD8086424 Si02
#       8
#     8   8   8   8   8   8   8   8
#     4  12  24  40  63  87 118 147 185 232 278 337
#     4  10  19  33  57  81 109 143 183 228 275 322
#     4  10  19  33  57  82 109 142 183 229 273 324
#     4  10  21  39  63  87 113 152 193 229 274 338
#     4  10  19  31  49  73 105 139 176 221 271 322
#     4  10  21  39  62  87 115 150 191 232 278 334
#     4   9  17  30  50  77 104 137 182 228 266 312
#     4   9  17  30  50  77 103 137 184 227 265 315
#
# _framework density 18.718800000000002
#
# number of rings (size 3 to 8) (size 9 to 14) (size 15 to 20)
#    0.000    2.000    2.500    1.875    0.000    5.500 
#    0.000    0.000    0.000    5.250    0.000    0.000 
#    0.000    0.000    0.000    0.000    0.000    0.000 
#
# Total GULP energy -396646.692778 kJ/mol
# GULP energy per Si atom -12395.209149 kJ/mol
# Density = 1.867620 g / cm^3
# Si number density = 18.718800 Si / 1000 Ang^3
#
#
#
# Elastic Constant Matrix: (Units=GPa)
#
#
# Indices 1 2 3 4 5 6 
#
# 1 60.6104 46.8299 32.7850 -0.0002 -0.7800 0.0003
# 2 46.8299 148.4433 48.7520 0.0017 -1.1502 0.0002
# 3 32.7850 48.7520 112.1957 0.0058 -2.1421 -0.0001
# 4 -0.0002 0.0017 0.0058 24.0307 -0.0002 -0.6792
# 5 -0.7800 -1.1502 -2.1421 -0.0002 21.7771 -0.0002
# 6 0.0003 0.0002 -0.0001 -0.6792 -0.0002 27.1978
#
#
#
# Elastic Compliance Matrix: (Units=1/GPa)
#
#
# Indices 1 2 3 4 5 6 
#
# 1 0.023426 -0.005998 -0.004237 0.000002 0.000106 0.000000
# 2 -0.005998 0.009394 -0.002328 0.000000 0.000052 0.000000
# 3 -0.004237 -0.002328 0.011179 -0.000003 0.000825 0.000000
# 4 0.000002 0.000000 -0.000003 0.041643 0.000000 0.001040
# 5 0.000106 0.000052 0.000825 0.000000 0.046007 0.000000
# 6 0.000000 0.000000 0.000000 0.001040 0.000000 0.036794
#
#
# Mechanical properties :
#
#
# Convention : Reuss Voigt Hill
#
# Bulk Modulus (GPa) = 52.98838 64.22034 58.60436
# Shear Modulus (GPa) = 25.01750 27.45996 26.23873
#
# Velocity S-wave (km/s) = 3.65977 3.83426 3.74803
# Velocity P-wave (km/s) = 6.79909 7.34741 7.07856
#
# Compressibility (1/GPa) = 0.01887206
#
# Stress axis : x y z
#
# Youngs Moduli (GPa) = 42.68691 106.45300 89.45705
#
# Poissons Ratio (x) = 0.63851 0.37904
# Poissons Ratio (y) = 0.25604 0.20827
# Poissons Ratio (z) = 0.18087 0.24784
#
# Static dielectric constant tensor:
#      x y z
#    x 3.077350 0.000000 -0.030480 
#    y 0.000000 3.421700 -0.000030 
#    z -0.030480 -0.000030 3.292760 
# 
# 
# High freq. dielectric constant tensor:
#      x y z
#    x 1.685180 0.000000 -0.001850 
#    y 0.000000 1.729440 0.000000 
#    z -0.001850 0.000000 1.747230 
# 
# From -- ./inp_files/372570.got.cif
#   From: 2010.06.25/outbox.cif.g09.slc.cpg/sg12_187_cif.got.tgz:372570.got - 2010.06.28 00:19:55.
