data_PCOD8086904
_publ_section_title
;
Structure prediction by ZEFSAII (Michael W. Deem and Ramdas Pophale) SiO2 
 PCOD8086904
Probable space group: C 2/M
;
_chemical_formula_sum "Si O2"
_cell_formula_units_Z 56
_cell_length_a 32.051736
_cell_length_b 9.112136
_cell_length_c 20.184910
_cell_angle_alpha 90.000000
_cell_angle_beta 28.665512
_cell_angle_gamma 90.000000
_cell_volume 2827.900658
_symmetry_space_group_name_H-M "C 2/M"
_symmetry_group_IT_number 12
_symmetry_cell_setting 'monoclinic'
loop_
_space_group_symop_operation_xyz
x,y,z
-x,y,-z
-x,-y,-z
x,-y,z
1/2+x,1/2+y,z
1/2-x,1/2+y,-z
1/2-x,1/2-y,-z
1/2+x,1/2-y,z
loop_
_atom_site_type_symbol
_atom_site_label
_atom_site_fract_x
_atom_site_fract_y
_atom_site_fract_z
Si Si1 0.588882 0.166880 0.449452
Si Si2 0.494972 0.671421 0.234688
Si Si3 0.850085 0.671139 0.035153
Si Si4 0.733422 0.332503 0.319516
Si Si5 0.202714 0.831461 0.507345
Si Si6 0.065734 0.828445 0.281215
Si Si7 0.204076 0.668208 0.160399
O O1 0.654433 0.225607 0.413546
O O2 0.501369 0.262356 0.571765
O O3 0.633068 0.178952 0.316917
O O4 0.563927 0.000000 0.501214
O O5 0.504654 0.500000 0.205681
O O6 0.395919 0.725146 0.364955
O O7 0.529034 0.708919 0.260276
O O8 0.553103 0.762804 0.101702
O O9 0.850571 0.500000 0.017149
O O10 0.815461 0.699991 0.157963
O O11 0.792219 0.753636 0.060745
O O12 0.700357 0.500000 0.355355
O O13 0.757239 0.306535 0.363346
O O14 0.250000 0.750000 0.500000
O O15 0.200781 0.000000 0.530066
O O16 0.160616 0.752244 0.158396
O O17 0.076443 0.000000 0.279245
O O18 0.226357 0.500000 0.110825
#
# Coordination Sequence:
#
# PCOD8086904 Si02
#       7
#     8   8   8   8   8   8   8
#     4  10  19  31  51  80 113 147 189 238 285 332
#     4  10  22  40  59  81 115 153 185 231 290 336
#     4  10  21  37  60  85 112 152 197 234 275 333
#     4   9  18  37  60  83 114 150 187 230 280 334
#     4  10  21  40  64  90 116 144 181 230 284 340
#     4  11  21  34  53  77 110 154 197 237 283 332
#     4  10  21  35  51  78 115 153 192 239 285 328
#
# _framework density 19.802676999999999
#
# number of rings (size 3 to 8) (size 9 to 14) (size 15 to 20)
#    0.000    2.000    1.429    2.143    0.000    6.857 
#    0.000    0.714    0.000    4.286    0.000    0.000 
#    0.000    0.000    0.000    0.000    0.000    0.000 
#
# Total GULP energy -347229.481866 kJ/mol
# GULP energy per Si atom -12401.052924 kJ/mol
# Density = 1.975760 g / cm^3
# Si number density = 19.802677 Si / 1000 Ang^3
#
#
#
# Elastic Constant Matrix: (Units=GPa)
#
#
# Indices 1 2 3 4 5 6 
#
# 1 117.3990 49.9381 39.2138 0.0013 -14.6978 -0.0003
# 2 49.9381 94.6520 44.6608 0.0080 -7.5380 -0.0009
# 3 39.2138 44.6608 93.8656 0.0033 -10.2912 -0.0010
# 4 0.0013 0.0080 0.0033 32.9116 -0.0009 -4.5209
# 5 -14.6978 -7.5380 -10.2912 -0.0009 12.9294 0.0009
# 6 -0.0003 -0.0009 -0.0010 -4.5209 0.0009 33.0106
#
#
#
# Elastic Compliance Matrix: (Units=1/GPa)
#
#
# Indices 1 2 3 4 5 6 
#
# 1 0.012447 -0.004949 -0.001764 0.000001 0.009860 0.000000
# 2 -0.004949 0.015702 -0.005496 -0.000003 -0.000846 0.000000
# 3 -0.001764 -0.005496 0.014719 0.000000 0.006506 0.000000
# 4 0.000001 -0.000003 0.000000 0.030967 0.000001 0.004241
# 5 0.009860 -0.000846 0.006506 0.000001 0.093236 -0.000002
# 6 0.000000 0.000000 0.000000 0.004241 -0.000002 0.030874
#
#
# Mechanical properties :
#
#
# Convention : Reuss Voigt Hill
#
# Bulk Modulus (GPa) = 54.20397 63.72691 58.96544
# Shear Modulus (GPa) = 21.88051 27.24391 24.56221
#
# Velocity S-wave (km/s) = 3.32765 3.71316 3.52568
# Velocity P-wave (km/s) = 6.49583 7.11577 6.81286
#
# Compressibility (1/GPa) = 0.01844883
#
# Stress axis : x y z
#
# Youngs Moduli (GPa) = 80.34137 63.68528 67.94032
#
# Poissons Ratio (x) = 0.31520 0.11985
# Poissons Ratio (y) = 0.39764 0.37341
# Poissons Ratio (z) = 0.14172 0.35002
#
# Static dielectric constant tensor:
#      x y z
#    x 3.390680 0.000000 0.080660 
#    y 0.000000 3.642320 0.000010 
#    z 0.080660 0.000010 3.732560 
# 
# 
# High freq. dielectric constant tensor:
#      x y z
#    x 1.750640 0.000000 0.009040 
#    y 0.000000 1.775550 0.000000 
#    z 0.009040 0.000000 1.776180 
# 
# From -- ./inp_files/281009.got.cif
#   From: 2010.06.25/outbox.cif.g09.slc.cpg/sg12_141_cif.got.tgz:281009.got - 2010.06.28 00:19:55.
