data_PCOD8086121
_publ_section_title
;
Structure prediction by ZEFSAII (Michael W. Deem and Ramdas Pophale) SiO2 
 PCOD8086121
Probable space group: C 2/M
;
_chemical_formula_sum "Si O2"
_cell_formula_units_Z 64
_cell_length_a 9.940867
_cell_length_b 24.444906
_cell_length_c 14.747942
_cell_angle_alpha 90.000000
_cell_angle_beta 90.519957
_cell_angle_gamma 90.000000
_cell_volume 3583.654829
_symmetry_space_group_name_H-M "C 2/M"
_symmetry_group_IT_number 12
_symmetry_cell_setting 'monoclinic'
loop_
_space_group_symop_operation_xyz
x,y,z
-x,y,-z
-x,-y,-z
x,-y,z
1/2+x,1/2+y,z
1/2-x,1/2+y,-z
1/2-x,1/2-y,-z
1/2+x,1/2-y,z
loop_
_atom_site_type_symbol
_atom_site_label
_atom_site_fract_x
_atom_site_fract_y
_atom_site_fract_z
Si Si1 0.375223 0.259229 0.935649
Si Si2 0.844443 0.935577 0.676440
Si Si3 0.144546 0.064590 0.637753
Si Si4 0.271084 0.362271 0.846639
Si Si5 0.153017 0.435850 0.511495
Si Si6 0.516680 0.148773 0.107303
Si Si7 0.851513 0.938888 0.997565
Si Si8 0.292554 0.061290 0.816944
O O1 0.362145 0.308906 0.864439
O O2 0.395612 0.203518 0.879055
O O3 0.500000 0.272631 0.000000
O O4 0.250000 0.250000 0.000000
O O5 0.825951 0.897308 0.763485
O O6 0.717430 0.923841 0.610287
O O7 0.986628 0.918371 0.629977
O O8 0.848718 0.000000 0.704095
O O9 0.240713 0.090043 0.560031
O O10 0.206588 0.084775 0.732994
O O11 0.149859 0.000000 0.629220
O O12 0.260716 0.400501 0.935396
O O13 0.119586 0.340850 0.837344
O O14 0.142682 0.500000 0.493510
O O15 0.000000 0.411273 0.500000
O O16 0.580263 0.098119 0.160491
O O17 0.500000 0.136327 0.000000
O O18 0.849327 0.000000 0.956378
O O19 0.806259 0.938716 0.099792
O O20 0.000000 0.914086 0.000000
O O21 0.346093 0.000000 0.796374
#
# Coordination Sequence:
#
# PCOD8086121 Si02
#       8
#     8   8   8   8   8   8   8   8
#     4  11  21  39  58  75 103 145 192 241 278 317
#     4  10  21  35  55  85 117 148 185 227 274 336
#     4   9  18  34  53  79 114 151 188 225 265 322
#     4  12  22  35  55  78 108 145 185 235 277 328
#     4   9  18  33  54  80 114 153 184 220 274 329
#     4  11  22  38  51  76 109 143 191 234 277 326
#     4  10  19  31  47  73 109 148 183 217 263 326
#     4  10  20  32  51  77 111 147 182 220 273 331
#
# _framework density 17.858864000000001
#
# number of rings (size 3 to 8) (size 9 to 14) (size 15 to 20)
#    0.000    1.750    3.750    1.875    1.750    5.750 
#    0.000    0.000    0.000    0.000    0.000    0.875 
#    0.000    0.000    0.000    0.000    0.000    0.000 
#
# Total GULP energy -396620.423222 kJ/mol
# GULP energy per Si atom -12394.388226 kJ/mol
# Density = 1.781822 g / cm^3
# Si number density = 17.858864 Si / 1000 Ang^3
#
#
#
# Elastic Constant Matrix: (Units=GPa)
#
#
# Indices 1 2 3 4 5 6 
#
# 1 126.6393 39.7233 40.3466 0.0000 -4.9951 0.0000
# 2 39.7233 78.1947 33.8984 0.0000 4.0101 0.0000
# 3 40.3466 33.8984 81.1856 0.0000 -2.7790 0.0000
# 4 0.0000 0.0000 0.0000 5.4940 0.0000 6.9505
# 5 -4.9951 4.0101 -2.7790 0.0000 31.3363 0.0000
# 6 0.0000 0.0000 0.0000 6.9505 0.0000 23.9487
#
#
#
# Elastic Compliance Matrix: (Units=1/GPa)
#
#
# Indices 1 2 3 4 5 6 
#
# 1 0.010262 -0.003813 -0.003446 0.000000 0.001818 0.000000
# 2 -0.003813 0.017243 -0.005418 0.000000 -0.003295 0.000000
# 3 -0.003446 -0.005418 0.016347 0.000000 0.001594 0.000000
# 4 0.000000 0.000000 0.000000 0.287616 0.000000 -0.083473
# 5 0.001818 -0.003295 0.001594 0.000000 0.032765 0.000000
# 6 0.000000 0.000000 0.000000 -0.083473 0.000000 0.065982
#
#
# Mechanical properties :
#
#
# Convention : Reuss Voigt Hill
#
# Bulk Modulus (GPa) = 54.05569 57.10625 55.58097
# Shear Modulus (GPa) = 10.82879 23.62590 17.22734
#
# Velocity S-wave (km/s) = 2.46510 3.64115 3.10923
# Velocity P-wave (km/s) = 6.19970 7.05146 6.63925
#
# Compressibility (1/GPa) = 0.01849944
#
# Stress axis : x y z
#
# Youngs Moduli (GPa) = 97.44864 57.99450 61.17507
#
# Poissons Ratio (x) = 0.22111 0.21079
# Poissons Ratio (y) = 0.37153 0.33143
# Poissons Ratio (z) = 0.33577 0.31420
#
# Static dielectric constant tensor:
#      x y z
#    x 3.570470 0.000000 -0.006720 
#    y 0.000000 3.186360 0.000000 
#    z -0.006720 0.000000 3.316010 
# 
# 
# High freq. dielectric constant tensor:
#      x y z
#    x 1.710420 0.000000 -0.004430 
#    y 0.000000 1.653220 0.000000 
#    z -0.004430 0.000000 1.673980 
# 
# From -- ./inp_files/199833.got.cif
#   From: 2010.06.25/outbox.cif.g09.slc.cpg/sg12_100_cif.got.tgz:199833.got - 2010.06.28 00:19:55.
