data_PCOD8086634
_publ_section_title
;
Structure prediction by ZEFSAII (Michael W. Deem and Ramdas Pophale) SiO2 
 PCOD8086634
Probable space group: C 2/M
;
_chemical_formula_sum "Si O2"
_cell_formula_units_Z 64
_cell_length_a 20.956656
_cell_length_b 9.157662
_cell_length_c 23.164832
_cell_angle_alpha 90.000000
_cell_angle_beta 129.826246
_cell_angle_gamma 90.000000
_cell_volume 3414.219515
_symmetry_space_group_name_H-M "C 2/M"
_symmetry_group_IT_number 12
_symmetry_cell_setting 'monoclinic'
loop_
_space_group_symop_operation_xyz
x,y,z
-x,y,-z
-x,-y,-z
x,-y,z
1/2+x,1/2+y,z
1/2-x,1/2+y,-z
1/2-x,1/2-y,-z
1/2+x,1/2-y,z
loop_
_atom_site_type_symbol
_atom_site_label
_atom_site_fract_x
_atom_site_fract_y
_atom_site_fract_z
Si Si1 0.107994 0.161506 0.805408
Si Si2 0.133039 0.829277 0.300500
Si Si3 0.983088 0.672686 0.155103
Si Si4 0.032902 0.672433 0.581098
Si Si5 0.276905 0.829467 0.301347
Si Si6 0.950517 0.161279 0.634514
Si Si7 0.772373 0.672410 0.838248
Si Si8 0.571387 0.826584 0.000789
O O1 0.088257 0.281033 0.841926
O O2 0.187504 0.220588 0.818460
O O3 0.035729 0.150947 0.717661
O O4 0.124015 0.000000 0.841676
O O5 0.227695 0.801277 0.333637
O O6 0.119453 0.778895 0.359988
O O7 0.070699 0.745775 0.221569
O O8 0.109232 0.000000 0.283441
O O9 0.996092 0.500000 0.163213
O O10 0.948468 0.732332 0.074332
O O11 0.031150 0.500000 0.587301
O O12 0.128210 0.730577 0.641389
O O13 0.000000 0.722421 0.500000
O O14 0.967418 0.734831 0.589851
O O15 0.223342 0.748991 0.221370
O O16 0.278144 0.000000 0.287878
O O17 0.924740 0.000000 0.596956
O O18 0.780230 0.500000 0.832132
O O19 0.842804 0.731513 0.922522
O O20 0.572527 0.000000 0.000106
O O21 0.500000 0.764531 0.000000
#
# Coordination Sequence:
#
# PCOD8086634 Si02
#       8
#     8   8   8   8   8   8   8   8
#     4   9  18  32  50  73 101 136 171 211 262 306
#     4   9  19  35  54  76 105 141 175 212 261 306
#     4  10  19  31  50  75 101 133 176 218 257 306
#     4  10  21  36  55  80 109 137 164 205 262 312
#     4  10  20  35  55  79 106 135 173 217 257 306
#     4   9  17  33  54  76 102 136 175 209 249 306
#     4  10  19  33  53  73 100 137 176 215 257 307
#     4   9  18  31  46  68  99 133 169 215 267 307
#
# _framework density 18.745134
#
# number of rings (size 3 to 8) (size 9 to 14) (size 15 to 20)
#    0.000    2.500    1.250    1.875    0.000    4.750 
#    0.000    1.875    0.000    3.375    0.000    0.000 
#    0.000    0.000    0.000    0.000    0.000    0.000 
#
# Total GULP energy -396591.570263 kJ/mol
# GULP energy per Si atom -12393.486571 kJ/mol
# Density = 1.870247 g / cm^3
# Si number density = 18.745134 Si / 1000 Ang^3
#
#
#
# Elastic Constant Matrix: (Units=GPa)
#
#
# Indices 1 2 3 4 5 6 
#
# 1 101.3720 23.2137 34.9902 0.0000 -14.7224 0.0000
# 2 23.2137 39.4438 28.9709 0.0000 -8.7796 0.0000
# 3 34.9902 28.9709 86.9018 0.0000 -24.9268 0.0000
# 4 0.0000 0.0000 0.0000 14.5131 0.0000 -11.9867
# 5 -14.7224 -8.7796 -24.9268 0.0000 21.7131 0.0000
# 6 0.0000 0.0000 0.0000 -11.9867 0.0000 22.9602
#
#
#
# Elastic Compliance Matrix: (Units=1/GPa)
#
#
# Indices 1 2 3 4 5 6 
#
# 1 0.012283 -0.004703 -0.002288 0.000000 0.003801 0.000000
# 2 -0.004703 0.035391 -0.010012 0.000000 -0.000372 0.000000
# 3 -0.002288 -0.010012 0.021112 0.000000 0.018637 0.000000
# 4 0.000000 0.000000 0.000000 0.121134 0.000000 0.063240
# 5 0.003801 -0.000372 0.018637 0.000000 0.069878 0.000000
# 6 0.000000 0.000000 0.000000 0.063240 0.000000 0.076569
#
#
# Mechanical properties :
#
#
# Convention : Reuss Voigt Hill
#
# Bulk Modulus (GPa) = 28.75070 44.67413 36.71242
# Shear Modulus (GPa) = 13.09023 21.20679 17.14851
#
# Velocity S-wave (km/s) = 2.64545 3.36716 3.02789
# Velocity P-wave (km/s) = 4.97013 6.24509 5.64373
#
# Compressibility (1/GPa) = 0.03478176
#
# Stress axis : x y z
#
# Youngs Moduli (GPa) = 81.41208 28.25600 47.36662
#
# Poissons Ratio (x) = 0.13288 0.10836
# Poissons Ratio (y) = 0.38286 0.47421
# Poissons Ratio (z) = 0.18625 0.28289
#
# Static dielectric constant tensor:
#      x y z
#    x 3.866670 0.000000 -0.121170 
#    y 0.000000 3.262990 0.000000 
#    z -0.121170 0.000000 3.363010 
# 
# 
# High freq. dielectric constant tensor:
#      x y z
#    x 1.743000 0.000000 -0.009650 
#    y 0.000000 1.705820 0.000000 
#    z -0.009650 0.000000 1.709850 
# 
# From -- ./inp_files/320018.got.cif
#   From: 2010.06.25/outbox.cif.g09.slc.cpg/sg12_161_cif.got.tgz:320018.got - 2010.06.28 00:19:55.
