data_PCOD8086431
_publ_section_title
;
Structure prediction by ZEFSAII (Michael W. Deem and Ramdas Pophale) SiO2 
 PCOD8086431
Probable space group: C 2/M
;
_chemical_formula_sum "Si O2"
_cell_formula_units_Z 64
_cell_length_a 14.179566
_cell_length_b 9.066856
_cell_length_c 28.354209
_cell_angle_alpha 90.000000
_cell_angle_beta 88.427947
_cell_angle_gamma 90.000000
_cell_volume 3643.960834
_symmetry_space_group_name_H-M "C 2/M"
_symmetry_group_IT_number 12
_symmetry_cell_setting 'monoclinic'
loop_
_space_group_symop_operation_xyz
x,y,z
-x,y,-z
-x,-y,-z
x,-y,z
1/2+x,1/2+y,z
1/2-x,1/2+y,-z
1/2-x,1/2-y,-z
1/2+x,1/2-y,z
loop_
_atom_site_type_symbol
_atom_site_label
_atom_site_fract_x
_atom_site_fract_y
_atom_site_fract_z
Si Si1 0.651488 0.173534 0.117986
Si Si2 0.137412 0.827037 0.869231
Si Si3 0.497934 0.827510 0.195491
Si Si4 0.997584 0.673624 0.445885
Si Si5 0.516442 0.327031 0.052590
Si Si6 0.157787 0.327399 0.374187
Si Si7 0.368546 0.676328 0.374387
Si Si8 0.505803 0.174432 0.302994
O O1 0.757169 0.233286 0.124152
O O2 0.590282 0.218466 0.164547
O O3 0.608794 0.248444 0.072050
O O4 0.651251 0.000000 0.109339
O O5 0.075639 0.785083 0.915759
O O6 0.094628 0.752152 0.823318
O O7 0.138366 0.000000 0.859778
O O8 0.514877 0.777129 0.248747
O O9 0.479130 0.000000 0.192175
O O10 0.977617 0.500000 0.440024
O O11 0.097581 0.717964 0.421137
O O12 0.000000 0.722035 0.500000
O O13 0.914741 0.762902 0.421566
O O14 0.536283 0.500000 0.052950
O O15 0.500000 0.268806 0.000000
O O16 0.171639 0.500000 0.372503
O O17 0.262017 0.258864 0.374736
O O18 0.102025 0.276320 0.327953
O O19 0.374014 0.500000 0.373981
O O20 0.418731 0.739676 0.327259
O O21 0.488579 0.000000 0.309231
#
# Coordination Sequence:
#
# PCOD8086431 Si02
#       8
#     8   8   8   8   8   8   8   8
#     4   9  18  32  49  70  94 122 158 195 233 279
#     4   9  18  32  49  69  95 124 154 192 235 279
#     4   9  18  32  50  70  92 121 157 195 232 274
#     4   9  18  34  53  70  93 128 162 189 227 281
#     4   9  18  32  48  68  96 127 156 190 235 280
#     4   8  16  31  49  69  95 125 154 187 231 277
#     4  10  19  31  49  73  98 123 155 196 236 272
#     4   9  18  34  51  67  93 127 158 188 229 283
#
# _framework density 17.563306999999998
#
# number of rings (size 3 to 8) (size 9 to 14) (size 15 to 20)
#    0.000    3.000    0.000    1.125    0.000    3.500 
#    0.000    7.500    0.000    0.000    0.000    0.000 
#    0.000    0.000    0.000    0.000    0.000    0.000 
#
# Total GULP energy -396773.133919 kJ/mol
# GULP energy per Si atom -12399.160435 kJ/mol
# Density = 1.752333 g / cm^3
# Si number density = 17.563307 Si / 1000 Ang^3
#
#
#
# Elastic Constant Matrix: (Units=GPa)
#
#
# Indices 1 2 3 4 5 6 
#
# 1 158.3544 36.3990 70.9811 0.0000 15.6663 0.0000
# 2 36.3990 33.2045 36.3503 0.0000 4.0879 0.0000
# 3 70.9811 36.3503 157.3800 0.0000 4.5940 0.0000
# 4 0.0000 0.0000 0.0000 28.3326 0.0000 4.1627
# 5 15.6663 4.0879 4.5940 0.0000 14.1630 0.0000
# 6 0.0000 0.0000 0.0000 4.1627 0.0000 24.7691
#
#
#
# Elastic Compliance Matrix: (Units=1/GPa)
#
#
# Indices 1 2 3 4 5 6 
#
# 1 0.009891 -0.006990 -0.002611 0.000000 -0.008076 0.000000
# 2 -0.006990 0.046338 -0.007456 0.000000 -0.003224 0.000000
# 3 -0.002611 -0.007456 0.009194 0.000000 0.002058 0.000000
# 4 0.000000 0.000000 0.000000 0.036189 0.000000 -0.006082
# 5 -0.008076 -0.003224 0.002058 0.000000 0.079803 0.000000
# 6 0.000000 0.000000 0.000000 -0.006082 0.000000 0.041395
#
#
# Mechanical properties :
#
#
# Convention : Reuss Voigt Hill
#
# Bulk Modulus (GPa) = 31.93959 70.71107 51.32533
# Shear Modulus (GPa) = 18.70137 27.13350 22.91743
#
# Velocity S-wave (km/s) = 3.26666 3.93478 3.61619
# Velocity P-wave (km/s) = 5.69675 7.80970 6.83537
#
# Compressibility (1/GPa) = 0.03130910
#
# Stress axis : x y z
#
# Youngs Moduli (GPa) = 101.10263 21.58034 108.77150
#
# Poissons Ratio (x) = 0.15085 0.28397
# Poissons Ratio (y) = 0.70673 0.81101
# Poissons Ratio (z) = 0.26395 0.16090
#
# Static dielectric constant tensor:
#      x y z
#    x 3.463360 0.000000 0.030250 
#    y 0.000000 3.059130 0.000000 
#    z 0.030250 0.000000 3.374250 
# 
# 
# High freq. dielectric constant tensor:
#      x y z
#    x 1.681680 0.000000 0.002760 
#    y 0.000000 1.661300 0.000000 
#    z 0.002760 0.000000 1.682580 
# 
# From -- ./inp_files/374811.got.cif
#   From: 2010.06.25/outbox.cif.g09.slc.cpg/sg12_188_cif.got.tgz:374811.got - 2010.06.28 00:19:55.
