data_PCOD8086249
_publ_section_title
;
Structure prediction by ZEFSAII (Michael W. Deem and Ramdas Pophale) SiO2 
 PCOD8086249
Probable space group: C 2/M
;
_chemical_formula_sum "Si O2"
_cell_formula_units_Z 56
_cell_length_a 19.411456
_cell_length_b 8.644761
_cell_length_c 31.531272
_cell_angle_alpha 90.000000
_cell_angle_beta 34.729451
_cell_angle_gamma 90.000000
_cell_volume 3014.396463
_symmetry_space_group_name_H-M "C 2/M"
_symmetry_group_IT_number 12
_symmetry_cell_setting 'monoclinic'
loop_
_space_group_symop_operation_xyz
x,y,z
-x,y,-z
-x,-y,-z
x,-y,z
1/2+x,1/2+y,z
1/2-x,1/2+y,-z
1/2-x,1/2-y,-z
1/2+x,1/2-y,z
loop_
_atom_site_type_symbol
_atom_site_label
_atom_site_fract_x
_atom_site_fract_y
_atom_site_fract_z
Si Si1 0.108313 0.318860 0.918092
Si Si2 0.174314 0.679871 0.405509
Si Si3 0.929386 0.820667 0.238454
Si Si4 0.415571 0.181282 0.683967
Si Si5 0.376655 0.683021 0.792380
Si Si6 0.839795 0.320317 0.201617
Si Si7 0.528322 0.681250 0.549225
O O1 0.105891 0.500000 0.927900
O O2 0.239017 0.256164 0.867519
O O3 0.089950 0.281407 0.877619
O O4 0.000000 0.239574 0.000000
O O5 0.143394 0.500000 0.414630
O O6 0.314436 0.715109 0.326222
O O7 0.141617 0.732129 0.469832
O O8 0.095254 0.779011 0.412847
O O9 0.926716 0.722896 0.196553
O O10 0.048385 0.769137 0.203992
O O11 0.935042 0.000000 0.223199
O O12 0.436069 0.238113 0.721358
O O13 0.282600 0.222358 0.733703
O O14 0.516523 0.262369 0.603583
O O15 0.434082 0.000000 0.671696
O O16 0.380201 0.500000 0.782682
O O17 0.803801 0.500000 0.221196
O O18 0.552263 0.500000 0.535650
#
# Coordination Sequence:
#
# PCOD8086249 Si02
#       7
#     8   8   8   8   8   8   8
#     4   8  15  31  55  80 104 134 173 213 252 300
#     4  10  19  31  48  72 102 137 173 216 266 310
#     4  10  20  34  52  75 107 140 171 213 262 311
#     4  11  20  33  52  75 102 135 176 221 264 308
#     4   9  19  35  54  77 104 138 175 211 258 312
#     4  10  19  31  53  79 103 135 176 215 252 307
#     4  11  20  31  49  74 101 133 175 222 263 306
#
# _framework density 18.577515999999999
#
# number of rings (size 3 to 8) (size 9 to 14) (size 15 to 20)
#    0.000    2.143    1.429    5.143    0.000    1.143 
#    0.000    1.429    0.000   10.714    0.000    0.000 
#    0.000    0.000    0.000    0.000    0.000    0.000 
#
# Total GULP energy -347196.311587 kJ/mol
# GULP energy per Si atom -12399.868271 kJ/mol
# Density = 1.853523 g / cm^3
# Si number density = 18.577516 Si / 1000 Ang^3
#
#
#
# Elastic Constant Matrix: (Units=GPa)
#
#
# Indices 1 2 3 4 5 6 
#
# 1 110.6815 25.8397 46.2203 0.0032 4.4522 0.0608
# 2 25.8397 63.1386 23.9204 0.0047 4.2704 0.0200
# 3 46.2203 23.9204 113.8925 0.0037 10.5710 0.0022
# 4 0.0032 0.0047 0.0037 15.4739 -0.0001 3.8463
# 5 4.4522 4.2704 10.5710 -0.0001 21.8620 0.0001
# 6 0.0608 0.0200 0.0022 3.8463 0.0001 21.6808
#
#
#
# Elastic Compliance Matrix: (Units=1/GPa)
#
#
# Indices 1 2 3 4 5 6 
#
# 1 0.011437 -0.003183 -0.003994 0.000007 0.000224 -0.000030
# 2 -0.003183 0.018153 -0.002358 -0.000002 -0.001758 -0.000007
# 3 -0.003994 -0.002358 0.011284 -0.000004 -0.004182 0.000013
# 4 0.000007 -0.000002 -0.000004 0.067606 0.000002 -0.011994
# 5 0.000224 -0.001758 -0.004182 0.000002 0.048062 0.000001
# 6 -0.000030 -0.000007 0.000013 -0.011994 0.000001 0.048252
#
#
# Mechanical properties :
#
#
# Convention : Reuss Voigt Hill
#
# Bulk Modulus (GPa) = 45.85962 53.29707 49.57835
# Shear Modulus (GPa) = 21.63284 24.58548 23.10916
#
# Velocity S-wave (km/s) = 3.41613 3.64180 3.53077
# Velocity P-wave (km/s) = 6.34815 6.81432 6.58536
#
# Compressibility (1/GPa) = 0.02180567
#
# Stress axis : x y z
#
# Youngs Moduli (GPa) = 87.43784 55.08783 88.61858
#
# Poissons Ratio (x) = 0.17532 0.35391
# Poissons Ratio (y) = 0.27828 0.20895
# Poissons Ratio (z) = 0.34919 0.12989
#
# Static dielectric constant tensor:
#      x y z
#    x 3.303700 -0.000060 0.108560 
#    y -0.000060 3.274540 0.000020 
#    z 0.108560 0.000020 3.686520 
# 
# 
# High freq. dielectric constant tensor:
#      x y z
#    x 1.701810 0.000000 0.016560 
#    y 0.000000 1.712380 0.000000 
#    z 0.016560 0.000000 1.715940 
# 
# From -- ./inp_files/377647.got.cif
#   From: 2010.06.25/outbox.cif.g09.slc.cpg/sg12_189_cif.got.tgz:377647.got - 2010.06.28 00:19:55.
