data_PCOD8086700
_publ_section_title
;
Structure prediction by ZEFSAII (Michael W. Deem and Ramdas Pophale) SiO2 
 PCOD8086700
Probable space group: C 2/M
;
_chemical_formula_sum "Si O2"
_cell_formula_units_Z 64
_cell_length_a 24.703995
_cell_length_b 8.781558
_cell_length_c 15.165539
_cell_angle_alpha 90.000000
_cell_angle_beta 107.930736
_cell_angle_gamma 90.000000
_cell_volume 3130.207853
_symmetry_space_group_name_H-M "C 2/M"
_symmetry_group_IT_number 12
_symmetry_cell_setting 'monoclinic'
loop_
_space_group_symop_operation_xyz
x,y,z
-x,y,-z
-x,-y,-z
x,-y,z
1/2+x,1/2+y,z
1/2-x,1/2+y,-z
1/2-x,1/2-y,-z
1/2+x,1/2-y,z
loop_
_atom_site_type_symbol
_atom_site_label
_atom_site_fract_x
_atom_site_fract_y
_atom_site_fract_z
Si Si1 0.100449 0.167892 0.991026
Si Si2 0.916566 0.679219 0.205269
Si Si3 0.768214 0.833186 0.923369
Si Si4 0.940187 0.679508 0.512921
Si Si5 0.730531 0.823217 0.250434
Si Si6 0.397712 0.818933 0.827393
Si Si7 0.842505 0.322706 0.332056
Si Si8 0.534092 0.679517 0.296382
O O1 0.092819 0.267447 0.899531
O O2 0.071091 0.000000 0.966117
O O3 0.165642 0.139823 0.041549
O O4 0.078358 0.254990 0.067310
O O5 0.930130 0.500000 0.212917
O O6 0.862464 0.716118 0.241246
O O7 0.969150 0.768583 0.274250
O O8 0.750014 0.718748 0.837999
O O9 0.738236 0.000000 0.897362
O O10 0.750000 0.750000 0.000000
O O11 0.937417 0.500000 0.530139
O O12 0.890406 0.736312 0.423428
O O13 0.931496 0.768425 0.600098
O O14 0.000000 0.725502 0.500000
O O15 0.666116 0.760747 0.232391
O O16 0.781771 0.748740 0.332350
O O17 0.731986 0.000000 0.269244
O O18 0.441046 0.763019 0.776251
O O19 0.397143 0.000000 0.834842
O O20 0.834756 0.500000 0.339626
O O21 0.539038 0.500000 0.286028
#
# Coordination Sequence:
#
# PCOD8086700 Si02
#       8
#     8   8   8   8   8   8   8   8
#     4  10  21  36  54  83 118 153 196 250 296 338
#     4  11  22  38  59  87 121 160 201 240 291 358
#     4  10  19  31  50  76 111 152 195 241 291 344
#     4  10  20  41  66  90 120 155 194 235 291 359
#     4  10  21  36  57  84 116 153 195 242 291 345
#     4  10  22  42  63  83 114 162 206 241 288 352
#     4  10  21  37  62  91 121 156 194 241 293 349
#     4  12  25  40  62  91 119 152 194 249 301 347
#
# _framework density 20.445927000000001
#
# number of rings (size 3 to 8) (size 9 to 14) (size 15 to 20)
#    0.000    1.625    1.250    3.750    0.000    7.250 
#    0.000    3.125    0.000    0.000    0.000    0.000 
#    0.000    0.000    0.000    0.000    0.000    0.000 
#
# Total GULP energy -396641.770473 kJ/mol
# GULP energy per Si atom -12395.055327 kJ/mol
# Density = 2.039939 g / cm^3
# Si number density = 20.445927 Si / 1000 Ang^3
#
#
#
# Elastic Constant Matrix: (Units=GPa)
#
#
# Indices 1 2 3 4 5 6 
#
# 1 38.1965 14.2981 1.9092 0.0000 4.0592 0.0000
# 2 14.2981 55.8265 20.7097 0.0000 -3.6279 0.0000
# 3 1.9092 20.7097 87.9976 0.0000 -0.1793 0.0000
# 4 0.0000 0.0000 0.0000 32.2517 0.0000 2.9574
# 5 4.0592 -3.6279 -0.1793 0.0000 36.1200 0.0000
# 6 0.0000 0.0000 0.0000 2.9574 0.0000 30.2328
#
#
#
# Elastic Compliance Matrix: (Units=1/GPa)
#
#
# Indices 1 2 3 4 5 6 
#
# 1 0.029688 -0.008363 0.001315 0.000000 -0.004170 0.000000
# 2 -0.008363 0.022120 -0.005018 0.000000 0.003137 0.000000
# 3 0.001315 -0.005018 0.012515 0.000000 -0.000590 0.000000
# 4 0.000000 0.000000 0.000000 0.031287 0.000000 -0.003061
# 5 -0.004170 0.003137 -0.000590 0.000000 0.028466 0.000000
# 6 0.000000 0.000000 0.000000 -0.003061 0.000000 0.033376
#
#
# Mechanical properties :
#
#
# Convention : Reuss Voigt Hill
#
# Bulk Modulus (GPa) = 24.87997 28.42829 26.65413
# Shear Modulus (GPa) = 25.64369 29.39447 27.51908
#
# Velocity S-wave (km/s) = 3.54534 3.79577 3.67269
# Velocity P-wave (km/s) = 5.38092 5.75716 5.57222
#
# Compressibility (1/GPa) = 0.04019297
#
# Stress axis : x y z
#
# Youngs Moduli (GPa) = 33.68346 45.20850 79.90322
#
# Poissons Ratio (x) = 0.37806 -0.10511
# Poissons Ratio (y) = 0.28168 0.40095
# Poissons Ratio (z) = -0.04431 0.22685
#
# Static dielectric constant tensor:
#      x y z
#    x 3.653430 0.000000 0.277200 
#    y 0.000000 3.791380 0.000000 
#    z 0.277200 0.000000 3.761370 
# 
# 
# High freq. dielectric constant tensor:
#      x y z
#    x 1.794760 0.000000 0.010980 
#    y 0.000000 1.801360 0.000000 
#    z 0.010980 0.000000 1.795750 
# 
# From -- ./inp_files/244242.got.cif
#   From: 2010.06.25/outbox.cif.g09.slc.cpg/sg12_123_cif.got.tgz:244242.got - 2010.06.28 00:19:55.
