data_PCOD8086492
_publ_section_title
;
Structure prediction by ZEFSAII (Michael W. Deem and Ramdas Pophale) SiO2 
 PCOD8086492
Probable space group: C 2/M
;
_chemical_formula_sum "Si O2"
_cell_formula_units_Z 56
_cell_length_a 22.447181
_cell_length_b 13.566628
_cell_length_c 22.059687
_cell_angle_alpha 90.000000
_cell_angle_beta 28.252991
_cell_angle_gamma 90.000000
_cell_volume 3180.019716
_symmetry_space_group_name_H-M "C 2/M"
_symmetry_group_IT_number 12
_symmetry_cell_setting 'monoclinic'
loop_
_space_group_symop_operation_xyz
x,y,z
-x,y,-z
-x,-y,-z
x,-y,z
1/2+x,1/2+y,z
1/2-x,1/2+y,-z
1/2-x,1/2-y,-z
1/2+x,1/2-y,z
loop_
_atom_site_type_symbol
_atom_site_label
_atom_site_fract_x
_atom_site_fract_y
_atom_site_fract_z
Si Si1 0.748669 0.887365 0.028700
Si Si2 0.871662 0.886042 0.149137
Si Si3 0.565704 0.216253 0.598195
Si Si4 0.004080 0.885058 0.255486
Si Si5 0.968331 0.387815 0.247627
Si Si6 0.328789 0.116325 0.771835
Si Si7 0.158821 0.212193 0.696511
O O1 0.863136 0.838446 0.888340
O O2 0.789500 0.000000 0.998725
O O3 0.618903 0.875276 0.108633
O O4 0.737907 0.844930 0.106570
O O5 0.756461 0.857553 0.208889
O O6 0.865931 0.819619 0.213172
O O7 0.864825 0.000000 0.174489
O O8 0.000000 0.862356 0.000000
O O9 0.530590 0.325950 0.652635
O O10 0.580715 0.143689 0.642148
O O11 0.460382 0.173944 0.646875
O O12 0.693232 0.220374 0.446603
O O13 0.899642 0.867031 0.297537
O O14 0.011207 0.000000 0.265845
O O15 0.927694 0.500000 0.271957
O O16 0.904352 0.319400 0.254647
O O17 0.356595 0.000000 0.752138
#
# Coordination Sequence:
#
# PCOD8086492 Si02
#       7
#     8   8   8   8   8   8   8
#     4   8  15  29  50  75  98 125 161 198 243 294
#     4  10  21  36  54  76  99 126 163 206 252 296
#     4  10  21  32  47  75 102 132 171 199 236 298
#     4  10  19  31  49  75 106 132 158 201 251 295
#     4   9  18  33  52  74 102 132 164 204 248 294
#     4   9  18  33  51  70  98 131 162 203 246 286
#     4  11  22  32  48  75 102 132 168 202 241 295
#
# _framework density 17.609954999999999
#
# number of rings (size 3 to 8) (size 9 to 14) (size 15 to 20)
#    0.000    2.429    0.000    4.286    0.000   13.143 
#    0.000    1.429    0.000    1.286    0.000    2.000 
#    0.000    0.000    0.000    0.000    0.000    0.000 
#
# Total GULP energy -347186.454219 kJ/mol
# GULP energy per Si atom -12399.516222 kJ/mol
# Density = 1.756987 g / cm^3
# Si number density = 17.609955 Si / 1000 Ang^3
#
#
#
# Elastic Constant Matrix: (Units=GPa)
#
#
# Indices 1 2 3 4 5 6 
#
# 1 108.6148 52.7502 43.0120 0.0004 -3.3454 -0.0001
# 2 52.7502 102.2319 35.6629 0.0000 0.1888 0.0000
# 3 43.0120 35.6629 82.3941 -0.0007 -11.6399 0.0002
# 4 0.0004 0.0000 -0.0007 15.0888 -0.0001 -9.0975
# 5 -3.3454 0.1888 -11.6399 -0.0001 21.4892 0.0001
# 6 -0.0001 0.0000 0.0002 -9.0975 0.0001 22.9092
#
#
#
# Elastic Compliance Matrix: (Units=1/GPa)
#
#
# Indices 1 2 3 4 5 6 
#
# 1 0.013752 -0.005380 -0.004918 -0.000001 -0.000476 0.000000
# 2 -0.005380 0.013811 -0.003579 0.000000 -0.002897 0.000000
# 3 -0.004918 -0.003579 0.017488 0.000001 0.008738 0.000000
# 4 -0.000001 0.000000 0.000001 0.087138 0.000001 0.034603
# 5 -0.000476 -0.002897 0.008738 0.000001 0.051220 0.000000
# 6 0.000000 0.000000 0.000000 0.034603 0.000000 0.057392
#
#
# Mechanical properties :
#
#
# Convention : Reuss Voigt Hill
#
# Bulk Modulus (GPa) = 57.80883 61.78788 59.79835
# Shear Modulus (GPa) = 18.22693 22.68516 20.45604
#
# Velocity S-wave (km/s) = 3.22069 3.59305 3.41195
# Velocity P-wave (km/s) = 6.83587 7.23715 7.03937
#
# Compressibility (1/GPa) = 0.01729840
#
# Stress axis : x y z
#
# Youngs Moduli (GPa) = 72.71480 72.40425 57.18325
#
# Poissons Ratio (x) = 0.38950 0.28122
# Poissons Ratio (y) = 0.39118 0.20466
# Poissons Ratio (z) = 0.35760 0.25914
#
# Static dielectric constant tensor:
#      x y z
#    x 3.153550 0.000000 -0.231050 
#    y 0.000000 3.237380 0.000000 
#    z -0.231050 0.000000 3.301690 
# 
# 
# High freq. dielectric constant tensor:
#      x y z
#    x 1.661660 0.000000 -0.022760 
#    y 0.000000 1.673520 0.000000 
#    z -0.022760 0.000000 1.682360 
# 
# From -- ./inp_files/284533.got.cif
#   From: 2010.06.25/outbox.cif.g09.slc.cpg/sg12_143_cif.got.tgz:284533.got - 2010.06.28 00:19:55.
