data_PCOD8086918
_publ_section_title
;
Structure prediction by ZEFSAII (Michael W. Deem and Ramdas Pophale) SiO2 
 PCOD8086918
Probable space group: C 2/M
;
_chemical_formula_sum "Si O2"
_cell_formula_units_Z 56
_cell_length_a 20.578451
_cell_length_b 8.751632
_cell_length_c 16.716241
_cell_angle_alpha 90.000000
_cell_angle_beta 90.258125
_cell_angle_gamma 90.000000
_cell_volume 3010.481378
_symmetry_space_group_name_H-M "C 2/M"
_symmetry_group_IT_number 12
_symmetry_cell_setting 'monoclinic'
loop_
_space_group_symop_operation_xyz
x,y,z
-x,y,-z
-x,-y,-z
x,-y,z
1/2+x,1/2+y,z
1/2-x,1/2+y,-z
1/2-x,1/2-y,-z
1/2+x,1/2-y,z
loop_
_atom_site_type_symbol
_atom_site_label
_atom_site_fract_x
_atom_site_fract_y
_atom_site_fract_z
Si Si1 0.577052 0.828463 0.502942
Si Si2 0.249321 0.180418 0.911922
Si Si3 0.001401 0.681555 0.911103
Si Si4 0.926060 0.820356 0.334166
Si Si5 0.924069 0.820115 0.660087
Si Si6 0.128495 0.319044 0.820147
Si Si7 0.623254 0.819375 0.184196
O O1 0.500000 0.829436 0.500000
O O2 0.599880 0.728566 0.578739
O O3 0.603248 0.753077 0.421708
O O4 0.604737 0.000000 0.510850
O O5 0.190212 0.240699 0.859495
O O6 0.314072 0.230395 0.865575
O O7 0.245056 0.000000 0.920733
O O8 0.250000 0.250000 0.000000
O O9 0.999629 0.500000 0.914064
O O10 0.066109 0.739968 0.868559
O O11 0.938926 0.743471 0.864066
O O12 0.000000 0.750710 0.000000
O O13 0.880423 0.733164 0.271063
O O14 0.001271 0.769749 0.322646
O O15 0.917435 0.000000 0.323180
O O16 0.876907 0.761682 0.729799
O O17 0.919414 0.000000 0.651092
O O18 0.136792 0.500000 0.824622
O O19 0.620266 0.000000 0.197636
#
# Coordination Sequence:
#
# PCOD8086918 Si02
#       7
#     8   8   8   8   8   8   8
#     4   9  17  29  49  77 111 149 188 224 267 328
#     4  11  24  41  60  81 110 148 190 234 281 335
#     4   9  17  31  53  79 104 135 179 227 274 324
#     4  10  19  32  51  80 117 148 182 227 280 329
#     4  10  19  31  51  81 116 147 180 229 283 326
#     4  11  21  35  58  82 111 147 186 231 278 332
#     4  10  20  36  57  79 108 147 189 229 273 332
#
# _framework density 18.601678
#
# number of rings (size 3 to 8) (size 9 to 14) (size 15 to 20)
#    0.000    2.000    1.429    3.000    0.000    6.286 
#    0.000    0.000    0.000    3.000    0.000    0.000 
#    0.000    0.000    0.000    0.000    0.000    0.000 
#
# Total GULP energy -347261.173545 kJ/mol
# GULP energy per Si atom -12402.184769 kJ/mol
# Density = 1.855934 g / cm^3
# Si number density = 18.601678 Si / 1000 Ang^3
#
#
#
# Elastic Constant Matrix: (Units=GPa)
#
#
# Indices 1 2 3 4 5 6 
#
# 1 97.7366 34.4210 53.6026 0.0000 -4.4893 0.0000
# 2 34.4210 56.7166 39.2139 0.0000 -9.6498 0.0000
# 3 53.6026 39.2139 160.5087 0.0000 -10.3270 0.0000
# 4 0.0000 0.0000 0.0000 34.3025 0.0000 2.2672
# 5 -4.4893 -9.6498 -10.3270 0.0000 23.8993 0.0000
# 6 0.0000 0.0000 0.0000 2.2672 0.0000 23.6294
#
#
#
# Elastic Compliance Matrix: (Units=1/GPa)
#
#
# Indices 1 2 3 4 5 6 
#
# 1 0.014291 -0.006679 -0.003232 0.000000 -0.001408 0.000000
# 2 -0.006679 0.025368 -0.003486 0.000000 0.007482 0.000000
# 3 -0.003232 -0.003486 0.008261 0.000000 0.001555 0.000000
# 4 0.000000 0.000000 0.000000 0.029338 0.000000 -0.002815
# 5 -0.001408 0.007482 0.001555 0.000000 0.045271 0.000000
# 6 0.000000 0.000000 0.000000 -0.002815 0.000000 0.042590
#
#
# Mechanical properties :
#
#
# Convention : Reuss Voigt Hill
#
# Bulk Modulus (GPa) = 47.33048 63.27078 55.30063
# Shear Modulus (GPa) = 25.13137 28.88121 27.00629
#
# Velocity S-wave (km/s) = 3.67962 3.94460 3.81441
# Velocity P-wave (km/s) = 6.59941 7.40498 7.01377
#
# Compressibility (1/GPa) = 0.02112803
#
# Stress axis : x y z
#
# Youngs Moduli (GPa) = 69.97263 39.41995 121.04931
#
# Poissons Ratio (x) = 0.26327 0.39118
# Poissons Ratio (y) = 0.46732 0.42197
# Poissons Ratio (z) = 0.22612 0.13741
#
# Static dielectric constant tensor:
#      x y z
#    x 3.078500 0.000000 -0.267160 
#    y 0.000000 3.320010 0.000000 
#    z -0.267160 0.000000 3.263550 
# 
# 
# High freq. dielectric constant tensor:
#      x y z
#    x 1.688010 0.000000 0.000120 
#    y 0.000000 1.718570 0.000000 
#    z 0.000120 0.000000 1.741870 
# 
# From -- ./inp_files/230926.got.cif
#   From: 2010.06.25/outbox.cif.g09.slc.cpg/sg12_116_cif.got.tgz:230926.got - 2010.06.28 00:19:55.
