data_PCOD8086199
_publ_section_title
;
Structure prediction by ZEFSAII (Michael W. Deem and Ramdas Pophale) SiO2 
 PCOD8086199
Probable space group: C 2/M
;
_chemical_formula_sum "Si O2"
_cell_formula_units_Z 56
_cell_length_a 17.180824
_cell_length_b 13.546110
_cell_length_c 14.549749
_cell_angle_alpha 90.000000
_cell_angle_beta 68.049626
_cell_angle_gamma 90.000000
_cell_volume 3140.738203
_symmetry_space_group_name_H-M "C 2/M"
_symmetry_group_IT_number 12
_symmetry_cell_setting 'monoclinic'
loop_
_space_group_symop_operation_xyz
x,y,z
-x,y,-z
-x,-y,-z
x,-y,z
1/2+x,1/2+y,z
1/2-x,1/2+y,-z
1/2-x,1/2-y,-z
1/2+x,1/2-y,z
loop_
_atom_site_type_symbol
_atom_site_label
_atom_site_fract_x
_atom_site_fract_y
_atom_site_fract_z
Si Si1 0.221132 0.888001 0.920031
Si Si2 0.884139 0.703271 0.758481
Si Si3 0.197068 0.887621 0.143845
Si Si4 0.662304 0.768336 0.823346
Si Si5 0.289300 0.214437 0.623034
Si Si6 0.780047 0.390428 0.445242
Si Si7 0.055450 0.613233 0.747463
O O1 0.311915 0.860813 0.839555
O O2 0.150580 0.812811 0.909608
O O3 0.197486 0.000000 0.903798
O O4 0.225297 0.874458 0.026784
O O5 0.881179 0.815411 0.799343
O O6 0.869470 0.705886 0.654877
O O7 0.972773 0.654595 0.736898
O O8 0.274799 0.855979 0.173653
O O9 0.171305 0.000000 0.177498
O O10 0.704042 0.708672 0.720287
O O11 0.576311 0.821041 0.829334
O O12 0.289828 0.317736 0.566467
O O13 0.291459 0.125901 0.549136
O O14 0.745842 0.500000 0.443902
O O15 0.869918 0.375623 0.357874
O O16 0.041395 0.500000 0.783548
#
# Coordination Sequence:
#
# PCOD8086199 Si02
#       7
#     8   8   8   8   8   8   8
#     4   9  17  31  51  72  93 121 160 199 234 275
#     4  10  19  31  48  71 100 125 153 193 236 282
#     4   9  17  32  53  71  89 122 164 199 231 274
#     4   9  17  31  50  71  96 125 157 195 231 273
#     4   8  17  30  47  71  92 121 158 189 223 268
#     4   9  17  31  50  71  94 120 155 194 231 273
#     4  10  20  32  47  70  99 127 153 189 239 286
#
# _framework density 17.830203999999998
#
# number of rings (size 3 to 8) (size 9 to 14) (size 15 to 20)
#    0.000    3.143    0.000    2.571    0.000    6.857 
#    0.000    5.000    0.000   10.286    0.000   13.000 
#    0.000    0.000    0.000    0.000    0.000    0.000 
#
# Total GULP energy -347021.409542 kJ/mol
# GULP energy per Si atom -12393.621769 kJ/mol
# Density = 1.778962 g / cm^3
# Si number density = 17.830204 Si / 1000 Ang^3
#
#
#
# Elastic Constant Matrix: (Units=GPa)
#
#
# Indices 1 2 3 4 5 6 
#
# 1 99.2859 38.3258 15.2041 0.0000 17.6177 0.0000
# 2 38.3258 88.5428 12.8507 0.0000 5.1213 0.0000
# 3 15.2041 12.8507 54.2582 0.0000 16.5231 0.0000
# 4 0.0000 0.0000 0.0000 28.0335 0.0000 1.3289
# 5 17.6177 5.1213 16.5231 0.0000 15.1607 0.0000
# 6 0.0000 0.0000 0.0000 1.3289 0.0000 23.3781
#
#
#
# Elastic Compliance Matrix: (Units=1/GPa)
#
#
# Indices 1 2 3 4 5 6 
#
# 1 0.015272 -0.005936 0.002874 0.000000 -0.018875 0.000000
# 2 -0.005936 0.014023 -0.003466 0.000000 0.005939 0.000000
# 3 0.002874 -0.003466 0.028598 0.000000 -0.033337 0.000000
# 4 0.000000 0.000000 0.000000 0.035768 0.000000 -0.002033
# 5 -0.018875 0.005939 -0.033337 0.000000 0.122221 0.000000
# 6 0.000000 0.000000 0.000000 -0.002033 0.000000 0.042891
#
#
# Mechanical properties :
#
#
# Convention : Reuss Voigt Hill
#
# Bulk Modulus (GPa) = 22.30313 41.64978 31.97645
# Shear Modulus (GPa) = 17.43527 25.02821 21.23174
#
# Velocity S-wave (km/s) = 3.13045 3.75066 3.45450
# Velocity P-wave (km/s) = 5.05985 6.49357 5.82102
#
# Compressibility (1/GPa) = 0.04483676
#
# Stress axis : x y z
#
# Youngs Moduli (GPa) = 65.47741 71.31141 34.96750
#
# Poissons Ratio (x) = 0.42331 -0.10050
# Poissons Ratio (y) = 0.38868 0.12121
# Poissons Ratio (z) = -0.18820 0.24720
#
# Static dielectric constant tensor:
#      x y z
#    x 3.048150 0.000000 0.330590 
#    y 0.000000 3.564760 0.000000 
#    z 0.330590 0.000000 3.348980 
# 
# 
# High freq. dielectric constant tensor:
#      x y z
#    x 1.654540 0.000000 0.032110 
#    y 0.000000 1.701410 0.000000 
#    z 0.032110 0.000000 1.686990 
# 
# From -- ./inp_files/224270.got.cif
#   From: 2010.06.25/outbox.cif.g09.slc.cpg/sg12_113_cif.got.tgz:224270.got - 2010.06.28 00:19:55.
