data_PCOD8086913
_publ_section_title
;
Structure prediction by ZEFSAII (Michael W. Deem and Ramdas Pophale) SiO2 
 PCOD8086913
Probable space group: C 2/M
;
_chemical_formula_sum "Si O2"
_cell_formula_units_Z 48
_cell_length_a 19.721690
_cell_length_b 9.206237
_cell_length_c 30.871801
_cell_angle_alpha 90.000000
_cell_angle_beta 154.189971
_cell_angle_gamma 90.000000
_cell_volume 2440.424532
_symmetry_space_group_name_H-M "C 2/M"
_symmetry_group_IT_number 12
_symmetry_cell_setting 'monoclinic'
loop_
_space_group_symop_operation_xyz
x,y,z
-x,y,-z
-x,-y,-z
x,-y,z
1/2+x,1/2+y,z
1/2-x,1/2+y,-z
1/2-x,1/2-y,-z
1/2+x,1/2-y,z
loop_
_atom_site_type_symbol
_atom_site_label
_atom_site_fract_x
_atom_site_fract_y
_atom_site_fract_z
Si Si1 0.612860 0.835705 0.024115
Si Si2 0.644945 0.169219 0.784788
Si Si3 0.129765 0.832254 0.166162
Si Si4 0.835025 0.161508 0.586028
Si Si5 0.388238 0.774896 0.469408
Si Si6 0.698280 0.339993 0.664678
O O1 0.766411 0.743882 0.124071
O O2 0.659280 0.000000 0.037659
O O3 0.500000 0.837052 0.000000
O O4 0.526036 0.757497 0.934421
O O5 0.739903 0.191146 0.795321
O O6 0.481331 0.247816 0.685848
O O7 0.619848 0.000000 0.780752
O O8 0.197642 0.777358 0.250518
O O9 0.083319 0.000000 0.143747
O O10 0.750000 0.250000 0.500000
O O11 0.717624 0.135731 0.558790
O O12 0.882774 0.000000 0.597483
O O13 0.500000 0.869720 0.500000
O O14 0.278571 0.678078 0.374239
O O15 0.512720 0.678537 0.568776
O O16 0.751756 0.500000 0.710125
#
# Coordination Sequence:
#
# PCOD8086913 Si02
#       6
#     8   8   8   8   8   8
#     4   9  17  31  52  77 107 146 189 234 280 332
#     4  10  21  35  52  79 115 151 185 231 285 338
#     4  10  19  31  51  81 114 148 187 232 281 334
#     4  12  25  39  58  85 117 153 189 235 284 336
#     4   8  21  39  57  82 110 148 193 235 280 335
#     4   9  18  33  56  81 106 140 187 234 276 328
#
# _framework density 19.668710000000001
#
# number of rings (size 3 to 8) (size 9 to 14) (size 15 to 20)
#    1.000    1.167    0.000    4.000    0.000   11.000 
#    0.000    0.000    0.000    1.000    0.000    0.000 
#    0.000    0.000    0.000    0.000    0.000    0.000 
#
# Total GULP energy -297322.045050 kJ/mol
# GULP energy per Si atom -12388.418544 kJ/mol
# Density = 1.962394 g / cm^3
# Si number density = 19.668710 Si / 1000 Ang^3
#
#
#
# Elastic Constant Matrix: (Units=GPa)
#
#
# Indices 1 2 3 4 5 6 
#
# 1 43.5037 31.2121 35.2067 0.0003 3.6625 0.0001
# 2 31.2121 163.0553 79.8125 0.0000 -3.2820 0.0001
# 3 35.2067 79.8125 170.4051 0.0022 -12.7510 0.0005
# 4 0.0003 0.0000 0.0022 23.3076 0.0008 0.7541
# 5 3.6625 -3.2820 -12.7510 0.0008 22.6642 0.0002
# 6 0.0001 0.0001 0.0005 0.7541 0.0002 14.7757
#
#
#
# Elastic Compliance Matrix: (Units=1/GPa)
#
#
# Indices 1 2 3 4 5 6 
#
# 1 0.030439 -0.003386 -0.005332 0.000000 -0.008409 0.000000
# 2 -0.003386 0.008355 -0.003218 0.000000 -0.000053 0.000000
# 3 -0.005332 -0.003218 0.008881 -0.000001 0.005392 0.000000
# 4 0.000000 0.000000 -0.000001 0.042975 -0.000002 -0.002193
# 5 -0.008409 -0.000053 0.005392 -0.000002 0.048507 -0.000001
# 6 0.000000 0.000000 0.000000 -0.002193 -0.000001 0.067791
#
#
# Mechanical properties :
#
#
# Convention : Reuss Voigt Hill
#
# Bulk Modulus (GPa) = 42.01155 74.38073 58.19614
# Shear Modulus (GPa) = 20.94208 27.53168 24.23688
#
# Velocity S-wave (km/s) = 3.26658 3.74541 3.51416
# Velocity P-wave (km/s) = 5.96937 7.52350 6.79104
#
# Compressibility (1/GPa) = 0.02380298
#
# Stress axis : x y z
#
# Youngs Moduli (GPa) = 32.85249 119.69016 112.60550
#
# Poissons Ratio (x) = 0.40525 0.60045
# Poissons Ratio (y) = 0.11123 0.36232
# Poissons Ratio (z) = 0.17518 0.38512
#
# Static dielectric constant tensor:
#      x y z
#    x 3.155840 0.000000 -0.049260 
#    y 0.000000 3.546700 0.000000 
#    z -0.049260 0.000000 3.781680 
# 
# 
# High freq. dielectric constant tensor:
#      x y z
#    x 1.717490 0.000000 -0.011240 
#    y 0.000000 1.771340 0.000000 
#    z -0.011240 0.000000 1.776060 
# 
# From -- ./inp_files/380250.got.cif
#   From: 2010.06.25/outbox.cif.g09.slc.cpg/sg12_191_cif.got.tgz:380250.got - 2010.06.28 00:19:55.
