data_PCOD8086033
_publ_section_title
;
Structure prediction by ZEFSAII (Michael W. Deem and Ramdas Pophale) SiO2 
 PCOD8086033
Probable space group: C 2/M
;
_chemical_formula_sum "Si O2"
_cell_formula_units_Z 56
_cell_length_a 22.832499
_cell_length_b 8.867856
_cell_length_c 21.441241
_cell_angle_alpha 90.000000
_cell_angle_beta 130.438179
_cell_angle_gamma 90.000000
_cell_volume 3304.207360
_symmetry_space_group_name_H-M "C 2/M"
_symmetry_group_IT_number 12
_symmetry_cell_setting 'monoclinic'
loop_
_space_group_symop_operation_xyz
x,y,z
-x,y,-z
-x,-y,-z
x,-y,z
1/2+x,1/2+y,z
1/2-x,1/2+y,-z
1/2-x,1/2-y,-z
1/2+x,1/2-y,z
loop_
_atom_site_type_symbol
_atom_site_label
_atom_site_fract_x
_atom_site_fract_y
_atom_site_fract_z
Si Si1 0.145754 0.173673 0.931008
Si Si2 0.844898 0.825742 0.621755
Si Si3 0.414082 0.822143 0.426636
Si Si4 0.869816 0.177512 0.266836
Si Si5 0.807091 0.827157 0.452427
Si Si6 0.987312 0.825637 0.242920
Si Si7 0.258553 0.171966 0.106223
O O1 0.054872 0.199981 0.853363
O O2 0.191020 0.292082 0.919833
O O3 0.166191 0.000000 0.925595
O O4 0.169754 0.199042 0.020575
O O5 0.838516 0.806138 0.543489
O O6 0.780577 0.729515 0.612958
O O7 0.927434 0.754338 0.699065
O O8 0.835021 0.000000 0.634564
O O9 0.500000 0.763284 0.500000
O O10 0.383291 0.751025 0.342248
O O11 0.359861 0.773928 0.445403
O O12 0.412335 0.000000 0.418317
O O13 0.933842 0.238732 0.262017
O O14 0.784906 0.224552 0.182368
O O15 0.872353 0.000000 0.276200
O O16 0.810741 0.000000 0.433054
O O17 0.000087 0.000000 0.266810
O O18 0.270875 0.000000 0.135328
#
# Coordination Sequence:
#
# PCOD8086033 Si02
#       7
#     8   8   8   8   8   8   8
#     4   8  14  24  39  61  90 123 156 190 230 277
#     4   9  17  31  50  69  91 120 155 194 230 266
#     4  11  23  36  50  70  95 121 152 191 231 271
#     4  10  19  31  47  67  94 127 160 190 226 277
#     4  10  20  33  49  69  93 123 157 189 227 273
#     4   8  14  26  45  68  92 121 156 190 227 271
#     4   9  15  24  39  61  91 123 155 191 230 273
#
# _framework density 16.948087999999998
#
# number of rings (size 3 to 8) (size 9 to 14) (size 15 to 20)
#    0.000    2.714    0.000    3.429    0.000    3.429 
#    0.000    3.571    0.000    0.000    0.000    1.000 
#    0.000    8.000    0.000    0.000    0.000    0.000 
#
# Total GULP energy -346953.848188 kJ/mol
# GULP energy per Si atom -12391.208864 kJ/mol
# Density = 1.690951 g / cm^3
# Si number density = 16.948088 Si / 1000 Ang^3
#
#
#
# Elastic Constant Matrix: (Units=GPa)
#
#
# Indices 1 2 3 4 5 6 
#
# 1 62.3172 19.0395 44.5069 0.0000 12.5952 0.0000
# 2 19.0395 48.3131 33.4685 0.0000 1.6698 0.0000
# 3 44.5069 33.4685 120.4370 0.0000 18.9273 0.0000
# 4 0.0000 0.0000 0.0000 24.1479 0.0000 -1.9436
# 5 12.5952 1.6698 18.9273 0.0000 24.2314 0.0000
# 6 0.0000 0.0000 0.0000 -1.9436 0.0000 15.5745
#
#
#
# Elastic Compliance Matrix: (Units=1/GPa)
#
#
# Indices 1 2 3 4 5 6 
#
# 1 0.023319 -0.004625 -0.006244 0.000000 -0.006925 0.000000
# 2 -0.004625 0.026955 -0.006688 0.000000 0.005771 0.000000
# 3 -0.006244 -0.006688 0.013550 0.000000 -0.006878 0.000000
# 4 0.000000 0.000000 0.000000 0.041832 0.000000 0.005220
# 5 -0.006925 0.005771 -0.006878 0.000000 0.049843 0.000000
# 6 0.000000 0.000000 0.000000 0.005220 0.000000 0.064859
#
#
# Mechanical properties :
#
#
# Convention : Reuss Voigt Hill
#
# Bulk Modulus (GPa) = 34.83167 47.23300 41.03234
# Shear Modulus (GPa) = 18.86499 21.72759 20.29629
#
# Velocity S-wave (km/s) = 3.33994 3.58440 3.46433
# Velocity P-wave (km/s) = 5.95569 6.71270 6.34549
#
# Compressibility (1/GPa) = 0.02870950
#
# Stress axis : x y z
#
# Youngs Moduli (GPa) = 42.88344 37.09917 73.80100
#
# Poissons Ratio (x) = 0.17158 0.46080
# Poissons Ratio (y) = 0.19833 0.49360
# Poissons Ratio (z) = 0.26776 0.24813
#
# Static dielectric constant tensor:
#      x y z
#    x 2.876730 0.000000 0.298030 
#    y 0.000000 3.144700 0.000000 
#    z 0.298030 0.000000 3.616180 
# 
# 
# High freq. dielectric constant tensor:
#      x y z
#    x 1.600610 0.000000 0.019700 
#    y 0.000000 1.650900 0.000000 
#    z 0.019700 0.000000 1.671360 
# 
# From -- ./inp_files/323805.got.cif
#   From: 2010.06.25/outbox.cif.g09.slc.cpg/sg12_162_cif.got.tgz:323805.got - 2010.06.28 00:19:55.
