data_PCOD8086410
_publ_section_title
;
Structure prediction by ZEFSAII (Michael W. Deem and Ramdas Pophale) SiO2 
 PCOD8086410
Probable space group: C 2/M
;
_chemical_formula_sum "Si O2"
_cell_formula_units_Z 64
_cell_length_a 20.789961
_cell_length_b 8.743728
_cell_length_c 23.840511
_cell_angle_alpha 90.000000
_cell_angle_beta 49.165824
_cell_angle_gamma 90.000000
_cell_volume 3278.952883
_symmetry_space_group_name_H-M "C 2/M"
_symmetry_group_IT_number 12
_symmetry_cell_setting 'monoclinic'
loop_
_space_group_symop_operation_xyz
x,y,z
-x,y,-z
-x,-y,-z
x,-y,z
1/2+x,1/2+y,z
1/2-x,1/2+y,-z
1/2-x,1/2-y,-z
1/2+x,1/2-y,z
loop_
_atom_site_type_symbol
_atom_site_label
_atom_site_fract_x
_atom_site_fract_y
_atom_site_fract_z
Si Si1 0.432593 0.681756 0.417083
Si Si2 0.315150 0.318122 0.585031
Si Si3 0.747880 0.818870 0.836752
Si Si4 0.057972 0.681614 0.916746
Si Si5 0.305995 0.180956 0.919264
Si Si6 0.503857 0.818055 0.167470
Si Si7 0.121801 0.181712 0.332171
Si Si8 0.126875 0.681702 0.664793
O O1 0.430695 0.500000 0.414291
O O2 0.375991 0.742120 0.500983
O O3 0.528118 0.743416 0.371325
O O4 0.394831 0.750184 0.382574
O O5 0.316753 0.500000 0.585987
O O6 0.348681 0.250871 0.624844
O O7 0.219818 0.258844 0.629328
O O8 0.654731 0.766618 0.870336
O O9 0.769224 0.734273 0.881539
O O10 0.813713 0.761543 0.752298
O O11 0.752790 0.000000 0.843668
O O12 0.051442 0.500000 0.919704
O O13 0.024195 0.748221 0.876992
O O14 0.000000 0.748415 0.000000
O O15 0.402209 0.241596 0.871370
O O16 0.302882 0.000000 0.925328
O O17 0.250000 0.250000 0.000000
O O18 0.439700 0.755783 0.251355
O O19 0.500655 0.000000 0.167870
O O20 0.121837 0.000000 0.335106
O O21 0.124062 0.500000 0.662527
#
# Coordination Sequence:
#
# PCOD8086410 Si02
#       8
#     8   8   8   8   8   8   8   8
#     4  10  19  31  49  73 102 133 165 204 249 295
#     4   9  17  30  50  75 100 130 169 209 245 285
#     4  10  19  32  53  78 101 127 163 208 253 294
#     4   9  16  28  49  74  96 120 158 205 245 287
#     4  11  22  36  54  75 102 133 165 202 245 296
#     4   9  18  32  51  75  99 128 167 207 245 287
#     4   9  17  30  50  75 100 129 168 208 244 290
#     4  10  19  32  51  73  99 130 166 207 247 291
#
# _framework density 19.518426999999999
#
# number of rings (size 3 to 8) (size 9 to 14) (size 15 to 20)
#    0.000    2.375    0.000    3.375    0.000    6.500 
#    0.000    0.625    0.000   10.125    0.000    0.000 
#    0.000    0.000    0.000    0.000    0.000    0.000 
#
# Total GULP energy -396844.500225 kJ/mol
# GULP energy per Si atom -12401.390632 kJ/mol
# Density = 1.947400 g / cm^3
# Si number density = 19.518427 Si / 1000 Ang^3
#
#
#
# Elastic Constant Matrix: (Units=GPa)
#
#
# Indices 1 2 3 4 5 6 
#
# 1 110.5549 18.3920 31.0954 -0.0006 2.6416 0.0012
# 2 18.3920 18.3342 17.3524 -0.0008 -0.2387 0.0026
# 3 31.0954 17.3524 141.9576 -0.0004 -0.7291 0.0007
# 4 -0.0006 -0.0008 -0.0004 18.3325 0.0001 7.4983
# 5 2.6416 -0.2387 -0.7291 0.0001 48.9629 -0.0002
# 6 0.0012 0.0026 0.0007 7.4983 -0.0002 24.0909
#
#
#
# Elastic Compliance Matrix: (Units=1/GPa)
#
#
# Indices 1 2 3 4 5 6 
#
# 1 0.011058 -0.009957 -0.001208 0.000000 -0.000663 0.000001
# 2 -0.009957 0.070647 -0.006450 0.000006 0.000786 -0.000009
# 3 -0.001208 -0.006450 0.008098 0.000000 0.000154 0.000001
# 4 0.000000 0.000006 0.000000 0.062505 0.000000 -0.019455
# 5 -0.000663 0.000786 0.000154 0.000000 0.020466 0.000000
# 6 0.000001 -0.000009 0.000001 -0.019455 0.000000 0.047565
#
#
# Mechanical properties :
#
#
# Convention : Reuss Voigt Hill
#
# Bulk Modulus (GPa) = 18.32499 44.94736 31.63618
# Shear Modulus (GPa) = 18.26412 31.87771 25.07092
#
# Velocity S-wave (km/s) = 3.06230 4.04568 3.58784
# Velocity P-wave (km/s) = 4.68108 6.70086 5.77988
#
# Compressibility (1/GPa) = 0.05457028
#
# Stress axis : x y z
#
# Youngs Moduli (GPa) = 90.43628 14.15493 123.48230
#
# Poissons Ratio (x) = 0.14095 0.14921
# Poissons Ratio (y) = 0.90050 0.79652
# Poissons Ratio (z) = 0.10928 0.09131
#
# Static dielectric constant tensor:
#      x y z
#    x 3.794790 0.000000 -0.116840 
#    y 0.000000 2.977620 0.000000 
#    z -0.116840 0.000000 3.864990 
# 
# 
# High freq. dielectric constant tensor:
#      x y z
#    x 1.781190 0.000000 -0.000770 
#    y 0.000000 1.698430 0.000000 
#    z -0.000770 0.000000 1.783040 
# 
# From -- ./inp_files/346079.got.cif
#   From: 2010.06.25/outbox.cif.g09.slc.cpg/sg12_174_cif.got.tgz:346079.got - 2010.06.28 00:19:55.
