data_PCOD8086728
_publ_section_title
;
Structure prediction by ZEFSAII (Michael W. Deem and Ramdas Pophale) SiO2 
 PCOD8086728
Probable space group: C 2/M
;
_chemical_formula_sum "Si O2"
_cell_formula_units_Z 60
_cell_length_a 11.757979
_cell_length_b 28.655738
_cell_length_c 9.881176
_cell_angle_alpha 90.000000
_cell_angle_beta 79.938528
_cell_angle_gamma 90.000000
_cell_volume 3278.098164
_symmetry_space_group_name_H-M "C 2/M"
_symmetry_group_IT_number 12
_symmetry_cell_setting 'monoclinic'
loop_
_space_group_symop_operation_xyz
x,y,z
-x,y,-z
-x,-y,-z
x,-y,z
1/2+x,1/2+y,z
1/2-x,1/2+y,-z
1/2-x,1/2-y,-z
1/2+x,1/2-y,z
loop_
_atom_site_type_symbol
_atom_site_label
_atom_site_fract_x
_atom_site_fract_y
_atom_site_fract_z
Si Si1 0.215465 0.550833 0.157166
Si Si2 0.733528 0.550918 0.164056
Si Si3 0.696797 0.191016 0.388290
Si Si4 0.106457 0.141008 0.166257
Si Si5 0.543324 0.946899 0.718069
Si Si6 0.500000 0.121885 0.500000
Si Si7 0.340924 0.641724 0.149804
Si Si8 0.874375 0.204031 0.585418
O O1 0.239013 0.500000 0.222453
O O2 0.287089 0.592410 0.212314
O O3 0.080104 0.562509 0.187987
O O4 0.258992 0.547561 0.996876
O O5 0.693359 0.500000 0.229353
O O6 0.641128 0.590687 0.221931
O O7 0.859630 0.564282 0.191982
O O8 0.595770 0.153193 0.408367
O O9 0.774021 0.183605 0.238206
O O10 0.775549 0.185646 0.505190
O O11 0.636840 0.240966 0.391143
O O12 0.143980 0.180344 0.264894
O O13 0.971276 0.142207 0.170952
O O14 0.171454 0.149525 0.009319
O O15 0.565006 0.911459 0.591696
O O16 0.553102 0.000000 0.662574
O O17 0.000000 0.191511 0.500000
#
# Coordination Sequence:
#
# PCOD8086728 Si02
#       8
#     8   8   8   8   8   4   8   8
#     4   9  17  31  53  80 109 144 181 219 265 320
#     4   9  18  33  53  78 108 143 183 220 263 321
#     4  11  23  38  60  82 109 143 183 227 271 327
#     4  10  21  37  60  82 109 145 181 225 275 316
#     4  10  19  31  50  77 112 148 179 220 268 317
#     4  12  21  34  54  82 110 144 181 224 270 330
#     4  10  20  37  58  84 112 142 180 227 272 318
#     4  11  22  40  61  81 107 144 185 223 273 330
#
# _framework density 18.303294999999999
#
# number of rings (size 3 to 8) (size 9 to 14) (size 15 to 20)
#    0.000    1.867    3.333    1.400    0.000    2.667 
#    0.000    2.667    0.000    0.400    0.000    0.000 
#    0.000    0.000    0.000    0.000    0.000    0.000 
#
# Total GULP energy -371943.639195 kJ/mol
# GULP energy per Si atom -12398.121306 kJ/mol
# Density = 1.826164 g / cm^3
# Si number density = 18.303295 Si / 1000 Ang^3
#
#
#
# Elastic Constant Matrix: (Units=GPa)
#
#
# Indices 1 2 3 4 5 6 
#
# 1 59.1716 29.9202 26.8647 0.0000 0.7691 0.0000
# 2 29.9202 82.7629 42.4940 0.0000 5.7764 0.0000
# 3 26.8647 42.4940 63.9304 0.0000 -1.8558 0.0000
# 4 0.0000 0.0000 0.0000 29.4141 0.0000 0.1327
# 5 0.7691 5.7764 -1.8558 0.0000 27.4140 0.0000
# 6 0.0000 0.0000 0.0000 0.1327 0.0000 23.5441
#
#
#
# Elastic Compliance Matrix: (Units=1/GPa)
#
#
# Indices 1 2 3 4 5 6 
#
# 1 0.022117 -0.004894 -0.006041 0.000000 0.000002 0.000000
# 2 -0.004894 0.020051 -0.011412 0.000000 -0.004860 0.000000
# 3 -0.006041 -0.011412 0.025891 0.000000 0.004327 0.000000
# 4 0.000000 0.000000 0.000000 0.033998 0.000000 -0.000192
# 5 0.000002 -0.004860 0.004327 0.000000 0.037795 0.000000
# 6 0.000000 0.000000 0.000000 -0.000192 0.000000 0.042475
#
#
# Mechanical properties :
#
#
# Convention : Reuss Voigt Hill
#
# Bulk Modulus (GPa) = 42.79837 44.93585 43.86711
# Shear Modulus (GPa) = 21.29385 23.18016 22.23701
#
# Velocity S-wave (km/s) = 3.41455 3.56258 3.48935
# Velocity P-wave (km/s) = 6.24333 6.44411 6.34452
#
# Compressibility (1/GPa) = 0.02336538
#
# Stress axis : x y z
#
# Youngs Moduli (GPa) = 45.21324 49.87376 38.62273
#
# Poissons Ratio (x) = 0.24410 0.23332
# Poissons Ratio (y) = 0.22129 0.44076
# Poissons Ratio (z) = 0.27313 0.56915
#
# Static dielectric constant tensor:
#      x y z
#    x 3.346720 0.000000 -0.000710 
#    y 0.000000 3.742150 0.000000 
#    z -0.000710 0.000000 3.277870 
# 
# 
# High freq. dielectric constant tensor:
#      x y z
#    x 1.710980 0.000000 -0.001510 
#    y 0.000000 1.716540 0.000000 
#    z -0.001510 0.000000 1.695550 
# 
# From -- ./inp_files/54663.got.cif
#   From: 2010.06.25/outbox.cif.g09.slc.cpg/sg12_28_cif.got.tgz:54663.got - 2010.06.28 00:19:55.
