data_PCOD8086077
_publ_section_title
;
Structure prediction by ZEFSAII (Michael W. Deem and Ramdas Pophale) SiO2 
 PCOD8086077
Probable space group: C 2/M
;
_chemical_formula_sum "Si O2"
_cell_formula_units_Z 40
_cell_length_a 14.425742
_cell_length_b 9.389130
_cell_length_c 22.304789
_cell_angle_alpha 90.000000
_cell_angle_beta 47.468832
_cell_angle_gamma 90.000000
_cell_volume 2226.260166
_symmetry_space_group_name_H-M "C 2/M"
_symmetry_group_IT_number 12
_symmetry_cell_setting 'monoclinic'
loop_
_space_group_symop_operation_xyz
x,y,z
-x,y,-z
-x,-y,-z
x,-y,z
1/2+x,1/2+y,z
1/2-x,1/2+y,-z
1/2-x,1/2-y,-z
1/2+x,1/2-y,z
loop_
_atom_site_type_symbol
_atom_site_label
_atom_site_fract_x
_atom_site_fract_y
_atom_site_fract_z
Si Si1 0.382942 0.665346 0.381094
Si Si2 0.593379 0.833758 0.511751
Si Si3 0.476495 0.331546 0.800583
Si Si4 0.978614 0.668334 0.105620
Si Si5 0.305757 0.831737 0.074212
O O1 0.401427 0.500000 0.387809
O O2 0.437861 0.751698 0.413319
O O3 0.237173 0.699955 0.430728
O O4 0.462366 0.712739 0.288874
O O5 0.500000 0.780009 0.500000
O O6 0.571835 0.000000 0.533204
O O7 0.484143 0.500000 0.807544
O O8 0.551226 0.252429 0.820562
O O9 0.334661 0.270315 0.865264
O O10 0.971771 0.500000 0.120449
O O11 0.873744 0.721343 0.104709
O O12 0.115195 0.714079 0.019156
O O13 0.301817 0.000000 0.078671
#
# Coordination Sequence:
#
# PCOD8086077 Si02
#       5
#     8   8   8   8   8
#     4   9  19  33  48  70  96 120 150 186 226 276
#     4   9  18  34  53  69  90 121 152 185 227 272
#     4  10  19  31  47  69  97 122 147 189 237 268
#     4   9  17  31  49  67  89 123 163 190 217 268
#     4   8  16  31  48  65  91 126 157 187 226 271
#
# _framework density 17.967352000000002
#
# number of rings (size 3 to 8) (size 9 to 14) (size 15 to 20)
#    0.000    3.000    0.000    1.800    0.000    2.800 
#    0.000    3.000    0.000    0.000    0.000    0.000 
#    0.000    0.000    0.000    0.000    0.000    0.000 
#
# Total GULP energy -247960.211442 kJ/mol
# GULP energy per Si atom -12398.010572 kJ/mol
# Density = 1.792646 g / cm^3
# Si number density = 17.967352 Si / 1000 Ang^3
#
#
#
# Elastic Constant Matrix: (Units=GPa)
#
#
# Indices 1 2 3 4 5 6 
#
# 1 100.5765 34.6752 47.2185 0.0000 23.4875 0.0000
# 2 34.6752 38.5482 39.9989 0.0000 15.6746 0.0001
# 3 47.2185 39.9989 106.1364 0.0000 25.9992 0.0000
# 4 0.0000 0.0000 0.0000 24.0250 0.0000 8.4615
# 5 23.4875 15.6746 25.9992 0.0000 27.2856 0.0000
# 6 0.0000 0.0001 0.0000 8.4615 0.0000 27.2665
#
#
#
# Elastic Compliance Matrix: (Units=1/GPa)
#
#
# Indices 1 2 3 4 5 6 
#
# 1 0.015531 -0.009630 -0.001775 0.000000 -0.006146 0.000000
# 2 -0.009630 0.051794 -0.013015 0.000000 -0.009063 0.000000
# 3 -0.001775 -0.013015 0.016842 0.000000 -0.007043 0.000000
# 4 0.000000 0.000000 0.000000 0.046731 0.000000 -0.014502
# 5 -0.006146 -0.009063 -0.007043 0.000000 0.053857 0.000000
# 6 0.000000 0.000000 0.000000 -0.014502 0.000000 0.041175
#
#
# Mechanical properties :
#
#
# Convention : Reuss Voigt Hill
#
# Bulk Modulus (GPa) = 28.30687 54.33849 41.32268
# Shear Modulus (GPa) = 17.44923 23.93998 20.69460
#
# Velocity S-wave (km/s) = 3.11973 3.65419 3.39748
# Velocity P-wave (km/s) = 5.36337 6.93633 6.19994
#
# Compressibility (1/GPa) = 0.03532711
#
# Stress axis : x y z
#
# Youngs Moduli (GPa) = 64.38591 19.30731 59.37689
#
# Poissons Ratio (x) = 0.18593 0.10539
# Poissons Ratio (y) = 0.62004 0.77278
# Poissons Ratio (z) = 0.11428 0.25128
#
# Static dielectric constant tensor:
#      x y z
#    x 3.525790 0.000000 -0.156810 
#    y 0.000000 3.006610 0.000000 
#    z -0.156810 0.000000 3.405840 
# 
# 
# High freq. dielectric constant tensor:
#      x y z
#    x 1.700100 0.000000 0.003750 
#    y 0.000000 1.669300 0.000000 
#    z 0.003750 0.000000 1.695270 
# 
# From -- ./inp_files/188822.got.cif
#   From: 2010.06.25/outbox.cif.g09.slc.cpg/sg12_95_cif.got.tgz:188822.got - 2010.06.28 00:19:55.
