data_PCOD8086681
_publ_section_title
;
Structure prediction by ZEFSAII (Michael W. Deem and Ramdas Pophale) SiO2 
 PCOD8086681
Probable space group: C 2/M
;
_chemical_formula_sum "Si O2"
_cell_formula_units_Z 48
_cell_length_a 23.725797
_cell_length_b 8.747389
_cell_length_c 26.929900
_cell_angle_alpha 90.000000
_cell_angle_beta 151.782900
_cell_angle_gamma 90.000000
_cell_volume 2642.555440
_symmetry_space_group_name_H-M "C 2/M"
_symmetry_group_IT_number 12
_symmetry_cell_setting 'monoclinic'
loop_
_space_group_symop_operation_xyz
x,y,z
-x,y,-z
-x,-y,-z
x,-y,z
1/2+x,1/2+y,z
1/2-x,1/2+y,-z
1/2-x,1/2-y,-z
1/2+x,1/2-y,z
loop_
_atom_site_type_symbol
_atom_site_label
_atom_site_fract_x
_atom_site_fract_y
_atom_site_fract_z
Si Si1 0.546628 0.179026 0.106510
Si Si2 0.320608 0.822609 0.691745
Si Si3 0.059288 0.318551 0.691363
Si Si4 0.635628 0.179979 0.384982
Si Si5 0.826377 0.182051 0.886212
Si Si6 0.431837 0.819089 0.494667
O O1 0.580776 0.212277 0.189945
O O2 0.642114 0.258048 0.144236
O O3 0.544262 0.000000 0.092645
O O4 0.416283 0.249628 0.996667
O O5 0.372749 0.770471 0.679017
O O6 0.204847 0.726423 0.614585
O O7 0.285221 0.000000 0.663574
O O8 0.060852 0.500000 0.689496
O O9 0.194802 0.258726 0.798811
O O10 0.985379 0.262012 0.682137
O O11 0.993676 0.250608 0.591873
O O12 0.750000 0.250000 0.500000
O O13 0.647705 0.000000 0.400299
O O14 0.835875 0.000000 0.893584
O O15 0.500000 0.750714 0.500000
O O16 0.440666 0.000000 0.501912
#
# Coordination Sequence:
#
# PCOD8086681 Si02
#       6
#     8   8   8   8   8   8
#     4  10  20  35  52  75 107 138 166 208 262 307
#     4  10  21  34  51  75 104 137 172 208 255 310
#     4   9  18  32  51  75 103 132 167 214 260 297
#     4  10  19  35  54  74 101 138 176 211 254 305
#     4  10  19  34  56  79 100 132 175 213 253 306
#     4  10  19  31  50  76 104 133 167 210 258 306
#
# _framework density 18.164237
#
# number of rings (size 3 to 8) (size 9 to 14) (size 15 to 20)
#    0.000    2.167    1.667    3.000    0.000    3.000 
#    0.000    4.167    0.000    0.000    0.000    0.000 
#    0.000    0.000    0.000    0.000    0.000    0.000 
#
# Total GULP energy -297594.174615 kJ/mol
# GULP energy per Si atom -12399.757276 kJ/mol
# Density = 1.812289 g / cm^3
# Si number density = 18.164237 Si / 1000 Ang^3
#
#
#
# Elastic Constant Matrix: (Units=GPa)
#
#
# Indices 1 2 3 4 5 6 
#
# 1 159.5700 26.5780 85.2035 -0.0001 -6.4380 0.0000
# 2 26.5780 36.5005 31.5935 0.0000 -0.5980 0.0003
# 3 85.2035 31.5935 133.4817 -0.0001 -4.4234 0.0000
# 4 -0.0001 0.0000 -0.0001 27.1309 -0.0001 1.2732
# 5 -6.4380 -0.5980 -4.4234 -0.0001 34.9388 0.0000
# 6 0.0000 0.0003 0.0000 1.2732 0.0000 11.0696
#
#
#
# Elastic Compliance Matrix: (Units=1/GPa)
#
#
# Indices 1 2 3 4 5 6 
#
# 1 0.009674 -0.002153 -0.005631 0.000000 0.001033 0.000000
# 2 -0.002153 0.034942 -0.006918 0.000000 -0.000675 -0.000001
# 3 -0.005631 -0.006918 0.012739 0.000000 0.000457 0.000000
# 4 0.000000 0.000000 0.000000 0.037058 0.000000 -0.004262
# 5 0.001033 -0.000675 0.000457 0.000000 0.028858 0.000000
# 6 0.000000 -0.000001 0.000000 -0.004262 0.000000 0.090827
#
#
# Mechanical properties :
#
#
# Convention : Reuss Voigt Hill
#
# Bulk Modulus (GPa) = 35.77894 68.47802 52.12848
# Shear Modulus (GPa) = 19.77690 27.03968 23.40829
#
# Velocity S-wave (km/s) = 3.30325 3.86245 3.59374
# Velocity P-wave (km/s) = 5.85567 7.59425 6.78091
#
# Compressibility (1/GPa) = 0.02794941
#
# Stress axis : x y z
#
# Youngs Moduli (GPa) = 103.37037 28.61896 78.50043
#
# Poissons Ratio (x) = 0.06162 0.44205
# Poissons Ratio (y) = 0.22256 0.54309
# Poissons Ratio (z) = 0.58210 0.19800
#
# Static dielectric constant tensor:
#      x y z
#    x 3.779160 0.000000 0.084570 
#    y 0.000000 3.192640 0.000000 
#    z 0.084570 0.000000 3.549360 
# 
# 
# High freq. dielectric constant tensor:
#      x y z
#    x 1.708160 0.000000 -0.002150 
#    y 0.000000 1.688060 0.000000 
#    z -0.002150 0.000000 1.705170 
# 
# From -- ./inp_files/172298.got.cif
#   From: 2010.06.25/outbox.cif.g09.slc.cpg/sg12_87_cif.got.tgz:172298.got - 2010.06.28 00:19:55.
