data_PCOD8086849
_publ_section_title
;
Structure prediction by ZEFSAII (Michael W. Deem and Ramdas Pophale) SiO2 
 PCOD8086849
Probable space group: C 2/M
;
_chemical_formula_sum "Si O2"
_cell_formula_units_Z 56
_cell_length_a 31.084712
_cell_length_b 9.342360
_cell_length_c 11.632209
_cell_angle_alpha 90.000000
_cell_angle_beta 64.318013
_cell_angle_gamma 90.000000
_cell_volume 3044.340616
_symmetry_space_group_name_H-M "C 2/M"
_symmetry_group_IT_number 12
_symmetry_cell_setting 'monoclinic'
loop_
_space_group_symop_operation_xyz
x,y,z
-x,y,-z
-x,-y,-z
x,-y,z
1/2+x,1/2+y,z
1/2-x,1/2+y,-z
1/2-x,1/2-y,-z
1/2+x,1/2-y,z
loop_
_atom_site_type_symbol
_atom_site_label
_atom_site_fract_x
_atom_site_fract_y
_atom_site_fract_z
Si Si1 0.118803 0.831584 0.047450
Si Si2 0.349043 0.165479 0.454684
Si Si3 0.433818 0.669435 0.478177
Si Si4 0.228377 0.834384 0.331830
Si Si5 0.337205 0.163653 0.204834
Si Si6 0.206757 0.836663 0.100211
Si Si7 0.538273 0.668505 0.303948
O O1 0.158282 0.787675 0.095629
O O2 0.068429 0.776851 0.159055
O O3 0.118313 0.000000 0.023982
O O4 0.128115 0.754331 0.916530
O O5 0.391287 0.245897 0.469527
O O6 0.298380 0.237369 0.543909
O O7 0.357050 0.181299 0.309834
O O8 0.347849 0.000000 0.493404
O O9 0.422934 0.500000 0.484746
O O10 0.482730 0.709080 0.353737
O O11 0.439739 0.726182 0.601763
O O12 0.282831 0.780173 0.258204
O O13 0.201180 0.812594 0.242670
O O14 0.227352 0.000000 0.373030
O O15 0.338925 0.000000 0.161452
O O16 0.218402 0.000000 0.058974
O O17 0.250000 0.750000 0.000000
O O18 0.543464 0.500000 0.307910
#
# Coordination Sequence:
#
# PCOD8086849 Si02
#       7
#     8   8   8   8   8   8   8
#     4  10  19  32  53  81 108 135 173 218 260 307
#     4  11  23  36  52  77 107 137 177 224 264 308
#     4   9  17  35  61  82 105 136 170 213 265 316
#     4  10  20  36  56  75 101 141 183 217 258 313
#     4  10  22  38  52  71 105 146 181 215 259 312
#     4  10  19  31  51  78 107 135 166 209 257 308
#     4   8  16  33  59  86 106 131 171 216 261 312
#
# _framework density 18.394787000000001
#
# number of rings (size 3 to 8) (size 9 to 14) (size 15 to 20)
#    0.000    2.286    1.429    2.571    0.000    4.571 
#    0.000    5.000    0.000    4.286    0.000    0.000 
#    0.000    0.000    0.000    0.000    0.000    0.000 
#
# Total GULP energy -347196.378893 kJ/mol
# GULP energy per Si atom -12399.870675 kJ/mol
# Density = 1.835292 g / cm^3
# Si number density = 18.394787 Si / 1000 Ang^3
#
#
#
# Elastic Constant Matrix: (Units=GPa)
#
#
# Indices 1 2 3 4 5 6 
#
# 1 60.1625 28.5931 36.3021 0.0000 -10.4445 0.0000
# 2 28.5931 60.5883 48.9074 0.0000 -8.8453 0.0000
# 3 36.3021 48.9074 125.6888 0.0000 -23.2048 0.0000
# 4 0.0000 0.0000 0.0000 26.4127 0.0000 1.4587
# 5 -10.4445 -8.8453 -23.2048 0.0000 29.4660 0.0000
# 6 0.0000 0.0000 0.0000 1.4587 0.0000 25.1100
#
#
#
# Elastic Compliance Matrix: (Units=1/GPa)
#
#
# Indices 1 2 3 4 5 6 
#
# 1 0.022693 -0.007915 -0.002841 0.000000 0.003430 0.000000
# 2 -0.007915 0.026825 -0.008405 0.000000 -0.001372 0.000000
# 3 -0.002841 -0.008405 0.013334 0.000000 0.006971 0.000000
# 4 0.000000 0.000000 0.000000 0.037982 0.000000 -0.002207
# 5 0.003430 -0.001372 0.006971 0.000000 0.040231 0.000000
# 6 0.000000 0.000000 0.000000 -0.002207 0.000000 0.039953
#
#
# Mechanical properties :
#
#
# Convention : Reuss Voigt Hill
#
# Bulk Modulus (GPa) = 40.76791 52.67164 46.71977
# Shear Modulus (GPa) = 21.97628 25.04021 23.50824
#
# Velocity S-wave (km/s) = 3.46019 3.69354 3.57877
# Velocity P-wave (km/s) = 6.17858 6.84732 6.52153
#
# Compressibility (1/GPa) = 0.02452910
#
# Stress axis : x y z
#
# Youngs Moduli (GPa) = 44.06559 37.27923 74.99494
#
# Poissons Ratio (x) = 0.29508 0.21307
# Poissons Ratio (y) = 0.34880 0.63034
# Poissons Ratio (z) = 0.12520 0.31333
#
# Static dielectric constant tensor:
#      x y z
#    x 3.201940 0.000000 -0.131850 
#    y 0.000000 3.198580 0.000000 
#    z -0.131850 0.000000 3.645220 
# 
# 
# High freq. dielectric constant tensor:
#      x y z
#    x 1.708590 0.000000 -0.005220 
#    y 0.000000 1.692080 0.000000 
#    z -0.005220 0.000000 1.718320 
# 
# From -- ./inp_files/186469.got.cif
#   From: 2010.06.25/outbox.cif.g09.slc.cpg/sg12_94_cif.got.tgz:186469.got - 2010.06.28 00:19:55.
