data_PCOD8086668
_publ_section_title
;
Structure prediction by ZEFSAII (Michael W. Deem and Ramdas Pophale) SiO2 
 PCOD8086668
Probable space group: C 2/M
;
_chemical_formula_sum "Si O2"
_cell_formula_units_Z 64
_cell_length_a 23.807972
_cell_length_b 9.152191
_cell_length_c 20.029586
_cell_angle_alpha 90.000000
_cell_angle_beta 57.835174
_cell_angle_gamma 90.000000
_cell_volume 3694.509148
_symmetry_space_group_name_H-M "C 2/M"
_symmetry_group_IT_number 12
_symmetry_cell_setting 'monoclinic'
loop_
_space_group_symop_operation_xyz
x,y,z
-x,y,-z
-x,-y,-z
x,-y,z
1/2+x,1/2+y,z
1/2-x,1/2+y,-z
1/2-x,1/2-y,-z
1/2+x,1/2-y,z
loop_
_atom_site_type_symbol
_atom_site_label
_atom_site_fract_x
_atom_site_fract_y
_atom_site_fract_z
Si Si1 0.916526 0.172633 0.908015
Si Si2 0.691021 0.828277 0.732111
Si Si3 0.420219 0.326069 0.754077
Si Si4 0.715775 0.327107 0.212712
Si Si5 0.306481 0.827492 0.422609
Si Si6 0.208670 0.326402 0.968276
Si Si7 0.563960 0.663270 0.656851
Si Si8 0.936541 0.839055 0.184193
O O1 0.908182 0.228425 0.837157
O O2 0.990738 0.209242 0.887703
O O3 0.901531 0.000000 0.923077
O O4 0.866099 0.264977 0.985055
O O5 0.750514 0.766010 0.740769
O O6 0.704249 0.780798 0.647604
O O7 0.620922 0.768800 0.804039
O O8 0.685892 0.000000 0.741725
O O9 0.421945 0.500000 0.755030
O O10 0.359627 0.265901 0.746781
O O11 0.491713 0.274619 0.678923
O O12 0.711928 0.500000 0.218863
O O13 0.759477 0.279690 0.122015
O O14 0.250000 0.750000 0.500000
O O15 0.377824 0.771285 0.403963
O O16 0.302634 0.000000 0.435314
O O17 0.209494 0.500000 0.978254
O O18 0.250000 0.250000 0.000000
O O19 0.577731 0.500000 0.619501
O O20 0.560273 0.656314 0.738371
O O21 0.919417 0.000000 0.167501
#
# Coordination Sequence:
#
# PCOD8086668 Si02
#       8
#     8   8   8   8   8   8   8   8
#     4   9  16  29  47  67  91 121 160 202 241 279
#     4   9  18  32  50  71  94 121 157 195 228 274
#     4   8  13  25  47  69  90 120 156 193 232 271
#     4   9  17  30  48  68  93 126 159 194 237 278
#     4  10  19  31  50  75  99 120 147 186 229 274
#     4  11  20  30  46  67  94 125 160 201 242 279
#     4   8  14  26  47  72  93 117 152 189 227 271
#     4   8  15  28  47  67  91 123 155 193 240 281
#
# _framework density 17.323004999999998
#
# number of rings (size 3 to 8) (size 9 to 14) (size 15 to 20)
#    0.000    3.000    1.250    2.250    0.000    1.000 
#    0.000    3.750    0.000    4.500    0.000    5.250 
#    0.000    0.000    0.000    0.000    0.000    0.000 
#
# Total GULP energy -396560.722886 kJ/mol
# GULP energy per Si atom -12392.522590 kJ/mol
# Density = 1.728358 g / cm^3
# Si number density = 17.323005 Si / 1000 Ang^3
#
#
#
# Elastic Constant Matrix: (Units=GPa)
#
#
# Indices 1 2 3 4 5 6 
#
# 1 134.1350 33.8344 63.9970 0.0000 -26.9469 0.0001
# 2 33.8344 47.9324 40.9683 0.0000 -10.6123 0.0007
# 3 63.9970 40.9683 96.3029 0.0000 -30.8076 0.0001
# 4 0.0000 0.0000 0.0000 25.4378 0.0000 -8.8090
# 5 -26.9469 -10.6123 -30.8076 0.0000 29.2251 -0.0001
# 6 0.0001 0.0007 0.0001 -8.8090 -0.0001 21.5976
#
#
#
# Elastic Compliance Matrix: (Units=1/GPa)
#
#
# Indices 1 2 3 4 5 6 
#
# 1 0.011415 -0.002815 -0.005052 0.000000 0.004178 0.000000
# 2 -0.002815 0.033825 -0.014213 0.000000 -0.005295 -0.000001
# 3 -0.005052 -0.014213 0.025116 0.000000 0.016657 0.000001
# 4 0.000000 0.000000 0.000000 0.045777 0.000000 0.018671
# 5 0.004178 -0.005295 0.016657 0.000000 0.053705 0.000000
# 6 0.000000 -0.000001 0.000001 0.018671 0.000000 0.053917
#
#
# Mechanical properties :
#
#
# Convention : Reuss Voigt Hill
#
# Bulk Modulus (GPa) = 38.17246 61.77441 49.97344
# Shear Modulus (GPa) = 18.07362 24.55680 21.31521
#
# Velocity S-wave (km/s) = 3.23357 3.76917 3.51159
# Velocity P-wave (km/s) = 6.00207 7.39459 6.73442
#
# Compressibility (1/GPa) = 0.02619689
#
# Stress axis : x y z
#
# Youngs Moduli (GPa) = 87.60729 29.56367 39.81533
#
# Poissons Ratio (x) = 0.08321 0.20113
# Poissons Ratio (y) = 0.24659 0.56590
# Poissons Ratio (z) = 0.44256 0.42019
#
# Static dielectric constant tensor:
#      x y z
#    x 3.733360 0.000000 -0.338610 
#    y 0.000000 3.057140 0.000000 
#    z -0.338610 0.000000 3.154280 
# 
# 
# High freq. dielectric constant tensor:
#      x y z
#    x 1.666280 0.000000 -0.031300 
#    y 0.000000 1.643550 0.000000 
#    z -0.031300 0.000000 1.645900 
# 
# From -- ./inp_files/348522.got.cif
#   From: 2010.06.25/outbox.cif.g09.slc.cpg/sg12_175_cif.got.tgz:348522.got - 2010.06.28 00:19:55.
