data_PCOD8086043
_publ_section_title
;
Structure prediction by ZEFSAII (Michael W. Deem and Ramdas Pophale) SiO2 
 PCOD8086043
Probable space group: C 2/M
;
_chemical_formula_sum "Si O2"
_cell_formula_units_Z 64
_cell_length_a 21.785275
_cell_length_b 9.620926
_cell_length_c 21.022569
_cell_angle_alpha 90.000000
_cell_angle_beta 56.264812
_cell_angle_gamma 90.000000
_cell_volume 3664.266790
_symmetry_space_group_name_H-M "C 2/M"
_symmetry_group_IT_number 12
_symmetry_cell_setting 'monoclinic'
loop_
_space_group_symop_operation_xyz
x,y,z
-x,y,-z
-x,-y,-z
x,-y,z
1/2+x,1/2+y,z
1/2-x,1/2+y,-z
1/2-x,1/2-y,-z
1/2+x,1/2-y,z
loop_
_atom_site_type_symbol
_atom_site_label
_atom_site_fract_x
_atom_site_fract_y
_atom_site_fract_z
Si Si1 0.669259 0.155556 0.911246
Si Si2 0.676267 0.152589 0.300133
Si Si3 0.384448 0.159842 0.923877
Si Si4 0.833025 0.777462 0.825281
Si Si5 0.951788 0.161301 0.586190
Si Si6 0.508769 0.348713 0.297509
Si Si7 0.654766 0.663007 0.799225
Si Si8 0.955704 0.336773 0.219532
O O1 0.757723 0.136947 0.861334
O O2 0.640622 0.262442 0.874778
O O3 0.636706 0.000000 0.917391
O O4 0.639768 0.222214 0.994236
O O5 0.667125 0.157768 0.228659
O O6 0.626702 0.261984 0.366611
O O7 0.760752 0.179913 0.270569
O O8 0.651329 0.000000 0.336224
O O9 0.335598 0.220901 0.895298
O O10 0.471259 0.185777 0.864437
O O11 0.364349 0.000000 0.936988
O O12 0.905279 0.869547 0.770863
O O13 0.000000 0.219160 0.500000
O O14 0.997832 0.188691 0.624203
O O15 0.933422 0.000000 0.587391
O O16 0.471636 0.500000 0.305290
O O17 0.469882 0.224159 0.281850
O O18 0.631970 0.500000 0.816681
O O19 0.608759 0.745484 0.773162
O O20 0.934694 0.500000 0.236675
#
# Coordination Sequence:
#
# PCOD8086043 Si02
#       8
#     8   8   8   8   8   8   8   8
#     4  10  19  31  47  68  94 125 162 202 248 297
#     4   9  18  31  50  74  98 126 160 198 237 280
#     4   9  18  30  45  67  95 126 159 202 251 296
#     4   9  16  28  47  70  96 126 160 197 241 290
#     4   9  18  32  52  80 111 136 154 179 223 278
#     4   9  17  30  49  73 100 127 157 192 230 276
#     4  10  21  36  51  68  92 124 164 207 248 284
#     4  10  20  34  51  69  91 124 166 206 244 284
#
# _framework density 17.465978
#
# number of rings (size 3 to 8) (size 9 to 14) (size 15 to 20)
#    0.000    2.625    0.000    1.875    0.000    7.750 
#    0.000    6.250    0.000    0.750    0.000    0.000 
#    0.000    0.000    0.000    0.000    0.000    0.000 
#
# Total GULP energy -396634.561052 kJ/mol
# GULP energy per Si atom -12394.830033 kJ/mol
# Density = 1.742622 g / cm^3
# Si number density = 17.465978 Si / 1000 Ang^3
#
#
#
# Elastic Constant Matrix: (Units=GPa)
#
#
# Indices 1 2 3 4 5 6 
#
# 1 83.0424 53.0713 34.2277 -0.0001 11.3017 0.0000
# 2 53.0713 104.5709 44.2312 -0.0001 6.0932 0.0000
# 3 34.2277 44.2312 108.5483 0.0000 14.1017 0.0001
# 4 -0.0001 -0.0001 0.0000 21.1553 0.0000 -0.1504
# 5 11.3017 6.0932 14.1017 0.0000 15.1443 0.0000
# 6 0.0000 0.0000 0.0001 -0.1504 0.0000 22.8746
#
#
#
# Elastic Compliance Matrix: (Units=1/GPa)
#
#
# Indices 1 2 3 4 5 6 
#
# 1 0.019534 -0.008791 -0.001300 0.000000 -0.009830 0.000000
# 2 -0.008791 0.015512 -0.004084 0.000000 0.004123 0.000000
# 3 -0.001300 -0.004084 0.012454 0.000000 -0.008983 0.000000
# 4 0.000000 0.000000 0.000000 0.047272 0.000000 0.000311
# 5 -0.009830 0.004123 -0.008983 0.000000 0.080073 0.000000
# 6 0.000000 0.000000 0.000000 0.000311 0.000000 0.043719
#
#
# Mechanical properties :
#
#
# Convention : Reuss Voigt Hill
#
# Bulk Modulus (GPa) = 52.22410 62.13578 57.17994
# Shear Modulus (GPa) = 19.73966 22.81026 21.27496
#
# Velocity S-wave (km/s) = 3.36546 3.61776 3.49389
# Velocity P-wave (km/s) = 6.71321 7.28721 7.00609
#
# Compressibility (1/GPa) = 0.01914825
#
# Stress axis : x y z
#
# Youngs Moduli (GPa) = 51.19264 64.46686 80.29717
#
# Poissons Ratio (x) = 0.56673 0.10441
# Poissons Ratio (y) = 0.45004 0.32796
# Poissons Ratio (z) = 0.06657 0.26330
#
# Static dielectric constant tensor:
#      x y z
#    x 3.147330 0.000000 0.097510 
#    y 0.000000 3.222320 0.000000 
#    z 0.097510 0.000000 3.250020 
# 
# 
# High freq. dielectric constant tensor:
#      x y z
#    x 1.663170 0.000000 0.006830 
#    y 0.000000 1.677400 0.000000 
#    z 0.006830 0.000000 1.657130 
# 
# From -- ./inp_files/319780.got.cif
#   From: 2010.06.25/outbox.cif.g09.slc.cpg/sg12_160_cif.got.tgz:319780.got - 2010.06.28 00:19:55.
