data_PCOD8086223
_publ_section_title
;
Structure prediction by ZEFSAII (Michael W. Deem and Ramdas Pophale) SiO2 
 PCOD8086223
Probable space group: C 2/M
;
_chemical_formula_sum "Si O2"
_cell_formula_units_Z 64
_cell_length_a 17.180162
_cell_length_b 13.726300
_cell_length_c 20.790450
_cell_angle_alpha 90.000000
_cell_angle_beta 49.175987
_cell_angle_gamma 90.000000
_cell_volume 3710.056262
_symmetry_space_group_name_H-M "C 2/M"
_symmetry_group_IT_number 12
_symmetry_cell_setting 'monoclinic'
loop_
_space_group_symop_operation_xyz
x,y,z
-x,y,-z
-x,-y,-z
x,-y,z
1/2+x,1/2+y,z
1/2-x,1/2+y,-z
1/2-x,1/2-y,-z
1/2+x,1/2-y,z
loop_
_atom_site_type_symbol
_atom_site_label
_atom_site_fract_x
_atom_site_fract_y
_atom_site_fract_z
Si Si1 0.723471 0.609833 0.695185
Si Si2 0.885585 0.615676 0.714276
Si Si3 0.440396 0.230187 0.215649
Si Si4 0.010129 0.607050 0.924911
Si Si5 0.222409 0.606699 0.983071
Si Si6 0.103872 0.694490 0.619433
Si Si7 0.672692 0.776837 0.126993
Si Si8 0.211704 0.889985 0.555694
O O1 0.692474 0.500000 0.729071
O O2 0.820171 0.642053 0.686367
O O3 0.620934 0.670811 0.764224
O O4 0.758052 0.620766 0.602389
O O5 0.892296 0.500000 0.723695
O O6 0.830984 0.668914 0.803298
O O7 0.999096 0.659520 0.642379
O O8 0.419541 0.165251 0.163607
O O9 0.399633 0.176075 0.301864
O O10 0.560799 0.250703 0.159577
O O11 0.060969 0.500000 0.907335
O O12 0.898700 0.595174 0.955517
O O13 0.000000 0.659909 0.000000
O O14 0.274779 0.500000 0.952077
O O15 0.241326 0.656235 0.042336
O O16 0.268704 0.672842 0.900383
O O17 0.121238 0.809929 0.594773
O O18 0.196901 0.629523 0.543356
O O19 0.168498 0.000000 0.568026
#
# Coordination Sequence:
#
# PCOD8086223 Si02
#       8
#     8   8   8   8   8   8   8   8
#     4   9  19  32  48  71  99 129 155 191 243 286
#     4  10  19  31  48  71  97 124 157 198 236 279
#     4   9  18  32  48  68  95 124 158 195 232 280
#     4   9  18  30  46  67  89 120 157 196 239 276
#     4   9  17  30  46  66  91 119 156 200 240 282
#     4   9  18  31  50  76  96 124 163 191 234 282
#     4   9  18  30  47  70  90 123 160 197 240 281
#     4   9  17  32  52  75 101 125 156 196 236 284
#
# _framework density 17.250413000000002
#
# number of rings (size 3 to 8) (size 9 to 14) (size 15 to 20)
#    0.000    2.875    0.000    0.750    1.750    4.500 
#    0.000    3.750    0.000    1.125    0.000    7.875 
#    0.000    0.000    0.000    0.000    0.000    0.000 
#
# Total GULP energy -396614.650209 kJ/mol
# GULP energy per Si atom -12394.207819 kJ/mol
# Density = 1.721115 g / cm^3
# Si number density = 17.250413 Si / 1000 Ang^3
#
#
#
# Elastic Constant Matrix: (Units=GPa)
#
#
# Indices 1 2 3 4 5 6 
#
# 1 64.1738 39.4174 24.0623 0.0000 4.1749 0.0000
# 2 39.4174 118.4196 51.6115 0.0000 -0.1491 0.0000
# 3 24.0623 51.6115 96.9006 0.0000 5.3599 0.0000
# 4 0.0000 0.0000 0.0000 22.0600 0.0000 -0.8706
# 5 4.1749 -0.1491 5.3599 0.0000 18.7836 0.0000
# 6 0.0000 0.0000 0.0000 -0.8706 0.0000 24.5659
#
#
#
# Elastic Compliance Matrix: (Units=1/GPa)
#
#
# Indices 1 2 3 4 5 6 
#
# 1 0.020136 -0.006025 -0.001565 0.000000 -0.004077 0.000000
# 2 -0.006025 0.012860 -0.005520 0.000000 0.003016 0.000000
# 3 -0.001565 -0.005520 0.013850 0.000000 -0.003648 0.000000
# 4 0.000000 0.000000 0.000000 0.045394 0.000000 0.001609
# 5 -0.004077 0.003016 -0.003648 0.000000 0.055209 0.000000
# 6 0.000000 0.000000 0.000000 0.001609 0.000000 0.040764
#
#
# Mechanical properties :
#
#
# Convention : Reuss Voigt Hill
#
# Bulk Modulus (GPa) = 48.48606 56.63069 52.55837
# Shear Modulus (GPa) = 22.59278 24.04208 23.31743
#
# Velocity S-wave (km/s) = 3.62290 3.73729 3.68054
# Velocity P-wave (km/s) = 6.75786 7.17795 6.97107
#
# Compressibility (1/GPa) = 0.02062449
#
# Stress axis : x y z
#
# Youngs Moduli (GPa) = 49.66287 77.76182 72.19969
#
# Poissons Ratio (x) = 0.46854 0.11302
# Poissons Ratio (y) = 0.29923 0.39855
# Poissons Ratio (z) = 0.07774 0.42925
#
# Static dielectric constant tensor:
#      x y z
#    x 3.043650 0.000000 0.110120 
#    y 0.000000 3.458210 0.000000 
#    z 0.110120 0.000000 3.262540 
# 
# 
# High freq. dielectric constant tensor:
#      x y z
#    x 1.640590 0.000000 0.009060 
#    y 0.000000 1.669580 0.000000 
#    z 0.009060 0.000000 1.668160 
# 
# From -- ./inp_files/315703.got.cif
#   From: 2010.06.25/outbox.cif.g09.slc.cpg/sg12_158_cif.got.tgz:315703.got - 2010.06.28 00:19:55.
