data_PCOD8086974
_publ_section_title
;
Structure prediction by ZEFSAII (Michael W. Deem and Ramdas Pophale) SiO2 
 PCOD8086974
Probable space group: C 2/M
;
_chemical_formula_sum "Si O2"
_cell_formula_units_Z 64
_cell_length_a 26.090990
_cell_length_b 9.151767
_cell_length_c 14.120164
_cell_angle_alpha 90.000000
_cell_angle_beta 92.834612
_cell_angle_gamma 90.000000
_cell_volume 3367.468527
_symmetry_space_group_name_H-M "C 2/M"
_symmetry_group_IT_number 12
_symmetry_cell_setting 'monoclinic'
loop_
_space_group_symop_operation_xyz
x,y,z
-x,y,-z
-x,-y,-z
x,-y,z
1/2+x,1/2+y,z
1/2-x,1/2+y,-z
1/2-x,1/2-y,-z
1/2+x,1/2-y,z
loop_
_atom_site_type_symbol
_atom_site_label
_atom_site_fract_x
_atom_site_fract_y
_atom_site_fract_z
Si Si1 0.300654 0.171114 0.771645
Si Si2 0.396346 0.171952 0.898599
Si Si3 0.293235 0.166917 0.560539
Si Si4 0.973239 0.670899 0.405674
Si Si5 0.186694 0.829641 0.776072
Si Si6 0.594996 0.673760 0.901379
Si Si7 0.639746 0.166815 0.605173
Si Si8 0.500036 0.831232 0.798835
O O1 0.346067 0.235919 0.840647
O O2 0.303167 0.236723 0.665187
O O3 0.245159 0.205600 0.814096
O O4 0.311083 0.000000 0.765052
O O5 0.445736 0.207184 0.839563
O O6 0.391891 0.000000 0.920113
O O7 0.401943 0.259003 0.995259
O O8 0.250000 0.250000 0.500000
O O9 0.345170 0.177915 0.503862
O O10 0.274947 0.000000 0.570660
O O11 0.966283 0.500000 0.425183
O O12 0.916482 0.737915 0.387881
O O13 0.005748 0.700868 0.313771
O O14 0.000000 0.743959 0.500000
O O15 0.145676 0.772768 0.849226
O O16 0.179180 0.754663 0.673989
O O17 0.179210 0.000000 0.758878
O O18 0.592329 0.500000 0.908407
O O19 0.544038 0.730241 0.845817
O O20 0.640887 0.000000 0.640824
O O21 0.515206 0.000000 0.818439
#
# Coordination Sequence:
#
# PCOD8086974 Si02
#       8
#     8   8   8   8   8   8   8   8
#     4   9  19  36  55  79 112 145 178 221 269 321
#     4  10  22  38  58  81 106 140 183 227 274 323
#     4  10  19  31  52  79 108 142 178 212 256 314
#     4   9  18  31  51  82 115 140 169 218 271 312
#     4  10  20  36  57  78 107 147 183 217 270 330
#     4  11  23  38  58  81 106 140 183 227 276 329
#     4  10  19  31  52  82 110 140 181 224 264 311
#     4  10  20  36  59  84 109 141 181 221 267 325
#
# _framework density 19.005375999999998
#
# number of rings (size 3 to 8) (size 9 to 14) (size 15 to 20)
#    0.000    2.125    2.500    0.750    1.750    3.000 
#    0.000    1.250    0.000    1.500    0.000    0.000 
#    0.000    0.000    0.000    0.000    0.000    0.000 
#
# Total GULP energy -396756.926865 kJ/mol
# GULP energy per Si atom -12398.653965 kJ/mol
# Density = 1.896212 g / cm^3
# Si number density = 19.005376 Si / 1000 Ang^3
#
#
#
# Elastic Constant Matrix: (Units=GPa)
#
#
# Indices 1 2 3 4 5 6 
#
# 1 135.0288 33.4351 63.4508 0.0000 -0.5535 0.0000
# 2 33.4351 37.8927 33.3135 0.0000 0.7924 0.0000
# 3 63.4508 33.3135 131.6742 0.0000 5.0724 0.0000
# 4 0.0000 0.0000 0.0000 20.4875 0.0000 -0.2402
# 5 -0.5535 0.7924 5.0724 0.0000 31.7759 0.0000
# 6 0.0000 0.0000 0.0000 -0.2402 0.0000 22.3310
#
#
#
# Elastic Compliance Matrix: (Units=1/GPa)
#
#
# Indices 1 2 3 4 5 6 
#
# 1 0.010642 -0.006263 -0.003579 0.000000 0.000913 0.000000
# 2 -0.006263 0.037634 -0.006503 0.000000 -0.000010 0.000000
# 3 -0.003579 -0.006503 0.011028 0.000000 -0.001661 0.000000
# 4 0.000000 0.000000 0.000000 0.048816 0.000000 0.000525
# 5 0.000913 -0.000010 -0.001661 0.000000 0.031752 0.000000
# 6 0.000000 0.000000 0.000000 0.000525 0.000000 0.044787
#
#
# Mechanical properties :
#
#
# Convention : Reuss Voigt Hill
#
# Bulk Modulus (GPa) = 37.57329 62.77716 50.17523
# Shear Modulus (GPa) = 22.10241 26.54529 24.32385
#
# Velocity S-wave (km/s) = 3.41391 3.74133 3.58137
# Velocity P-wave (km/s) = 5.94579 7.19489 6.59996
#
# Compressibility (1/GPa) = 0.02661465
#
# Stress axis : x y z
#
# Youngs Moduli (GPa) = 93.96669 26.57187 90.67595
#
# Poissons Ratio (x) = 0.16642 0.32451
# Poissons Ratio (y) = 0.58851 0.58967
# Poissons Ratio (z) = 0.33629 0.17280
#
# Static dielectric constant tensor:
#      x y z
#    x 3.734160 0.000000 -0.085070 
#    y 0.000000 3.169200 0.000000 
#    z -0.085070 0.000000 3.652610 
# 
# 
# High freq. dielectric constant tensor:
#      x y z
#    x 1.750560 0.000000 -0.009020 
#    y 0.000000 1.701070 0.000000 
#    z -0.009020 0.000000 1.746240 
# 
# From -- ./inp_files/187493.got.cif
#   From: 2010.06.25/outbox.cif.g09.slc.cpg/sg12_94_cif.got.tgz:187493.got - 2010.06.28 00:19:55.
