data_PCOD8086929
_publ_section_title
;
Structure prediction by ZEFSAII (Michael W. Deem and Ramdas Pophale) SiO2 
 PCOD8086929
Probable space group: C 2/M
;
_chemical_formula_sum "Si O2"
_cell_formula_units_Z 64
_cell_length_a 30.021173
_cell_length_b 8.923295
_cell_length_c 16.652983
_cell_angle_alpha 90.000000
_cell_angle_beta 134.417448
_cell_angle_gamma 90.000000
_cell_volume 3186.405343
_symmetry_space_group_name_H-M "C 2/M"
_symmetry_group_IT_number 12
_symmetry_cell_setting 'monoclinic'
loop_
_space_group_symop_operation_xyz
x,y,z
-x,y,-z
-x,-y,-z
x,-y,z
1/2+x,1/2+y,z
1/2-x,1/2+y,-z
1/2-x,1/2-y,-z
1/2+x,1/2-y,z
loop_
_atom_site_type_symbol
_atom_site_label
_atom_site_fract_x
_atom_site_fract_y
_atom_site_fract_z
Si Si1 0.361229 0.331276 0.569511
Si Si2 0.566342 0.826441 0.911131
Si Si3 0.574197 0.828211 0.738946
Si Si4 0.259588 0.323106 0.312365
Si Si5 0.649559 0.171540 0.686050
Si Si6 0.627880 0.676778 0.134814
Si Si7 0.548321 0.669631 0.458003
Si Si8 0.427483 0.826075 0.788428
O O1 0.349986 0.500000 0.586672
O O2 0.302555 0.276931 0.442384
O O3 0.423569 0.323423 0.595459
O O4 0.371422 0.224148 0.658608
O O5 0.586892 0.783199 0.846967
O O6 0.493705 0.788460 0.832103
O O7 0.579495 0.000000 0.946836
O O8 0.609106 0.726419 0.022151
O O9 0.637808 0.809253 0.767161
O O10 0.522743 0.721264 0.634808
O O11 0.550128 0.000000 0.705261
O O12 0.250333 0.500000 0.295698
O O13 0.292419 0.270917 0.270844
O O14 0.194447 0.243090 0.242692
O O15 0.585728 0.219954 0.562915
O O16 0.664214 0.000000 0.682495
O O17 0.630736 0.500000 0.142827
O O18 0.576840 0.737781 0.133239
O O19 0.552149 0.500000 0.496464
O O20 0.419310 0.000000 0.796881
#
# Coordination Sequence:
#
# PCOD8086929 Si02
#       8
#     8   8   8   8   8   8   8   8
#     4   9  19  35  57  87 120 153 189 239 292 343
#     4  10  22  41  62  87 119 154 196 242 292 347
#     4  10  20  35  56  85 118 155 195 240 292 346
#     4  10  22  42  63  85 118 157 199 243 290 345
#     4  10  20  34  56  85 119 155 195 239 289 347
#     4  12  26  42  62  86 114 153 198 245 296 349
#     4  10  19  31  51  82 122 160 195 236 288 345
#     4  11  22  38  64  91 118 153 192 237 294 353
#
# _framework density 20.085329999999999
#
# number of rings (size 3 to 8) (size 9 to 14) (size 15 to 20)
#    0.000    1.750    1.250    4.125    0.000    8.500 
#    0.000    0.625    0.000    0.000    0.000    0.000 
#    0.000    0.000    0.000    0.000    0.000    0.000 
#
# Total GULP energy -396879.398814 kJ/mol
# GULP energy per Si atom -12402.481213 kJ/mol
# Density = 2.003961 g / cm^3
# Si number density = 20.085330 Si / 1000 Ang^3
#
#
#
# Elastic Constant Matrix: (Units=GPa)
#
#
# Indices 1 2 3 4 5 6 
#
# 1 62.0280 22.8160 19.6175 0.0000 -16.4116 0.0000
# 2 22.8160 87.1656 25.2773 0.0000 -0.7105 0.0000
# 3 19.6175 25.2773 60.2237 0.0000 -2.3529 0.0000
# 4 0.0000 0.0000 0.0000 34.1678 0.0000 -0.0441
# 5 -16.4116 -0.7105 -2.3529 0.0000 25.0929 0.0000
# 6 0.0000 0.0000 0.0000 -0.0441 0.0000 30.6032
#
#
#
# Elastic Compliance Matrix: (Units=1/GPa)
#
#
# Indices 1 2 3 4 5 6 
#
# 1 0.023254 -0.004482 -0.005123 0.000000 0.014602 0.000000
# 2 -0.004482 0.013927 -0.004501 0.000000 -0.002959 0.000000
# 3 -0.005123 -0.004501 0.020100 0.000000 -0.001593 0.000000
# 4 0.000000 0.000000 0.000000 0.029267 0.000000 0.000042
# 5 0.014602 -0.002959 -0.001593 0.000000 0.049169 0.000000
# 6 0.000000 0.000000 0.000000 0.000042 0.000000 0.032676
#
#
# Mechanical properties :
#
#
# Convention : Reuss Voigt Hill
#
# Bulk Modulus (GPa) = 34.40111 38.31542 36.35827
# Shear Modulus (GPa) = 24.23701 27.41989 25.82845
#
# Velocity S-wave (km/s) = 3.47753 3.69883 3.58989
# Velocity P-wave (km/s) = 5.76966 6.11224 5.94342
#
# Compressibility (1/GPa) = 0.02906883
#
# Stress axis : x y z
#
# Youngs Moduli (GPa) = 43.00312 71.80413 49.75004
#
# Poissons Ratio (x) = 0.32184 0.25488
# Poissons Ratio (y) = 0.19275 0.22392
# Poissons Ratio (z) = 0.22031 0.32319
#
# Static dielectric constant tensor:
#      x y z
#    x 3.763070 0.000000 -0.115720 
#    y 0.000000 3.642150 0.000000 
#    z -0.115720 0.000000 3.426270 
# 
# 
# High freq. dielectric constant tensor:
#      x y z
#    x 1.790150 0.000000 -0.009900 
#    y 0.000000 1.788400 0.000000 
#    z -0.009900 0.000000 1.761890 
# 
# From -- ./inp_files/295738.got.cif
#   From: 2010.06.25/outbox.cif.g09.slc.cpg/sg12_148_cif.got.tgz:295738.got - 2010.06.28 00:19:55.
