data_PCOD8086910
_publ_section_title
;
Structure prediction by ZEFSAII (Michael W. Deem and Ramdas Pophale) SiO2 
 PCOD8086910
Probable space group: C 2/M
;
_chemical_formula_sum "Si O2"
_cell_formula_units_Z 56
_cell_length_a 24.471312
_cell_length_b 14.009263
_cell_length_c 9.342418
_cell_angle_alpha 90.000000
_cell_angle_beta 68.109604
_cell_angle_gamma 90.000000
_cell_volume 2971.887959
_symmetry_space_group_name_H-M "C 2/M"
_symmetry_group_IT_number 12
_symmetry_cell_setting 'monoclinic'
loop_
_space_group_symop_operation_xyz
x,y,z
-x,y,-z
-x,-y,-z
x,-y,z
1/2+x,1/2+y,z
1/2-x,1/2+y,-z
1/2-x,1/2-y,-z
1/2+x,1/2-y,z
loop_
_atom_site_type_symbol
_atom_site_label
_atom_site_fract_x
_atom_site_fract_y
_atom_site_fract_z
Si Si1 0.666840 0.892467 0.680190
Si Si2 0.657684 0.898163 0.016102
Si Si3 0.725798 0.388565 0.625267
Si Si4 0.263165 0.655760 0.073153
Si Si5 0.608291 0.696057 0.061279
Si Si6 0.104148 0.794069 0.734593
Si Si7 0.499656 0.610605 0.669242
O O1 0.727460 0.865536 0.543267
O O2 0.615474 0.818023 0.688517
O O3 0.646000 0.000000 0.661221
O O4 0.680976 0.880023 0.833316
O O5 0.715326 0.917543 0.058396
O O6 0.618385 0.807071 0.100237
O O7 0.622198 0.000000 0.058507
O O8 0.722309 0.500000 0.665618
O O9 0.746032 0.332384 0.747799
O O10 0.662160 0.353338 0.635804
O O11 0.250000 0.750000 0.000000
O O12 0.332262 0.632318 0.980047
O O13 0.561569 0.649138 0.210908
O O14 0.586556 0.692206 0.918145
O O15 0.051718 0.828645 0.686800
O O16 0.500000 0.625915 0.500000
O O17 0.507454 0.500000 0.703000
#
# Coordination Sequence:
#
# PCOD8086910 Si02
#       7
#     8   8   8   8   8   8   8
#     4   9  19  34  54  82 112 140 171 210 257 310
#     4   9  17  32  54  81 111 140 172 210 255 308
#     4  10  19  31  51  81 112 142 176 213 259 312
#     4   9  18  31  49  77 109 141 176 211 254 306
#     4   9  20  36  54  77 104 140 179 214 257 309
#     4  10  20  36  57  77 104 141 178 214 256 310
#     4  11  25  41  56  76 101 132 174 223 269 310
#
# _framework density 18.843240000000002
#
# number of rings (size 3 to 8) (size 9 to 14) (size 15 to 20)
#    0.000    2.429    0.000    2.571    0.000    7.429 
#    0.000    3.571    0.000    4.286    0.000    0.000 
#    0.000    0.000    0.000    0.000    0.000    0.000 
#
# Total GULP energy -347001.514080 kJ/mol
# GULP energy per Si atom -12392.911217 kJ/mol
# Density = 1.880035 g / cm^3
# Si number density = 18.843240 Si / 1000 Ang^3
#
#
#
# Elastic Constant Matrix: (Units=GPa)
#
#
# Indices 1 2 3 4 5 6 
#
# 1 107.6125 28.7592 40.3220 0.0000 6.1019 0.0000
# 2 28.7592 55.5688 18.6687 0.0000 -4.6526 0.0000
# 3 40.3220 18.6687 79.4395 0.0000 -13.5741 0.0000
# 4 0.0000 0.0000 0.0000 28.1767 0.0000 -3.9919
# 5 6.1019 -4.6526 -13.5741 0.0000 24.2293 0.0000
# 6 0.0000 0.0000 0.0000 -3.9919 0.0000 22.2660
#
#
#
# Elastic Compliance Matrix: (Units=1/GPa)
#
#
# Indices 1 2 3 4 5 6 
#
# 1 0.013987 -0.005517 -0.007283 0.000000 -0.008662 0.000000
# 2 -0.005517 0.021752 -0.001504 0.000000 0.004724 0.000000
# 3 -0.007283 -0.001504 0.018692 0.000000 0.012017 0.000000
# 4 0.000000 0.000000 0.000000 0.036415 0.000000 0.006529
# 5 -0.008662 0.004724 0.012017 0.000000 0.051093 0.000000
# 6 0.000000 0.000000 0.000000 0.006529 0.000000 0.046082
#
#
# Mechanical properties :
#
#
# Convention : Reuss Voigt Hill
#
# Bulk Modulus (GPa) = 38.72716 46.45784 42.59250
# Shear Modulus (GPa) = 22.19868 25.25913 23.72890
#
# Velocity S-wave (km/s) = 3.43603 3.66524 3.55248
# Velocity P-wave (km/s) = 6.02815 6.52843 6.28327
#
# Compressibility (1/GPa) = 0.02582167
#
# Stress axis : x y z
#
# Youngs Moduli (GPa) = 71.49347 45.97268 53.49913
#
# Poissons Ratio (x) = 0.25365 0.38965
# Poissons Ratio (y) = 0.39446 0.08047
# Poissons Ratio (z) = 0.52070 0.06915
#
# Static dielectric constant tensor:
#      x y z
#    x 3.500670 0.000000 0.183220 
#    y 0.000000 3.952140 0.000000 
#    z 0.183220 0.000000 3.442410 
# 
# 
# High freq. dielectric constant tensor:
#      x y z
#    x 1.711860 0.000000 0.008930 
#    y 0.000000 1.748180 0.000000 
#    z 0.008930 0.000000 1.725870 
# 
# From -- ./inp_files/96284.got.cif
#   From: 2010.06.25/outbox.cif.g09.slc.cpg/sg12_49_cif.got.tgz:96284.got - 2010.06.28 00:19:55.
