data_PCOD8086724
_publ_section_title
;
Structure prediction by ZEFSAII (Michael W. Deem and Ramdas Pophale) SiO2 
 PCOD8086724
Probable space group: C 2/M
;
_chemical_formula_sum "Si O2"
_cell_formula_units_Z 56
_cell_length_a 34.867027
_cell_length_b 9.015645
_cell_length_c 23.285418
_cell_angle_alpha 90.000000
_cell_angle_beta 157.182406
_cell_angle_gamma 90.000000
_cell_volume 2838.585953
_symmetry_space_group_name_H-M "C 2/M"
_symmetry_group_IT_number 12
_symmetry_cell_setting 'monoclinic'
loop_
_space_group_symop_operation_xyz
x,y,z
-x,y,-z
-x,-y,-z
x,-y,z
1/2+x,1/2+y,z
1/2-x,1/2+y,-z
1/2-x,1/2-y,-z
1/2+x,1/2-y,z
loop_
_atom_site_type_symbol
_atom_site_label
_atom_site_fract_x
_atom_site_fract_y
_atom_site_fract_z
Si Si1 0.399119 0.830944 0.424390
Si Si2 0.198182 0.173813 0.808221
Si Si3 0.600181 0.170199 0.769207
Si Si4 0.503677 0.326438 0.271744
Si Si5 0.594137 0.825147 0.962390
Si Si6 0.804940 0.829449 0.395834
Si Si7 0.587501 0.173109 0.083077
O O1 0.389194 0.735680 0.352880
O O2 0.508399 0.815108 0.599638
O O3 0.321710 0.773058 0.364279
O O4 0.373730 0.000000 0.374054
O O5 0.190885 0.248958 0.861470
O O6 0.184479 0.000000 0.797165
O O7 0.301405 0.217501 0.921631
O O8 0.574579 0.249325 0.793583
O O9 0.627512 0.000000 0.820518
O O10 0.481222 0.500000 0.240450
O O11 0.491155 0.257706 0.191326
O O12 0.617254 0.292719 0.446480
O O13 0.575606 0.000000 0.934028
O O14 0.589606 0.763076 0.021152
O O15 0.692161 0.798505 0.260024
O O16 0.816867 0.000000 0.391955
O O17 0.565981 0.000000 0.047874
O O18 0.500000 0.248307 0.000000
#
# Coordination Sequence:
#
# PCOD8086724 Si02
#       7
#     8   8   8   8   8   8   8
#     4  10  19  31  50  77 109 144 182 226 276 322
#     4  11  21  33  51  76 108 146 188 231 273 318
#     4  10  21  35  51  76 109 146 188 230 270 319
#     4  10  21  36  56  79 110 150 186 224 270 321
#     4  10  21  37  56  80 110 144 182 226 273 326
#     4   9  17  34  57  82 109 141 184 225 267 322
#     4   9  17  34  62  89 109 136 179 226 271 325
#
# _framework density 19.728134000000001
#
# number of rings (size 3 to 8) (size 9 to 14) (size 15 to 20)
#    0.000    2.143    1.429    2.143    0.000    5.714 
#    0.000    0.714    0.000    1.714    0.000    0.000 
#    0.000    0.000    0.000    0.000    0.000    0.000 
#
# Total GULP energy -347183.042678 kJ/mol
# GULP energy per Si atom -12399.394381 kJ/mol
# Density = 1.968323 g / cm^3
# Si number density = 19.728134 Si / 1000 Ang^3
#
#
#
# Elastic Constant Matrix: (Units=GPa)
#
#
# Indices 1 2 3 4 5 6 
#
# 1 120.8481 38.2453 61.0267 0.0000 8.6776 0.0000
# 2 38.2453 65.1955 29.2100 0.0000 -0.4634 0.0000
# 3 61.0267 29.2100 64.2308 0.0000 -5.2564 0.0000
# 4 0.0000 0.0000 0.0000 22.3125 0.0000 -7.9925
# 5 8.6776 -0.4634 -5.2564 0.0000 32.6241 0.0000
# 6 0.0000 0.0000 0.0000 -7.9925 0.0000 21.5267
#
#
#
# Elastic Compliance Matrix: (Units=1/GPa)
#
#
# Indices 1 2 3 4 5 6 
#
# 1 0.018099 -0.003380 -0.016271 0.000000 -0.007484 0.000000
# 2 -0.003380 0.019938 -0.005835 0.000000 0.000242 0.000000
# 3 -0.016271 -0.005835 0.034484 0.000000 0.009801 0.000000
# 4 0.000000 0.000000 0.000000 0.051693 0.000000 0.019193
# 5 -0.007484 0.000242 0.009801 0.000000 0.034225 0.000000
# 6 0.000000 0.000000 0.000000 0.019193 0.000000 0.053580
#
#
# Mechanical properties :
#
#
# Convention : Reuss Voigt Hill
#
# Bulk Modulus (GPa) = 46.41059 56.35981 51.38520
# Shear Modulus (GPa) = 18.50659 23.41215 20.95937
#
# Velocity S-wave (km/s) = 3.06613 3.44865 3.26300
# Velocity P-wave (km/s) = 6.00925 6.66992 6.34818
#
# Compressibility (1/GPa) = 0.02154681
#
# Stress axis : x y z
#
# Youngs Moduli (GPa) = 55.25289 50.15626 28.99899
#
# Poissons Ratio (x) = 0.16954 0.47184
# Poissons Ratio (y) = 0.18677 0.16922
# Poissons Ratio (z) = 0.89902 0.29269
#
# Static dielectric constant tensor:
#      x y z
#    x 3.639880 0.000000 -0.034450 
#    y 0.000000 3.469250 0.000000 
#    z -0.034450 0.000000 3.644740 
# 
# 
# High freq. dielectric constant tensor:
#      x y z
#    x 1.750990 0.000000 -0.008540 
#    y 0.000000 1.755160 0.000000 
#    z -0.008540 0.000000 1.773140 
# 
# From -- ./inp_files/320233.got.cif
#   From: 2010.06.25/outbox.cif.g09.slc.cpg/sg12_161_cif.got.tgz:320233.got - 2010.06.28 00:19:55.
