data_PCOD8086453
_publ_section_title
;
Structure prediction by ZEFSAII (Michael W. Deem and Ramdas Pophale) SiO2 
 PCOD8086453
Probable space group: C 2/M
;
_chemical_formula_sum "Si O2"
_cell_formula_units_Z 64
_cell_length_a 21.263701
_cell_length_b 17.653990
_cell_length_c 24.019418
_cell_angle_alpha 90.000000
_cell_angle_beta 155.716388
_cell_angle_gamma 90.000000
_cell_volume 3708.121768
_symmetry_space_group_name_H-M "C 2/M"
_symmetry_group_IT_number 12
_symmetry_cell_setting 'monoclinic'
loop_
_space_group_symop_operation_xyz
x,y,z
-x,y,-z
-x,-y,-z
x,-y,z
1/2+x,1/2+y,z
1/2-x,1/2+y,-z
1/2-x,1/2-y,-z
1/2+x,1/2-y,z
loop_
_atom_site_type_symbol
_atom_site_label
_atom_site_fract_x
_atom_site_fract_y
_atom_site_fract_z
Si Si1 0.721652 0.148414 0.146435
Si Si2 0.172328 0.084840 0.379834
Si Si3 0.517968 0.287210 0.820235
Si Si4 0.072801 0.585026 0.130190
Si Si5 0.988789 0.413729 0.690198
Si Si6 0.654041 0.135093 0.312816
Si Si7 0.790128 0.720024 0.122756
Si Si8 0.049854 0.084772 0.400920
O O1 0.649763 0.146339 0.150533
O O2 0.745663 0.233295 0.142245
O O3 0.879950 0.105326 0.280096
O O4 0.608224 0.104333 0.012626
O O5 0.345733 0.108642 0.535366
O O6 0.066008 0.089310 0.347977
O O7 0.096454 0.141434 0.274433
O O8 0.171171 0.000000 0.353860
O O9 0.413464 0.217297 0.753555
O O10 0.598136 0.271041 0.825441
O O11 0.641687 0.303706 0.967742
O O12 0.096305 0.500000 0.125646
O O13 0.144044 0.587599 0.248489
O O14 0.041519 0.500000 0.721076
O O15 0.127096 0.356385 0.789466
O O16 0.939857 0.408145 0.715114
O O17 0.831604 0.141732 0.473492
O O18 0.087981 0.000000 0.452506
#
# Coordination Sequence:
#
# PCOD8086453 Si02
#       8
#     8   8   8   8   8   8   8   8
#     4  11  21  35  49  73  97 137 179 212 246 296
#     4   9  18  31  50  76 105 135 167 203 257 314
#     4  10  19  33  48  75 103 135 171 206 259 304
#     4  11  22  37  53  70 102 144 177 211 251 290
#     4   9  19  33  52  79 107 133 165 208 260 309
#     4  10  20  33  52  74 107 138 170 207 251 301
#     4  10  20  32  50  74 103 133 170 216 252 303
#     4  10  19  31  49  74 101 133 174 212 247 297
#
# _framework density 17.259411
#
# number of rings (size 3 to 8) (size 9 to 14) (size 15 to 20)
#    0.000    2.000    2.500    3.375    1.750    2.500 
#    0.000    1.250    0.000    0.000    0.000    2.625 
#    0.000    2.000    0.000    0.000    0.000    0.000 
#
# Total GULP energy -396752.529078 kJ/mol
# GULP energy per Si atom -12398.516534 kJ/mol
# Density = 1.722013 g / cm^3
# Si number density = 17.259411 Si / 1000 Ang^3
#
#
#
# Elastic Constant Matrix: (Units=GPa)
#
#
# Indices 1 2 3 4 5 6 
#
# 1 50.5555 32.5831 26.6521 0.0005 0.4750 0.0052
# 2 32.5831 114.4425 63.5791 0.0236 1.1877 0.0011
# 3 26.6521 63.5791 104.7277 0.0365 9.0759 0.0046
# 4 0.0005 0.0236 0.0365 34.9454 0.0043 1.5118
# 5 0.4750 1.1877 9.0759 0.0043 20.9896 -0.0004
# 6 0.0052 0.0011 0.0046 1.5118 -0.0004 21.4447
#
#
#
# Elastic Compliance Matrix: (Units=1/GPa)
#
#
# Indices 1 2 3 4 5 6 
#
# 1 0.024885 -0.005318 -0.003202 0.000007 0.001122 -0.000006
# 2 -0.005318 0.014484 -0.007666 -0.000002 0.002616 0.000002
# 3 -0.003202 -0.007666 0.015557 -0.000010 -0.006220 -0.000002
# 4 0.000007 -0.000002 -0.000010 0.028704 -0.000002 -0.002024
# 5 0.001122 0.002616 -0.006220 -0.000002 0.050159 0.000002
# 6 -0.000006 0.000002 -0.000002 -0.002024 0.000002 0.046774
#
#
# Mechanical properties :
#
#
# Convention : Reuss Voigt Hill
#
# Bulk Modulus (GPa) = 44.33907 57.26160 50.80033
# Shear Modulus (GPa) = 22.68060 25.27004 23.97532
#
# Velocity S-wave (km/s) = 3.62899 3.83055 3.73113
# Velocity P-wave (km/s) = 6.58065 7.26727 6.93246
#
# Compressibility (1/GPa) = 0.02255347
#
# Stress axis : x y z
#
# Youngs Moduli (GPa) = 40.18479 69.04122 64.28099
#
# Poissons Ratio (x) = 0.36716 0.20581
# Poissons Ratio (y) = 0.21370 0.49281
# Poissons Ratio (z) = 0.12866 0.52930
#
# Static dielectric constant tensor:
#      x y z
#    x 2.821380 0.000000 0.019770 
#    y 0.000000 3.216510 -0.000060 
#    z 0.019770 -0.000060 3.332490 
# 
# 
# High freq. dielectric constant tensor:
#      x y z
#    x 1.618850 0.000000 -0.002510 
#    y 0.000000 1.660430 0.000000 
#    z -0.002510 0.000000 1.683540 
# 
# From -- ./inp_files/368249.got.cif
#   From: 2010.06.25/outbox.cif.g09.slc.cpg/sg12_185_cif.got.tgz:368249.got - 2010.06.28 00:19:55.
