data_PCOD8086465
_publ_section_title
;
Structure prediction by ZEFSAII (Michael W. Deem and Ramdas Pophale) SiO2 
 PCOD8086465
Probable space group: C 2/M
;
_chemical_formula_sum "Si O2"
_cell_formula_units_Z 56
_cell_length_a 18.160199
_cell_length_b 9.072070
_cell_length_c 25.422977
_cell_angle_alpha 90.000000
_cell_angle_beta 45.465750
_cell_angle_gamma 90.000000
_cell_volume 2985.658854
_symmetry_space_group_name_H-M "C 2/M"
_symmetry_group_IT_number 12
_symmetry_cell_setting 'monoclinic'
loop_
_space_group_symop_operation_xyz
x,y,z
-x,y,-z
-x,-y,-z
x,-y,z
1/2+x,1/2+y,z
1/2-x,1/2+y,-z
1/2-x,1/2-y,-z
1/2+x,1/2-y,z
loop_
_atom_site_type_symbol
_atom_site_label
_atom_site_fract_x
_atom_site_fract_y
_atom_site_fract_z
Si Si1 0.407248 0.166389 0.432258
Si Si2 0.392712 0.672765 0.278665
Si Si3 0.260672 0.333912 0.575138
Si Si4 0.766587 0.173608 0.150994
Si Si5 0.556940 0.672990 0.285055
Si Si6 0.550982 0.325354 0.865020
Si Si7 0.823805 0.826173 0.004308
O O1 0.363517 0.246678 0.506152
O O2 0.320311 0.167001 0.431470
O O3 0.507262 0.253364 0.361573
O O4 0.439096 0.000000 0.431031
O O5 0.368208 0.500000 0.291132
O O6 0.289447 0.755068 0.349327
O O7 0.489291 0.710094 0.267593
O O8 0.420256 0.733814 0.207234
O O9 0.291666 0.500000 0.574881
O O10 0.669285 0.261287 0.220958
O O11 0.864802 0.228255 0.135199
O O12 0.786599 0.216716 0.080887
O O13 0.747093 0.000000 0.167607
O O14 0.564157 0.500000 0.291438
O O15 0.546369 0.500000 0.866395
O O16 0.439435 0.263914 0.938076
O O17 0.819974 0.000000 0.996920
O O18 0.750000 0.750000 0.000000
#
# Coordination Sequence:
#
# PCOD8086465 Si02
#       7
#     8   8   8   8   8   8   8
#     4   9  16  27  45  70 100 133 170 208 248 298
#     4   9  17  30  49  71  97 132 171 208 249 300
#     4   9  16  26  43  70 102 131 163 208 258 300
#     4  10  20  34  53  75 100 133 172 209 247 297
#     4  10  19  31  49  74 104 134 166 208 257 302
#     4   9  18  34  54  74  99 134 173 208 245 296
#     4  10  20  35  56  80 104 131 166 209 254 298
#
# _framework density 18.756329999999998
#
# number of rings (size 3 to 8) (size 9 to 14) (size 15 to 20)
#    0.000    2.571    0.000    2.571    0.000    7.429 
#    0.000    2.143    0.000    2.571    0.000    6.000 
#    0.000    0.000    0.000    0.000    0.000    0.000 
#
# Total GULP energy -347233.843541 kJ/mol
# GULP energy per Si atom -12401.208698 kJ/mol
# Density = 1.871364 g / cm^3
# Si number density = 18.756330 Si / 1000 Ang^3
#
#
#
# Elastic Constant Matrix: (Units=GPa)
#
#
# Indices 1 2 3 4 5 6 
#
# 1 84.1862 33.6150 61.0207 0.0000 -16.9633 0.0002
# 2 33.6150 79.1602 65.3078 0.0001 -13.1254 0.0002
# 3 61.0207 65.3078 182.1806 0.0000 -21.2003 0.0000
# 4 0.0000 0.0001 0.0000 26.6260 0.0000 -2.5456
# 5 -16.9633 -13.1254 -21.2003 0.0000 9.0999 0.0000
# 6 0.0002 0.0002 0.0000 -2.5456 0.0000 19.7112
#
#
#
# Elastic Compliance Matrix: (Units=1/GPa)
#
#
# Indices 1 2 3 4 5 6 
#
# 1 0.020475 -0.001411 -0.002946 0.000000 0.029269 0.000000
# 2 -0.001411 0.019649 -0.004910 0.000000 0.014271 0.000000
# 3 -0.002946 -0.004910 0.009292 0.000000 0.009073 0.000000
# 4 0.000000 0.000000 0.000000 0.038027 0.000000 0.004911
# 5 0.029269 0.014271 0.009073 0.000000 0.206176 -0.000001
# 6 0.000000 0.000000 0.000000 0.004911 -0.000001 0.051367
#
#
# Mechanical properties :
#
#
# Convention : Reuss Voigt Hill
#
# Bulk Modulus (GPa) = 32.38238 73.93488 53.15863
# Shear Modulus (GPa) = 13.37563 23.45965 18.41764
#
# Velocity S-wave (km/s) = 2.67334 3.54044 3.13700
# Velocity P-wave (km/s) = 5.17989 7.49781 6.44393
#
# Compressibility (1/GPa) = 0.03088099
#
# Stress axis : x y z
#
# Youngs Moduli (GPa) = 48.84022 50.89259 107.61923
#
# Poissons Ratio (x) = 0.07180 0.31707
# Poissons Ratio (y) = 0.06891 0.52846
# Poissons Ratio (z) = 0.14389 0.24991
#
# Static dielectric constant tensor:
#      x y z
#    x 3.176490 0.000000 0.050210 
#    y 0.000000 3.356080 0.000000 
#    z 0.050210 0.000000 3.690600 
# 
# 
# High freq. dielectric constant tensor:
#      x y z
#    x 1.695820 0.000000 0.001890 
#    y 0.000000 1.715630 0.000000 
#    z 0.001890 0.000000 1.748590 
# 
# From -- ./inp_files/362889.got.cif
#   From: 2010.06.25/outbox.cif.g09.slc.cpg/sg12_182_cif.got.tgz:362889.got - 2010.06.28 00:19:55.
