data_PCOD8086002
_publ_section_title
;
Structure prediction by ZEFSAII (Michael W. Deem and Ramdas Pophale) SiO2 
 PCOD8086002
Probable space group: C 2/M
;
_chemical_formula_sum "Si O2"
_cell_formula_units_Z 64
_cell_length_a 30.133576
_cell_length_b 9.364976
_cell_length_c 30.778944
_cell_angle_alpha 90.000000
_cell_angle_beta 151.491892
_cell_angle_gamma 90.000000
_cell_volume 4145.597470
_symmetry_space_group_name_H-M "C 2/M"
_symmetry_group_IT_number 12
_symmetry_cell_setting 'monoclinic'
loop_
_space_group_symop_operation_xyz
x,y,z
-x,y,-z
-x,-y,-z
x,-y,z
1/2+x,1/2+y,z
1/2-x,1/2+y,-z
1/2-x,1/2-y,-z
1/2+x,1/2-y,z
loop_
_atom_site_type_symbol
_atom_site_label
_atom_site_fract_x
_atom_site_fract_y
_atom_site_fract_z
Si Si1 0.786125 0.663758 0.593007
Si Si2 0.612898 0.664794 0.391719
Si Si3 0.909376 0.834807 0.201697
Si Si4 0.409886 0.668718 0.866166
Si Si5 0.893671 0.332914 0.768902
Si Si6 0.735411 0.666373 0.084486
Si Si7 0.382308 0.668328 0.937809
Si Si8 0.065328 0.166073 0.876265
O O1 0.804394 0.500000 0.596707
O O2 0.679097 0.705953 0.489538
O O3 0.857785 0.752586 0.626120
O O4 0.807440 0.692282 0.661831
O O5 0.623069 0.500000 0.388014
O O6 0.505513 0.698866 0.310038
O O7 0.830643 0.745573 0.157319
O O8 0.921253 0.788346 0.161949
O O9 0.881673 0.000000 0.180674
O O10 0.402912 0.500000 0.850684
O O11 0.362150 0.757156 0.786420
O O12 0.358850 0.709100 0.867731
O O13 0.516135 0.723522 0.960769
O O14 0.912430 0.500000 0.792748
O O15 0.986567 0.262102 0.830113
O O16 0.758111 0.500000 0.107566
O O17 0.695094 0.727284 0.095566
O O18 0.662317 0.697228 0.983498
O O19 0.388115 0.500000 0.947308
O O20 0.036610 0.000000 0.856291
#
# Coordination Sequence:
#
# PCOD8086002 Si02
#       8
#     8   8   8   8   8   8   8   8
#     4   9  18  30  45  66  91 117 147 185 229 268
#     4   9  17  31  48  64  86 118 153 188 222 264
#     4  10  20  31  45  66  90 120 157 189 221 259
#     4   9  16  30  50  66  87 117 152 185 221 273
#     4  11  20  28  43  70  98 120 145 183 230 270
#     4  10  19  31  47  65  89 121 155 187 222 260
#     4   8  15  29  49  68  84 114 155 190 219 262
#     4  10  19  32  46  62  89 126 162 185 207 259
#
# _framework density 15.438065
#
# number of rings (size 3 to 8) (size 9 to 14) (size 15 to 20)
#    0.000    2.500    2.500    1.500    0.000    2.000 
#    0.000    1.875    0.000    0.000    0.000    0.875 
#    0.000    7.000    0.000    0.000    0.000    0.000 
#
# Total GULP energy -396672.616711 kJ/mol
# GULP energy per Si atom -12396.019272 kJ/mol
# Density = 1.540293 g / cm^3
# Si number density = 15.438065 Si / 1000 Ang^3
#
#
#
# Elastic Constant Matrix: (Units=GPa)
#
#
# Indices 1 2 3 4 5 6 
#
# 1 98.4094 38.1017 53.9332 0.0000 -8.4123 0.0000
# 2 38.1017 49.1782 39.3000 0.0000 -4.8039 0.0000
# 3 53.9332 39.3000 91.9685 0.0000 -6.9125 0.0000
# 4 0.0000 0.0000 0.0000 20.3676 0.0000 0.7722
# 5 -8.4123 -4.8039 -6.9125 0.0000 20.3422 0.0000
# 6 0.0000 0.0000 0.0000 0.7722 0.0000 24.2117
#
#
#
# Elastic Compliance Matrix: (Units=1/GPa)
#
#
# Indices 1 2 3 4 5 6 
#
# 1 0.016903 -0.007686 -0.006402 0.000000 0.002999 0.000000
# 2 -0.007686 0.034540 -0.010137 0.000000 0.001533 0.000000
# 3 -0.006402 -0.010137 0.019068 0.000000 0.001438 0.000000
# 4 0.000000 0.000000 0.000000 0.049157 0.000000 -0.001568
# 5 0.002999 0.001533 0.001438 0.000000 0.051250 0.000000
# 6 0.000000 0.000000 0.000000 -0.001568 0.000000 0.041352
#
#
# Mechanical properties :
#
#
# Convention : Reuss Voigt Hill
#
# Bulk Modulus (GPa) = 45.33270 55.80289 50.56779
# Shear Modulus (GPa) = 18.65158 20.19903 19.42530
#
# Velocity S-wave (km/s) = 3.47962 3.62109 3.55106
# Velocity P-wave (km/s) = 6.75068 7.32856 7.04555
#
# Compressibility (1/GPa) = 0.02205913
#
# Stress axis : x y z
#
# Youngs Moduli (GPa) = 59.16176 28.95202 52.44512
#
# Poissons Ratio (x) = 0.22254 0.33577
# Poissons Ratio (y) = 0.45474 0.53162
# Poissons Ratio (z) = 0.37877 0.29348
#
# Static dielectric constant tensor:
#      x y z
#    x 3.047500 0.000000 -0.162880 
#    y 0.000000 2.866780 0.000000 
#    z -0.162880 0.000000 3.088690 
# 
# 
# High freq. dielectric constant tensor:
#      x y z
#    x 1.574450 0.000000 -0.013120 
#    y 0.000000 1.583710 0.000000 
#    z -0.013120 0.000000 1.583750 
# 
# From -- ./inp_files/248266.got.cif
#   From: 2010.06.25/outbox.cif.g09.slc.cpg/sg12_125_cif.got.tgz:248266.got - 2010.06.28 00:19:55.
