data_PCOD8086734
_publ_section_title
;
Structure prediction by ZEFSAII (Michael W. Deem and Ramdas Pophale) SiO2 
 PCOD8086734
Probable space group: C 2/M
;
_chemical_formula_sum "Si O2"
_cell_formula_units_Z 64
_cell_length_a 23.057438
_cell_length_b 8.995715
_cell_length_c 17.239599
_cell_angle_alpha 90.000000
_cell_angle_beta 76.857741
_cell_angle_gamma 90.000000
_cell_volume 3482.149983
_symmetry_space_group_name_H-M "C 2/M"
_symmetry_group_IT_number 12
_symmetry_cell_setting 'monoclinic'
loop_
_space_group_symop_operation_xyz
x,y,z
-x,y,-z
-x,-y,-z
x,-y,z
1/2+x,1/2+y,z
1/2-x,1/2+y,-z
1/2-x,1/2-y,-z
1/2+x,1/2-y,z
loop_
_atom_site_type_symbol
_atom_site_label
_atom_site_fract_x
_atom_site_fract_y
_atom_site_fract_z
Si Si1 0.964541 0.824648 0.777126
Si Si2 0.315918 0.673542 0.400945
Si Si3 0.133092 0.176314 0.309645
Si Si4 0.379002 0.675833 0.936905
Si Si5 0.179201 0.325848 0.443234
Si Si6 0.220168 0.175606 0.150545
Si Si7 0.597354 0.324500 0.762866
Si Si8 0.646162 0.823168 0.898568
O O1 0.928192 0.768757 0.712618
O O2 0.933647 0.770035 0.866167
O O3 0.032696 0.772362 0.751846
O O4 0.958979 0.000000 0.779001
O O5 0.323108 0.500000 0.416411
O O6 0.247676 0.716568 0.404491
O O7 0.340208 0.761444 0.467891
O O8 0.354298 0.723263 0.315477
O O9 0.137202 0.254522 0.391183
O O10 0.187893 0.230858 0.238834
O O11 0.134353 0.000000 0.321435
O O12 0.380913 0.500000 0.952396
O O13 0.317413 0.723980 0.913593
O O14 0.385470 0.763481 0.014861
O O15 0.168757 0.500000 0.447237
O O16 0.286522 0.242085 0.125875
O O17 0.222739 0.000000 0.152558
O O18 0.599142 0.500000 0.778937
O O19 0.609455 0.236856 0.837457
O O20 0.645358 0.000000 0.898525
#
# Coordination Sequence:
#
# PCOD8086734 Si02
#       8
#     8   8   8   8   8   8   8   8
#     4   8  17  34  55  73  91 123 168 210 240 273
#     4   9  19  34  52  74 100 129 160 195 235 282
#     4   9  16  31  54  75  95 125 164 201 239 283
#     4   9  17  33  53  71  93 126 166 203 240 282
#     4  10  19  31  50  78 106 128 153 189 238 293
#     4   8  16  30  49  72  99 128 159 198 242 288
#     4  10  20  36  54  71  93 125 167 207 239 277
#     4  11  21  31  46  73 103 129 158 196 247 297
#
# _framework density 18.379449000000001
#
# number of rings (size 3 to 8) (size 9 to 14) (size 15 to 20)
#    0.000    2.750    0.000    3.375    0.000    1.500 
#    0.000    8.125    0.000    3.750    0.000    0.000 
#    0.000    0.000    0.000    0.000    0.000    0.000 
#
# Total GULP energy -396774.796920 kJ/mol
# GULP energy per Si atom -12399.212404 kJ/mol
# Density = 1.833762 g / cm^3
# Si number density = 18.379449 Si / 1000 Ang^3
#
#
#
# Elastic Constant Matrix: (Units=GPa)
#
#
# Indices 1 2 3 4 5 6 
#
# 1 86.5378 26.3567 45.4991 0.0000 11.5167 0.0000
# 2 26.3567 44.7136 39.6040 0.0000 12.1840 0.0000
# 3 45.4991 39.6040 115.8510 0.0000 29.4261 0.0000
# 4 0.0000 0.0000 0.0000 23.1424 0.0000 2.0417
# 5 11.5167 12.1840 29.4261 0.0000 24.7619 0.0000
# 6 0.0000 0.0000 0.0000 2.0417 0.0000 19.3148
#
#
#
# Elastic Compliance Matrix: (Units=1/GPa)
#
#
# Indices 1 2 3 4 5 6 
#
# 1 0.015411 -0.005388 -0.004388 0.000000 0.000698 0.000000
# 2 -0.005388 0.034232 -0.008515 0.000000 -0.004219 0.000000
# 3 -0.004388 -0.008515 0.016734 0.000000 -0.013656 0.000000
# 4 0.000000 0.000000 0.000000 0.043617 0.000000 -0.004611
# 5 0.000698 -0.004219 -0.013656 0.000000 0.058365 0.000000
# 6 0.000000 0.000000 0.000000 -0.004611 0.000000 0.052261
#
#
# Mechanical properties :
#
#
# Convention : Reuss Voigt Hill
#
# Bulk Modulus (GPa) = 33.56073 52.22468 42.89270
# Shear Modulus (GPa) = 18.71731 22.48666 20.60199
#
# Velocity S-wave (km/s) = 3.19467 3.50161 3.35165
# Velocity P-wave (km/s) = 5.64867 6.69513 6.19404
#
# Compressibility (1/GPa) = 0.02979673
#
# Stress axis : x y z
#
# Youngs Moduli (GPa) = 64.89011 29.21278 59.75692
#
# Poissons Ratio (x) = 0.15739 0.26220
# Poissons Ratio (y) = 0.34960 0.50880
# Poissons Ratio (z) = 0.28473 0.24873
#
# Static dielectric constant tensor:
#      x y z
#    x 3.641310 0.000000 -0.021940 
#    y 0.000000 3.040130 0.000000 
#    z -0.021940 0.000000 3.377170 
# 
# 
# High freq. dielectric constant tensor:
#      x y z
#    x 1.707470 0.000000 0.007200 
#    y 0.000000 1.684930 0.000000 
#    z 0.007200 0.000000 1.716430 
# 
# From -- ./inp_files/287590.got.cif
#   From: 2010.06.25/outbox.cif.g09.slc.cpg/sg12_144_cif.got.tgz:287590.got - 2010.06.28 00:19:55.
