data_PCOD8086130
_publ_section_title
;
Structure prediction by ZEFSAII (Michael W. Deem and Ramdas Pophale) SiO2 
 PCOD8086130
Probable space group: C 2/M
;
_chemical_formula_sum "Si O2"
_cell_formula_units_Z 64
_cell_length_a 23.018834
_cell_length_b 17.957481
_cell_length_c 11.872477
_cell_angle_alpha 90.000000
_cell_angle_beta 48.610394
_cell_angle_gamma 90.000000
_cell_volume 3681.841545
_symmetry_space_group_name_H-M "C 2/M"
_symmetry_group_IT_number 12
_symmetry_cell_setting 'monoclinic'
loop_
_space_group_symop_operation_xyz
x,y,z
-x,y,-z
-x,-y,-z
x,-y,z
1/2+x,1/2+y,z
1/2-x,1/2+y,-z
1/2-x,1/2-y,-z
1/2+x,1/2-y,z
loop_
_atom_site_type_symbol
_atom_site_label
_atom_site_fract_x
_atom_site_fract_y
_atom_site_fract_z
Si Si1 0.338261 0.670720 0.256667
Si Si2 0.385001 0.662823 0.940399
Si Si3 0.472916 0.583870 0.163538
Si Si4 0.913828 0.680175 0.135768
Si Si5 0.889814 0.664928 0.916669
Si Si6 0.454400 0.085753 0.291546
Si Si7 0.265456 0.086812 0.925610
Si Si8 0.696113 0.914615 0.378807
O O1 0.389655 0.623552 0.278287
O O2 0.354568 0.757851 0.260584
O O3 0.249614 0.642893 0.381869
O O4 0.361256 0.654940 0.099696
O O5 0.468945 0.624421 0.823870
O O6 0.390100 0.747242 0.891503
O O7 0.321389 0.618624 0.949187
O O8 0.464157 0.500000 0.217198
O O9 0.500000 0.587359 0.000000
O O10 0.920317 0.613877 0.216411
O O11 0.881080 0.647699 0.060951
O O12 0.000000 0.715648 0.000000
O O13 0.817371 0.627994 0.950112
O O14 0.969833 0.630874 0.767552
O O15 0.391719 0.097097 0.469797
O O16 0.477050 0.000000 0.247115
O O17 0.300572 0.103388 0.757629
O O18 0.264051 0.000000 0.954851
O O19 0.723673 0.000000 0.365692
#
# Coordination Sequence:
#
# PCOD8086130 Si02
#       8
#     8   8   8   8   8   8   8   8
#     4   9  15  27  45  65  91 121 149 181 224 271
#     4   9  17  29  43  64  94 119 144 185 230 267
#     4   9  14  21  39  65  90 118 150 181 220 271
#     4   9  18  31  47  68  91 117 151 191 231 265
#     4  10  19  31  48  66  88 121 156 186 223 267
#     4  10  20  33  47  65  92 123 153 188 225 261
#     4  10  19  31  48  69  92 119 150 184 225 272
#     4   9  19  32  45  66  96 124 149 182 224 267
#
# _framework density 17.382605000000002
#
# number of rings (size 3 to 8) (size 9 to 14) (size 15 to 20)
#    0.000    2.625    0.000    4.125    0.000    6.750 
#    0.000    1.875    0.000    0.000    0.000    0.000 
#    0.000    0.000    0.000   20.750    0.000    5.875 
#
# Total GULP energy -396706.014764 kJ/mol
# GULP energy per Si atom -12397.062961 kJ/mol
# Density = 1.734304 g / cm^3
# Si number density = 17.382605 Si / 1000 Ang^3
#
#
#
# Elastic Constant Matrix: (Units=GPa)
#
#
# Indices 1 2 3 4 5 6 
#
# 1 139.4206 70.9269 24.6561 0.0000 -12.7966 0.0000
# 2 70.9269 117.2651 25.0207 0.0000 -9.9768 0.0000
# 3 24.6561 25.0207 25.7504 0.0000 -5.5148 0.0000
# 4 0.0000 0.0000 0.0000 18.2995 0.0000 -5.5538
# 5 -12.7966 -9.9768 -5.5148 0.0000 16.6594 0.0000
# 6 0.0000 0.0000 0.0000 -5.5538 0.0000 36.4159
#
#
#
# Elastic Compliance Matrix: (Units=1/GPa)
#
#
# Indices 1 2 3 4 5 6 
#
# 1 0.011072 -0.005408 -0.004541 0.000000 0.003763 0.000000
# 2 -0.005408 0.013561 -0.007695 0.000000 0.001420 0.000000
# 3 -0.004541 -0.007695 0.052658 0.000000 0.009335 0.000000
# 4 0.000000 0.000000 0.000000 0.057299 0.000000 0.008739
# 5 0.003763 0.001420 0.009335 0.000000 0.066857 0.000000
# 6 0.000000 0.000000 0.000000 0.008739 0.000000 0.028793
#
#
# Mechanical properties :
#
#
# Convention : Reuss Voigt Hill
#
# Bulk Modulus (GPa) = 23.80704 58.18260 40.99482
# Shear Modulus (GPa) = 17.88719 25.06379 21.47549
#
# Velocity S-wave (km/s) = 3.21133 3.80134 3.51872
# Velocity P-wave (km/s) = 5.24174 7.26714 6.33589
#
# Compressibility (1/GPa) = 0.04200439
#
# Stress axis : x y z
#
# Youngs Moduli (GPa) = 90.31718 73.73979 18.99034
#
# Poissons Ratio (x) = 0.39877 0.08624
# Poissons Ratio (y) = 0.48842 0.14613
# Poissons Ratio (z) = 0.41014 0.56741
#
# Static dielectric constant tensor:
#      x y z
#    x 3.362480 0.000000 -0.204730 
#    y 0.000000 3.320130 0.000000 
#    z -0.204730 0.000000 2.850250 
# 
# 
# High freq. dielectric constant tensor:
#      x y z
#    x 1.677470 0.000000 -0.019110 
#    y 0.000000 1.681170 0.000000 
#    z -0.019110 0.000000 1.617640 
# 
# From -- ./inp_files/177106.got.cif
#   From: 2010.06.25/outbox.cif.g09.slc.cpg/sg12_89_cif.got.tgz:177106.got - 2010.06.28 00:19:55.
