data_PCOD8086464
_publ_section_title
;
Structure prediction by ZEFSAII (Michael W. Deem and Ramdas Pophale) SiO2 
 PCOD8086464
Probable space group: C 2/M
;
_chemical_formula_sum "Si O2"
_cell_formula_units_Z 64
_cell_length_a 24.224147
_cell_length_b 8.918820
_cell_length_c 19.952691
_cell_angle_alpha 90.000000
_cell_angle_beta 122.825635
_cell_angle_gamma 90.000000
_cell_volume 3622.465137
_symmetry_space_group_name_H-M "C 2/M"
_symmetry_group_IT_number 12
_symmetry_cell_setting 'monoclinic'
loop_
_space_group_symop_operation_xyz
x,y,z
-x,y,-z
-x,-y,-z
x,-y,z
1/2+x,1/2+y,z
1/2-x,1/2+y,-z
1/2-x,1/2-y,-z
1/2+x,1/2-y,z
loop_
_atom_site_type_symbol
_atom_site_label
_atom_site_fract_x
_atom_site_fract_y
_atom_site_fract_z
Si Si1 0.626386 0.824159 0.668778
Si Si2 0.653036 0.172719 0.891983
Si Si3 0.588265 0.176566 0.360035
Si Si4 0.207951 0.324644 0.349563
Si Si5 0.843280 0.325422 0.458877
Si Si6 0.951300 0.176924 0.268392
Si Si7 0.217331 0.329488 0.065746
Si Si8 0.239749 0.328421 0.224719
O O1 0.621264 0.777722 0.587180
O O2 0.569811 0.742649 0.673491
O O3 0.696906 0.775638 0.743520
O O4 0.617171 0.000000 0.673156
O O5 0.596436 0.273172 0.822968
O O6 0.723821 0.215360 0.909300
O O7 0.638284 0.000000 0.864686
O O8 0.656397 0.200246 0.975040
O O9 0.644761 0.236704 0.347247
O O10 0.608291 0.217259 0.449144
O O11 0.523348 0.265435 0.297729
O O12 0.575800 0.000000 0.343176
O O13 0.213329 0.500000 0.365337
O O14 0.273987 0.255604 0.423338
O O15 0.199859 0.282845 0.265338
O O16 0.826776 0.500000 0.447219
O O17 0.950762 0.000000 0.272829
O O18 0.242988 0.500000 0.071532
O O19 0.194632 0.308181 0.128508
O O20 0.264324 0.500000 0.247877
#
# Coordination Sequence:
#
# PCOD8086464 Si02
#       8
#     8   8   8   8   8   8   8   8
#     4  10  19  32  50  74 101 133 166 201 251 306
#     4  10  19  31  49  74 103 135 167 201 244 300
#     4  10  21  37  53  72  99 136 174 208 248 298
#     4   9  18  32  54  79 103 131 166 207 250 293
#     4   9  19  34  54  77 102 129 164 210 255 298
#     4  12  24  36  50  70 100 136 171 212 254 301
#     4   9  17  29  49  77 107 133 162 200 244 294
#     4   9  16  29  50  78 107 131 159 202 248 292
#
# _framework density 17.667527
#
# number of rings (size 3 to 8) (size 9 to 14) (size 15 to 20)
#    0.000    2.250    1.250    2.250    0.000    2.500 
#    0.000    2.500    0.000    0.750    0.000    5.250 
#    0.000    0.000    0.000    0.000    0.000    0.000 
#
# Total GULP energy -396723.008075 kJ/mol
# GULP energy per Si atom -12397.594002 kJ/mol
# Density = 1.762731 g / cm^3
# Si number density = 17.667527 Si / 1000 Ang^3
#
#
#
# Elastic Constant Matrix: (Units=GPa)
#
#
# Indices 1 2 3 4 5 6 
#
# 1 70.9187 31.1496 41.8740 0.0000 8.0467 0.0000
# 2 31.1496 67.5775 28.8624 0.0000 5.8180 0.0000
# 3 41.8740 28.8624 98.2504 0.0000 -5.3545 0.0000
# 4 0.0000 0.0000 0.0000 23.8241 0.0000 4.3278
# 5 8.0467 5.8180 -5.3545 0.0000 23.8559 0.0000
# 6 0.0000 0.0000 0.0000 4.3278 0.0000 24.1058
#
#
#
# Elastic Compliance Matrix: (Units=1/GPa)
#
#
# Indices 1 2 3 4 5 6 
#
# 1 0.022597 -0.006212 -0.008239 0.000000 -0.007956 0.000000
# 2 -0.006212 0.019319 -0.003210 0.000000 -0.003337 0.000000
# 3 -0.008239 -0.003210 0.015010 0.000000 0.006931 0.000000
# 4 0.000000 0.000000 0.000000 0.043389 0.000000 -0.007790
# 5 -0.007956 -0.003337 0.006931 0.000000 0.046972 0.000000
# 6 0.000000 0.000000 0.000000 -0.007790 0.000000 0.042882
#
#
# Mechanical properties :
#
#
# Convention : Reuss Voigt Hill
#
# Bulk Modulus (GPa) = 46.28682 48.94651 47.61666
# Shear Modulus (GPa) = 21.48752 23.34788 22.41770
#
# Velocity S-wave (km/s) = 3.49121 3.63921 3.56598
# Velocity P-wave (km/s) = 6.51975 6.73964 6.63061
#
# Compressibility (1/GPa) = 0.02160442
#
# Stress axis : x y z
#
# Youngs Moduli (GPa) = 44.25394 51.76174 66.62072
#
# Poissons Ratio (x) = 0.32154 0.54892
# Poissons Ratio (y) = 0.27490 0.21383
# Poissons Ratio (z) = 0.36463 0.16614
#
# Static dielectric constant tensor:
#      x y z
#    x 3.244740 0.000000 -0.347360 
#    y 0.000000 3.275470 0.000000 
#    z -0.347360 0.000000 3.484630 
# 
# 
# High freq. dielectric constant tensor:
#      x y z
#    x 1.658570 0.000000 -0.024900 
#    y 0.000000 1.684840 0.000000 
#    z -0.024900 0.000000 1.685410 
# 
# From -- ./inp_files/324297.got.cif
#   From: 2010.06.25/outbox.cif.g09.slc.cpg/sg12_163_cif.got.tgz:324297.got - 2010.06.28 00:19:55.
