data_PCOD8086102
_publ_section_title
;
Structure prediction by ZEFSAII (Michael W. Deem and Ramdas Pophale) SiO2 
 PCOD8086102
Probable space group: C 2/M
;
_chemical_formula_sum "Si O2"
_cell_formula_units_Z 64
_cell_length_a 20.847563
_cell_length_b 9.433791
_cell_length_c 26.200630
_cell_angle_alpha 90.000000
_cell_angle_beta 45.297768
_cell_angle_gamma 90.000000
_cell_volume 3662.550610
_symmetry_space_group_name_H-M "C 2/M"
_symmetry_group_IT_number 12
_symmetry_cell_setting 'monoclinic'
loop_
_space_group_symop_operation_xyz
x,y,z
-x,y,-z
-x,-y,-z
x,-y,z
1/2+x,1/2+y,z
1/2-x,1/2+y,-z
1/2-x,1/2-y,-z
1/2+x,1/2-y,z
loop_
_atom_site_type_symbol
_atom_site_label
_atom_site_fract_x
_atom_site_fract_y
_atom_site_fract_z
Si Si1 0.901026 0.831315 0.542639
Si Si2 0.259603 0.331108 0.705037
Si Si3 0.179692 0.833222 0.220723
Si Si4 0.251040 0.664428 0.923182
Si Si5 0.482689 0.664773 0.300470
Si Si6 0.617500 0.837135 0.081880
Si Si7 0.663279 0.664472 0.531454
Si Si8 0.569644 0.834582 0.769698
O O1 0.831390 0.773367 0.623839
O O2 0.869103 0.777505 0.505249
O O3 0.000000 0.769617 0.500000
O O4 0.904317 0.000000 0.541517
O O5 0.261053 0.500000 0.705932
O O6 0.284773 0.265805 0.746335
O O7 0.160357 0.277135 0.745282
O O8 0.250800 0.794570 0.135709
O O9 0.080780 0.775126 0.261424
O O10 0.171651 0.000000 0.233323
O O11 0.274807 0.500000 0.915818
O O12 0.333105 0.745591 0.903305
O O13 0.155576 0.701438 0.003919
O O14 0.487659 0.500000 0.282258
O O15 0.417741 0.690387 0.384369
O O16 0.445385 0.751406 0.273853
O O17 0.510948 0.806621 0.144632
O O18 0.638814 0.000000 0.082624
O O19 0.690145 0.500000 0.513227
O O20 0.750000 0.750000 0.500000
O O21 0.577554 0.000000 0.751379
#
# Coordination Sequence:
#
# PCOD8086102 Si02
#       8
#     8   8   8   8   8   8   8   8
#     4   9  16  28  46  67  90 119 157 196 231 271
#     4   9  17  28  44  66  94 124 152 189 236 280
#     4   9  16  28  46  69  93 120 157 196 230 266
#     4   9  16  28  47  69  93 122 156 192 228 267
#     4  10  19  31  49  71  93 120 158 199 233 272
#     4   9  17  28  44  69  97 123 153 188 228 277
#     4  10  20  32  48  71  96 121 153 194 238 281
#     4  10  19  31  47  70  99 127 154 188 236 287
#
# _framework density 17.474162
#
# number of rings (size 3 to 8) (size 9 to 14) (size 15 to 20)
#    0.000    2.625    1.250    1.500    0.000    4.500 
#    0.000    0.625    0.000    5.625    0.000    0.000 
#    0.000    5.000    0.000    0.000    0.000    0.000 
#
# Total GULP energy -396703.973490 kJ/mol
# GULP energy per Si atom -12396.999172 kJ/mol
# Density = 1.743439 g / cm^3
# Si number density = 17.474162 Si / 1000 Ang^3
#
#
#
# Elastic Constant Matrix: (Units=GPa)
#
#
# Indices 1 2 3 4 5 6 
#
# 1 163.6325 31.2531 92.2678 -0.0001 5.9234 -0.0003
# 2 31.2531 24.7921 29.7129 -0.0002 1.8899 -0.0007
# 3 92.2678 29.7129 153.9503 0.0000 4.6381 0.0000
# 4 -0.0001 -0.0002 0.0000 18.5069 0.0000 0.5020
# 5 5.9234 1.8899 4.6381 0.0000 29.8718 -0.0001
# 6 -0.0003 -0.0007 0.0000 0.5020 -0.0001 20.2713
#
#
#
# Elastic Compliance Matrix: (Units=1/GPa)
#
#
# Indices 1 2 3 4 5 6 
#
# 1 0.010137 -0.007108 -0.004679 0.000000 -0.000834 0.000000
# 2 -0.007108 0.057549 -0.006812 0.000001 -0.001174 0.000002
# 3 -0.004679 -0.006812 0.010623 0.000000 -0.000291 0.000000
# 4 0.000000 0.000001 0.000000 0.054070 0.000000 -0.001339
# 5 -0.000834 -0.001174 -0.000291 0.000000 0.033761 0.000000
# 6 0.000000 0.000002 0.000000 -0.001339 0.000000 0.049364
#
#
# Mechanical properties :
#
#
# Convention : Reuss Voigt Hill
#
# Bulk Modulus (GPa) = 24.32342 72.09360 48.20851
# Shear Modulus (GPa) = 18.76836 26.33940 22.55388
#
# Velocity S-wave (km/s) = 3.28085 3.88665 3.59653
# Velocity P-wave (km/s) = 5.31994 7.84144 6.70037
#
# Compressibility (1/GPa) = 0.04111264
#
# Stress axis : x y z
#
# Youngs Moduli (GPa) = 98.64664 17.37644 94.13519
#
# Poissons Ratio (x) = 0.12352 0.44041
# Poissons Ratio (y) = 0.70121 0.64121
# Poissons Ratio (z) = 0.46152 0.11836
#
# Static dielectric constant tensor:
#      x y z
#    x 3.518440 0.000000 -0.172200 
#    y 0.000000 2.891170 0.000000 
#    z -0.172200 0.000000 3.852400 
# 
# 
# High freq. dielectric constant tensor:
#      x y z
#    x 1.667070 0.000000 0.000800 
#    y 0.000000 1.628460 0.000000 
#    z 0.000800 0.000000 1.698570 
# 
# From -- ./inp_files/276589.got.cif
#   From: 2010.06.25/outbox.cif.g09.slc.cpg/sg12_139_cif.got.tgz:276589.got - 2010.06.28 00:19:55.
