data_PCOD8086372
_publ_section_title
;
Structure prediction by ZEFSAII (Michael W. Deem and Ramdas Pophale) SiO2 
 PCOD8086372
Probable space group: C 2/M
;
_chemical_formula_sum "Si O2"
_cell_formula_units_Z 48
_cell_length_a 18.324387
_cell_length_b 9.157875
_cell_length_c 35.644964
_cell_angle_alpha 90.000000
_cell_angle_beta 154.207387
_cell_angle_gamma 90.000000
_cell_volume 2602.713844
_symmetry_space_group_name_H-M "C 2/M"
_symmetry_group_IT_number 12
_symmetry_cell_setting 'monoclinic'
loop_
_space_group_symop_operation_xyz
x,y,z
-x,y,-z
-x,-y,-z
x,-y,z
1/2+x,1/2+y,z
1/2-x,1/2+y,-z
1/2-x,1/2-y,-z
1/2+x,1/2-y,z
loop_
_atom_site_type_symbol
_atom_site_label
_atom_site_fract_x
_atom_site_fract_y
_atom_site_fract_z
Si Si1 0.880712 0.826355 0.245172
Si Si2 0.159135 0.829420 0.924239
Si Si3 0.271217 0.670899 0.754785
Si Si4 0.187708 0.673486 0.082375
Si Si5 0.411373 0.826631 0.403187
Si Si6 0.247634 0.673362 0.594447
O O1 0.775931 0.757244 0.230006
O O2 0.799797 0.771793 0.168886
O O3 0.071848 0.766831 0.334896
O O4 0.872039 0.000000 0.244963
O O5 0.232784 0.767076 0.919353
O O6 0.962731 0.795924 0.833639
O O7 0.196418 0.000000 0.945484
O O8 0.250000 0.750000 0.000000
O O9 0.239356 0.500000 0.746585
O O10 0.158619 0.733846 0.668474
O O11 0.185201 0.500000 0.080494
O O12 0.000000 0.736285 0.000000
O O13 0.299816 0.766049 0.386177
O O14 0.605099 0.777128 0.498623
O O15 0.397382 0.000000 0.396625
O O16 0.254269 0.500000 0.599801
#
# Coordination Sequence:
#
# PCOD8086372 Si02
#       6
#     8   8   8   8   8   8
#     4  10  19  31  49  72  96 124 162 201 232 271
#     4  10  20  34  52  73  96 123 156 193 235 282
#     4  10  20  32  47  70 100 129 154 187 237 289
#     4   9  17  30  49  70  91 118 154 195 234 271
#     4   8  14  27  47  70  96 124 157 198 240 279
#     4   8  14  26  47  72  93 120 162 204 235 270
#
# _framework density 18.442288999999999
#
# number of rings (size 3 to 8) (size 9 to 14) (size 15 to 20)
#    0.000    2.833    0.000    3.000    0.000    6.667 
#    0.000    0.833    0.000    6.000    0.000    2.333 
#    0.000    0.000    0.000    0.000    0.000    0.000 
#
# Total GULP energy -297534.035390 kJ/mol
# GULP energy per Si atom -12397.251475 kJ/mol
# Density = 1.840031 g / cm^3
# Si number density = 18.442289 Si / 1000 Ang^3
#
#
#
# Elastic Constant Matrix: (Units=GPa)
#
#
# Indices 1 2 3 4 5 6 
#
# 1 166.5687 31.6354 93.0285 -0.0008 -5.6777 0.0010
# 2 31.6354 17.8276 31.5153 -0.0020 -0.9128 0.0024
# 3 93.0285 31.5153 161.7694 -0.0008 -7.6694 0.0008
# 4 -0.0008 -0.0020 -0.0008 14.7425 0.0006 0.0325
# 5 -5.6777 -0.9128 -7.6694 0.0006 41.2010 -0.0008
# 6 0.0010 0.0024 0.0008 0.0325 -0.0008 23.7907
#
#
#
# Elastic Compliance Matrix: (Units=1/GPa)
#
#
# Indices 1 2 3 4 5 6 
#
# 1 0.010271 -0.011899 -0.003566 -0.000001 0.000488 0.000001
# 2 -0.011899 0.099403 -0.012607 0.000012 -0.001784 -0.000009
# 3 -0.003566 -0.012607 0.010746 -0.000001 0.001230 0.000001
# 4 -0.000001 0.000012 -0.000001 0.067831 -0.000001 -0.000093
# 5 0.000488 -0.001784 0.001230 -0.000001 0.024528 0.000001
# 6 0.000001 -0.000009 0.000001 -0.000093 0.000001 0.042033
#
#
# Mechanical properties :
#
#
# Convention : Reuss Voigt Hill
#
# Bulk Modulus (GPa) = 15.55752 73.16934 44.36343
# Shear Modulus (GPa) = 15.04295 28.61263 21.82779
#
# Velocity S-wave (km/s) = 2.85910 3.94314 3.44404
# Velocity P-wave (km/s) = 4.39925 7.77766 6.31844
#
# Compressibility (1/GPa) = 0.06427761
#
# Stress axis : x y z
#
# Youngs Moduli (GPa) = 97.35807 10.06009 93.05363
#
# Poissons Ratio (x) = 0.11970 0.33179
# Poissons Ratio (y) = 1.15843 1.17316
# Poissons Ratio (z) = 0.34714 0.12683
#
# Static dielectric constant tensor:
#      x y z
#    x 3.547930 0.000000 0.002750 
#    y 0.000000 2.806870 0.000000 
#    z 0.002750 0.000000 3.852690 
# 
# 
# High freq. dielectric constant tensor:
#      x y z
#    x 1.724380 0.000000 0.000740 
#    y 0.000000 1.650110 0.000000 
#    z 0.000740 0.000000 1.736640 
# 
# From -- ./inp_files/212531.got.cif
#   From: 2010.06.25/outbox.cif.g09.slc.cpg/sg12_107_cif.got.tgz:212531.got - 2010.06.28 00:19:55.
