data_PCOD8086088
_publ_section_title
;
Structure prediction by ZEFSAII (Michael W. Deem and Ramdas Pophale) SiO2 
 PCOD8086088
Probable space group: C 2/M
;
_chemical_formula_sum "Si O2"
_cell_formula_units_Z 64
_cell_length_a 28.143554
_cell_length_b 9.970283
_cell_length_c 14.021382
_cell_angle_alpha 90.000000
_cell_angle_beta 77.669227
_cell_angle_gamma 90.000000
_cell_volume 3843.626202
_symmetry_space_group_name_H-M "C 2/M"
_symmetry_group_IT_number 12
_symmetry_cell_setting 'monoclinic'
loop_
_space_group_symop_operation_xyz
x,y,z
-x,y,-z
-x,-y,-z
x,-y,z
1/2+x,1/2+y,z
1/2-x,1/2+y,-z
1/2-x,1/2-y,-z
1/2+x,1/2-y,z
loop_
_atom_site_type_symbol
_atom_site_label
_atom_site_fract_x
_atom_site_fract_y
_atom_site_fract_z
Si Si1 0.130492 0.357139 0.965972
Si Si2 0.511784 0.654423 0.885305
Si Si3 0.282272 0.854864 0.932884
Si Si4 0.807662 0.153876 0.393256
Si Si5 0.303840 0.844390 0.570017
Si Si6 0.562874 0.842564 0.163041
Si Si7 0.349360 0.841344 0.745443
Si Si8 0.374767 0.347739 0.187605
O O1 0.119406 0.500000 0.918186
O O2 0.147501 0.245265 0.884625
O O3 0.172083 0.385128 0.022361
O O4 0.084511 0.313428 0.048800
O O5 0.496623 0.500000 0.874793
O O6 0.484634 0.748606 0.819295
O O7 0.567840 0.678031 0.833724
O O8 0.500000 0.694221 0.000000
O O9 0.302768 0.789539 0.826178
O O10 0.255685 0.000000 0.927076
O O11 0.250000 0.750000 0.000000
O O12 0.752848 0.177849 0.377674
O O13 0.818924 0.252124 0.475611
O O14 0.847745 0.189918 0.296921
O O15 0.813514 0.000000 0.424772
O O16 0.339536 0.798215 0.640775
O O17 0.312876 0.000000 0.539901
O O18 0.598914 0.791612 0.233162
O O19 0.549645 0.000000 0.182140
O O20 0.348763 0.000000 0.756741
O O21 0.362838 0.500000 0.164597
#
# Coordination Sequence:
#
# PCOD8086088 Si02
#       8
#     8   8   8   8   8   8   8   8
#     4   9  18  30  43  65  97 127 159 198 233 270
#     4  10  19  31  47  70 100 130 163 200 235 279
#     4   9  18  30  43  64  95 128 159 193 230 278
#     4   9  19  33  50  74  98 122 158 199 242 291
#     4   9  17  33  55  73  92 124 160 198 245 289
#     4   9  17  31  49  69  95 127 163 198 233 279
#     4   8  16  31  50  70  93 124 161 197 237 286
#     4  10  20  32  48  70  97 131 161 194 240 289
#
# _framework density 16.650943000000002
#
# number of rings (size 3 to 8) (size 9 to 14) (size 15 to 20)
#    0.000    2.875    1.250    1.500    1.750    1.750 
#    0.000    3.125    0.000    0.750    0.000    5.250 
#    0.000    0.000    0.000    0.000    0.000    0.000 
#
# Total GULP energy -396466.528753 kJ/mol
# GULP energy per Si atom -12389.579024 kJ/mol
# Density = 1.661304 g / cm^3
# Si number density = 16.650943 Si / 1000 Ang^3
#
#
#
# Elastic Constant Matrix: (Units=GPa)
#
#
# Indices 1 2 3 4 5 6 
#
# 1 43.3940 24.2698 40.2936 0.0000 0.1628 0.0000
# 2 24.2698 63.7078 49.1348 0.0000 6.6180 0.0000
# 3 40.2936 49.1348 100.8990 0.0000 4.7774 0.0000
# 4 0.0000 0.0000 0.0000 26.0131 0.0000 -0.9785
# 5 0.1628 6.6180 4.7774 0.0000 26.2503 0.0000
# 6 0.0000 0.0000 0.0000 -0.9785 0.0000 4.3053
#
#
#
# Elastic Compliance Matrix: (Units=1/GPa)
#
#
# Indices 1 2 3 4 5 6 
#
# 1 0.037647 -0.004756 -0.012875 0.000000 0.003309 0.000000
# 2 -0.004756 0.026194 -0.010637 0.000000 -0.004638 0.000000
# 3 -0.012875 -0.010637 0.020276 0.000000 -0.000929 0.000000
# 4 0.000000 0.000000 0.000000 0.038774 0.000000 0.008813
# 5 0.003309 -0.004638 -0.000929 0.000000 0.039413 0.000000
# 6 0.000000 0.000000 0.000000 0.008813 0.000000 0.234275
#
#
# Mechanical properties :
#
#
# Convention : Reuss Voigt Hill
#
# Bulk Modulus (GPa) = 36.25520 48.37747 42.31634
# Shear Modulus (GPa) = 10.81529 17.60059 14.20794
#
# Velocity S-wave (km/s) = 2.55135 3.25473 2.92427
# Velocity P-wave (km/s) = 5.52269 6.57581 6.07213
#
# Compressibility (1/GPa) = 0.02758225
#
# Stress axis : x y z
#
# Youngs Moduli (GPa) = 26.56240 38.17677 49.31865
#
# Poissons Ratio (x) = 0.18156 0.63498
# Poissons Ratio (y) = 0.12632 0.52460
# Poissons Ratio (z) = 0.34199 0.40608
#
# Static dielectric constant tensor:
#      x y z
#    x 2.883740 0.000000 0.172770 
#    y 0.000000 3.092750 0.000000 
#    z 0.172770 0.000000 2.929580 
# 
# 
# High freq. dielectric constant tensor:
#      x y z
#    x 1.634210 0.000000 0.003870 
#    y 0.000000 1.637880 0.000000 
#    z 0.003870 0.000000 1.618000 
# 
# From -- ./inp_files/248304.got.cif
#   From: 2010.06.25/outbox.cif.g09.slc.cpg/sg12_125_cif.got.tgz:248304.got - 2010.06.28 00:19:55.
