data_PCOD8086740
_publ_section_title
;
Structure prediction by ZEFSAII (Michael W. Deem and Ramdas Pophale) SiO2 
 PCOD8086740
Probable space group: C 2/M
;
_chemical_formula_sum "Si O2"
_cell_formula_units_Z 56
_cell_length_a 20.302758
_cell_length_b 9.088036
_cell_length_c 30.533229
_cell_angle_alpha 90.000000
_cell_angle_beta 147.083221
_cell_angle_gamma 90.000000
_cell_volume 3061.495858
_symmetry_space_group_name_H-M "C 2/M"
_symmetry_group_IT_number 12
_symmetry_cell_setting 'monoclinic'
loop_
_space_group_symop_operation_xyz
x,y,z
-x,y,-z
-x,-y,-z
x,-y,z
1/2+x,1/2+y,z
1/2-x,1/2+y,-z
1/2-x,1/2-y,-z
1/2+x,1/2-y,z
loop_
_atom_site_type_symbol
_atom_site_label
_atom_site_fract_x
_atom_site_fract_y
_atom_site_fract_z
Si Si1 0.495490 0.673892 0.188109
Si Si2 0.262034 0.174510 0.920531
Si Si3 0.117762 0.667281 0.332993
Si Si4 0.332046 0.329772 0.510736
Si Si5 0.000230 0.329448 0.898839
Si Si6 0.235327 0.670719 0.176871
Si Si7 0.465736 0.827696 0.334804
O O1 0.500459 0.500000 0.187878
O O2 0.360990 0.730359 0.125448
O O3 0.590364 0.725344 0.277668
O O4 0.534651 0.740814 0.163872
O O5 0.267320 0.234296 0.873920
O O6 0.269931 0.000000 0.923401
O O7 0.375440 0.235667 0.011544
O O8 0.090226 0.500000 0.303464
O O9 0.260728 0.685161 0.424744
O O10 0.033343 0.709924 0.327078
O O11 0.347464 0.500000 0.532230
O O12 0.250000 0.250000 0.500000
O O13 0.463023 0.250283 0.584903
O O14 0.014189 0.500000 0.894124
O O15 0.896800 0.305497 0.876954
O O16 0.274035 0.500000 0.199266
O O17 0.331038 0.762893 0.258592
O O18 0.461233 0.000000 0.341753
#
# Coordination Sequence:
#
# PCOD8086740 Si02
#       7
#     8   8   8   8   8   8   8
#     4  11  21  33  53  78 107 139 174 220 264 310
#     4   9  18  34  55  79 101 133 181 224 263 309
#     4   9  18  32  50  75 105 137 173 211 257 308
#     4   9  17  29  48  76 108 138 171 215 261 310
#     4  10  21  36  54  75 105 142 178 218 264 317
#     4  10  19  34  56  78 103 139 180 220 261 311
#     4  10  19  31  50  78 109 139 171 215 265 314
#
# _framework density 18.291710999999999
#
# number of rings (size 3 to 8) (size 9 to 14) (size 15 to 20)
#    0.000    2.286    1.429    3.000    0.000    5.143 
#    0.000    1.429    0.000    2.571    0.000    6.000 
#    0.000    0.000    0.000    0.000    0.000    0.000 
#
# Total GULP energy -347196.825217 kJ/mol
# GULP energy per Si atom -12399.886615 kJ/mol
# Density = 1.825008 g / cm^3
# Si number density = 18.291711 Si / 1000 Ang^3
#
#
#
# Elastic Constant Matrix: (Units=GPa)
#
#
# Indices 1 2 3 4 5 6 
#
# 1 49.5725 24.2474 16.1880 0.0000 -9.5776 -0.0004
# 2 24.2474 79.9843 47.7022 0.0000 -4.6072 -0.0004
# 3 16.1880 47.7022 119.4071 0.0000 -2.3848 -0.0001
# 4 0.0000 0.0000 0.0000 28.8584 0.0000 0.8382
# 5 -9.5776 -4.6072 -2.3848 0.0000 13.2526 0.0000
# 6 -0.0004 -0.0004 -0.0001 0.8382 0.0000 22.1190
#
#
#
# Elastic Compliance Matrix: (Units=1/GPa)
#
#
# Indices 1 2 3 4 5 6 
#
# 1 0.027008 -0.006860 -0.000581 0.000000 0.017029 0.000000
# 2 -0.006860 0.018433 -0.006428 0.000000 0.000293 0.000000
# 3 -0.000581 -0.006428 0.011008 0.000000 -0.000673 0.000000
# 4 0.000000 0.000000 0.000000 0.034690 0.000000 -0.001315
# 5 0.017029 0.000293 -0.000673 0.000000 0.087744 0.000000
# 6 0.000000 0.000000 0.000000 -0.001315 0.000000 0.045260
#
#
# Mechanical properties :
#
#
# Convention : Reuss Voigt Hill
#
# Bulk Modulus (GPa) = 34.83025 47.24879 41.03952
# Shear Modulus (GPa) = 19.12413 23.56776 21.34595
#
# Velocity S-wave (km/s) = 3.23694 3.59338 3.41981
# Velocity P-wave (km/s) = 5.74920 6.56531 6.17076
#
# Compressibility (1/GPa) = 0.02871067
#
# Stress axis : x y z
#
# Youngs Moduli (GPa) = 37.02647 54.25198 90.84452
#
# Poissons Ratio (x) = 0.37218 0.05276
# Poissons Ratio (y) = 0.25401 0.58392
# Poissons Ratio (z) = 0.02150 0.34872
#
# Static dielectric constant tensor:
#      x y z
#    x 3.037190 0.000000 0.032850 
#    y 0.000000 3.272560 0.000000 
#    z 0.032850 0.000000 3.433750 
# 
# 
# High freq. dielectric constant tensor:
#      x y z
#    x 1.670710 0.000000 0.002590 
#    y 0.000000 1.700280 0.000000 
#    z 0.002590 0.000000 1.726570 
# 
# From -- ./inp_files/280162.got.cif
#   From: 2010.06.25/outbox.cif.g09.slc.cpg/sg12_141_cif.got.tgz:280162.got - 2010.06.28 00:19:55.
