data_PCOD8086313
_publ_section_title
;
Structure prediction by ZEFSAII (Michael W. Deem and Ramdas Pophale) SiO2 
 PCOD8086313
Probable space group: C 2/M
;
_chemical_formula_sum "Si O2"
_cell_formula_units_Z 64
_cell_length_a 30.725178
_cell_length_b 9.218221
_cell_length_c 14.076477
_cell_angle_alpha 90.000000
_cell_angle_beta 88.650343
_cell_angle_gamma 90.000000
_cell_volume 3985.795348
_symmetry_space_group_name_H-M "C 2/M"
_symmetry_group_IT_number 12
_symmetry_cell_setting 'monoclinic'
loop_
_space_group_symop_operation_xyz
x,y,z
-x,y,-z
-x,-y,-z
x,-y,z
1/2+x,1/2+y,z
1/2-x,1/2+y,-z
1/2-x,1/2-y,-z
1/2+x,1/2-y,z
loop_
_atom_site_type_symbol
_atom_site_label
_atom_site_fract_x
_atom_site_fract_y
_atom_site_fract_z
Si Si1 0.801833 0.169233 0.401678
Si Si2 0.298723 0.166298 0.587074
Si Si3 0.826810 0.330505 0.219131
Si Si4 0.920478 0.332776 0.882668
Si Si5 0.912148 0.331091 0.100636
Si Si6 0.743599 0.328616 0.099296
Si Si7 0.331185 0.167397 0.790307
Si Si8 0.003954 0.836218 0.887108
O O1 0.751194 0.205223 0.387020
O O2 0.817021 0.233785 0.501886
O O3 0.829368 0.243445 0.317098
O O4 0.811897 0.000000 0.400730
O O5 0.327036 0.198686 0.678743
O O6 0.302534 0.000000 0.554087
O O7 0.827223 0.500000 0.242771
O O8 0.867999 0.283718 0.154350
O O9 0.783729 0.286375 0.164337
O O10 0.934246 0.500000 0.877258
O O11 0.880597 0.297510 0.815430
O O12 0.961680 0.240530 0.844269
O O13 0.906555 0.290616 0.990323
O O14 0.921898 0.500000 0.113439
O O15 0.952078 0.245107 0.146607
O O16 0.740684 0.500000 0.082603
O O17 0.699555 0.273030 0.149134
O O18 0.750000 0.250000 0.000000
O O19 0.319080 0.000000 0.814507
O O20 0.005970 0.000000 0.849297
O O21 0.000000 0.827975 0.000000
#
# Coordination Sequence:
#
# PCOD8086313 Si02
#       8
#     8   8   8   8   8   8   8   8
#     4  10  19  31  49  70  92 121 158 200 242 282
#     4   9  18  32  49  68  93 123 156 198 241 281
#     4  10  20  33  48  68  94 126 162 198 236 281
#     4   9  17  30  49  69  94 126 159 193 230 278
#     4   9  17  30  47  67  92 125 161 193 230 277
#     4  11  22  33  46  65  95 132 165 195 230 274
#     4  10  19  33  50  70  95 125 162 198 235 278
#     4   9  17  29  45  67  94 121 154 196 237 274
#
# _framework density 16.057022
#
# number of rings (size 3 to 8) (size 9 to 14) (size 15 to 20)
#    0.000    2.375    1.250    1.875    0.000    6.000 
#    0.000    2.500    0.000    0.000    0.000    0.875 
#    0.000    7.000    0.000    0.000    0.000    0.000 
#
# Total GULP energy -396884.120653 kJ/mol
# GULP energy per Si atom -12402.628770 kJ/mol
# Density = 1.602048 g / cm^3
# Si number density = 16.057022 Si / 1000 Ang^3
#
#
#
# Elastic Constant Matrix: (Units=GPa)
#
#
# Indices 1 2 3 4 5 6 
#
# 1 84.5228 40.3715 37.6042 0.0000 18.3425 0.0000
# 2 40.3715 69.8767 42.4468 0.0000 5.7032 0.0000
# 3 37.6042 42.4468 84.7981 0.0000 10.5821 0.0000
# 4 0.0000 0.0000 0.0000 25.8679 0.0000 -2.8230
# 5 18.3425 5.7032 10.5821 0.0000 12.6521 0.0000
# 6 0.0000 0.0000 0.0000 -2.8230 0.0000 25.9447
#
#
#
# Elastic Compliance Matrix: (Units=1/GPa)
#
#
# Indices 1 2 3 4 5 6 
#
# 1 0.023651 -0.010245 -0.001850 0.000000 -0.028122 0.000000
# 2 -0.010245 0.025008 -0.009403 0.000000 0.011444 0.000000
# 3 -0.001850 -0.009403 0.018374 0.000000 -0.008447 0.000000
# 4 0.000000 0.000000 0.000000 0.039123 0.000000 0.004257
# 5 -0.028122 0.011444 -0.008447 0.000000 0.121715 0.000000
# 6 0.000000 0.000000 0.000000 0.004257 0.000000 0.039007
#
#
# Mechanical properties :
#
#
# Convention : Reuss Voigt Hill
#
# Bulk Modulus (GPa) = 41.60427 53.33807 47.47117
# Shear Modulus (GPa) = 15.72895 20.81126 18.27011
#
# Velocity S-wave (km/s) = 3.13320 3.60402 3.37683
# Velocity P-wave (km/s) = 6.24947 7.11398 6.69569
#
# Compressibility (1/GPa) = 0.02403599
#
# Stress axis : x y z
#
# Youngs Moduli (GPa) = 42.28223 39.98766 54.42436
#
# Poissons Ratio (x) = 0.40967 0.10070
# Poissons Ratio (y) = 0.43318 0.51175
# Poissons Ratio (z) = 0.07824 0.37600
#
# Static dielectric constant tensor:
#      x y z
#    x 3.002890 0.000000 0.047350 
#    y 0.000000 3.091570 0.000000 
#    z 0.047350 0.000000 2.913610 
# 
# 
# High freq. dielectric constant tensor:
#      x y z
#    x 1.604560 0.000000 0.003740 
#    y 0.000000 1.623460 0.000000 
#    z 0.003740 0.000000 1.596380 
# 
# From -- ./inp_files/248340.got.cif
#   From: 2010.06.25/outbox.cif.g09.slc.cpg/sg12_125_cif.got.tgz:248340.got - 2010.06.28 00:19:55.
