data_PCOD8086729
_publ_section_title
;
Structure prediction by ZEFSAII (Michael W. Deem and Ramdas Pophale) SiO2 
 PCOD8086729
Probable space group: C 2/M
;
_chemical_formula_sum "Si O2"
_cell_formula_units_Z 56
_cell_length_a 8.577101
_cell_length_b 27.470635
_cell_length_c 13.476084
_cell_angle_alpha 90.000000
_cell_angle_beta 59.249539
_cell_angle_gamma 90.000000
_cell_volume 2728.785775
_symmetry_space_group_name_H-M "C 2/M"
_symmetry_group_IT_number 12
_symmetry_cell_setting 'monoclinic'
loop_
_space_group_symop_operation_xyz
x,y,z
-x,y,-z
-x,-y,-z
x,-y,z
1/2+x,1/2+y,z
1/2-x,1/2+y,-z
1/2-x,1/2-y,-z
1/2+x,1/2-y,z
loop_
_atom_site_type_symbol
_atom_site_label
_atom_site_fract_x
_atom_site_fract_y
_atom_site_fract_z
Si Si1 0.624817 0.554994 0.631612
Si Si2 0.356553 0.870991 0.292224
Si Si3 0.677313 0.185402 0.110305
Si Si4 0.918841 0.554758 0.691375
Si Si5 0.738287 0.054307 0.843182
Si Si6 0.500000 0.750921 0.000000
Si Si7 0.000000 0.879084 0.500000
Si Si8 0.794206 0.920469 0.044377
O O1 0.653720 0.500000 0.585520
O O2 0.793436 0.572979 0.642399
O O3 0.452236 0.559405 0.758730
O O4 0.606822 0.588067 0.542183
O O5 0.510128 0.828765 0.238385
O O6 0.408667 0.909522 0.361630
O O7 0.355739 0.901748 0.188534
O O8 0.158427 0.848954 0.389065
O O9 0.588182 0.214629 0.051136
O O10 0.778002 0.137492 0.039424
O O11 0.839352 0.218521 0.103880
O O12 0.985522 0.500000 0.650105
O O13 0.819337 0.557750 0.829017
O O14 0.672786 0.000000 0.829461
O O15 0.707316 0.058313 0.971344
O O16 0.000000 0.936055 0.000000
#
# Coordination Sequence:
#
# PCOD8086729 Si02
#       8
#     8   8   8   8   8   4   4   8
#     4   9  18  31  49  74 103 147 204 245 278 310
#     4  10  22  38  55  80 113 146 199 238 277 320
#     4  10  21  37  58  89 110 143 173 224 274 357
#     4  10  20  32  49  77 114 153 195 238 274 325
#     4  10  19  31  50  77 115 163 199 227 266 322
#     4  10  20  38  64  86 118 138 170 208 294 358
#     4  10  21  38  56  72 104 152 192 248 286 314
#     4  11  19  31  52  81 118 149 184 222 279 337
#
# _framework density 20.521947999999998
#
# number of rings (size 3 to 8) (size 9 to 14) (size 15 to 20)
#    0.000    2.000    2.143    1.929    0.000    4.571 
#    0.000    5.000    0.000    0.857    0.000    0.000 
#    0.000    0.000    0.000    0.000    0.000    0.000 
#
# Total GULP energy -346911.378700 kJ/mol
# GULP energy per Si atom -12389.692096 kJ/mol
# Density = 2.047524 g / cm^3
# Si number density = 20.521948 Si / 1000 Ang^3
#
#
#
# Elastic Constant Matrix: (Units=GPa)
#
#
# Indices 1 2 3 4 5 6 
#
# 1 81.8095 7.4161 17.1482 0.0000 3.7585 0.0000
# 2 7.4161 52.3744 4.2387 0.0000 -4.0432 0.0000
# 3 17.1482 4.2387 77.5221 0.0000 -12.1727 0.0000
# 4 0.0000 0.0000 0.0000 1.8414 0.0000 2.2082
# 5 3.7585 -4.0432 -12.1727 0.0000 40.0425 0.0000
# 6 0.0000 0.0000 0.0000 2.2082 0.0000 20.2230
#
#
#
# Elastic Compliance Matrix: (Units=1/GPa)
#
#
# Indices 1 2 3 4 5 6 
#
# 1 0.013164 -0.001790 -0.003189 0.000000 -0.002386 0.000000
# 2 -0.001790 0.019532 -0.000353 0.000000 0.002033 0.000000
# 3 -0.003189 -0.000353 0.014351 0.000000 0.004626 0.000000
# 4 0.000000 0.000000 0.000000 0.624899 0.000000 -0.068235
# 5 -0.002386 0.002033 0.004626 0.000000 0.026809 0.000000
# 6 0.000000 0.000000 0.000000 -0.068235 0.000000 0.056899
#
#
# Mechanical properties :
#
#
# Convention : Reuss Voigt Hill
#
# Bulk Modulus (GPa) = 27.48483 29.92357 28.70420
# Shear Modulus (GPa) = 6.42306 24.61491 15.51898
#
# Velocity S-wave (km/s) = 1.77106 3.46705 2.75292
# Velocity P-wave (km/s) = 4.19573 5.53536 4.91143
#
# Compressibility (1/GPa) = 0.03638370
#
# Stress axis : x y z
#
# Youngs Moduli (GPa) = 75.96617 51.19739 69.68358
#
# Poissons Ratio (x) = 0.09165 0.22219
# Poissons Ratio (y) = 0.13599 0.02458
# Poissons Ratio (z) = 0.24223 0.01806
#
# Static dielectric constant tensor:
#      x y z
#    x 4.143800 0.000000 -0.195110 
#    y 0.000000 3.587750 0.000000 
#    z -0.195110 0.000000 3.619870 
# 
# 
# High freq. dielectric constant tensor:
#      x y z
#    x 1.827750 0.000000 -0.017140 
#    y 0.000000 1.760870 0.000000 
#    z -0.017140 0.000000 1.794020 
# 
# From -- ./inp_files/199726.got.cif
#   From: 2010.06.25/outbox.cif.g09.slc.cpg/sg12_100_cif.got.tgz:199726.got - 2010.06.28 00:19:55.
