data_PCOD8086275
_publ_section_title
;
Structure prediction by ZEFSAII (Michael W. Deem and Ramdas Pophale) SiO2 
 PCOD8086275
Probable space group: C 2/M
;
_chemical_formula_sum "Si O2"
_cell_formula_units_Z 56
_cell_length_a 29.298148
_cell_length_b 9.476989
_cell_length_c 21.582243
_cell_angle_alpha 90.000000
_cell_angle_beta 149.389763
_cell_angle_gamma 90.000000
_cell_volume 3051.345750
_symmetry_space_group_name_H-M "C 2/M"
_symmetry_group_IT_number 12
_symmetry_cell_setting 'monoclinic'
loop_
_space_group_symop_operation_xyz
x,y,z
-x,y,-z
-x,-y,-z
x,-y,z
1/2+x,1/2+y,z
1/2-x,1/2+y,-z
1/2-x,1/2-y,-z
1/2+x,1/2-y,z
loop_
_atom_site_type_symbol
_atom_site_label
_atom_site_fract_x
_atom_site_fract_y
_atom_site_fract_z
Si Si1 0.635154 0.659500 0.298461
Si Si2 0.461039 0.338041 0.018943
Si Si3 0.220318 0.161043 0.877593
Si Si4 0.773145 0.836277 0.380821
Si Si5 0.286236 0.836806 0.822646
Si Si6 0.066200 0.162575 0.348868
Si Si7 0.388973 0.164578 0.157982
O O1 0.666874 0.500000 0.322607
O O2 0.534177 0.682505 0.157300
O O3 0.702776 0.759398 0.342223
O O4 0.632234 0.693126 0.368076
O O5 0.431325 0.500000 0.976303
O O6 0.500000 0.279209 0.000000
O O7 0.375568 0.249881 0.938797
O O8 0.221084 0.189664 0.804903
O O9 0.146987 0.264660 0.820998
O O10 0.192147 0.000000 0.859323
O O11 0.318671 0.191540 0.020591
O O12 0.763621 0.786813 0.298351
O O13 0.874879 0.805011 0.521082
O O14 0.750866 0.000000 0.361877
O O15 0.313637 0.000000 0.850750
O O16 0.982083 0.265310 0.247742
O O17 0.033002 0.000000 0.308629
O O18 0.404652 0.000000 0.188805
#
# Coordination Sequence:
#
# PCOD8086275 Si02
#       7
#     8   8   8   8   8   8   8
#     4  10  20  34  52  74 102 139 177 212 256 303
#     4  10  19  31  48  73 105 136 168 208 255 304
#     4   9  19  36  57  80 106 132 162 207 262 312
#     4  10  21  35  51  74 104 138 177 214 249 297
#     4  10  20  34  53  77 104 137 173 209 254 304
#     4  10  21  36  53  74 103 139 175 212 255 301
#     4  10  20  35  57  83 104 127 167 213 257 306
#
# _framework density 18.352557999999998
#
# number of rings (size 3 to 8) (size 9 to 14) (size 15 to 20)
#    0.000    2.143    1.429    1.714    0.000    3.143 
#    0.000    0.714    0.000    4.286    0.000    0.000 
#    0.000    0.000    0.000    0.000    0.000    0.000 
#
# Total GULP energy -347260.273223 kJ/mol
# GULP energy per Si atom -12402.152615 kJ/mol
# Density = 1.831079 g / cm^3
# Si number density = 18.352558 Si / 1000 Ang^3
#
#
#
# Elastic Constant Matrix: (Units=GPa)
#
#
# Indices 1 2 3 4 5 6 
#
# 1 91.7915 48.1852 40.1858 0.0000 -6.6169 0.0000
# 2 48.1852 74.2663 33.1858 0.0000 3.3403 0.0000
# 3 40.1858 33.1858 62.7043 0.0000 -10.6959 0.0000
# 4 0.0000 0.0000 0.0000 19.7260 0.0000 5.8752
# 5 -6.6169 3.3403 -10.6959 0.0000 21.2915 0.0000
# 6 0.0000 0.0000 0.0000 5.8752 0.0000 34.9993
#
#
#
# Elastic Compliance Matrix: (Units=1/GPa)
#
#
# Indices 1 2 3 4 5 6 
#
# 1 0.019100 -0.009745 -0.006354 0.000000 0.004272 0.000000
# 2 -0.009745 0.024005 -0.008332 0.000000 -0.010980 0.000000
# 3 -0.006354 -0.008332 0.026595 0.000000 0.012693 0.000000
# 4 0.000000 0.000000 0.000000 0.053363 0.000000 -0.008958
# 5 0.004272 -0.010980 0.012693 0.000000 0.056394 0.000000
# 6 0.000000 0.000000 0.000000 -0.008958 0.000000 0.030076
#
#
# Mechanical properties :
#
#
# Convention : Reuss Voigt Hill
#
# Bulk Modulus (GPa) = 47.99197 52.43064 50.21131
# Shear Modulus (GPa) = 18.84380 22.35038 20.59709
#
# Velocity S-wave (km/s) = 3.20780 3.49353 3.35371
# Velocity P-wave (km/s) = 6.31876 6.70102 6.51269
#
# Compressibility (1/GPa) = 0.02083682
#
# Stress axis : x y z
#
# Youngs Moduli (GPa) = 52.35706 41.65853 37.60114
#
# Poissons Ratio (x) = 0.40596 0.23893
# Poissons Ratio (y) = 0.51021 0.31329
# Poissons Ratio (z) = 0.33270 0.34710
#
# Static dielectric constant tensor:
#      x y z
#    x 3.326710 0.000000 -0.271940 
#    y 0.000000 3.379050 0.000000 
#    z -0.271940 0.000000 3.399390 
# 
# 
# High freq. dielectric constant tensor:
#      x y z
#    x 1.708860 0.000000 -0.014270 
#    y 0.000000 1.710530 0.000000 
#    z -0.014270 0.000000 1.705630 
# 
# From -- ./inp_files/238944.got.cif
#   From: 2010.06.25/outbox.cif.g09.slc.cpg/sg12_120_cif.got.tgz:238944.got - 2010.06.28 00:19:55.
