data_PCOD8086117
_publ_section_title
;
Structure prediction by ZEFSAII (Michael W. Deem and Ramdas Pophale) SiO2 
 PCOD8086117
Probable space group: C 2/M
;
_chemical_formula_sum "Si O2"
_cell_formula_units_Z 64
_cell_length_a 14.705608
_cell_length_b 9.017387
_cell_length_c 29.637339
_cell_angle_alpha 90.000000
_cell_angle_beta 118.640080
_cell_angle_gamma 90.000000
_cell_volume 3449.238465
_symmetry_space_group_name_H-M "C 2/M"
_symmetry_group_IT_number 12
_symmetry_cell_setting 'monoclinic'
loop_
_space_group_symop_operation_xyz
x,y,z
-x,y,-z
-x,-y,-z
x,-y,z
1/2+x,1/2+y,z
1/2-x,1/2+y,-z
1/2-x,1/2-y,-z
1/2+x,1/2-y,z
loop_
_atom_site_type_symbol
_atom_site_label
_atom_site_fract_x
_atom_site_fract_y
_atom_site_fract_z
Si Si1 0.121909 0.675438 0.231297
Si Si2 0.828556 0.326539 0.575121
Si Si3 0.967487 0.324863 0.883470
Si Si4 0.338943 0.675786 0.246871
Si Si5 0.454167 0.175204 0.691698
Si Si6 0.900573 0.174778 0.504733
Si Si7 0.675738 0.323438 0.946303
Si Si8 0.747400 0.324757 0.866608
O O1 0.124808 0.500000 0.234497
O O2 0.238307 0.731295 0.250118
O O3 0.046469 0.722562 0.172324
O O4 0.083394 0.742895 0.269410
O O5 0.841326 0.500000 0.569332
O O6 0.897407 0.245773 0.553586
O O7 0.707126 0.281228 0.545682
O O8 0.872004 0.278526 0.634045
O O9 0.988955 0.500000 0.893227
O O10 0.059721 0.232107 0.927773
O O11 0.865563 0.275372 0.886526
O O12 0.352352 0.500000 0.252852
O O13 0.435629 0.753522 0.293634
O O14 0.326296 0.730260 0.191796
O O15 0.467056 0.000000 0.697289
O O16 0.000000 0.234837 0.500000
O O17 0.910960 0.000000 0.513384
O O18 0.682540 0.500000 0.951554
O O19 0.708621 0.261534 0.904936
O O20 0.750000 0.250000 0.000000
O O21 0.743804 0.500000 0.865976
#
# Coordination Sequence:
#
# PCOD8086117 Si02
#       8
#     8   8   8   8   8   8   8   8
#     4   8  16  31  52  74  98 129 162 194 236 290
#     4   9  19  33  48  71 103 132 159 196 246 296
#     4   9  17  34  56  74  93 125 165 199 236 288
#     4   9  17  32  53  75  96 127 169 202 231 281
#     4  10  19  31  47  72 106 135 155 190 245 292
#     4   9  18  34  55  74  92 123 170 214 245 281
#     4  11  22  35  50  72  99 127 160 202 249 294
#     4   8  17  34  54  72  96 129 162 197 243 293
#
# _framework density 18.554821
#
# number of rings (size 3 to 8) (size 9 to 14) (size 15 to 20)
#    0.000    2.875    0.000    2.625    0.000    2.250 
#    0.000   10.000    0.000    0.000    0.000    0.000 
#    0.000    0.000    0.000    0.000    0.000    0.000 
#
# Total GULP energy -396710.898700 kJ/mol
# GULP energy per Si atom -12397.215584 kJ/mol
# Density = 1.851259 g / cm^3
# Si number density = 18.554821 Si / 1000 Ang^3
#
#
#
# Elastic Constant Matrix: (Units=GPa)
#
#
# Indices 1 2 3 4 5 6 
#
# 1 95.9549 22.8416 40.7492 0.0000 11.0563 0.0000
# 2 22.8416 31.7568 28.3561 0.0000 5.2758 0.0000
# 3 40.7492 28.3561 95.0872 0.0000 17.2037 0.0000
# 4 0.0000 0.0000 0.0000 27.2696 0.0000 4.1020
# 5 11.0563 5.2758 17.2037 0.0000 25.5557 0.0000
# 6 0.0000 0.0000 0.0000 4.1020 0.0000 27.7759
#
#
#
# Elastic Compliance Matrix: (Units=1/GPa)
#
#
# Indices 1 2 3 4 5 6 
#
# 1 0.013698 -0.006270 -0.003601 0.000000 -0.002208 0.000000
# 2 -0.006270 0.045789 -0.011100 0.000000 0.000733 0.000000
# 3 -0.003601 -0.011100 0.016709 0.000000 -0.007399 0.000000
# 4 0.000000 0.000000 0.000000 0.037504 0.000000 -0.005539
# 5 -0.002208 0.000733 -0.007399 0.000000 0.044915 0.000000
# 6 0.000000 0.000000 0.000000 -0.005539 0.000000 0.036820
#
#
# Mechanical properties :
#
#
# Convention : Reuss Voigt Hill
#
# Bulk Modulus (GPa) = 29.19475 45.18806 37.19140
# Shear Modulus (GPa) = 20.09686 24.84371 22.47028
#
# Velocity S-wave (km/s) = 3.29463 3.66312 3.48375
# Velocity P-wave (km/s) = 5.49921 6.50368 6.02242
#
# Compressibility (1/GPa) = 0.03425273
#
# Stress axis : x y z
#
# Youngs Moduli (GPa) = 73.00487 21.83919 59.84947
#
# Poissons Ratio (x) = 0.13694 0.21550
# Poissons Ratio (y) = 0.45777 0.66435
# Poissons Ratio (z) = 0.26287 0.24242
#
# Static dielectric constant tensor:
#      x y z
#    x 3.678230 0.000000 -0.166250 
#    y 0.000000 3.044100 0.000000 
#    z -0.166250 0.000000 3.582960 
# 
# 
# High freq. dielectric constant tensor:
#      x y z
#    x 1.727260 0.000000 0.004040 
#    y 0.000000 1.688440 0.000000 
#    z 0.004040 0.000000 1.720880 
# 
# From -- ./inp_files/375054.got.cif
#   From: 2010.06.25/outbox.cif.g09.slc.cpg/sg12_188_cif.got.tgz:375054.got - 2010.06.28 00:19:55.
