data_PCOD8086042
_publ_section_title
;
Structure prediction by ZEFSAII (Michael W. Deem and Ramdas Pophale) SiO2 
 PCOD8086042
Probable space group: C 2/M
;
_chemical_formula_sum "Si O2"
_cell_formula_units_Z 56
_cell_length_a 14.282480
_cell_length_b 9.493454
_cell_length_c 31.677565
_cell_angle_alpha 90.000000
_cell_angle_beta 47.752571
_cell_angle_gamma 90.000000
_cell_volume 3179.487214
_symmetry_space_group_name_H-M "C 2/M"
_symmetry_group_IT_number 12
_symmetry_cell_setting 'monoclinic'
loop_
_space_group_symop_operation_xyz
x,y,z
-x,y,-z
-x,-y,-z
x,-y,z
1/2+x,1/2+y,z
1/2-x,1/2+y,-z
1/2-x,1/2-y,-z
1/2+x,1/2-y,z
loop_
_atom_site_type_symbol
_atom_site_label
_atom_site_fract_x
_atom_site_fract_y
_atom_site_fract_z
Si Si1 0.385708 0.836567 0.064278
Si Si2 0.304859 0.666215 0.551972
Si Si3 0.842667 0.337916 0.769214
Si Si4 0.520056 0.666162 0.426211
Si Si5 0.022234 0.664986 0.639276
Si Si6 0.639343 0.164499 0.139837
Si Si7 0.598583 0.836277 0.843302
O O1 0.263231 0.748409 0.087611
O O2 0.427755 0.805470 0.099515
O O3 0.352963 0.000000 0.067555
O O4 0.500000 0.787587 0.000000
O O5 0.299435 0.500000 0.556988
O O6 0.380583 0.707685 0.486415
O O7 0.378234 0.720953 0.570828
O O8 0.163996 0.728300 0.595820
O O9 0.801460 0.500000 0.778254
O O10 0.888389 0.301485 0.802670
O O11 0.722693 0.247006 0.790993
O O12 0.959844 0.303032 0.703311
O O13 0.530551 0.500000 0.414426
O O14 0.552443 0.750547 0.374016
O O15 0.019085 0.500000 0.629544
O O16 0.520823 0.216495 0.147877
O O17 0.665051 0.000000 0.124486
O O18 0.624244 0.000000 0.826972
#
# Coordination Sequence:
#
# PCOD8086042 Si02
#       7
#     8   8   8   8   8   8   8
#     4   9  18  32  49  73 104 130 153 189 237 281
#     4   8  16  31  49  68  93 123 153 187 232 284
#     4   9  19  33  47  66  93 123 156 194 236 279
#     4   9  17  31  50  70  91 120 157 191 227 280
#     4  10  19  31  47  68  94 122 151 190 240 283
#     4   9  18  33  51  70  93 125 163 197 229 270
#     4   9  18  33  52  71  93 124 161 197 231 272
#
# _framework density 17.612901999999998
#
# number of rings (size 3 to 8) (size 9 to 14) (size 15 to 20)
#    0.000    3.000    0.000    1.286    0.000    3.143 
#    0.000    5.000    0.000    0.000    0.000    0.000 
#    0.000    0.000    0.000    0.000    0.000    0.000 
#
# Total GULP energy -347166.315084 kJ/mol
# GULP energy per Si atom -12398.796967 kJ/mol
# Density = 1.757281 g / cm^3
# Si number density = 17.612902 Si / 1000 Ang^3
#
#
#
# Elastic Constant Matrix: (Units=GPa)
#
#
# Indices 1 2 3 4 5 6 
#
# 1 111.4634 36.7867 40.2682 0.0000 -3.4276 -0.0001
# 2 36.7867 40.7010 34.2985 -0.0001 -2.6272 -0.0001
# 3 40.2682 34.2985 94.3537 0.0000 -1.9024 0.0000
# 4 0.0000 -0.0001 0.0000 27.0884 0.0000 -0.8233
# 5 -3.4276 -2.6272 -1.9024 0.0000 18.4038 0.0000
# 6 -0.0001 -0.0001 0.0000 -0.8233 0.0000 27.2844
#
#
#
# Elastic Compliance Matrix: (Units=1/GPa)
#
#
# Indices 1 2 3 4 5 6 
#
# 1 0.013015 -0.010156 -0.001847 0.000000 0.000783 0.000000
# 2 -0.010156 0.043603 -0.011452 0.000000 0.003149 0.000000
# 3 -0.001847 -0.011452 0.015542 0.000000 -0.000372 0.000000
# 4 0.000000 0.000000 0.000000 0.036950 0.000000 0.001115
# 5 0.000783 0.003149 -0.000372 0.000000 0.054894 0.000000
# 6 0.000000 0.000000 0.000000 0.001115 0.000000 0.036685
#
#
# Mechanical properties :
#
#
# Convention : Reuss Voigt Hill
#
# Bulk Modulus (GPa) = 39.60492 52.13611 45.87052
# Shear Modulus (GPa) = 19.53014 23.56630 21.54822
#
# Velocity S-wave (km/s) = 3.33356 3.66185 3.50156
# Velocity P-wave (km/s) = 6.11162 6.89523 6.51522
#
# Compressibility (1/GPa) = 0.02524939
#
# Stress axis : x y z
#
# Youngs Moduli (GPa) = 76.83604 22.93428 64.34187
#
# Poissons Ratio (x) = 0.23293 0.11882
# Poissons Ratio (y) = 0.78037 0.73685
# Poissons Ratio (z) = 0.14189 0.26264
#
# Static dielectric constant tensor:
#      x y z
#    x 3.409640 0.000000 -0.069380 
#    y 0.000000 3.067290 0.000000 
#    z -0.069380 0.000000 3.313410 
# 
# 
# High freq. dielectric constant tensor:
#      x y z
#    x 1.681780 0.000000 0.002620 
#    y 0.000000 1.662500 0.000000 
#    z 0.002620 0.000000 1.680650 
# 
# From -- ./inp_files/304292.got.cif
#   From: 2010.06.25/outbox.cif.g09.slc.cpg/sg12_153_cif.got.tgz:304292.got - 2010.06.28 00:19:55.
