data_PCOD8086007
_publ_section_title
;
Structure prediction by ZEFSAII (Michael W. Deem and Ramdas Pophale) SiO2 
 PCOD8086007
Probable space group: C 2/M
;
_chemical_formula_sum "Si O2"
_cell_formula_units_Z 64
_cell_length_a 23.607303
_cell_length_b 9.486713
_cell_length_c 24.156329
_cell_angle_alpha 90.000000
_cell_angle_beta 44.540185
_cell_angle_gamma 90.000000
_cell_volume 3794.587882
_symmetry_space_group_name_H-M "C 2/M"
_symmetry_group_IT_number 12
_symmetry_cell_setting 'monoclinic'
loop_
_space_group_symop_operation_xyz
x,y,z
-x,y,-z
-x,-y,-z
x,-y,z
1/2+x,1/2+y,z
1/2-x,1/2+y,-z
1/2-x,1/2-y,-z
1/2+x,1/2-y,z
loop_
_atom_site_type_symbol
_atom_site_label
_atom_site_fract_x
_atom_site_fract_y
_atom_site_fract_z
Si Si1 0.031441 0.340464 0.419857
Si Si2 0.400446 0.166697 0.330020
Si Si3 0.632667 0.839825 0.525724
Si Si4 0.421138 0.165724 0.815092
Si Si5 0.216409 0.162689 0.152002
Si Si6 0.186502 0.163465 0.294170
Si Si7 0.315231 0.159908 0.984670
Si Si8 0.749950 0.166075 0.633072
O O1 0.063067 0.500000 0.406340
O O2 0.961513 0.334065 0.423379
O O3 0.000000 0.279576 0.500000
O O4 0.103310 0.245833 0.348155
O O5 0.362115 0.217592 0.415013
O O6 0.489561 0.230172 0.256981
O O7 0.339194 0.214593 0.324202
O O8 0.409493 0.000000 0.325188
O O9 0.682592 0.741175 0.450497
O O10 0.665290 0.000000 0.497766
O O11 0.356633 0.243138 0.820779
O O12 0.417663 0.000000 0.802787
O O13 0.401297 0.191659 0.894989
O O14 0.234226 0.197122 0.204017
O O15 0.302136 0.190425 0.059618
O O16 0.189542 0.000000 0.164218
O O17 0.239894 0.210926 0.309805
O O18 0.164848 0.000000 0.314720
O O19 0.292248 0.000000 0.988237
O O20 0.250000 0.250000 0.000000
O O21 0.761506 0.000000 0.616297
#
# Coordination Sequence:
#
# PCOD8086007 Si02
#       8
#     8   8   8   8   8   8   8   8
#     4  10  19  31  47  66  88 113 142 183 228 261
#     4   9  18  31  47  65  86 112 147 187 220 253
#     4  10  19  32  48  65  85 111 144 185 228 262
#     4   9  16  29  49  70  89 114 146 179 217 264
#     4   9  17  29  44  68  97 118 139 175 220 262
#     4  10  20  31  45  64  90 122 150 176 213 263
#     4   8  14  25  44  67  91 115 139 171 215 262
#     4  10  20  33  46  61  84 118 153 183 214 253
#
# _framework density 16.866126999999999
#
# number of rings (size 3 to 8) (size 9 to 14) (size 15 to 20)
#    0.000    2.625    1.250    1.125    0.000    2.250 
#    0.000    1.250    0.000    0.750    0.000    5.250 
#    0.000    0.000    0.000   20.625    0.000   15.250 
#
# Total GULP energy -396486.760665 kJ/mol
# GULP energy per Si atom -12390.211271 kJ/mol
# Density = 1.682774 g / cm^3
# Si number density = 16.866127 Si / 1000 Ang^3
#
#
#
# Elastic Constant Matrix: (Units=GPa)
#
#
# Indices 1 2 3 4 5 6 
#
# 1 91.3836 22.0397 57.5233 0.0000 14.8293 0.0000
# 2 22.0397 30.3400 29.4860 -0.0002 4.5493 0.0003
# 3 57.5233 29.4860 127.6689 0.0000 25.5023 0.0000
# 4 0.0000 -0.0002 0.0000 19.7306 0.0000 0.5770
# 5 14.8293 4.5493 25.5023 0.0000 20.4357 0.0000
# 6 0.0000 0.0003 0.0000 0.5770 0.0000 13.8604
#
#
#
# Elastic Compliance Matrix: (Units=1/GPa)
#
#
# Indices 1 2 3 4 5 6 
#
# 1 0.016328 -0.006309 -0.005080 0.000000 -0.004105 0.000000
# 2 -0.006309 0.045149 -0.008647 0.000000 0.005318 -0.000001
# 3 -0.005080 -0.008647 0.014650 0.000000 -0.012671 0.000000
# 4 0.000000 0.000000 0.000000 0.050744 0.000000 -0.002113
# 5 -0.004105 0.005318 -0.012671 0.000000 0.066541 0.000000
# 6 0.000000 -0.000001 0.000000 -0.002113 0.000000 0.072236
#
#
# Mechanical properties :
#
#
# Convention : Reuss Voigt Hill
#
# Bulk Modulus (GPa) = 27.73541 51.94338 39.83939
# Shear Modulus (GPa) = 15.73621 20.16157 17.94889
#
# Velocity S-wave (km/s) = 3.05783 3.46119 3.26574
# Velocity P-wave (km/s) = 5.38026 6.84379 6.15567
#
# Compressibility (1/GPa) = 0.03605499
#
# Stress axis : x y z
#
# Youngs Moduli (GPa) = 61.24379 22.14886 68.26041
#
# Poissons Ratio (x) = 0.13973 0.34676
# Poissons Ratio (y) = 0.38637 0.59027
# Poissons Ratio (z) = 0.31111 0.19153
#
# Static dielectric constant tensor:
#      x y z
#    x 3.034090 0.000000 0.256840 
#    y 0.000000 3.065490 0.000000 
#    z 0.256840 0.000000 3.711570 
# 
# 
# High freq. dielectric constant tensor:
#      x y z
#    x 1.625270 0.000000 0.016760 
#    y 0.000000 1.636940 0.000000 
#    z 0.016760 0.000000 1.660130 
# 
# From -- ./inp_files/348549.got.cif
#   From: 2010.06.25/outbox.cif.g09.slc.cpg/sg12_175_cif.got.tgz:348549.got - 2010.06.28 00:19:55.
