data_PCOD8086993
_publ_section_title
;
Structure prediction by ZEFSAII (Michael W. Deem and Ramdas Pophale) SiO2 
 PCOD8086993
Probable space group: C 2/M
;
_chemical_formula_sum "Si O2"
_cell_formula_units_Z 48
_cell_length_a 27.539699
_cell_length_b 9.050891
_cell_length_c 11.236856
_cell_angle_alpha 90.000000
_cell_angle_beta 120.732412
_cell_angle_gamma 90.000000
_cell_volume 2407.538357
_symmetry_space_group_name_H-M "C 2/M"
_symmetry_group_IT_number 12
_symmetry_cell_setting 'monoclinic'
loop_
_space_group_symop_operation_xyz
x,y,z
-x,y,-z
-x,-y,-z
x,-y,z
1/2+x,1/2+y,z
1/2-x,1/2+y,-z
1/2-x,1/2-y,-z
1/2+x,1/2-y,z
loop_
_atom_site_type_symbol
_atom_site_label
_atom_site_fract_x
_atom_site_fract_y
_atom_site_fract_z
Si Si1 0.061775 0.670779 0.563277
Si Si2 0.364530 0.674666 0.818673
Si Si3 0.828174 0.326535 0.174482
Si Si4 0.029385 0.838708 0.910688
Si Si5 0.070419 0.669707 0.305130
Si Si6 0.777162 0.672919 0.858165
O O1 0.053183 0.500000 0.582791
O O2 0.108672 0.732881 0.714599
O O3 0.086955 0.692740 0.462813
O O4 0.000000 0.748932 0.500000
O O5 0.356843 0.500000 0.795742
O O6 0.386697 0.735772 0.720551
O O7 0.305536 0.751022 0.778667
O O8 0.407247 0.715447 0.980639
O O9 0.822058 0.500000 0.194799
O O10 0.784803 0.240230 0.204650
O O11 0.815154 0.290944 0.021366
O O12 0.995110 0.720887 0.789351
O O13 0.029480 0.000000 0.847297
O O14 0.000000 0.856730 0.000000
O O15 0.074146 0.500000 0.269826
O O16 0.771854 0.500000 0.827983
#
# Coordination Sequence:
#
# PCOD8086993 Si02
#       6
#     8   8   8   8   8   8
#     4   9  19  35  56  81 111 146 181 217 265 326
#     4  10  20  34  53  76 109 146 180 221 275 327
#     4   9  19  37  58  80 111 146 178 220 273 323
#     4   8  16  30  46  68 104 144 174 211 264 317
#     4  10  19  31  52  80 109 140 182 227 264 317
#     4  10  20  34  58  86 109 136 182 232 270 317
#
# _framework density 19.937377000000001
#
# number of rings (size 3 to 8) (size 9 to 14) (size 15 to 20)
#    0.000    2.667    0.000    2.500    2.333    4.333 
#    0.000    2.500    0.000    2.500    0.000    0.000 
#    0.000    0.000    0.000    0.000    0.000    0.000 
#
# Total GULP energy -297500.445645 kJ/mol
# GULP energy per Si atom -12395.851902 kJ/mol
# Density = 1.989200 g / cm^3
# Si number density = 19.937377 Si / 1000 Ang^3
#
#
#
# Elastic Constant Matrix: (Units=GPa)
#
#
# Indices 1 2 3 4 5 6 
#
# 1 117.7632 39.2597 27.9563 0.0000 15.8757 0.0000
# 2 39.2597 71.1701 16.6463 0.0000 1.0412 0.0000
# 3 27.9563 16.6463 72.0270 0.0000 18.9417 0.0000
# 4 0.0000 0.0000 0.0000 17.2314 0.0000 5.6760
# 5 15.8757 1.0412 18.9417 0.0000 23.0272 0.0000
# 6 0.0000 0.0000 0.0000 5.6760 0.0000 21.8588
#
#
#
# Elastic Compliance Matrix: (Units=1/GPa)
#
#
# Indices 1 2 3 4 5 6 
#
# 1 0.011741 -0.006050 -0.001406 0.000000 -0.006664 0.000000
# 2 -0.006050 0.018109 -0.003469 0.000000 0.006206 0.000000
# 3 -0.001406 -0.003469 0.019058 0.000000 -0.014550 0.000000
# 4 0.000000 0.000000 0.000000 0.063462 0.000000 -0.016479
# 5 -0.006664 0.006206 -0.014550 0.000000 0.059709 0.000000
# 6 0.000000 0.000000 0.000000 -0.016479 0.000000 0.050027
#
#
# Mechanical properties :
#
#
# Convention : Reuss Voigt Hill
#
# Bulk Modulus (GPa) = 36.95942 47.63164 42.29553
# Shear Modulus (GPa) = 19.76480 24.23003 21.99742
#
# Velocity S-wave (km/s) = 3.15198 3.48991 3.32524
# Velocity P-wave (km/s) = 5.64133 6.33891 6.00027
#
# Compressibility (1/GPa) = 0.02705670
#
# Stress axis : x y z
#
# Youngs Moduli (GPa) = 85.17257 55.22150 52.47261
#
# Poissons Ratio (x) = 0.33410 0.07379
# Poissons Ratio (y) = 0.51531 0.18202
# Poissons Ratio (z) = 0.11977 0.19156
#
# Static dielectric constant tensor:
#      x y z
#    x 3.664270 0.000000 0.272830 
#    y 0.000000 3.489080 0.000000 
#    z 0.272830 0.000000 3.586860 
# 
# 
# High freq. dielectric constant tensor:
#      x y z
#    x 1.779170 0.000000 0.003410 
#    y 0.000000 1.764630 0.000000 
#    z 0.003410 0.000000 1.754550 
# 
# From -- ./inp_files/180251.got.cif
#   From: 2010.06.25/outbox.cif.g09.slc.cpg/sg12_91_cif.got.tgz:180251.got - 2010.06.28 00:19:55.
