data_PCOD8086051
_publ_section_title
;
Structure prediction by ZEFSAII (Michael W. Deem and Ramdas Pophale) SiO2 
 PCOD8086051
Probable space group: C 2/M
;
_chemical_formula_sum "Si O2"
_cell_formula_units_Z 40
_cell_length_a 12.473397
_cell_length_b 29.259094
_cell_length_c 9.665005
_cell_angle_alpha 90.000000
_cell_angle_beta 140.791371
_cell_angle_gamma 90.000000
_cell_volume 2229.795838
_symmetry_space_group_name_H-M "C 2/M"
_symmetry_group_IT_number 12
_symmetry_cell_setting 'monoclinic'
loop_
_space_group_symop_operation_xyz
x,y,z
-x,y,-z
-x,-y,-z
x,-y,z
1/2+x,1/2+y,z
1/2-x,1/2+y,-z
1/2-x,1/2-y,-z
1/2+x,1/2-y,z
loop_
_atom_site_type_symbol
_atom_site_label
_atom_site_fract_x
_atom_site_fract_y
_atom_site_fract_z
Si Si1 0.687608 0.889508 0.351835
Si Si2 0.301353 0.707992 0.457640
Si Si3 0.198647 0.207992 0.854935
Si Si4 1.000000 0.051612 0.665330
Si Si5 0.687608 0.110492 0.023381
O O1 0.714689 0.837730 0.431792
O O2 0.704114 0.889148 0.204114
O O3 0.831492 0.923328 0.555800
O O4 0.500000 0.906328 0.210836
O O5 0.250000 0.750000 0.500000
O O6 0.500000 0.699442 0.659361
O O7 0.238997 0.717952 0.238997
O O8 0.285311 0.162270 0.002414
O O9 0.250000 0.250000 0.000000
O O10 0.168508 0.076672 0.892816
O O11 0.000000 0.052212 0.500000
O O12 1.000000 0.000000 0.721898
#
# Coordination Sequence:
#
# PCOD8086051 Si02
#       5
#     8   8   8   8   8
#     4   9  16  27  42  60  87 121 153 190 237 282
#     4  10  19  31  47  68  96 128 162 199 238 284
#     4  10  19  31  47  68  96 128 162 199 238 284
#     4   9  16  26  40  60  87 119 157 195 232 283
#     4   9  16  27  42  60  87 121 153 190 237 282
#
# _framework density 17.938860999999999
#
# number of rings (size 3 to 8) (size 9 to 14) (size 15 to 20)
#    0.000    2.600    2.000    1.200    0.000    3.200 
#    0.000    4.000    0.000    0.000    0.000    0.000 
#    0.000    3.200    0.000    8.400    0.000    8.000 
#
# Total GULP energy -247919.944667 kJ/mol
# GULP energy per Si atom -12395.997233 kJ/mol
# Density = 1.789803 g / cm^3
# Si number density = 17.938861 Si / 1000 Ang^3
#
#
#
# Elastic Constant Matrix: (Units=GPa)
#
#
# Indices 1 2 3 4 5 6 
#
# 1 41.3173 43.4157 33.8998 0.0000 19.4568 0.0000
# 2 43.4157 159.2451 65.6079 0.0000 25.5886 0.0000
# 3 33.8998 65.6079 90.1140 0.0000 36.8076 0.0000
# 4 0.0000 0.0000 0.0000 27.6297 0.0000 6.6799
# 5 19.4568 25.5886 36.8076 0.0000 32.1521 0.0000
# 6 0.0000 0.0000 0.0000 6.6799 0.0000 21.8364
#
#
#
# Elastic Compliance Matrix: (Units=1/GPa)
#
#
# Indices 1 2 3 4 5 6 
#
# 1 0.042662 -0.007327 -0.004792 0.000000 -0.014500 0.000000
# 2 -0.007327 0.010236 -0.005972 0.000000 0.003124 0.000000
# 3 -0.004792 -0.005972 0.026525 0.000000 -0.022713 0.000000
# 4 0.000000 0.000000 0.000000 0.039083 0.000000 -0.011956
# 5 -0.014500 0.003124 -0.022713 0.000000 0.063392 0.000000
# 6 0.000000 0.000000 0.000000 -0.011956 0.000000 0.049453
#
#
# Mechanical properties :
#
#
# Convention : Reuss Voigt Hill
#
# Bulk Modulus (GPa) = 23.12651 64.05813 43.59232
# Shear Modulus (GPa) = 17.73398 26.17384 21.95391
#
# Velocity S-wave (km/s) = 3.14758 3.82391 3.50211
# Velocity P-wave (km/s) = 5.11170 7.43525 6.38015
#
# Compressibility (1/GPa) = 0.04324041
#
# Stress axis : x y z
#
# Youngs Moduli (GPa) = 23.44029 97.69897 37.70046
#
# Poissons Ratio (x) = 0.71583 0.18066
# Poissons Ratio (y) = 0.17174 0.22515
# Poissons Ratio (z) = 0.11233 0.58345
#
# Static dielectric constant tensor:
#      x y z
#    x 2.901960 0.000000 0.486800 
#    y 0.000000 3.791430 0.000000 
#    z 0.486800 0.000000 3.324150 
# 
# 
# High freq. dielectric constant tensor:
#      x y z
#    x 1.642310 0.000000 0.049310 
#    y 0.000000 1.698720 0.000000 
#    z 0.049310 0.000000 1.685070 
# 
# From -- ./inp_files/52105.got.cif
#   From: 2010.06.25/outbox.cif.g09.slc.cpg/sg12_27_cif.got.tgz:52105.got - 2010.06.28 00:19:55.
