data_PCOD8086217
_publ_section_title
;
Structure prediction by ZEFSAII (Michael W. Deem and Ramdas Pophale) SiO2 
 PCOD8086217
Probable space group: C 2/M
;
_chemical_formula_sum "Si O2"
_cell_formula_units_Z 64
_cell_length_a 22.645540
_cell_length_b 9.197860
_cell_length_c 17.265054
_cell_angle_alpha 90.000000
_cell_angle_beta 102.231214
_cell_angle_gamma 90.000000
_cell_volume 3514.516547
_symmetry_space_group_name_H-M "C 2/M"
_symmetry_group_IT_number 12
_symmetry_cell_setting 'monoclinic'
loop_
_space_group_symop_operation_xyz
x,y,z
-x,y,-z
-x,-y,-z
x,-y,z
1/2+x,1/2+y,z
1/2-x,1/2+y,-z
1/2-x,1/2-y,-z
1/2+x,1/2-y,z
loop_
_atom_site_type_symbol
_atom_site_label
_atom_site_fract_x
_atom_site_fract_y
_atom_site_fract_z
Si Si1 0.446420 0.327630 0.259877
Si Si2 0.592837 0.828370 0.041342
Si Si3 0.974706 0.827506 0.573199
Si Si4 0.728628 0.827014 0.071265
Si Si5 0.512346 0.172299 0.879175
Si Si6 0.339320 0.330107 0.552748
Si Si7 0.758565 0.830016 0.384137
Si Si8 0.810074 0.172464 0.236674
O O1 0.448201 0.500000 0.249605
O O2 0.480460 0.277634 0.346768
O O3 0.481193 0.254892 0.199045
O O4 0.377984 0.268186 0.245421
O O5 0.660885 0.772051 0.070942
O O6 0.551610 0.776941 0.101747
O O7 0.590609 0.000000 0.039025
O O8 0.565522 0.774584 0.951892
O O9 0.907363 0.768262 0.570583
O O10 0.000000 0.761663 0.500000
O O11 0.971616 0.000000 0.565756
O O12 0.770386 0.773547 0.153361
O O13 0.731691 0.000000 0.060856
O O14 0.750000 0.750000 0.000000
O O15 0.514626 0.000000 0.865683
O O16 0.337336 0.500000 0.570995
O O17 0.303485 0.249283 0.610935
O O18 0.310222 0.296078 0.461268
O O19 0.781422 0.767401 0.308292
O O20 0.744415 0.000000 0.375112
O O21 0.811607 0.000000 0.241608
#
# Coordination Sequence:
#
# PCOD8086217 Si02
#       8
#     8   8   8   8   8   8   8   8
#     4  10  19  31  48  71  95 118 152 197 235 266
#     4   8  16  31  50  68  90 124 159 185 217 277
#     4   9  17  30  49  69  91 124 160 189 223 274
#     4  10  19  32  49  69  93 121 154 191 231 273
#     4   9  17  32  51  69  91 122 157 188 225 275
#     4   9  17  30  49  72  95 120 154 193 228 266
#     4   9  17  31  50  70  94 125 156 185 225 276
#     4   9  18  31  48  69  93 122 155 190 228 275
#
# _framework density 18.210186
#
# number of rings (size 3 to 8) (size 9 to 14) (size 15 to 20)
#    0.000    2.875    0.000    2.250    0.000    4.000 
#    0.000    5.000    0.000    3.000    0.000    0.000 
#    0.000    0.000    0.000    0.000    0.000    0.000 
#
# Total GULP energy -396765.163933 kJ/mol
# GULP energy per Si atom -12398.911373 kJ/mol
# Density = 1.816874 g / cm^3
# Si number density = 18.210186 Si / 1000 Ang^3
#
#
#
# Elastic Constant Matrix: (Units=GPa)
#
#
# Indices 1 2 3 4 5 6 
#
# 1 181.3784 29.7933 93.3621 0.0000 0.9384 0.0000
# 2 29.7933 22.2459 33.7546 0.0000 -3.5472 0.0000
# 3 93.3621 33.7546 162.7477 0.0000 -12.6520 0.0000
# 4 0.0000 0.0000 0.0000 25.4301 0.0000 -7.7546
# 5 0.9384 -3.5472 -12.6520 0.0000 32.6531 0.0000
# 6 0.0000 0.0000 0.0000 -7.7546 0.0000 20.9647
#
#
#
# Elastic Compliance Matrix: (Units=1/GPa)
#
#
# Indices 1 2 3 4 5 6 
#
# 1 0.008459 -0.005930 -0.003806 0.000000 -0.002362 0.000000
# 2 -0.005930 0.069868 -0.010812 0.000000 0.003571 0.000000
# 3 -0.003806 -0.010812 0.010813 0.000000 0.003125 0.000000
# 4 0.000000 0.000000 0.000000 0.044323 0.000000 0.016394
# 5 -0.002362 0.003571 0.003125 0.000000 0.032292 0.000000
# 6 0.000000 0.000000 0.000000 0.016394 0.000000 0.053763
#
#
# Mechanical properties :
#
#
# Convention : Reuss Voigt Hill
#
# Bulk Modulus (GPa) = 20.81392 75.57689 48.19540
# Shear Modulus (GPa) = 18.07479 29.77369 23.92424
#
# Velocity S-wave (km/s) = 3.15392 4.04790 3.62855
# Velocity P-wave (km/s) = 4.97168 7.96492 6.63918
#
# Compressibility (1/GPa) = 0.04804477
#
# Stress axis : x y z
#
# Youngs Moduli (GPa) = 118.21976 14.31267 92.47925
#
# Poissons Ratio (x) = 0.08487 0.35200
# Poissons Ratio (y) = 0.70104 0.99984
# Poissons Ratio (z) = 0.44997 0.15474
#
# Static dielectric constant tensor:
#      x y z
#    x 3.940930 0.000000 0.021970 
#    y 0.000000 2.898420 0.000000 
#    z 0.021970 0.000000 3.418700 
# 
# 
# High freq. dielectric constant tensor:
#      x y z
#    x 1.721310 0.000000 -0.003990 
#    y 0.000000 1.657050 0.000000 
#    z -0.003990 0.000000 1.711960 
# 
# From -- ./inp_files/281427.got.cif
#   From: 2010.06.25/outbox.cif.g09.slc.cpg/sg12_141_cif.got.tgz:281427.got - 2010.06.28 00:19:55.
