data_PCOD8086795
_publ_section_title
;
Structure prediction by ZEFSAII (Michael W. Deem and Ramdas Pophale) SiO2 
 PCOD8086795
Probable space group: C 2/M
;
_chemical_formula_sum "Si O2"
_cell_formula_units_Z 64
_cell_length_a 19.549343
_cell_length_b 8.827953
_cell_length_c 22.931885
_cell_angle_alpha 90.000000
_cell_angle_beta 53.486611
_cell_angle_gamma 90.000000
_cell_volume 3180.793989
_symmetry_space_group_name_H-M "C 2/M"
_symmetry_group_IT_number 12
_symmetry_cell_setting 'monoclinic'
loop_
_space_group_symop_operation_xyz
x,y,z
-x,y,-z
-x,-y,-z
x,-y,z
1/2+x,1/2+y,z
1/2-x,1/2+y,-z
1/2-x,1/2-y,-z
1/2+x,1/2-y,z
loop_
_atom_site_type_symbol
_atom_site_label
_atom_site_fract_x
_atom_site_fract_y
_atom_site_fract_z
Si Si1 0.494035 0.166445 0.070671
Si Si2 0.681033 0.169980 0.119275
Si Si3 0.655553 0.671267 0.015205
Si Si4 0.390510 0.676222 0.211301
Si Si5 0.263477 0.819662 0.363478
Si Si6 0.102403 0.321818 0.609557
Si Si7 0.024186 0.827544 0.243469
Si Si8 0.589773 0.179992 0.483724
O O1 0.559290 0.302278 0.047336
O O2 0.406317 0.233208 0.142753
O O3 0.511575 0.000000 0.090846
O O4 0.500000 0.137639 0.000000
O O5 0.673924 0.200865 0.053913
O O6 0.623273 0.282265 0.186525
O O7 0.651489 0.000000 0.149280
O O8 0.783608 0.192081 0.073675
O O9 0.664864 0.500000 0.035366
O O10 0.371528 0.500000 0.209378
O O11 0.309497 0.749099 0.284102
O O12 0.475317 0.700033 0.207544
O O13 0.313970 0.765390 0.396844
O O14 0.167499 0.757816 0.410343
O O15 0.263579 0.000000 0.358609
O O16 0.102375 0.500000 0.607600
O O17 0.098150 0.258831 0.545882
O O18 0.016657 0.270204 0.684681
O O19 0.018836 0.000000 0.266062
O O20 0.500000 0.229996 0.500000
O O21 0.600019 0.000000 0.474914
#
# Coordination Sequence:
#
# PCOD8086795 Si02
#       8
#     8   8   8   8   8   8   8   8
#     4  11  23  37  54  77 107 144 185 231 281 331
#     4  10  19  31  51  76 106 138 172 221 274 327
#     4  10  20  33  50  75 102 137 181 221 271 327
#     4  10  20  35  56  81 108 140 183 231 277 329
#     4  10  20  35  59  87 114 145 184 233 283 333
#     4   9  19  35  56  83 114 148 187 231 281 332
#     4  10  19  31  52  82 111 140 180 230 279 328
#     4  10  21  38  59  84 116 153 189 226 273 335
#
# _framework density 20.120761999999999
#
# number of rings (size 3 to 8) (size 9 to 14) (size 15 to 20)
#    0.000    2.000    1.250    2.625    0.000    4.750 
#    0.000    1.250    0.000    1.500    0.000    0.000 
#    0.000    0.000    0.000    0.000    0.000    0.000 
#
# Total GULP energy -396509.836649 kJ/mol
# GULP energy per Si atom -12390.932395 kJ/mol
# Density = 2.007497 g / cm^3
# Si number density = 20.120762 Si / 1000 Ang^3
#
#
#
# Elastic Constant Matrix: (Units=GPa)
#
#
# Indices 1 2 3 4 5 6 
#
# 1 61.6387 30.2162 55.3662 -0.0027 -14.9590 -0.0002
# 2 30.2162 57.4355 39.3960 -0.0057 -5.6883 0.0003
# 3 55.3662 39.3960 138.2990 -0.0005 -21.1817 0.0000
# 4 -0.0027 -0.0057 -0.0005 -84.9644 0.0002 9.8402
# 5 -14.9590 -5.6883 -21.1817 0.0002 28.7520 0.0000
# 6 -0.0002 0.0003 0.0000 9.8402 0.0000 18.6746
#
#
#
# Elastic Compliance Matrix: (Units=1/GPa)
#
#
# Indices 1 2 3 4 5 6 
#
# 1 0.030068 -0.009456 -0.008154 0.000000 0.007766 0.000001
# 2 -0.009456 0.024615 -0.003645 -0.000001 -0.002735 0.000000
# 3 -0.008154 -0.003645 0.012143 0.000000 0.003982 0.000000
# 4 0.000000 -0.000001 0.000000 -0.011093 0.000000 0.005845
# 5 0.007766 -0.002735 0.003982 0.000000 0.041213 0.000000
# 6 0.000001 0.000000 0.000000 0.005845 0.000000 0.050469
#
#
# Mechanical properties :
#
#
# Convention : Reuss Voigt Hill
#
# Bulk Modulus (GPa) = 41.12630 56.36999 48.74815
# Shear Modulus (GPa) = 25.24835 1.31877 13.28356
#
# Velocity S-wave (km/s) = 3.54622 0.81046 2.57221
# Velocity P-wave (km/s) = 6.10341 5.38075 5.75344
#
# Compressibility (1/GPa) = 0.02431534
#
# Stress axis : x y z
#
# Youngs Moduli (GPa) = 33.25757 40.62562 82.34860
#
# Poissons Ratio (x) = 0.38417 0.67150
# Poissons Ratio (y) = 0.31449 0.30017
# Poissons Ratio (z) = 0.27119 0.14808
#
# Static dielectric constant tensor:
#      x y z
#    x 3.763910 0.000000 -0.090920 
#    y 0.000000 3.670490 0.000000 
#    z -0.090920 0.000000 3.788030 
# 
# 
# High freq. dielectric constant tensor:
#      x y z
#    x 1.741740 0.000000 -0.022370 
#    y 0.000000 1.793060 0.000000 
#    z -0.022370 0.000000 1.795600 
# 
# From -- ./inp_files/346073.got.cif
#   From: 2010.06.25/outbox.cif.g09.slc.cpg/sg12_174_cif.got.tgz:346073.got - 2010.06.28 00:19:55.
