data_PCOD8086902
_publ_section_title
;
Structure prediction by ZEFSAII (Michael W. Deem and Ramdas Pophale) SiO2 
 PCOD8086902
Probable space group: C 2/M
;
_chemical_formula_sum "Si O2"
_cell_formula_units_Z 64
_cell_length_a 30.559730
_cell_length_b 9.193288
_cell_length_c 22.042205
_cell_angle_alpha 90.000000
_cell_angle_beta 32.890130
_cell_angle_gamma 90.000000
_cell_volume 3362.784858
_symmetry_space_group_name_H-M "C 2/M"
_symmetry_group_IT_number 12
_symmetry_cell_setting 'monoclinic'
loop_
_space_group_symop_operation_xyz
x,y,z
-x,y,-z
-x,-y,-z
x,-y,z
1/2+x,1/2+y,z
1/2-x,1/2+y,-z
1/2-x,1/2-y,-z
1/2+x,1/2-y,z
loop_
_atom_site_type_symbol
_atom_site_label
_atom_site_fract_x
_atom_site_fract_y
_atom_site_fract_z
Si Si1 0.742817 0.169187 0.645605
Si Si2 0.900741 0.332176 0.275571
Si Si3 0.923229 0.829872 0.752989
Si Si4 0.432561 0.835941 0.964305
Si Si5 0.791892 0.172750 0.191420
Si Si6 0.195982 0.169096 0.205108
Si Si7 0.659141 0.162179 0.048924
Si Si8 0.409091 0.671573 0.392305
O O1 0.683145 0.201004 0.659500
O O2 0.718027 0.272077 0.729209
O O3 0.831432 0.216796 0.521319
O O4 0.739284 0.000000 0.669383
O O5 0.907704 0.500000 0.286801
O O6 0.906105 0.237484 0.329292
O O7 0.972789 0.294002 0.143854
O O8 0.892727 0.794998 0.719502
O O9 0.858735 0.767969 0.875159
O O10 0.013139 0.769512 0.660564
O O11 0.921656 0.000000 0.765382
O O12 0.411850 0.826197 0.917493
O O13 0.417022 0.000000 0.006992
O O14 0.378576 0.726436 0.066238
O O15 0.716951 0.234348 0.239154
O O16 0.789890 0.000000 0.191643
O O17 0.204179 0.000000 0.214663
O O18 0.258038 0.207995 0.079420
O O19 0.664880 0.000000 0.068733
O O20 0.412875 0.500000 0.379227
#
# Coordination Sequence:
#
# PCOD8086902 Si02
#       8
#     8   8   8   8   8   8   8   8
#     4  10  22  40  59  78 107 151 190 223 269 328
#     4  10  20  36  60  85 110 145 185 220 268 330
#     4  10  19  31  51  80 111 143 178 220 270 322
#     4   9  18  34  55  81 113 147 179 217 270 332
#     4  11  23  38  57  81 108 141 185 234 278 319
#     4   9  19  35  53  75 108 147 183 217 264 331
#     4   9  16  28  48  75 109 144 177 216 263 320
#     4  10  21  36  56  85 117 144 179 227 276 318
#
# _framework density 19.031845000000001
#
# number of rings (size 3 to 8) (size 9 to 14) (size 15 to 20)
#    0.000    2.250    1.250    2.625    0.000    4.500 
#    0.000    3.125    0.000    3.750    0.000    0.000 
#    0.000    0.000    0.000    0.000    0.000    0.000 
#
# Total GULP energy -396729.691013 kJ/mol
# GULP energy per Si atom -12397.802844 kJ/mol
# Density = 1.898853 g / cm^3
# Si number density = 19.031845 Si / 1000 Ang^3
#
#
#
# Elastic Constant Matrix: (Units=GPa)
#
#
# Indices 1 2 3 4 5 6 
#
# 1 48.9864 25.3160 30.7958 0.0000 -11.8601 -0.0067
# 2 25.3160 61.4449 29.8902 0.0035 2.3616 -0.0036
# 3 30.7958 29.8902 60.3179 0.0014 -4.9123 -0.0013
# 4 0.0000 0.0035 0.0014 21.2155 0.0021 6.6875
# 5 -11.8601 2.3616 -4.9123 0.0021 27.7640 -0.0018
# 6 -0.0067 -0.0036 -0.0013 6.6875 -0.0018 30.1225
#
#
#
# Elastic Compliance Matrix: (Units=1/GPa)
#
#
# Indices 1 2 3 4 5 6 
#
# 1 0.036927 -0.009430 -0.013018 -0.000001 0.014273 0.000008
# 2 -0.009430 0.024246 -0.007809 -0.000003 -0.007472 0.000001
# 3 -0.013018 -0.007809 0.027086 0.000000 -0.000104 -0.000003
# 4 -0.000001 -0.000003 0.000000 0.050682 -0.000005 -0.011252
# 5 0.014273 -0.007472 -0.000104 -0.000005 0.042732 0.000006
# 6 0.000008 0.000001 -0.000003 -0.011252 0.000006 0.035696
#
#
# Mechanical properties :
#
#
# Convention : Reuss Voigt Hill
#
# Bulk Modulus (GPa) = 36.04207 38.08368 37.06288
# Shear Modulus (GPa) = 17.41367 21.47024 19.44195
#
# Velocity S-wave (km/s) = 3.02814 3.36240 3.19963
# Velocity P-wave (km/s) = 5.58615 5.92691 5.75905
#
# Compressibility (1/GPa) = 0.02774535
#
# Stress axis : x y z
#
# Youngs Moduli (GPa) = 27.08064 41.24410 36.91913
#
# Poissons Ratio (x) = 0.38894 0.48060
# Poissons Ratio (y) = 0.25538 0.28829
# Poissons Ratio (z) = 0.35253 0.32206
#
# Static dielectric constant tensor:
#      x y z
#    x 3.621290 -0.000010 -0.410650 
#    y -0.000010 3.341280 0.000020 
#    z -0.410650 0.000020 3.564080 
# 
# 
# High freq. dielectric constant tensor:
#      x y z
#    x 1.741230 0.000000 -0.019600 
#    y 0.000000 1.725890 0.000000 
#    z -0.019600 0.000000 1.730960 
# 
# From -- ./inp_files/353313.got.cif
#   From: 2010.06.25/outbox.cif.g09.slc.cpg/sg12_177_cif.got.tgz:353313.got - 2010.06.28 00:19:55.
