data_PCOD8086647
_publ_section_title
;
Structure prediction by ZEFSAII (Michael W. Deem and Ramdas Pophale) SiO2 
 PCOD8086647
Probable space group: C 2/M
;
_chemical_formula_sum "Si O2"
_cell_formula_units_Z 60
_cell_length_a 21.112273
_cell_length_b 14.013402
_cell_length_c 15.003541
_cell_angle_alpha 90.000000
_cell_angle_beta 134.054610
_cell_angle_gamma 90.000000
_cell_volume 3190.114843
_symmetry_space_group_name_H-M "C 2/M"
_symmetry_group_IT_number 12
_symmetry_cell_setting 'monoclinic'
loop_
_space_group_symop_operation_xyz
x,y,z
-x,y,-z
-x,-y,-z
x,-y,z
1/2+x,1/2+y,z
1/2-x,1/2+y,-z
1/2-x,1/2-y,-z
1/2+x,1/2-y,z
loop_
_atom_site_type_symbol
_atom_site_label
_atom_site_fract_x
_atom_site_fract_y
_atom_site_fract_z
Si Si1 0.308134 0.891274 0.301018
Si Si2 0.500000 0.743608 0.000000
Si Si3 0.148037 0.392385 0.358783
Si Si4 0.368544 0.610637 0.773201
Si Si5 0.039040 0.608550 0.906226
Si Si6 0.342783 0.608584 0.540917
Si Si7 0.581652 0.785932 0.456486
Si Si8 0.912205 0.391741 0.239235
O O1 0.211062 0.862740 0.237648
O O2 0.381491 0.821131 0.413281
O O3 0.320747 0.881491 0.205291
O O4 0.327810 0.000000 0.350305
O O5 0.551002 0.676707 0.118913
O O6 0.435112 0.814414 0.993043
O O7 0.144369 0.500000 0.391252
O O8 0.065644 0.373632 0.213217
O O9 0.243093 0.374239 0.406080
O O10 0.144656 0.327612 0.442188
O O11 0.395102 0.500000 0.809641
O O12 0.345132 0.635364 0.648397
O O13 0.055250 0.500000 0.955594
O O14 0.098387 0.629509 0.876440
O O15 0.372964 0.500000 0.556545
O O16 0.409969 0.671494 0.547508
O O17 0.481464 0.818160 0.348519
O O18 0.949667 0.500000 0.284915
#
# Coordination Sequence:
#
# PCOD8086647 Si02
#       8
#     8   4   8   8   8   8   8   8
#     4  10  19  31  50  75 103 130 163 205 254 300
#     4  12  22  34  52  74 100 134 172 210 246 292
#     4   9  16  28  47  75 104 127 153 199 257 309
#     4  10  21  35  50  73 102 135 169 208 248 294
#     4   9  19  33  52  75 102 130 162 205 258 305
#     4  10  20  32  48  74 107 135 167 205 250 300
#     4  11  17  25  49  76 105 132 160 193 251 306
#     4   9  18  32  50  76 103 128 159 206 257 303
#
# _framework density 18.808101000000001
#
# number of rings (size 3 to 8) (size 9 to 14) (size 15 to 20)
#    0.000    2.133    1.333    4.800    1.867    1.067 
#    0.000    0.667    0.000    1.600    0.000    0.000 
#    0.000    0.000    0.000    0.000    0.000    0.000 
#
# Total GULP energy -371800.524601 kJ/mol
# GULP energy per Si atom -12393.350820 kJ/mol
# Density = 1.876529 g / cm^3
# Si number density = 18.808101 Si / 1000 Ang^3
#
#
#
# Elastic Constant Matrix: (Units=GPa)
#
#
# Indices 1 2 3 4 5 6 
#
# 1 70.0493 30.0881 3.8142 0.0000 -13.1142 0.0000
# 2 30.0881 72.2519 19.4277 0.0000 -8.3012 0.0000
# 3 3.8142 19.4277 25.6638 0.0000 -8.3931 0.0000
# 4 0.0000 0.0000 0.0000 16.2271 0.0000 -5.4700
# 5 -13.1142 -8.3012 -8.3931 0.0000 19.7396 0.0000
# 6 0.0000 0.0000 0.0000 -5.4700 0.0000 21.6007
#
#
#
# Elastic Compliance Matrix: (Units=1/GPa)
#
#
# Indices 1 2 3 4 5 6 
#
# 1 0.020183 -0.009098 0.008156 0.000000 0.013050 0.000000
# 2 -0.009098 0.021547 -0.016229 0.000000 -0.003884 0.000000
# 3 0.008156 -0.016229 0.057586 0.000000 0.023079 0.000000
# 4 0.000000 0.000000 0.000000 0.067377 0.000000 0.017062
# 5 0.013050 -0.003884 0.023079 0.000000 0.067509 0.000000
# 6 0.000000 0.000000 0.000000 0.017062 0.000000 0.050616
#
#
# Mechanical properties :
#
#
# Convention : Reuss Voigt Hill
#
# Bulk Modulus (GPa) = 15.39103 30.51388 22.95246
# Shear Modulus (GPa) = 14.67058 19.15582 16.91320
#
# Velocity S-wave (km/s) = 2.79590 3.19484 3.00200
# Velocity P-wave (km/s) = 4.31552 5.46519 4.92403
#
# Compressibility (1/GPa) = 0.06497290
#
# Stress axis : x y z
#
# Youngs Moduli (GPa) = 49.54721 46.41032 17.36521
#
# Poissons Ratio (x) = 0.42226 -0.14163
# Poissons Ratio (y) = 0.45080 0.28182
# Poissons Ratio (z) = -0.40410 0.75320
#
# Static dielectric constant tensor:
#      x y z
#    x 3.321500 0.000000 -0.123480 
#    y 0.000000 3.578790 0.000000 
#    z -0.123480 0.000000 3.120430 
# 
# 
# High freq. dielectric constant tensor:
#      x y z
#    x 1.710380 0.000000 -0.015030 
#    y 0.000000 1.735490 0.000000 
#    z -0.015030 0.000000 1.691270 
# 
# From -- ./inp_files/233466.got.cif
#   From: 2010.06.25/outbox.cif.g09.slc.cpg/sg12_117_cif.got.tgz:233466.got - 2010.06.28 00:19:55.
