data_PCOD8086829
_publ_section_title
;
Structure prediction by ZEFSAII (Michael W. Deem and Ramdas Pophale) SiO2 
 PCOD8086829
Probable space group: C 2/M
;
_chemical_formula_sum "Si O2"
_cell_formula_units_Z 56
_cell_length_a 20.050450
_cell_length_b 9.044441
_cell_length_c 30.366109
_cell_angle_alpha 90.000000
_cell_angle_beta 149.555612
_cell_angle_gamma 90.000000
_cell_volume 2790.277914
_symmetry_space_group_name_H-M "C 2/M"
_symmetry_group_IT_number 12
_symmetry_cell_setting 'monoclinic'
loop_
_space_group_symop_operation_xyz
x,y,z
-x,y,-z
-x,-y,-z
x,-y,z
1/2+x,1/2+y,z
1/2-x,1/2+y,-z
1/2-x,1/2-y,-z
1/2+x,1/2-y,z
loop_
_atom_site_type_symbol
_atom_site_label
_atom_site_fract_x
_atom_site_fract_y
_atom_site_fract_z
Si Si1 0.934523 0.832524 0.643695
Si Si2 0.508023 0.329372 0.589032
Si Si3 0.073145 0.176186 0.228988
Si Si4 0.149678 0.327546 0.094661
Si Si5 0.200082 0.674137 0.224084
Si Si6 0.615464 0.824983 0.813514
Si Si7 0.707360 0.166284 0.578758
O O1 0.931645 0.793878 0.590767
O O2 0.787572 0.820885 0.578717
O O3 0.029802 0.718623 0.722322
O O4 0.990273 0.000000 0.682696
O O5 0.508504 0.500000 0.578130
O O6 0.657043 0.271378 0.677834
O O7 0.429759 0.253141 0.504398
O O8 0.090512 0.237211 0.189523
O O9 0.200804 0.228996 0.329859
O O10 0.942947 0.248197 0.175944
O O11 0.057539 0.000000 0.220904
O O12 0.176672 0.500000 0.101658
O O13 0.185014 0.283081 0.164661
O O14 0.236850 0.233098 0.110270
O O15 0.000000 0.285181 0.000000
O O16 0.179530 0.500000 0.219396
O O17 0.615306 0.000000 0.819924
O O18 0.667864 0.000000 0.567226
#
# Coordination Sequence:
#
# PCOD8086829 Si02
#       7
#     8   8   8   8   8   8   8
#     4   9  17  33  52  75 112 154 194 236 285 339
#     4  10  19  31  51  77 113 152 190 240 288 335
#     4  10  22  40  59  80 115 160 199 236 283 339
#     4  10  21  41  68  92 118 151 184 226 287 352
#     4  10  21  38  59  86 116 148 191 239 286 341
#     4  11  21  35  60  90 118 150 190 239 285 337
#     4   9  19  32  49  75 109 151 200 243 276 330
#
# _framework density 20.069685
#
# number of rings (size 3 to 8) (size 9 to 14) (size 15 to 20)
#    0.000    2.143    1.429    3.000    0.000    5.429 
#    0.000    3.571    0.000    0.000    0.000    0.000 
#    0.000    0.000    0.000    0.000    0.000    0.000 
#
# Total GULP energy -347206.442829 kJ/mol
# GULP energy per Si atom -12400.230101 kJ/mol
# Density = 2.002401 g / cm^3
# Si number density = 20.069685 Si / 1000 Ang^3
#
#
#
# Elastic Constant Matrix: (Units=GPa)
#
#
# Indices 1 2 3 4 5 6 
#
# 1 104.7097 46.2425 28.3286 -0.0001 7.2682 0.0001
# 2 46.2425 81.9679 30.9146 -0.0002 10.1765 0.0002
# 3 28.3286 30.9146 68.3575 -0.0006 25.0994 -0.0005
# 4 -0.0001 -0.0002 -0.0006 24.7591 -0.0001 4.3346
# 5 7.2682 10.1765 25.0994 -0.0001 15.8144 -0.0001
# 6 0.0001 0.0002 -0.0005 4.3346 -0.0001 32.2190
#
#
#
# Elastic Compliance Matrix: (Units=1/GPa)
#
#
# Indices 1 2 3 4 5 6 
#
# 1 0.013238 -0.006421 -0.004471 0.000000 0.005144 0.000000
# 2 -0.006421 0.017868 -0.005469 0.000000 0.000132 0.000000
# 3 -0.004471 -0.005469 0.040524 0.000001 -0.058743 0.000000
# 4 0.000000 0.000000 0.000001 0.041364 -0.000001 -0.005565
# 5 0.005144 0.000132 -0.058743 -0.000001 0.154018 0.000000
# 6 0.000000 0.000000 0.000000 -0.005565 0.000000 0.031786
#
#
# Mechanical properties :
#
#
# Convention : Reuss Voigt Hill
#
# Bulk Modulus (GPa) = 25.70013 51.77848 38.73931
# Shear Modulus (GPa) = 14.51425 24.52846 19.52135
#
# Velocity S-wave (km/s) = 2.69214 3.49974 3.12216
# Velocity P-wave (km/s) = 4.74307 6.49510 5.68696
#
# Compressibility (1/GPa) = 0.03891031
#
# Stress axis : x y z
#
# Youngs Moduli (GPa) = 75.53795 55.96504 24.67653
#
# Poissons Ratio (x) = 0.35934 0.11033
# Poissons Ratio (y) = 0.48501 0.13494
# Poissons Ratio (z) = 0.33773 0.30605
#
# Static dielectric constant tensor:
#      x y z
#    x 3.709850 0.000000 0.087370 
#    y 0.000000 3.452580 0.000000 
#    z 0.087370 0.000000 3.425120 
# 
# 
# High freq. dielectric constant tensor:
#      x y z
#    x 1.791670 0.000000 0.007930 
#    y 0.000000 1.771040 0.000000 
#    z 0.007930 0.000000 1.759040 
# 
# From -- ./inp_files/380734.got.cif
#   From: 2010.06.25/outbox.cif.g09.slc.cpg/sg12_191_cif.got.tgz:380734.got - 2010.06.28 00:19:55.
