data_PCOD8086250
_publ_section_title
;
Structure prediction by ZEFSAII (Michael W. Deem and Ramdas Pophale) SiO2 
 PCOD8086250
Probable space group: C 2/M
;
_chemical_formula_sum "Si O2"
_cell_formula_units_Z 64
_cell_length_a 27.609454
_cell_length_b 8.821623
_cell_length_c 15.893511
_cell_angle_alpha 90.000000
_cell_angle_beta 68.981900
_cell_angle_gamma 90.000000
_cell_volume 3613.476272
_symmetry_space_group_name_H-M "C 2/M"
_symmetry_group_IT_number 12
_symmetry_cell_setting 'monoclinic'
loop_
_space_group_symop_operation_xyz
x,y,z
-x,y,-z
-x,-y,-z
x,-y,z
1/2+x,1/2+y,z
1/2-x,1/2+y,-z
1/2-x,1/2-y,-z
1/2+x,1/2-y,z
loop_
_atom_site_type_symbol
_atom_site_label
_atom_site_fract_x
_atom_site_fract_y
_atom_site_fract_z
Si Si1 0.285249 0.677855 0.784710
Si Si2 0.790826 0.674873 0.033774
Si Si3 0.539442 0.678809 0.285852
Si Si4 0.869121 0.321567 0.855555
Si Si5 0.327135 0.676443 0.424622
Si Si6 0.570456 0.822171 0.616146
Si Si7 0.060795 0.165474 0.454359
Si Si8 0.272610 0.175868 0.614591
O O1 0.298206 0.500000 0.780526
O O2 0.226815 0.712234 0.859234
O O3 0.328555 0.765293 0.810840
O O4 0.286362 0.730796 0.688600
O O5 0.784551 0.500000 0.019954
O O6 0.750000 0.750000 0.000000
O O7 0.848265 0.720852 0.963654
O O8 0.530139 0.500000 0.285389
O O9 0.575532 0.738192 0.187969
O O10 0.483783 0.758980 0.315913
O O11 0.570599 0.721693 0.352764
O O12 0.877776 0.500000 0.838592
O O13 0.330809 0.500000 0.444778
O O14 0.383002 0.742137 0.361241
O O15 0.309570 0.767754 0.517623
O O16 0.287278 0.704648 0.373162
O O17 0.580265 0.785510 0.510966
O O18 0.572034 0.000000 0.629581
O O19 0.000000 0.143882 0.500000
O O20 0.087121 0.000000 0.454009
O O21 0.283606 0.000000 0.624158
#
# Coordination Sequence:
#
# PCOD8086250 Si02
#       8
#     8   8   8   8   8   8   8   8
#     4  10  19  32  51  73 100 133 164 196 245 298
#     4   8  16  30  47  69  97 130 162 196 239 287
#     4  10  20  33  47  67  96 130 167 199 238 291
#     4  10  19  31  48  72 103 132 166 206 237 278
#     4  10  21  37  54  70  96 129 162 204 250 290
#     4  11  21  32  49  70  94 125 163 203 243 286
#     4   8  16  30  44  59  86 122 159 195 231 275
#     4  10  21  36  53  75  97 123 164 208 245 286
#
# _framework density 17.711476999999999
#
# number of rings (size 3 to 8) (size 9 to 14) (size 15 to 20)
#    0.000    2.375    0.000    3.750    1.750    5.250 
#    0.000    0.000    0.000    0.000    0.000    0.875 
#    0.000    7.000    0.000    0.000    0.000    0.000 
#
# Total GULP energy -396505.847686 kJ/mol
# GULP energy per Si atom -12390.807740 kJ/mol
# Density = 1.767116 g / cm^3
# Si number density = 17.711477 Si / 1000 Ang^3
#
#
#
# Elastic Constant Matrix: (Units=GPa)
#
#
# Indices 1 2 3 4 5 6 
#
# 1 66.4935 18.7353 4.0870 0.0000 -15.6766 0.0000
# 2 18.7353 50.3219 1.9041 0.0000 -9.4467 0.0000
# 3 4.0870 1.9041 36.8465 0.0000 -14.7054 0.0000
# 4 0.0000 0.0000 0.0000 19.0602 0.0000 -6.7247
# 5 -15.6766 -9.4467 -14.7054 0.0000 24.3406 0.0000
# 6 0.0000 0.0000 0.0000 -6.7247 0.0000 26.0572
#
#
#
# Elastic Compliance Matrix: (Units=1/GPa)
#
#
# Indices 1 2 3 4 5 6 
#
# 1 0.019127 -0.004941 0.003011 0.000000 0.012220 0.000000
# 2 -0.004941 0.022950 0.002170 0.000000 0.007036 0.000000
# 3 0.003011 0.002170 0.036637 0.000000 0.024916 0.000000
# 4 0.000000 0.000000 0.000000 0.057721 0.000000 0.014896
# 5 0.012220 0.007036 0.024916 0.000000 0.066738 0.000000
# 6 0.000000 0.000000 0.000000 0.014896 0.000000 0.042222
#
#
# Mechanical properties :
#
#
# Convention : Reuss Voigt Hill
#
# Bulk Modulus (GPa) = 12.62711 22.56831 17.59771
# Shear Modulus (GPa) = 18.42883 22.48730 20.45807
#
# Velocity S-wave (km/s) = 3.22918 3.56707 3.40232
# Velocity P-wave (km/s) = 4.58784 5.45300 5.03902
#
# Compressibility (1/GPa) = 0.07919470
#
# Stress axis : x y z
#
# Youngs Moduli (GPa) = 52.28128 43.57223 27.29446
#
# Poissons Ratio (x) = 0.21530 -0.08218
# Poissons Ratio (y) = 0.25833 -0.05923
# Poissons Ratio (z) = -0.15741 -0.09455
#
# Static dielectric constant tensor:
#      x y z
#    x 3.201820 0.000000 -0.270420 
#    y 0.000000 3.305440 0.000000 
#    z -0.270420 0.000000 3.713510 
# 
# 
# High freq. dielectric constant tensor:
#      x y z
#    x 1.661590 0.000000 -0.030890 
#    y 0.000000 1.698080 0.000000 
#    z -0.030890 0.000000 1.666500 
# 
# From -- ./inp_files/243769.got.cif
#   From: 2010.06.25/outbox.cif.g09.slc.cpg/sg12_122_cif.got.tgz:243769.got - 2010.06.28 00:19:55.
