data_PCOD8086440
_publ_section_title
;
Structure prediction by ZEFSAII (Michael W. Deem and Ramdas Pophale) SiO2 
 PCOD8086440
Probable space group: C 2/M
;
_chemical_formula_sum "Si O2"
_cell_formula_units_Z 56
_cell_length_a 19.174195
_cell_length_b 9.106373
_cell_length_c 18.543587
_cell_angle_alpha 90.000000
_cell_angle_beta 81.015532
_cell_angle_gamma 90.000000
_cell_volume 3198.120907
_symmetry_space_group_name_H-M "C 2/M"
_symmetry_group_IT_number 12
_symmetry_cell_setting 'monoclinic'
loop_
_space_group_symop_operation_xyz
x,y,z
-x,y,-z
-x,-y,-z
x,-y,z
1/2+x,1/2+y,z
1/2-x,1/2+y,-z
1/2-x,1/2-y,-z
1/2+x,1/2-y,z
loop_
_atom_site_type_symbol
_atom_site_label
_atom_site_fract_x
_atom_site_fract_y
_atom_site_fract_z
Si Si1 0.355369 0.669717 0.855704
Si Si2 0.284734 0.171828 0.600938
Si Si3 0.880931 0.828265 0.694202
Si Si4 0.655513 0.171068 0.562753
Si Si5 0.788356 0.671525 0.059103
Si Si6 0.580253 0.674594 0.005412
Si Si7 0.017204 0.169271 0.578877
O O1 0.373499 0.500000 0.857014
O O2 0.386283 0.731805 0.775502
O O3 0.269806 0.693629 0.867997
O O4 0.396824 0.735941 0.918764
O O5 0.319348 0.239446 0.665790
O O6 0.331051 0.210716 0.523076
O O7 0.208329 0.243052 0.605857
O O8 0.275811 0.000000 0.612907
O O9 0.953216 0.795799 0.641934
O O10 0.861607 0.000000 0.695123
O O11 0.578524 0.225561 0.597070
O O12 0.663995 0.000000 0.576389
O O13 0.801035 0.500000 0.041215
O O14 0.750000 0.750000 0.000000
O O15 0.864497 0.749843 0.060270
O O16 0.588687 0.500000 0.996923
O O17 0.500000 0.722985 0.000000
O O18 0.000000 0.213096 0.500000
O O19 0.041031 0.000000 0.579157
#
# Coordination Sequence:
#
# PCOD8086440 Si02
#       7
#     8   8   8   8   8   8   8
#     4   8  16  31  50  72  98 133 169 201 245 298
#     4  10  20  33  50  72  96 123 162 209 252 299
#     4  10  19  33  52  71  99 134 166 204 253 303
#     4  10  20  33  51  71  95 126 162 208 256 301
#     4   9  16  29  50  74 100 129 165 202 238 288
#     4   9  17  31  52  77 104 133 166 202 241 292
#     4  10  19  31  49  73  98 129 170 212 251 295
#
# _framework density 17.510283000000001
#
# number of rings (size 3 to 8) (size 9 to 14) (size 15 to 20)
#    0.000    2.571    1.429    2.143    0.000    2.286 
#    0.000    5.000    0.000    1.714    0.000    0.000 
#    0.000    0.000    0.000    0.000    0.000    0.000 
#
# Total GULP energy -347032.866339 kJ/mol
# GULP energy per Si atom -12394.030941 kJ/mol
# Density = 1.747043 g / cm^3
# Si number density = 17.510283 Si / 1000 Ang^3
#
#
#
# Elastic Constant Matrix: (Units=GPa)
#
#
# Indices 1 2 3 4 5 6 
#
# 1 136.6818 47.5227 56.7856 0.0000 -3.1732 0.0000
# 2 47.5227 51.9842 30.5678 0.0000 -2.0163 0.0000
# 3 56.7856 30.5678 95.7118 0.0000 -4.8304 0.0000
# 4 0.0000 0.0000 0.0000 16.2778 0.0000 -0.6837
# 5 -3.1732 -2.0163 -4.8304 0.0000 22.6998 0.0000
# 6 0.0000 0.0000 0.0000 -0.6837 0.0000 35.5910
#
#
#
# Elastic Compliance Matrix: (Units=1/GPa)
#
#
# Indices 1 2 3 4 5 6 
#
# 1 0.012116 -0.008433 -0.004496 0.000000 -0.000012 0.000000
# 2 -0.008433 0.029560 -0.004412 0.000000 0.000508 0.000000
# 3 -0.004496 -0.004412 0.014630 0.000000 0.002093 0.000000
# 4 0.000000 0.000000 0.000000 0.061483 0.000000 0.001181
# 5 -0.000012 0.000508 0.002093 0.000000 0.044542 0.000000
# 6 0.000000 0.000000 0.000000 0.001181 0.000000 0.028120
#
#
# Mechanical properties :
#
#
# Convention : Reuss Voigt Hill
#
# Bulk Modulus (GPa) = 46.24311 61.57001 53.90656
# Shear Modulus (GPa) = 21.52032 24.88051 23.20041
#
# Velocity S-wave (km/s) = 3.50953 3.77358 3.64395
# Velocity P-wave (km/s) = 6.54896 7.36377 6.96828
#
# Compressibility (1/GPa) = 0.02162485
#
# Stress axis : x y z
#
# Youngs Moduli (GPa) = 82.53724 33.82989 68.35330
#
# Poissons Ratio (x) = 0.28528 0.30729
# Poissons Ratio (y) = 0.69603 0.30156
# Poissons Ratio (z) = 0.37106 0.14925
#
# Static dielectric constant tensor:
#      x y z
#    x 3.626360 0.000000 0.007220 
#    y 0.000000 3.176250 0.000000 
#    z 0.007220 0.000000 3.471300 
# 
# 
# High freq. dielectric constant tensor:
#      x y z
#    x 1.679020 0.000000 -0.010090 
#    y 0.000000 1.668360 0.000000 
#    z -0.010090 0.000000 1.652620 
# 
# From -- ./inp_files/313272.got.cif
#   From: 2010.06.25/outbox.cif.g09.slc.cpg/sg12_157_cif.got.tgz:313272.got - 2010.06.28 00:19:55.
