data_PCOD8086452
_publ_section_title
;
Structure prediction by ZEFSAII (Michael W. Deem and Ramdas Pophale) SiO2 
 PCOD8086452
Probable space group: C 2/M
;
_chemical_formula_sum "Si O2"
_cell_formula_units_Z 48
_cell_length_a 27.023989
_cell_length_b 8.663595
_cell_length_c 23.431359
_cell_angle_alpha 90.000000
_cell_angle_beta 30.403012
_cell_angle_gamma 90.000000
_cell_volume 2776.281391
_symmetry_space_group_name_H-M "C 2/M"
_symmetry_group_IT_number 12
_symmetry_cell_setting 'monoclinic'
loop_
_space_group_symop_operation_xyz
x,y,z
-x,y,-z
-x,-y,-z
x,-y,z
1/2+x,1/2+y,z
1/2-x,1/2+y,-z
1/2-x,1/2-y,-z
1/2+x,1/2-y,z
loop_
_atom_site_type_symbol
_atom_site_label
_atom_site_fract_x
_atom_site_fract_y
_atom_site_fract_z
Si Si1 0.891701 0.319557 0.050894
Si Si2 0.598229 0.680520 0.839269
Si Si3 0.113230 0.678893 0.607454
Si Si4 0.392951 0.178650 0.840841
Si Si5 0.786415 0.678564 0.374926
Si Si6 0.706544 0.677962 0.955296
O O1 0.890595 0.500000 0.064939
O O2 0.863656 0.229508 0.136355
O O3 0.812295 0.279689 0.081836
O O4 0.998910 0.270547 0.922305
O O5 0.575822 0.500000 0.860977
O O6 0.681118 0.720844 0.711198
O O7 0.134529 0.500000 0.574009
O O8 0.143691 0.720952 0.641628
O O9 0.174822 0.779263 0.501341
O O10 0.999973 0.721598 0.711325
O O11 0.316561 0.214669 0.866401
O O12 0.387251 0.000000 0.865316
O O13 0.369774 0.280680 0.919052
O O14 0.793252 0.500000 0.351683
O O15 0.692460 0.500000 0.953346
#
# Coordination Sequence:
#
# PCOD8086452 Si02
#       6
#     8   8   8   8   8   8
#     4  11  21  34  51  72 100 131 162 198 244 292
#     4  11  21  34  52  74  99 127 162 201 242 289
#     4   9  18  32  49  70  98 132 166 199 238 285
#     4   9  18  32  50  72 100 133 167 204 244 287
#     4  10  19  31  49  74 102 130 161 198 242 290
#     4  10  19  31  49  74 101 130 166 204 244 289
#
# _framework density 17.289313
#
# number of rings (size 3 to 8) (size 9 to 14) (size 15 to 20)
#    0.000    2.000    0.000    6.000    0.000    3.333 
#    0.000    0.000    0.000    1.000    0.000    7.000 
#    0.000    0.000    0.000    0.000    0.000    0.000 
#
# Total GULP energy -297709.681294 kJ/mol
# GULP energy per Si atom -12404.570054 kJ/mol
# Density = 1.724996 g / cm^3
# Si number density = 17.289313 Si / 1000 Ang^3
#
#
#
# Elastic Constant Matrix: (Units=GPa)
#
#
# Indices 1 2 3 4 5 6 
#
# 1 89.0828 24.7560 46.9581 -0.0001 -2.8956 -0.0010
# 2 24.7560 68.6252 27.4151 -0.0186 2.4462 0.0142
# 3 46.9581 27.4151 104.3298 -0.0027 -0.9435 0.0028
# 4 -0.0001 -0.0186 -0.0027 29.2696 0.0017 3.5557
# 5 -2.8956 2.4462 -0.9435 0.0017 23.6013 -0.0011
# 6 -0.0010 0.0142 0.0028 3.5557 -0.0011 27.5302
#
#
#
# Elastic Compliance Matrix: (Units=1/GPa)
#
#
# Indices 1 2 3 4 5 6 
#
# 1 0.015373 -0.003194 -0.006062 -0.000003 0.001975 0.000003
# 2 -0.003194 0.017027 -0.003057 0.000012 -0.002279 -0.000010
# 3 -0.006062 -0.003057 0.013118 -0.000001 0.000098 0.000000
# 4 -0.000003 0.000012 -0.000001 0.034710 -0.000004 -0.004483
# 5 0.001975 -0.002279 0.000098 -0.000004 0.042853 0.000003
# 6 0.000003 -0.000010 0.000000 -0.004483 0.000003 0.036903
#
#
# Mechanical properties :
#
#
# Convention : Reuss Voigt Hill
#
# Bulk Modulus (GPa) = 47.86858 51.14404 49.50631
# Shear Modulus (GPa) = 26.09975 26.94080 26.52028
#
# Velocity S-wave (km/s) = 3.88956 3.95173 3.92077
# Velocity P-wave (km/s) = 6.92232 7.10402 7.01376
#
# Compressibility (1/GPa) = 0.02089053
#
# Stress axis : x y z
#
# Youngs Moduli (GPa) = 65.04980 58.73121 76.23330
#
# Poissons Ratio (x) = 0.18761 0.46212
# Poissons Ratio (y) = 0.20779 0.23305
# Poissons Ratio (z) = 0.39433 0.17954
#
# Static dielectric constant tensor:
#      x y z
#    x 3.160000 -0.000010 -0.054940 
#    y -0.000010 3.290670 0.000020 
#    z -0.054940 0.000020 3.116150 
# 
# 
# High freq. dielectric constant tensor:
#      x y z
#    x 1.655860 0.000000 -0.000130 
#    y 0.000000 1.679770 0.000000 
#    z -0.000130 0.000000 1.655020 
# 
# From -- ./inp_files/351031.got.cif
#   From: 2010.06.25/outbox.cif.g09.slc.cpg/sg12_176_cif.got.tgz:351031.got - 2010.06.28 00:19:55.
