data_PCOD8086941
_publ_section_title
;
Structure prediction by ZEFSAII (Michael W. Deem and Ramdas Pophale) SiO2 
 PCOD8086941
Probable space group: C 2/M
;
_chemical_formula_sum "Si O2"
_cell_formula_units_Z 56
_cell_length_a 24.985093
_cell_length_b 9.247881
_cell_length_c 14.933316
_cell_angle_alpha 90.000000
_cell_angle_beta 105.913021
_cell_angle_gamma 90.000000
_cell_volume 3318.253812
_symmetry_space_group_name_H-M "C 2/M"
_symmetry_group_IT_number 12
_symmetry_cell_setting 'monoclinic'
loop_
_space_group_symop_operation_xyz
x,y,z
-x,y,-z
-x,-y,-z
x,-y,z
1/2+x,1/2+y,z
1/2-x,1/2+y,-z
1/2-x,1/2-y,-z
1/2+x,1/2-y,z
loop_
_atom_site_type_symbol
_atom_site_label
_atom_site_fract_x
_atom_site_fract_y
_atom_site_fract_z
Si Si1 0.079305 0.831041 0.102521
Si Si2 0.238849 0.169476 0.587434
Si Si3 0.946266 0.331095 0.278356
Si Si4 0.066105 0.671321 0.389912
Si Si5 0.854312 0.667440 0.729760
Si Si6 0.369217 0.830628 0.407308
Si Si7 0.542198 0.330845 0.892154
O O1 0.130686 0.748508 0.171472
O O2 0.021565 0.781882 0.122166
O O3 0.088254 0.000000 0.120174
O O4 0.077919 0.792243 0.996732
O O5 0.250000 0.250000 0.500000
O O6 0.290239 0.194870 0.677613
O O7 0.186237 0.236576 0.613377
O O8 0.229951 0.000000 0.563670
O O9 0.952474 0.500000 0.262065
O O10 0.896861 0.299133 0.324549
O O11 0.931243 0.253723 0.178660
O O12 0.004125 0.268021 0.344793
O O13 0.064965 0.500000 0.388274
O O14 0.107859 0.730833 0.333286
O O15 0.088161 0.723024 0.496480
O O16 0.867339 0.500000 0.750029
O O17 0.354734 0.000000 0.413258
O O18 0.544966 0.500000 0.873498
#
# Coordination Sequence:
#
# PCOD8086941 Si02
#       7
#     8   8   8   8   8   8   8
#     4   9  18  32  50  74 102 135 166 201 254 306
#     4  11  22  36  53  74 101 135 173 212 252 292
#     4  10  19  31  52  77 102 136 172 204 247 300
#     4   9  16  30  49  73 104 135 164 201 250 296
#     4  10  19  32  52  75 101 131 167 210 252 294
#     4  10  20  35  52  73 103 138 174 209 245 296
#     4   9  18  32  49  72 106 136 162 201 253 307
#
# _framework density 16.876346000000002
#
# number of rings (size 3 to 8) (size 9 to 14) (size 15 to 20)
#    0.000    2.286    2.857    1.714    0.000    4.000 
#    0.000    2.143    0.000    2.571    0.000    0.000 
#    0.000    0.000    0.000    0.000    0.000    0.000 
#
# Total GULP energy -347217.176179 kJ/mol
# GULP energy per Si atom -12400.613435 kJ/mol
# Density = 1.683793 g / cm^3
# Si number density = 16.876346 Si / 1000 Ang^3
#
#
#
# Elastic Constant Matrix: (Units=GPa)
#
#
# Indices 1 2 3 4 5 6 
#
# 1 101.1270 50.1931 58.3460 0.0000 -3.7239 0.0000
# 2 50.1931 62.8616 61.5380 0.0000 1.2257 0.0000
# 3 58.3460 61.5380 138.2424 0.0000 -3.0743 0.0000
# 4 0.0000 0.0000 0.0000 30.3040 0.0000 -0.4399
# 5 -3.7239 1.2257 -3.0743 0.0000 23.1685 0.0000
# 6 0.0000 0.0000 0.0000 -0.4399 0.0000 27.7915
#
#
#
# Elastic Compliance Matrix: (Units=1/GPa)
#
#
# Indices 1 2 3 4 5 6 
#
# 1 0.016894 -0.011763 -0.001825 0.000000 0.003096 0.000000
# 2 -0.011763 0.036618 -0.011455 0.000000 -0.005348 0.000000
# 3 -0.001825 -0.011455 0.013149 0.000000 0.002057 0.000000
# 4 0.000000 0.000000 0.000000 0.033007 0.000000 0.000522
# 5 0.003096 -0.005348 0.002057 0.000000 0.044216 0.000000
# 6 0.000000 0.000000 0.000000 0.000522 0.000000 0.035991
#
#
# Mechanical properties :
#
#
# Convention : Reuss Voigt Hill
#
# Bulk Modulus (GPa) = 60.33096 71.37613 65.85354
# Shear Modulus (GPa) = 21.23286 25.06305 23.14795
#
# Velocity S-wave (km/s) = 3.55088 3.85788 3.70756
# Velocity P-wave (km/s) = 7.25521 7.88858 7.57852
#
# Compressibility (1/GPa) = 0.01657524
#
# Stress axis : x y z
#
# Youngs Moduli (GPa) = 59.19270 27.30889 76.05308
#
# Poissons Ratio (x) = 0.32123 0.13881
# Poissons Ratio (y) = 0.69628 0.87116
# Poissons Ratio (z) = 0.10803 0.31281
#
# Static dielectric constant tensor:
#      x y z
#    x 3.077830 0.000000 0.044010 
#    y 0.000000 2.988140 0.000000 
#    z 0.044010 0.000000 3.180880 
# 
# 
# High freq. dielectric constant tensor:
#      x y z
#    x 1.632730 0.000000 0.001900 
#    y 0.000000 1.635800 0.000000 
#    z 0.001900 0.000000 1.654090 
# 
# From -- ./inp_files/237305.got.cif
#   From: 2010.06.25/outbox.cif.g09.slc.cpg/sg12_119_cif.got.tgz:237305.got - 2010.06.28 00:19:55.
