data_PCOD8086348
_publ_section_title
;
Structure prediction by ZEFSAII (Michael W. Deem and Ramdas Pophale) SiO2 
 PCOD8086348
Probable space group: C 2/M
;
_chemical_formula_sum "Si O2"
_cell_formula_units_Z 56
_cell_length_a 18.050312
_cell_length_b 9.077153
_cell_length_c 19.649065
_cell_angle_alpha 90.000000
_cell_angle_beta 113.542430
_cell_angle_gamma 90.000000
_cell_volume 2951.440695
_symmetry_space_group_name_H-M "C 2/M"
_symmetry_group_IT_number 12
_symmetry_cell_setting 'monoclinic'
loop_
_space_group_symop_operation_xyz
x,y,z
-x,y,-z
-x,-y,-z
x,-y,z
1/2+x,1/2+y,z
1/2-x,1/2+y,-z
1/2-x,1/2-y,-z
1/2+x,1/2-y,z
loop_
_atom_site_type_symbol
_atom_site_label
_atom_site_fract_x
_atom_site_fract_y
_atom_site_fract_z
Si Si1 0.079403 0.171306 0.989964
Si Si2 0.375772 0.331291 0.571647
Si Si3 0.535191 0.825895 0.287270
Si Si4 0.187469 0.670236 0.256624
Si Si5 0.270328 0.330819 0.417262
Si Si6 0.900401 0.829201 0.157552
Si Si7 0.280846 0.174730 0.880554
O O1 0.156807 0.259648 0.043193
O O2 0.095023 0.000000 0.010014
O O3 0.066438 0.203031 0.905650
O O4 0.000000 0.228189 0.000000
O O5 0.396239 0.500000 0.595826
O O6 0.447707 0.232879 0.629549
O O7 0.359876 0.308487 0.483794
O O8 0.290650 0.287136 0.573565
O O9 0.607339 0.766834 0.264571
O O10 0.450850 0.763781 0.230210
O O11 0.530927 0.000000 0.288324
O O12 0.172191 0.500000 0.237389
O O13 0.266826 0.694379 0.334075
O O14 0.202075 0.743554 0.188379
O O15 0.240936 0.500000 0.421376
O O16 0.808044 0.776731 0.128734
O O17 0.908809 0.000000 0.179831
O O18 0.289376 0.000000 0.884748
#
# Coordination Sequence:
#
# PCOD8086348 Si02
#       7
#     8   8   8   8   8   8   8
#     4  10  21  36  53  74 101 128 155 193 238 284
#     4   9  15  24  42  68  97 126 157 198 243 283
#     4  10  19  31  49  71  96 127 162 200 240 285
#     4   8  15  29  48  71  96 122 158 201 239 277
#     4   8  14  25  42  66  96 127 159 196 239 285
#     4  10  21  35  50  71  98 127 160 197 238 283
#     4  10  20  34  53  74  97 126 160 198 236 280
#
# _framework density 18.973783999999998
#
# number of rings (size 3 to 8) (size 9 to 14) (size 15 to 20)
#    0.000    2.714    0.000    3.000    0.000    2.000 
#    0.000    2.857    0.000    0.857    0.000    6.000 
#    0.000    0.000    0.000    0.000    0.000    0.000 
#
# Total GULP energy -346980.703456 kJ/mol
# GULP energy per Si atom -12392.167981 kJ/mol
# Density = 1.893060 g / cm^3
# Si number density = 18.973784 Si / 1000 Ang^3
#
#
#
# Elastic Constant Matrix: (Units=GPa)
#
#
# Indices 1 2 3 4 5 6 
#
# 1 59.3520 22.6907 25.7739 0.0000 22.3203 0.0000
# 2 22.6907 53.2005 41.7653 0.0000 16.3389 0.0000
# 3 25.7739 41.7653 117.1831 0.0000 33.4932 0.0000
# 4 0.0000 0.0000 0.0000 31.9319 0.0000 9.0390
# 5 22.3203 16.3389 33.4932 0.0000 25.4912 0.0000
# 6 0.0000 0.0000 0.0000 9.0390 0.0000 16.9172
#
#
#
# Elastic Compliance Matrix: (Units=1/GPa)
#
#
# Indices 1 2 3 4 5 6 
#
# 1 0.026832 -0.006777 0.003183 0.000000 -0.023332 0.000000
# 2 -0.006777 0.028667 -0.008281 0.000000 -0.001561 0.000000
# 3 0.003183 -0.008281 0.016117 0.000000 -0.018656 0.000000
# 4 0.000000 0.000000 0.000000 0.036897 0.000000 -0.019715
# 5 -0.023332 -0.001561 -0.018656 0.000000 0.085171 0.000000
# 6 0.000000 0.000000 0.000000 -0.019715 0.000000 0.069645
#
#
# Mechanical properties :
#
#
# Convention : Reuss Voigt Hill
#
# Bulk Modulus (GPa) = 20.89156 45.57724 33.23440
# Shear Modulus (GPa) = 16.49974 24.16845 20.33409
#
# Velocity S-wave (km/s) = 2.95211 3.57288 3.27723
# Velocity P-wave (km/s) = 4.75968 6.41045 5.64573
#
# Compressibility (1/GPa) = 0.04786621
#
# Stress axis : x y z
#
# Youngs Moduli (GPa) = 37.26916 34.88283 62.04580
#
# Poissons Ratio (x) = 0.23640 -0.19747
# Poissons Ratio (y) = 0.25257 0.51379
# Poissons Ratio (z) = -0.11861 0.28886
#
# Static dielectric constant tensor:
#      x y z
#    x 3.224130 0.000000 -0.079670 
#    y 0.000000 3.278140 0.000000 
#    z -0.079670 0.000000 3.902150 
# 
# 
# High freq. dielectric constant tensor:
#      x y z
#    x 1.691130 0.000000 0.006860 
#    y 0.000000 1.720950 0.000000 
#    z 0.006860 0.000000 1.763390 
# 
# From -- ./inp_files/313726.got.cif
#   From: 2010.06.25/outbox.cif.g09.slc.cpg/sg12_157_cif.got.tgz:313726.got - 2010.06.28 00:19:55.
