data_PCOD8086383
_publ_section_title
;
Structure prediction by ZEFSAII (Michael W. Deem and Ramdas Pophale) SiO2 
 PCOD8086383
Probable space group: C 2/M
;
_chemical_formula_sum "Si O2"
_cell_formula_units_Z 48
_cell_length_a 18.343219
_cell_length_b 8.964395
_cell_length_c 24.052930
_cell_angle_alpha 90.000000
_cell_angle_beta 42.492505
_cell_angle_gamma 90.000000
_cell_volume 2671.688756
_symmetry_space_group_name_H-M "C 2/M"
_symmetry_group_IT_number 12
_symmetry_cell_setting 'monoclinic'
loop_
_space_group_symop_operation_xyz
x,y,z
-x,y,-z
-x,-y,-z
x,-y,z
1/2+x,1/2+y,z
1/2-x,1/2+y,-z
1/2-x,1/2-y,-z
1/2+x,1/2-y,z
loop_
_atom_site_type_symbol
_atom_site_label
_atom_site_fract_x
_atom_site_fract_y
_atom_site_fract_z
Si Si1 0.141587 0.829901 0.074437
Si Si2 0.600423 0.325666 0.979170
Si Si3 0.169641 0.325250 0.502102
Si Si4 0.325534 0.324646 0.825629
Si Si5 0.921712 0.325932 0.664611
Si Si6 0.873916 0.168724 0.582975
O O1 0.103002 0.785685 0.158568
O O2 0.174654 0.000000 0.059132
O O3 0.250000 0.750000 0.000000
O O4 0.064346 0.799853 0.064627
O O5 0.626169 0.500000 0.953697
O O6 0.702988 0.228393 0.903699
O O7 0.500000 0.269034 0.000000
O O8 0.193803 0.500000 0.485610
O O9 0.250000 0.250000 0.500000
O O10 0.189635 0.256479 0.429669
O O11 0.048401 0.290626 0.589715
O O12 0.326846 0.500000 0.810744
O O13 0.380638 0.234242 0.745896
O O14 0.898377 0.500000 0.672920
O O15 0.854241 0.247438 0.653232
O O16 0.000000 0.172890 0.500000
O O17 0.829972 0.000000 0.610098
#
# Coordination Sequence:
#
# PCOD8086383 Si02
#       6
#     8   8   8   8   8   8
#     4   8  15  28  46  68  92 122 160 196 235 287
#     4   9  17  31  51  72  96 127 162 202 248 298
#     4  10  20  34  53  76 102 133 169 208 249 296
#     4  10  19  31  49  72  98 128 163 204 247 293
#     4  10  20  34  52  74 100 131 168 207 249 299
#     4   9  17  31  52  75  99 129 165 204 248 300
#
# _framework density 17.966163999999999
#
# number of rings (size 3 to 8) (size 9 to 14) (size 15 to 20)
#    0.000    2.667    0.000    2.000    0.000    5.000 
#    0.000    1.667    0.000    6.000    0.000    0.000 
#    0.000    0.000    0.000    0.000    0.000    0.000 
#
# Total GULP energy -297369.940139 kJ/mol
# GULP energy per Si atom -12390.414172 kJ/mol
# Density = 1.792527 g / cm^3
# Si number density = 17.966164 Si / 1000 Ang^3
#
#
#
# Elastic Constant Matrix: (Units=GPa)
#
#
# Indices 1 2 3 4 5 6 
#
# 1 135.1216 54.6810 53.3296 0.0000 38.5439 -0.0003
# 2 54.6810 83.7828 44.1551 0.0000 16.8929 -0.0010
# 3 53.3296 44.1551 97.6788 0.0000 35.9295 0.0000
# 4 0.0000 0.0000 0.0000 29.4243 0.0000 5.2868
# 5 38.5439 16.8929 35.9295 0.0000 32.0807 0.0000
# 6 -0.0003 -0.0010 0.0000 5.2868 0.0000 28.4744
#
#
#
# Elastic Compliance Matrix: (Units=1/GPa)
#
#
# Indices 1 2 3 4 5 6 
#
# 1 0.013702 -0.006426 0.000399 0.000000 -0.013526 0.000000
# 2 -0.006426 0.018687 -0.007073 0.000000 0.005802 0.000001
# 3 0.000399 -0.007073 0.020447 0.000000 -0.019655 0.000000
# 4 0.000000 0.000000 0.000000 0.035158 0.000000 -0.006528
# 5 -0.013526 0.005802 -0.019655 0.000000 0.066380 0.000000
# 6 0.000000 0.000001 0.000000 -0.006528 0.000000 0.036331
#
#
# Mechanical properties :
#
#
# Convention : Reuss Voigt Hill
#
# Bulk Modulus (GPa) = 37.54314 68.99050 53.26682
# Shear Modulus (GPa) = 22.14506 28.95706 25.55106
#
# Velocity S-wave (km/s) = 3.51465 4.01902 3.77527
# Velocity P-wave (km/s) = 6.11656 7.74728 6.97971
#
# Compressibility (1/GPa) = 0.02663602
#
# Stress axis : x y z
#
# Youngs Moduli (GPa) = 72.98308 53.51209 48.90711
#
# Poissons Ratio (x) = 0.34385 -0.01952
# Poissons Ratio (y) = 0.46897 0.34594
# Poissons Ratio (z) = -0.02913 0.37851
#
# Static dielectric constant tensor:
#      x y z
#    x 3.732220 0.000000 0.630240 
#    y 0.000000 3.651120 0.000000 
#    z 0.630240 0.000000 3.312110 
# 
# 
# High freq. dielectric constant tensor:
#      x y z
#    x 1.692040 0.000000 0.040470 
#    y 0.000000 1.708570 0.000000 
#    z 0.040470 0.000000 1.673970 
# 
# From -- ./inp_files/313606.got.cif
#   From: 2010.06.25/outbox.cif.g09.slc.cpg/sg12_157_cif.got.tgz:313606.got - 2010.06.28 00:19:55.
