data_PCOD8086334
_publ_section_title
;
Structure prediction by ZEFSAII (Michael W. Deem and Ramdas Pophale) SiO2 
 PCOD8086334
Probable space group: C 2/M
;
_chemical_formula_sum "Si O2"
_cell_formula_units_Z 48
_cell_length_a 19.072946
_cell_length_b 9.069036
_cell_length_c 18.044577
_cell_angle_alpha 90.000000
_cell_angle_beta 59.382652
_cell_angle_gamma 90.000000
_cell_volume 2686.091647
_symmetry_space_group_name_H-M "C 2/M"
_symmetry_group_IT_number 12
_symmetry_cell_setting 'monoclinic'
loop_
_space_group_symop_operation_xyz
x,y,z
-x,y,-z
-x,-y,-z
x,-y,z
1/2+x,1/2+y,z
1/2-x,1/2+y,-z
1/2-x,1/2-y,-z
1/2+x,1/2-y,z
loop_
_atom_site_type_symbol
_atom_site_label
_atom_site_fract_x
_atom_site_fract_y
_atom_site_fract_z
Si Si1 0.677549 0.830000 0.498043
Si Si2 0.323924 0.672778 0.000908
Si Si3 0.073498 0.827030 0.660064
Si Si4 0.905321 0.171850 0.812723
Si Si5 0.736955 0.825650 0.834208
Si Si6 0.720285 0.667704 0.691818
O O1 0.750000 0.750000 0.500000
O O2 0.593933 0.753438 0.570736
O O3 0.695524 0.813867 0.400463
O O4 0.676477 0.000000 0.522177
O O5 0.306873 0.500000 0.020392
O O6 0.332897 0.749484 0.076543
O O7 0.250000 0.750000 0.000000
O O8 0.400946 0.699507 0.904382
O O9 0.142517 0.792104 0.683512
O O10 0.988399 0.758881 0.735753
O O11 0.068344 0.000000 0.646819
O O12 0.825641 0.234273 0.813016
O O13 0.908296 0.000000 0.794876
O O14 0.722049 0.780789 0.758122
O O15 0.729236 0.000000 0.847168
O O16 0.712910 0.500000 0.725060
#
# Coordination Sequence:
#
# PCOD8086334 Si02
#       6
#     8   8   8   8   8   8
#     4   9  17  30  48  70  94 123 159 192 229 279
#     4   9  16  29  49  70  94 124 159 194 230 278
#     4   9  17  32  52  71  93 121 157 197 233 275
#     4   8  16  31  50  71  92 120 158 194 230 276
#     4  10  19  31  49  71  95 124 159 196 233 277
#     4   9  18  31  48  69  93 122 154 191 234 278
#
# _framework density 17.86983
#
# number of rings (size 3 to 8) (size 9 to 14) (size 15 to 20)
#    0.000    3.000    0.000    3.500    0.000    3.333 
#    0.000    6.667    0.000   10.000    0.000    0.000 
#    0.000    0.000    0.000    0.000    0.000    0.000 
#
# Total GULP energy -297360.162914 kJ/mol
# GULP energy per Si atom -12390.006788 kJ/mol
# Density = 1.782916 g / cm^3
# Si number density = 17.869830 Si / 1000 Ang^3
#
#
#
# Elastic Constant Matrix: (Units=GPa)
#
#
# Indices 1 2 3 4 5 6 
#
# 1 20.5227 3.2648 -2.2724 0.0001 -3.1313 -0.0002
# 2 3.2648 67.2760 18.2136 0.0001 3.8797 -0.0004
# 3 -2.2724 18.2136 47.5775 0.0001 -2.6554 -0.0002
# 4 0.0001 0.0001 0.0001 37.0608 0.0000 3.6641
# 5 -3.1313 3.8797 -2.6554 0.0000 28.0852 0.0000
# 6 -0.0002 -0.0004 -0.0002 3.6641 0.0000 17.7282
#
#
#
# Elastic Compliance Matrix: (Units=1/GPa)
#
#
# Indices 1 2 3 4 5 6 
#
# 1 0.050860 -0.004026 0.004341 0.000000 0.006637 0.000001
# 2 -0.004026 0.017141 -0.006948 0.000000 -0.003474 0.000000
# 3 0.004341 -0.006948 0.024093 0.000000 0.003722 0.000000
# 4 0.000000 0.000000 0.000000 0.027546 0.000000 -0.005693
# 5 0.006637 -0.003474 0.003722 0.000000 0.037178 0.000000
# 6 0.000001 0.000000 0.000000 -0.005693 0.000000 0.057584
#
#
# Mechanical properties :
#
#
# Convention : Reuss Voigt Hill
#
# Bulk Modulus (GPa) = 12.68587 19.30981 15.99784
# Shear Modulus (GPa) = 19.68937 24.31953 22.00445
#
# Velocity S-wave (km/s) = 3.32297 3.69308 3.51290
# Velocity P-wave (km/s) = 4.67304 5.38650 5.04240
#
# Compressibility (1/GPa) = 0.07882783
#
# Stress axis : x y z
#
# Youngs Moduli (GPa) = 19.66172 58.34006 41.50541
#
# Poissons Ratio (x) = 0.23489 -0.18017
# Poissons Ratio (y) = 0.07916 0.28838
# Poissons Ratio (z) = -0.08535 0.40535
#
# Static dielectric constant tensor:
#      x y z
#    x 2.923080 0.000000 -0.382280 
#    y 0.000000 3.321050 0.000000 
#    z -0.382280 0.000000 3.261590 
# 
# 
# High freq. dielectric constant tensor:
#      x y z
#    x 1.639550 0.000000 -0.007280 
#    y 0.000000 1.685360 0.000000 
#    z -0.007280 0.000000 1.713520 
# 
# From -- ./inp_files/274012.got.cif
#   From: 2010.06.25/outbox.cif.g09.slc.cpg/sg12_138_cif.got.tgz:274012.got - 2010.06.28 00:19:55.
