data_PCOD8086369
_publ_section_title
;
Structure prediction by ZEFSAII (Michael W. Deem and Ramdas Pophale) SiO2 
 PCOD8086369
Probable space group: C 2/M
;
_chemical_formula_sum "Si O2"
_cell_formula_units_Z 64
_cell_length_a 12.094488
_cell_length_b 13.808029
_cell_length_c 23.169995
_cell_angle_alpha 90.000000
_cell_angle_beta 111.032898
_cell_angle_gamma 90.000000
_cell_volume 3611.611712
_symmetry_space_group_name_H-M "C 2/M"
_symmetry_group_IT_number 12
_symmetry_cell_setting 'monoclinic'
loop_
_space_group_symop_operation_xyz
x,y,z
-x,y,-z
-x,-y,-z
x,-y,z
1/2+x,1/2+y,z
1/2-x,1/2+y,-z
1/2-x,1/2-y,-z
1/2+x,1/2-y,z
loop_
_atom_site_type_symbol
_atom_site_label
_atom_site_fract_x
_atom_site_fract_y
_atom_site_fract_z
Si Si1 0.640667 0.326197 0.143611
Si Si2 0.213960 0.109894 0.034620
Si Si3 0.939010 0.275424 0.046673
Si Si4 0.575036 0.890288 0.569298
Si Si5 0.867076 0.251745 0.248647
Si Si6 0.554625 0.391663 0.244693
Si Si7 0.948399 0.389856 0.666442
Si Si8 0.257160 0.740176 0.658972
O O1 0.668570 0.387414 0.091794
O O2 0.541787 0.244074 0.112551
O O3 0.759943 0.274722 0.186262
O O4 0.590968 0.395073 0.184323
O O5 0.349688 0.145472 0.055726
O O6 0.206057 0.000000 0.010756
O O7 0.130147 0.174979 0.978693
O O8 0.000000 0.316304 0.000000
O O9 0.500000 0.858242 0.500000
O O10 0.492051 0.885670 0.609404
O O11 0.680873 0.812849 0.595182
O O12 0.624583 0.000000 0.570958
O O13 0.823926 0.220411 0.304131
O O14 0.930781 0.161841 0.230534
O O15 0.955444 0.343565 0.271741
O O16 0.540912 0.500000 0.265016
O O17 0.655358 0.340959 0.300688
O O18 0.926722 0.500000 0.682543
O O19 0.825377 0.331390 0.645193
#
# Coordination Sequence:
#
# PCOD8086369 Si02
#       8
#     8   8   8   8   8   8   8   8
#     4  10  19  33  50  70  96 124 153 191 233 275
#     4  10  20  34  52  72  93 121 157 192 229 276
#     4   9  20  36  51  69  96 124 152 191 233 276
#     4   9  17  30  49  72  96 123 158 198 236 276
#     4   9  19  33  48  69  97 124 154 192 232 276
#     4  10  19  31  49  72  96 123 155 191 232 277
#     4   9  18  32  49  69  94 126 161 193 231 278
#     4   9  18  32  49  69  95 127 158 193 234 276
#
# _framework density 17.72062
#
# number of rings (size 3 to 8) (size 9 to 14) (size 15 to 20)
#    0.000    2.625    0.000    1.500    0.000    7.500 
#    0.000    0.625    0.000    0.375    0.000    0.000 
#    0.000    0.000    0.000    0.000    0.000    0.000 
#
# Total GULP energy -396807.711541 kJ/mol
# GULP energy per Si atom -12400.240986 kJ/mol
# Density = 1.768029 g / cm^3
# Si number density = 17.720620 Si / 1000 Ang^3
#
#
#
# Elastic Constant Matrix: (Units=GPa)
#
#
# Indices 1 2 3 4 5 6 
#
# 1 99.0579 59.5306 27.9321 0.0000 15.1429 0.0000
# 2 59.5306 111.1800 36.1182 0.0000 1.1656 0.0000
# 3 27.9321 36.1182 78.8966 0.0000 18.8710 0.0000
# 4 0.0000 0.0000 0.0000 13.7958 0.0000 -2.9830
# 5 15.1429 1.1656 18.8710 0.0000 20.4552 0.0000
# 6 0.0000 0.0000 0.0000 -2.9830 0.0000 18.2161
#
#
#
# Elastic Compliance Matrix: (Units=1/GPa)
#
#
# Indices 1 2 3 4 5 6 
#
# 1 0.017711 -0.009854 0.001594 0.000000 -0.014021 0.000000
# 2 -0.009854 0.016455 -0.007140 0.000000 0.012945 0.000000
# 3 0.001594 -0.007140 0.019971 0.000000 -0.019198 0.000000
# 4 0.000000 0.000000 0.000000 0.075147 0.000000 0.012306
# 5 -0.014021 0.012945 -0.019198 0.000000 0.076240 0.000000
# 6 0.000000 0.000000 0.000000 0.012306 0.000000 0.056912
#
#
# Mechanical properties :
#
#
# Convention : Reuss Voigt Hill
#
# Bulk Modulus (GPa) = 42.85136 59.58845 51.21991
# Shear Modulus (GPa) = 16.61055 21.53032 19.07044
#
# Velocity S-wave (km/s) = 3.06495 3.48945 3.28406
# Velocity P-wave (km/s) = 6.06295 7.06644 6.58384
#
# Compressibility (1/GPa) = 0.02333648
#
# Stress axis : x y z
#
# Youngs Moduli (GPa) = 56.46259 60.77319 50.07294
#
# Poissons Ratio (x) = 0.59887 -0.07984
# Poissons Ratio (y) = 0.55639 0.35753
# Poissons Ratio (z) = -0.09003 0.43393
#
# Static dielectric constant tensor:
#      x y z
#    x 3.475640 0.000000 0.010570 
#    y 0.000000 3.146330 0.000000 
#    z 0.010570 0.000000 3.188170 
# 
# 
# High freq. dielectric constant tensor:
#      x y z
#    x 1.694150 0.000000 0.002770 
#    y 0.000000 1.669500 0.000000 
#    z 0.002770 0.000000 1.679150 
# 
# From -- ./inp_files/335636.got.cif
#   From: 2010.06.25/outbox.cif.g09.slc.cpg/sg12_168_cif.got.tgz:335636.got - 2010.06.28 00:19:55.
