data_PCOD8086798
_publ_section_title
;
Structure prediction by ZEFSAII (Michael W. Deem and Ramdas Pophale) SiO2 
 PCOD8086798
Probable space group: C 2/M
;
_chemical_formula_sum "Si O2"
_cell_formula_units_Z 24
_cell_length_a 26.045732
_cell_length_b 5.208053
_cell_length_c 8.542611
_cell_angle_alpha 90.000000
_cell_angle_beta 96.088585
_cell_angle_gamma 90.000000
_cell_volume 1152.247684
_symmetry_space_group_name_H-M "C 2/M"
_symmetry_group_IT_number 12
_symmetry_cell_setting 'monoclinic'
loop_
_space_group_symop_operation_xyz
x,y,z
-x,y,-z
-x,-y,-z
x,-y,z
1/2+x,1/2+y,z
1/2-x,1/2+y,-z
1/2-x,1/2-y,-z
1/2+x,1/2-y,z
loop_
_atom_site_type_symbol
_atom_site_label
_atom_site_fract_x
_atom_site_fract_y
_atom_site_fract_z
Si Si1 0.095123 0.000000 0.746789
Si Si2 0.262173 0.500000 0.707771
Si Si3 0.131115 0.000000 0.114021
Si Si4 0.202481 0.000000 0.634224
Si Si5 0.537423 0.000000 0.782185
Si Si6 0.926711 0.500000 0.850260
O O1 0.141257 0.000000 0.637703
O O2 0.059870 0.751356 0.705178
O O3 0.118750 0.000000 0.927456
O O4 0.307163 0.500000 0.851091
O O5 0.226974 0.749404 0.722576
O O6 0.288459 0.500000 0.547139
O O7 0.107704 0.750894 0.192428
O O8 0.475304 0.000000 0.747857
O O9 0.552927 0.000000 0.967482
#
# Coordination Sequence:
#
# PCOD8086798 Si02
#       6
#     4   4   4   4   4   4
#     4  10  19  31  51  76  98 125 162 202 239 277
#     4  10  21  36  52  70  96 131 164 196 242 294
#     4  10  19  31  51  76  98 125 162 202 239 277
#     4  10  21  36  52  70  96 131 164 196 242 294
#     4   9  17  30  49  74 102 129 158 194 239 289
#     4   9  17  30  49  74 102 129 158 194 239 289
#
# _framework density 20.828855000000001
#
# number of rings (size 3 to 8) (size 9 to 14) (size 15 to 20)
#    0.000    2.333    0.000    3.000    0.000    5.333 
#    0.000    0.000    0.000    6.000    0.000    0.000 
#    0.000    0.000    0.000    0.000    0.000    0.000 
#
# Total GULP energy -148848.269418 kJ/mol
# GULP energy per Si atom -12404.022451 kJ/mol
# Density = 2.078145 g / cm^3
# Si number density = 20.828855 Si / 1000 Ang^3
#
#
#
# Elastic Constant Matrix: (Units=GPa)
#
#
# Indices 1 2 3 4 5 6 
#
# 1 83.3103 39.9953 3.3720 0.0000 -33.4651 0.0000
# 2 39.9953 187.6180 7.7254 0.0000 -18.8094 0.0000
# 3 3.3720 7.7254 7.4205 0.0000 -5.2866 0.0000
# 4 0.0000 0.0000 0.0000 5.5424 0.0000 -3.3720
# 5 -33.4651 -18.8094 -5.2866 0.0000 30.2998 0.0000
# 6 0.0000 0.0000 0.0000 -3.3720 0.0000 44.6417
#
#
#
# Elastic Compliance Matrix: (Units=1/GPa)
#
#
# Indices 1 2 3 4 5 6 
#
# 1 0.023318 -0.002820 0.010781 0.000000 0.025885 0.000000
# 2 -0.002820 0.006125 -0.005259 0.000000 -0.000230 0.000000
# 3 0.010781 -0.005259 0.161581 0.000000 0.036835 0.000000
# 4 0.000000 0.000000 0.000000 0.189118 0.000000 0.014285
# 5 0.025885 -0.000230 0.036835 0.000000 0.067877 0.000000
# 6 0.000000 0.000000 0.000000 0.014285 0.000000 0.023480
#
#
# Mechanical properties :
#
#
# Convention : Reuss Voigt Hill
#
# Bulk Modulus (GPa) = 5.09089 42.28157 23.68623
# Shear Modulus (GPa) = 9.40610 31.24719 20.32665
#
# Velocity S-wave (km/s) = 2.12737 3.87743 3.12731
# Velocity P-wave (km/s) = 2.91268 6.35527 4.94334
#
# Compressibility (1/GPa) = 0.19642921
#
# Stress axis : x y z
#
# Youngs Moduli (GPa) = 42.88441 163.27693 6.18885
#
# Poissons Ratio (x) = 0.46040 -0.06672
# Poissons Ratio (y) = 0.12092 0.03255
# Poissons Ratio (z) = -0.46234 0.85862
#
# Static dielectric constant tensor:
#      x y z
#    x 3.798660 0.000000 -0.108770 
#    y 0.000000 4.123020 0.000000 
#    z -0.108770 0.000000 3.152120 
# 
# 
# High freq. dielectric constant tensor:
#      x y z
#    x 1.824850 0.000000 -0.008810 
#    y 0.000000 1.836000 0.000000 
#    z -0.008810 0.000000 1.767520 
# 
# From -- ./inp_files/16636.got.cif
#   From: 2010.06.25/outbox.cif.g09.slc.cpg/sg12_9_cif.got.tgz:16636.got - 2010.06.28 00:19:55.
