data_PCOD8086164
_publ_section_title
;
Structure prediction by ZEFSAII (Michael W. Deem and Ramdas Pophale) SiO2 
 PCOD8086164
Probable space group: C 2/M
;
_chemical_formula_sum "Si O2"
_cell_formula_units_Z 56
_cell_length_a 20.040845
_cell_length_b 18.413284
_cell_length_c 9.461166
_cell_angle_alpha 90.000000
_cell_angle_beta 79.148765
_cell_angle_gamma 90.000000
_cell_volume 3428.910803
_symmetry_space_group_name_H-M "C 2/M"
_symmetry_group_IT_number 12
_symmetry_cell_setting 'monoclinic'
loop_
_space_group_symop_operation_xyz
x,y,z
-x,y,-z
-x,-y,-z
x,-y,z
1/2+x,1/2+y,z
1/2-x,1/2+y,-z
1/2-x,1/2-y,-z
1/2+x,1/2-y,z
loop_
_atom_site_type_symbol
_atom_site_label
_atom_site_fract_x
_atom_site_fract_y
_atom_site_fract_z
Si Si1 0.009937 0.169820 0.338407
Si Si2 0.907289 0.082049 0.904080
Si Si3 0.779364 0.918152 0.114134
Si Si4 0.628154 0.914051 0.111483
Si Si5 0.568278 0.174994 0.891788
Si Si6 0.893960 0.168572 0.169771
Si Si7 0.483768 0.838731 0.665696
O O1 0.069663 0.121905 0.247218
O O2 0.033187 0.253383 0.323367
O O3 0.000000 0.141793 0.500000
O O4 0.937224 0.157950 0.293731
O O5 0.935846 0.000000 0.894442
O O6 0.824492 0.082387 0.951044
O O7 0.935305 0.126666 0.028884
O O8 0.704745 0.888015 0.111520
O O9 0.818211 0.866849 0.214000
O O10 0.775394 0.000000 0.177174
O O11 0.581859 0.881850 0.254126
O O12 0.620980 0.000000 0.113057
O O13 0.607218 0.886425 0.964283
O O14 0.615111 0.246228 0.861568
O O15 0.547769 0.144655 0.744294
O O16 0.500000 0.199108 0.000000
O O17 0.500000 0.864778 0.500000
#
# Coordination Sequence:
#
# PCOD8086164 Si02
#       7
#     8   8   8   8   8   8   8
#     4  10  19  31  48  70 100 128 155 202 240 268
#     4   9  17  29  46  69  94 125 165 193 226 276
#     4   8  18  31  48  70  97 128 159 194 230 277
#     4  10  19  33  51  72  97 122 155 198 241 282
#     4   9  17  29  49  75  95 118 155 201 240 274
#     4   9  16  30  49  68  96 126 160 194 233 278
#     4   9  19  34  51  70  98 123 155 196 242 284
#
# _framework density 16.331716
#
# number of rings (size 3 to 8) (size 9 to 14) (size 15 to 20)
#    0.857    2.000    0.000    3.000    0.000    5.429 
#    0.000    0.000    3.143    2.571    0.000    0.000 
#    0.000    0.000    0.000    0.000    0.000    0.000 
#
# Total GULP energy -346953.671903 kJ/mol
# GULP energy per Si atom -12391.202568 kJ/mol
# Density = 1.629454 g / cm^3
# Si number density = 16.331716 Si / 1000 Ang^3
#
#
#
# Elastic Constant Matrix: (Units=GPa)
#
#
# Indices 1 2 3 4 5 6 
#
# 1 109.2753 55.9358 47.0952 0.0000 8.2241 0.0000
# 2 55.9358 80.5814 45.2627 0.0000 4.3250 0.0000
# 3 47.0952 45.2627 117.8118 0.0000 13.6331 0.0000
# 4 0.0000 0.0000 0.0000 8.6713 0.0000 -0.0585
# 5 8.2241 4.3250 13.6331 0.0000 8.7191 0.0000
# 6 0.0000 0.0000 0.0000 -0.0585 0.0000 27.8708
#
#
#
# Elastic Compliance Matrix: (Units=1/GPa)
#
#
# Indices 1 2 3 4 5 6 
#
# 1 0.015097 -0.009142 -0.001709 0.000000 -0.007033 0.000000
# 2 -0.009142 0.021390 -0.005291 0.000000 0.006285 0.000000
# 3 -0.001709 -0.005291 0.013080 0.000000 -0.016216 0.000000
# 4 0.000000 0.000000 0.000000 0.115325 0.000000 0.000242
# 5 -0.007033 0.006285 -0.016216 0.000000 0.143562 0.000000
# 6 0.000000 0.000000 0.000000 0.000242 0.000000 0.035880
#
#
# Mechanical properties :
#
#
# Convention : Reuss Voigt Hill
#
# Bulk Modulus (GPa) = 57.85651 67.13954 62.49802
# Shear Modulus (GPa) = 13.07603 19.67723 16.37663
#
# Velocity S-wave (km/s) = 2.83265 3.47486 3.17006
# Velocity P-wave (km/s) = 6.79715 7.56959 7.19375
#
# Compressibility (1/GPa) = 0.01728414
#
# Stress axis : x y z
#
# Youngs Moduli (GPa) = 66.24050 46.75014 76.45031
#
# Poissons Ratio (x) = 0.42739 0.13063
# Poissons Ratio (y) = 0.60557 0.40449
# Poissons Ratio (z) = 0.11318 0.24735
#
# Static dielectric constant tensor:
#      x y z
#    x 2.960260 0.000000 0.104610 
#    y 0.000000 3.052730 0.000000 
#    z 0.104610 0.000000 2.998280 
# 
# 
# High freq. dielectric constant tensor:
#      x y z
#    x 1.613540 0.000000 0.006650 
#    y 0.000000 1.633440 0.000000 
#    z 0.006650 0.000000 1.603930 
# 
# From -- ./inp_files/88752.got.cif
#   From: 2010.06.25/outbox.cif.g09.slc.cpg/sg12_45_cif.got.tgz:88752.got - 2010.06.28 00:19:55.
