data_PCOD8086852
_publ_section_title
;
Structure prediction by ZEFSAII (Michael W. Deem and Ramdas Pophale) SiO2 
 PCOD8086852
Probable space group: C 2/M
;
_chemical_formula_sum "Si O2"
_cell_formula_units_Z 64
_cell_length_a 16.825475
_cell_length_b 12.536321
_cell_length_c 28.248324
_cell_angle_alpha 90.000000
_cell_angle_beta 32.157589
_cell_angle_gamma 90.000000
_cell_volume 3171.360439
_symmetry_space_group_name_H-M "C 2/M"
_symmetry_group_IT_number 12
_symmetry_cell_setting 'monoclinic'
loop_
_space_group_symop_operation_xyz
x,y,z
-x,y,-z
-x,-y,-z
x,-y,z
1/2+x,1/2+y,z
1/2-x,1/2+y,-z
1/2-x,1/2-y,-z
1/2+x,1/2-y,z
loop_
_atom_site_type_symbol
_atom_site_label
_atom_site_fract_x
_atom_site_fract_y
_atom_site_fract_z
Si Si1 0.316889 0.231672 0.278334
Si Si2 0.742598 0.255172 0.792607
Si Si3 0.708577 0.377024 0.424481
Si Si4 0.412265 0.381390 0.869142
Si Si5 0.659245 0.815663 0.930793
Si Si6 0.048861 0.878593 0.044954
Si Si7 0.038558 0.380787 0.628818
Si Si8 0.996385 0.684397 0.551529
O O1 0.311939 0.186937 0.226424
O O2 0.292497 0.144547 0.331837
O O3 0.470493 0.295296 0.210569
O O4 0.178020 0.312774 0.347611
O O5 0.747316 0.182329 0.836786
O O6 0.625692 0.351178 0.859971
O O7 0.909198 0.297512 0.703873
O O8 0.656070 0.500000 0.451873
O O9 0.820568 0.350530 0.410577
O O10 0.565820 0.302283 0.505633
O O11 0.481767 0.500000 0.828840
O O12 0.256376 0.378936 0.919685
O O13 0.371528 0.360355 0.944491
O O14 0.500000 0.872093 0.000000
O O15 0.628128 0.695771 0.966082
O O16 0.065479 0.000000 0.018934
O O17 0.985001 0.500000 0.667773
O O18 0.084273 0.372986 0.549926
O O19 0.000000 0.619141 0.500000
#
# Coordination Sequence:
#
# PCOD8086852 Si02
#       8
#     8   8   8   8   8   8   8   8
#     4   9  19  35  54  75  99 134 175 215 257 304
#     4   9  18  32  51  75 108 140 172 219 264 303
#     4  10  20  35  56  79 105 139 173 210 259 310
#     4  10  20  36  55  74 103 140 176 215 261 313
#     4  10  20  33  53  79 108 139 174 217 262 313
#     4   9  18  32  53  79 105 138 178 220 264 306
#     4  10  19  31  51  78 107 139 174 213 258 308
#     4   9  19  34  53  76 105 135 169 213 257 307
#
# _framework density 20.180613999999998
#
# number of rings (size 3 to 8) (size 9 to 14) (size 15 to 20)
#    0.000    2.500    0.000    1.875    0.000    8.500 
#    0.000    3.125    0.000   15.000    0.000    0.000 
#    0.000    0.000    0.000    0.000    0.000    0.000 
#
# Total GULP energy -396477.946149 kJ/mol
# GULP energy per Si atom -12389.935817 kJ/mol
# Density = 2.013468 g / cm^3
# Si number density = 20.180614 Si / 1000 Ang^3
#
#
#
# Elastic Constant Matrix: (Units=GPa)
#
#
# Indices 1 2 3 4 5 6 
#
# 1 143.3869 8.6573 33.7666 0.0000 7.0537 0.0000
# 2 8.6573 36.1849 6.8907 0.0001 -3.3446 0.0000
# 3 33.7666 6.8907 67.3785 -0.0002 5.8617 0.0001
# 4 0.0000 0.0001 -0.0002 20.0736 0.0001 6.1460
# 5 7.0537 -3.3446 5.8617 0.0001 37.1669 0.0000
# 6 0.0000 0.0000 0.0001 6.1460 0.0000 17.0409
#
#
#
# Elastic Compliance Matrix: (Units=1/GPa)
#
#
# Indices 1 2 3 4 5 6 
#
# 1 0.007994 -0.001288 -0.003784 0.000000 -0.001036 0.000000
# 2 -0.001288 0.028733 -0.002575 0.000000 0.003236 0.000000
# 3 -0.003784 -0.002575 0.017195 0.000000 -0.002225 0.000000
# 4 0.000000 0.000000 0.000000 0.056001 0.000000 -0.020197
# 5 -0.001036 0.003236 -0.002225 0.000000 0.027744 0.000000
# 6 0.000000 0.000000 0.000000 -0.020197 0.000000 0.065967
#
#
# Mechanical properties :
#
#
# Convention : Reuss Voigt Hill
#
# Bulk Modulus (GPa) = 25.88741 38.39772 32.14256
# Shear Modulus (GPa) = 21.56993 28.03200 24.80097
#
# Velocity S-wave (km/s) = 3.27287 3.73105 3.50944
# Velocity P-wave (km/s) = 5.20941 6.13427 5.69066
#
# Compressibility (1/GPa) = 0.03862882
#
# Stress axis : x y z
#
# Youngs Moduli (GPa) = 125.09298 34.80275 58.15653
#
# Poissons Ratio (x) = 0.04482 0.22009
# Poissons Ratio (y) = 0.16108 0.14974
# Poissons Ratio (z) = 0.47340 0.08961
#
# Static dielectric constant tensor:
#      x y z
#    x 4.224500 0.000000 0.251320 
#    y 0.000000 3.193580 0.000000 
#    z 0.251320 0.000000 3.561420 
# 
# 
# High freq. dielectric constant tensor:
#      x y z
#    x 1.823460 0.000000 0.009510 
#    y 0.000000 1.743620 0.000000 
#    z 0.009510 0.000000 1.775580 
# 
# From -- ./inp_files/379094.got.cif
#   From: 2010.06.25/outbox.cif.g09.slc.cpg/sg12_190_cif.got.tgz:379094.got - 2010.06.28 00:19:55.
