data_PCOD8086971
_publ_section_title
;
Structure prediction by ZEFSAII (Michael W. Deem and Ramdas Pophale) SiO2 
 PCOD8086971
Probable space group: C 2/M
;
_chemical_formula_sum "Si O2"
_cell_formula_units_Z 64
_cell_length_a 20.031996
_cell_length_b 13.122913
_cell_length_c 18.270567
_cell_angle_alpha 90.000000
_cell_angle_beta 132.402741
_cell_angle_gamma 90.000000
_cell_volume 3546.596352
_symmetry_space_group_name_H-M "C 2/M"
_symmetry_group_IT_number 12
_symmetry_cell_setting 'monoclinic'
loop_
_space_group_symop_operation_xyz
x,y,z
-x,y,-z
-x,-y,-z
x,-y,z
1/2+x,1/2+y,z
1/2-x,1/2+y,-z
1/2-x,1/2-y,-z
1/2+x,1/2-y,z
loop_
_atom_site_type_symbol
_atom_site_label
_atom_site_fract_x
_atom_site_fract_y
_atom_site_fract_z
Si Si1 0.920356 0.255195 0.889481
Si Si2 0.529451 0.383606 0.862673
Si Si3 0.102594 0.615776 0.565183
Si Si4 0.880503 0.386577 0.259350
Si Si5 0.185674 0.115810 0.082527
Si Si6 0.031212 0.755211 0.310105
Si Si7 0.652230 0.880507 0.292645
Si Si8 0.812496 0.223634 0.478346
O O1 0.845472 0.198851 0.881978
O O2 0.873281 0.345250 0.808499
O O3 0.960408 0.170097 0.865983
O O4 0.000000 0.301107 0.000000
O O5 0.499738 0.500000 0.836827
O O6 0.522571 0.337298 0.776975
O O7 0.631946 0.369568 0.966774
O O8 0.099559 0.500000 0.533177
O O9 0.151200 0.622845 0.679716
O O10 0.162293 0.678243 0.551652
O O11 0.000000 0.656859 0.500000
O O12 0.918265 0.500000 0.271770
O O13 0.791603 0.365621 0.144536
O O14 0.958892 0.308200 0.301492
O O15 0.169754 0.000000 0.100195
O O16 0.089160 0.678151 0.303384
O O17 0.094132 0.815671 0.415467
O O18 0.758597 0.857363 0.388028
O O19 0.634519 0.000000 0.286180
O O20 0.750000 0.250000 0.500000
#
# Coordination Sequence:
#
# PCOD8086971 Si02
#       8
#     8   8   8   8   8   8   8   8
#     4   9  17  32  54  78 103 132 168 217 273 318
#     4   9  18  32  51  75 105 137 172 213 262 321
#     4  10  19  33  57  85 109 135 173 227 278 318
#     4  10  19  31  52  79 106 135 171 220 274 318
#     4   9  17  30  51  80 106 131 166 215 272 322
#     4  10  20  34  51  74 103 139 178 219 267 318
#     4  10  21  35  51  73 104 139 179 221 264 318
#     4  10  21  35  52  78 109 143 177 219 271 325
#
# _framework density 18.045470999999999
#
# number of rings (size 3 to 8) (size 9 to 14) (size 15 to 20)
#    0.000    2.375    1.250    1.500    0.000    4.750 
#    0.000    6.250    0.000    3.375    0.000    0.000 
#    0.000    0.000    0.000    0.000    0.000    0.000 
#
# Total GULP energy -396616.736651 kJ/mol
# GULP energy per Si atom -12394.273020 kJ/mol
# Density = 1.800440 g / cm^3
# Si number density = 18.045471 Si / 1000 Ang^3
#
#
#
# Elastic Constant Matrix: (Units=GPa)
#
#
# Indices 1 2 3 4 5 6 
#
# 1 63.1338 23.5623 32.2959 0.0000 3.8694 0.0000
# 2 23.5623 71.2688 48.5914 0.0000 1.2964 0.0000
# 3 32.2959 48.5914 142.9197 0.0000 9.4495 0.0000
# 4 0.0000 0.0000 0.0000 25.9215 0.0000 1.4628
# 5 3.8694 1.2964 9.4495 0.0000 25.8122 0.0000
# 6 0.0000 0.0000 0.0000 1.4628 0.0000 23.1633
#
#
#
# Elastic Compliance Matrix: (Units=1/GPa)
#
#
# Indices 1 2 3 4 5 6 
#
# 1 0.018955 -0.004414 -0.002674 0.000000 -0.001641 0.000000
# 2 -0.004414 0.019342 -0.005696 0.000000 0.001775 0.000000
# 3 -0.002674 -0.005696 0.009728 0.000000 -0.002874 0.000000
# 4 0.000000 0.000000 0.000000 0.038716 0.000000 -0.002445
# 5 -0.001641 0.001775 -0.002874 0.000000 0.039950 0.000000
# 6 0.000000 0.000000 0.000000 -0.002445 0.000000 0.043326
#
#
# Mechanical properties :
#
#
# Convention : Reuss Voigt Hill
#
# Bulk Modulus (GPa) = 44.52951 54.02461 49.27706
# Shear Modulus (GPa) = 24.62190 26.50425 25.56307
#
# Velocity S-wave (km/s) = 3.69784 3.83658 3.76785
# Velocity P-wave (km/s) = 6.55453 7.04477 6.80407
#
# Compressibility (1/GPa) = 0.02245702
#
# Stress axis : x y z
#
# Youngs Moduli (GPa) = 52.75603 51.70115 102.79697
#
# Poissons Ratio (x) = 0.22819 0.27491
# Poissons Ratio (y) = 0.23285 0.58554
# Poissons Ratio (z) = 0.14108 0.29450
#
# Static dielectric constant tensor:
#      x y z
#    x 3.071930 0.000000 0.125870 
#    y 0.000000 3.104990 0.000000 
#    z 0.125870 0.000000 3.951380 
# 
# 
# High freq. dielectric constant tensor:
#      x y z
#    x 1.676400 0.000000 0.009040 
#    y 0.000000 1.670940 0.000000 
#    z 0.009040 0.000000 1.725540 
# 
# From -- ./inp_files/283301.got.cif
#   From: 2010.06.25/outbox.cif.g09.slc.cpg/sg12_142_cif.got.tgz:283301.got - 2010.06.28 00:19:55.
