data_PCOD8086187
_publ_section_title
;
Structure prediction by ZEFSAII (Michael W. Deem and Ramdas Pophale) SiO2 
 PCOD8086187
Probable space group: C 2/M
;
_chemical_formula_sum "Si O2"
_cell_formula_units_Z 56
_cell_length_a 32.546255
_cell_length_b 9.007530
_cell_length_c 18.353566
_cell_angle_alpha 90.000000
_cell_angle_beta 37.254410
_cell_angle_gamma 90.000000
_cell_volume 3257.148159
_symmetry_space_group_name_H-M "C 2/M"
_symmetry_group_IT_number 12
_symmetry_cell_setting 'monoclinic'
loop_
_space_group_symop_operation_xyz
x,y,z
-x,y,-z
-x,-y,-z
x,-y,z
1/2+x,1/2+y,z
1/2-x,1/2+y,-z
1/2-x,1/2-y,-z
1/2+x,1/2-y,z
loop_
_atom_site_type_symbol
_atom_site_label
_atom_site_fract_x
_atom_site_fract_y
_atom_site_fract_z
Si Si1 0.757304 0.673049 0.760186
Si Si2 0.109107 0.174918 0.021219
Si Si3 0.143356 0.828590 0.665287
Si Si4 0.152041 0.667577 0.098940
Si Si5 0.776214 0.670888 0.567898
Si Si6 0.305184 0.667071 0.827129
Si Si7 0.508007 0.826119 0.904381
O O1 0.766454 0.500000 0.762810
O O2 0.778402 0.716862 0.649050
O O3 0.807233 0.759021 0.744529
O O4 0.679286 0.719266 0.882897
O O5 0.105853 0.243678 0.106730
O O6 0.049123 0.239516 0.058330
O O7 0.100290 0.000000 0.040678
O O8 0.171356 0.776831 0.547519
O O9 0.200184 0.803810 0.646438
O O10 0.080796 0.726809 0.774736
O O11 0.121132 0.000000 0.691550
O O12 0.124805 0.500000 0.143363
O O13 0.145933 0.744038 0.186697
O O14 0.229257 0.671133 0.964191
O O15 0.797670 0.500000 0.525902
O O16 0.332543 0.500000 0.782400
O O17 0.500166 0.000000 0.900566
O O18 0.500000 0.786295 0.000000
#
# Coordination Sequence:
#
# PCOD8086187 Si02
#       7
#     8   8   8   8   8   8   8
#     4   9  17  29  46  69  97 128 159 194 239 286
#     4  10  19  31  48  70  97 128 162 198 237 283
#     4  10  20  34  52  72  94 124 161 199 240 282
#     4   9  16  27  42  62  92 127 160 193 234 284
#     4   9  18  33  51  71  96 125 158 197 240 285
#     4   9  16  25  40  64  93 124 158 196 236 279
#     4  11  23  36  50  70  97 128 161 197 237 282
#
# _framework density 17.192954
#
# number of rings (size 3 to 8) (size 9 to 14) (size 15 to 20)
#    0.000    2.429    0.000    3.000    0.000    7.429 
#    0.000    0.000    0.000    0.000    0.000    1.000 
#    0.000    8.000    0.000    0.000    0.000    0.000 
#
# Total GULP energy -347249.024055 kJ/mol
# GULP energy per Si atom -12401.750859 kJ/mol
# Density = 1.715382 g / cm^3
# Si number density = 17.192954 Si / 1000 Ang^3
#
#
#
# Elastic Constant Matrix: (Units=GPa)
#
#
# Indices 1 2 3 4 5 6 
#
# 1 124.4123 63.2219 39.7769 0.0048 26.4045 -0.0020
# 2 63.2219 92.2940 29.3055 0.0050 11.5717 -0.0070
# 3 39.7769 29.3055 51.1684 0.0000 12.9622 -0.0032
# 4 0.0048 0.0050 0.0000 23.2653 0.0006 1.5159
# 5 26.4045 11.5717 12.9622 0.0006 25.0074 0.0007
# 6 -0.0020 -0.0070 -0.0032 1.5159 0.0007 36.4992
#
#
#
# Elastic Compliance Matrix: (Units=1/GPa)
#
#
# Indices 1 2 3 4 5 6 
#
# 1 0.015981 -0.007983 -0.005194 -0.000001 -0.010487 -0.000001
# 2 -0.007983 0.017371 -0.004423 -0.000002 0.002683 0.000003
# 3 -0.005194 -0.004423 0.027866 0.000002 -0.006912 0.000001
# 4 -0.000001 -0.000002 0.000002 0.043099 0.000000 -0.001790
# 5 -0.010487 0.002683 -0.006912 0.000000 0.053403 -0.000002
# 6 -0.000001 0.000003 0.000001 -0.001790 -0.000002 0.027472
#
#
# Mechanical properties :
#
#
# Convention : Reuss Voigt Hill
#
# Bulk Modulus (GPa) = 38.43623 59.16481 48.80052
# Shear Modulus (GPa) = 21.82791 25.99241 23.91016
#
# Velocity S-wave (km/s) = 3.56699 3.89241 3.73325
# Velocity P-wave (km/s) = 6.27446 7.39514 6.85773
#
# Compressibility (1/GPa) = 0.02601712
#
# Stress axis : x y z
#
# Youngs Moduli (GPa) = 62.57491 57.56668 35.88651
#
# Poissons Ratio (x) = 0.45954 0.18641
# Poissons Ratio (y) = 0.49952 0.15873
# Poissons Ratio (z) = 0.32504 0.25462
#
# Static dielectric constant tensor:
#      x y z
#    x 3.283650 0.000000 0.207370 
#    y 0.000000 3.344680 0.000010 
#    z 0.207370 0.000010 2.886410 
# 
# 
# High freq. dielectric constant tensor:
#      x y z
#    x 1.668040 0.000000 0.021350 
#    y 0.000000 1.678130 0.000000 
#    z 0.021350 0.000000 1.620940 
# 
# From -- ./inp_files/295066.got.cif
#   From: 2010.06.25/outbox.cif.g09.slc.cpg/sg12_148_cif.got.tgz:295066.got - 2010.06.28 00:19:55.
