data_PCOD8086504
_publ_section_title
;
Structure prediction by ZEFSAII (Michael W. Deem and Ramdas Pophale) SiO2 
 PCOD8086504
Probable space group: C 2/M
;
_chemical_formula_sum "Si O2"
_cell_formula_units_Z 64
_cell_length_a 29.825491
_cell_length_b 8.961623
_cell_length_c 15.990647
_cell_angle_alpha 90.000000
_cell_angle_beta 130.788768
_cell_angle_gamma 90.000000
_cell_volume 3235.987421
_symmetry_space_group_name_H-M "C 2/M"
_symmetry_group_IT_number 12
_symmetry_cell_setting 'monoclinic'
loop_
_space_group_symop_operation_xyz
x,y,z
-x,y,-z
-x,-y,-z
x,-y,z
1/2+x,1/2+y,z
1/2-x,1/2+y,-z
1/2-x,1/2-y,-z
1/2+x,1/2-y,z
loop_
_atom_site_type_symbol
_atom_site_label
_atom_site_fract_x
_atom_site_fract_y
_atom_site_fract_z
Si Si1 0.776206 0.173210 0.271534
Si Si2 0.859861 0.674868 0.899654
Si Si3 0.529579 0.322839 0.283844
Si Si4 0.196562 0.174683 0.886641
Si Si5 0.402805 0.325194 0.800748
Si Si6 0.806464 0.337500 0.594471
Si Si7 0.371056 0.164172 0.503152
Si Si8 0.903272 0.323356 0.135212
O O1 0.708047 0.225517 0.201286
O O2 0.795946 0.205683 0.201702
O O3 0.820575 0.262313 0.385208
O O4 0.782500 0.000000 0.301255
O O5 0.867020 0.500000 0.896076
O O6 0.910433 0.751825 0.901961
O O7 0.875034 0.722269 0.012327
O O8 0.522775 0.500000 0.281906
O O9 0.551928 0.276810 0.217372
O O10 0.572127 0.270616 0.412257
O O11 0.468569 0.240256 0.223452
O O12 0.135018 0.248550 0.838617
O O13 0.196468 0.000000 0.907217
O O14 0.250000 0.250000 0.000000
O O15 0.403370 0.500000 0.812733
O O16 0.337549 0.266428 0.699897
O O17 0.790973 0.500000 0.615577
O O18 0.750000 0.250000 0.500000
O O19 0.847137 0.363766 0.565551
O O20 0.388702 0.000000 0.487869
O O21 0.904208 0.500000 0.148994
#
# Coordination Sequence:
#
# PCOD8086504 Si02
#       8
#     8   8   8   8   8   8   8   8
#     4  10  21  38  59  87 122 155 190 237 294 354
#     4  10  21  37  57  85 121 157 195 240 297 351
#     4  10  22  41  61  83 116 160 201 242 293 347
#     4  11  22  40  64  91 122 155 193 238 295 355
#     4  10  21  35  53  80 114 153 199 243 287 342
#     4  10  19  31  49  75 109 149 194 239 290 344
#     4  10  21  36  56  84 114 151 196 242 290 343
#     4  11  23  41  63  89 118 153 198 246 296 353
#
# _framework density 19.77758
#
# number of rings (size 3 to 8) (size 9 to 14) (size 15 to 20)
#    0.000    1.750    1.250    3.000    0.000    8.000 
#    0.000    3.125    0.000    3.750    0.000    0.000 
#    0.000    0.000    0.000    0.000    0.000    0.000 
#
# Total GULP energy -396627.013865 kJ/mol
# GULP energy per Si atom -12394.594183 kJ/mol
# Density = 1.973256 g / cm^3
# Si number density = 19.777580 Si / 1000 Ang^3
#
#
#
# Elastic Constant Matrix: (Units=GPa)
#
#
# Indices 1 2 3 4 5 6 
#
# 1 65.6028 21.0631 16.5288 0.0000 8.7569 0.0000
# 2 21.0631 61.6532 30.4091 0.0000 0.9932 0.0000
# 3 16.5288 30.4091 78.8082 0.0000 7.2616 0.0000
# 4 0.0000 0.0000 0.0000 34.6561 0.0000 1.7511
# 5 8.7569 0.9932 7.2616 0.0000 27.2282 0.0000
# 6 0.0000 0.0000 0.0000 1.7511 0.0000 32.8192
#
#
#
# Elastic Compliance Matrix: (Units=1/GPa)
#
#
# Indices 1 2 3 4 5 6 
#
# 1 0.018005 -0.005488 -0.001172 0.000000 -0.005278 0.000000
# 2 -0.005488 0.021755 -0.007517 0.000000 0.002976 0.000000
# 3 -0.001172 -0.007517 0.016173 0.000000 -0.003662 0.000000
# 4 0.000000 0.000000 0.000000 0.028933 0.000000 -0.001544
# 5 -0.005278 0.002976 -0.003662 0.000000 0.039292 0.000000
# 6 0.000000 0.000000 0.000000 -0.001544 0.000000 0.030552
#
#
# Mechanical properties :
#
#
# Convention : Reuss Voigt Hill
#
# Bulk Modulus (GPa) = 36.26200 38.00735 37.13468
# Shear Modulus (GPa) = 26.00670 28.14493 27.07581
#
# Velocity S-wave (km/s) = 3.63017 3.77646 3.70403
# Velocity P-wave (km/s) = 5.99546 6.18665 6.09180
#
# Compressibility (1/GPa) = 0.02757708
#
# Stress axis : x y z
#
# Youngs Moduli (GPa) = 55.53957 45.96741 61.83119
#
# Poissons Ratio (x) = 0.25227 0.07249
# Poissons Ratio (y) = 0.30480 0.46482
# Poissons Ratio (z) = 0.06511 0.34556
#
# Static dielectric constant tensor:
#      x y z
#    x 3.344760 0.000000 -0.197510 
#    y 0.000000 3.768700 0.000000 
#    z -0.197510 0.000000 3.746010 
# 
# 
# High freq. dielectric constant tensor:
#      x y z
#    x 1.765900 0.000000 -0.002230 
#    y 0.000000 1.781190 0.000000 
#    z -0.002230 0.000000 1.769650 
# 
# From -- ./inp_files/249932.got.cif
#   From: 2010.06.25/outbox.cif.g09.slc.cpg/sg12_125_cif.got.tgz:249932.got - 2010.06.28 00:19:55.
