data_PCOD8086658
_publ_section_title
;
Structure prediction by ZEFSAII (Michael W. Deem and Ramdas Pophale) SiO2 
 PCOD8086658
Probable space group: C 2/M
;
_chemical_formula_sum "Si O2"
_cell_formula_units_Z 48
_cell_length_a 27.388452
_cell_length_b 9.077274
_cell_length_c 11.582866
_cell_angle_alpha 90.000000
_cell_angle_beta 121.425039
_cell_angle_gamma 90.000000
_cell_volume 2457.267458
_symmetry_space_group_name_H-M "C 2/M"
_symmetry_group_IT_number 12
_symmetry_cell_setting 'monoclinic'
loop_
_space_group_symop_operation_xyz
x,y,z
-x,y,-z
-x,-y,-z
x,-y,z
1/2+x,1/2+y,z
1/2-x,1/2+y,-z
1/2-x,1/2-y,-z
1/2+x,1/2-y,z
loop_
_atom_site_type_symbol
_atom_site_label
_atom_site_fract_x
_atom_site_fract_y
_atom_site_fract_z
Si Si1 0.867387 0.673531 0.833395
Si Si2 0.063699 0.670929 0.303095
Si Si3 0.667215 0.827865 0.839943
Si Si4 0.286779 0.670430 0.882075
Si Si5 0.535043 0.335806 0.926574
Si Si6 0.063299 0.672388 0.560646
O O1 0.862380 0.500000 0.839247
O O2 0.888258 0.720274 0.730795
O O3 0.806236 0.747917 0.787510
O O4 0.910010 0.734259 0.984575
O O5 0.048657 0.500000 0.264837
O O6 0.086610 0.702384 0.459852
O O7 0.004679 0.760275 0.218459
O O8 0.719407 0.803206 0.815038
O O9 0.609813 0.764415 0.708170
O O10 0.662452 0.000000 0.866540
O O11 0.677479 0.735536 0.967130
O O12 0.302098 0.500000 0.889880
O O13 0.553108 0.500000 0.908457
O O14 0.500000 0.345243 0.000000
O O15 0.058836 0.500000 0.578741
O O16 0.000000 0.743218 0.500000
#
# Coordination Sequence:
#
# PCOD8086658 Si02
#       6
#     8   8   8   8   8   8
#     4  10  19  31  50  75 104 138 178 218 260 308
#     4   9  18  32  50  76 106 137 175 217 258 310
#     4   9  19  36  56  79 106 138 175 217 263 314
#     4  10  20  34  54  79 107 137 175 221 266 309
#     4   9  17  29  46  71 105 139 169 208 259 309
#     4   9  18  33  55  80 105 136 175 214 259 317
#
# _framework density 19.533895000000001
#
# number of rings (size 3 to 8) (size 9 to 14) (size 15 to 20)
#    0.000    2.667    0.000    1.500    2.333    3.333 
#    0.000    1.667    0.000    1.000    0.000    0.000 
#    0.000    0.000    0.000    0.000    0.000    0.000 
#
# Total GULP energy -297510.193843 kJ/mol
# GULP energy per Si atom -12396.258077 kJ/mol
# Density = 1.948943 g / cm^3
# Si number density = 19.533895 Si / 1000 Ang^3
#
#
#
# Elastic Constant Matrix: (Units=GPa)
#
#
# Indices 1 2 3 4 5 6 
#
# 1 110.8165 36.5333 32.3335 0.0000 -0.0972 0.0000
# 2 36.5333 71.4841 19.2130 0.0000 -1.8594 0.0000
# 3 32.3335 19.2130 81.4455 0.0000 11.5789 0.0000
# 4 0.0000 0.0000 0.0000 14.1339 0.0000 -0.5577
# 5 -0.0972 -1.8594 11.5789 0.0000 24.9279 0.0000
# 6 0.0000 0.0000 0.0000 -0.5577 0.0000 30.9145
#
#
#
# Elastic Compliance Matrix: (Units=1/GPa)
#
#
# Indices 1 2 3 4 5 6 
#
# 1 0.011740 -0.004973 -0.003684 0.000000 0.001386 0.000000
# 2 -0.004973 0.017248 -0.002435 0.000000 0.002398 0.000000
# 3 -0.003684 -0.002435 0.015357 0.000000 -0.007329 0.000000
# 4 0.000000 0.000000 0.000000 0.070802 0.000000 0.001277
# 5 0.001386 0.002398 -0.007329 0.000000 0.043705 0.000000
# 6 0.000000 0.000000 0.000000 0.001277 0.000000 0.032370
#
#
# Mechanical properties :
#
#
# Convention : Reuss Voigt Hill
#
# Bulk Modulus (GPa) = 45.12941 48.87842 47.00391
# Shear Modulus (GPa) = 22.64545 25.70635 24.17590
#
# Velocity S-wave (km/s) = 3.40853 3.63159 3.52183
# Velocity P-wave (km/s) = 6.21643 6.53156 6.37594
#
# Compressibility (1/GPa) = 0.02215850
#
# Stress axis : x y z
#
# Youngs Moduli (GPa) = 85.18027 57.97829 65.11526
#
# Poissons Ratio (x) = 0.28835 0.23992
# Poissons Ratio (y) = 0.42364 0.15857
# Poissons Ratio (z) = 0.31385 0.14119
#
# Static dielectric constant tensor:
#      x y z
#    x 3.852990 0.000000 0.031430 
#    y 0.000000 3.490100 0.000000 
#    z 0.031430 0.000000 3.385760 
# 
# 
# High freq. dielectric constant tensor:
#      x y z
#    x 1.772130 0.000000 -0.007760 
#    y 0.000000 1.744060 0.000000 
#    z -0.007760 0.000000 1.732440 
# 
# From -- ./inp_files/180260.got.cif
#   From: 2010.06.25/outbox.cif.g09.slc.cpg/sg12_91_cif.got.tgz:180260.got - 2010.06.28 00:19:55.
