data_PCOD8086386
_publ_section_title
;
Structure prediction by ZEFSAII (Michael W. Deem and Ramdas Pophale) SiO2 
 PCOD8086386
Probable space group: C 2/M
;
_chemical_formula_sum "Si O2"
_cell_formula_units_Z 48
_cell_length_a 19.875235
_cell_length_b 8.902433
_cell_length_c 19.264077
_cell_angle_alpha 90.000000
_cell_angle_beta 60.058040
_cell_angle_gamma 90.000000
_cell_volume 2953.612541
_symmetry_space_group_name_H-M "C 2/M"
_symmetry_group_IT_number 12
_symmetry_cell_setting 'monoclinic'
loop_
_space_group_symop_operation_xyz
x,y,z
-x,y,-z
-x,-y,-z
x,-y,z
1/2+x,1/2+y,z
1/2-x,1/2+y,-z
1/2-x,1/2-y,-z
1/2+x,1/2-y,z
loop_
_atom_site_type_symbol
_atom_site_label
_atom_site_fract_x
_atom_site_fract_y
_atom_site_fract_z
Si Si1 0.491916 0.324563 0.843847
Si Si2 0.417792 0.830680 0.004923
Si Si3 0.846839 0.824345 0.166122
Si Si4 0.439913 0.170534 0.586462
Si Si5 0.566600 0.170318 0.258001
Si Si6 0.689814 0.322333 0.276236
O O1 0.475018 0.500000 0.852125
O O2 0.426533 0.247916 0.925778
O O3 0.577805 0.288346 0.826707
O O4 0.485438 0.258932 0.770114
O O5 0.387023 0.000000 0.010661
O O6 0.500000 0.829006 0.000000
O O7 0.356894 0.738907 0.083010
O O8 0.776186 0.740894 0.240008
O O9 0.829712 0.000000 0.170172
O O10 0.500000 0.240686 0.500000
O O11 0.478072 0.172215 0.644340
O O12 0.360646 0.269356 0.630307
O O13 0.418423 0.000000 0.575706
O O14 0.650068 0.252492 0.226938
O O15 0.580844 0.000000 0.225129
O O16 0.691632 0.500000 0.270191
#
# Coordination Sequence:
#
# PCOD8086386 Si02
#       6
#     8   8   8   8   8   8
#     4  10  19  31  49  72  98 129 164 202 239 281
#     4   9  17  29  46  68  94 127 166 202 236 281
#     4  10  19  32  49  70  98 131 165 200 240 282
#     4   8  16  32  53  74  96 125 158 192 236 290
#     4   9  18  32  50  72  98 127 159 196 241 289
#     4  10  19  31  49  74 100 125 160 200 239 284
#
# _framework density 16.251284999999999
#
# number of rings (size 3 to 8) (size 9 to 14) (size 15 to 20)
#    1.000    1.667    0.000    3.000    0.000    4.333 
#    0.000    0.833    0.000    1.000    0.000    0.000 
#    0.000    0.000    0.000    0.000    0.000    0.000 
#
# Total GULP energy -297430.306107 kJ/mol
# GULP energy per Si atom -12392.929421 kJ/mol
# Density = 1.621430 g / cm^3
# Si number density = 16.251285 Si / 1000 Ang^3
#
#
#
# Elastic Constant Matrix: (Units=GPa)
#
#
# Indices 1 2 3 4 5 6 
#
# 1 47.1284 38.5577 29.7689 -0.0002 -3.9307 0.0001
# 2 38.5577 111.5681 37.1912 -0.0003 -9.5976 0.0005
# 3 29.7689 37.1912 89.2972 -0.0003 -13.2756 0.0004
# 4 -0.0002 -0.0003 -0.0003 25.4408 0.0000 1.3719
# 5 -3.9307 -9.5976 -13.2756 0.0000 23.3521 0.0000
# 6 0.0001 0.0005 0.0004 1.3719 0.0000 26.1616
#
#
#
# Elastic Compliance Matrix: (Units=1/GPa)
#
#
# Indices 1 2 3 4 5 6 
#
# 1 0.033377 -0.009194 -0.007673 0.000000 -0.002522 0.000000
# 2 -0.009194 0.013025 -0.001960 0.000000 0.002692 0.000000
# 3 -0.007673 -0.001960 0.015577 0.000000 0.006759 0.000000
# 4 0.000000 0.000000 0.000000 0.039418 0.000000 -0.002067
# 5 -0.002522 0.002692 0.006759 0.000000 0.047347 0.000000
# 6 0.000000 0.000000 0.000000 -0.002067 0.000000 0.038332
#
#
# Mechanical properties :
#
#
# Convention : Reuss Voigt Hill
#
# Bulk Modulus (GPa) = 41.10714 51.00327 46.05520
# Shear Modulus (GPa) = 21.47403 24.48929 22.98166
#
# Velocity S-wave (km/s) = 3.63902 3.88611 3.76459
# Velocity P-wave (km/s) = 6.55791 7.18248 6.87729
#
# Compressibility (1/GPa) = 0.02432667
#
# Stress axis : x y z
#
# Youngs Moduli (GPa) = 29.96079 76.77249 64.19577
#
# Poissons Ratio (x) = 0.70587 0.49254
# Poissons Ratio (y) = 0.27547 0.12580
# Poissons Ratio (z) = 0.22987 0.15045
#
# Static dielectric constant tensor:
#      x y z
#    x 2.751250 0.000000 -0.001340 
#    y 0.000000 3.157380 0.000000 
#    z -0.001340 0.000000 3.025180 
# 
# 
# High freq. dielectric constant tensor:
#      x y z
#    x 1.588890 0.000000 -0.001730 
#    y 0.000000 1.642230 0.000000 
#    z -0.001730 0.000000 1.612640 
# 
# From -- ./inp_files/313222.got.cif
#   From: 2010.06.25/outbox.cif.g09.slc.cpg/sg12_157_cif.got.tgz:313222.got - 2010.06.28 00:19:55.
