data_PCOD8086920
_publ_section_title
;
Structure prediction by ZEFSAII (Michael W. Deem and Ramdas Pophale) SiO2 
 PCOD8086920
Probable space group: C 2/M
;
_chemical_formula_sum "Si O2"
_cell_formula_units_Z 56
_cell_length_a 25.178133
_cell_length_b 8.802195
_cell_length_c 14.867448
_cell_angle_alpha 90.000000
_cell_angle_beta 74.483182
_cell_angle_gamma 90.000000
_cell_volume 3174.870974
_symmetry_space_group_name_H-M "C 2/M"
_symmetry_group_IT_number 12
_symmetry_cell_setting 'monoclinic'
loop_
_space_group_symop_operation_xyz
x,y,z
-x,y,-z
-x,-y,-z
x,-y,z
1/2+x,1/2+y,z
1/2-x,1/2+y,-z
1/2-x,1/2-y,-z
1/2+x,1/2-y,z
loop_
_atom_site_type_symbol
_atom_site_label
_atom_site_fract_x
_atom_site_fract_y
_atom_site_fract_z
Si Si1 0.006851 0.679770 0.598944
Si Si2 0.100063 0.179220 0.276630
Si Si3 0.304858 0.176390 0.294123
Si Si4 0.827617 0.675271 0.895542
Si Si5 0.621141 0.678804 0.596490
Si Si6 0.683018 0.320505 0.390932
Si Si7 0.283120 0.173761 0.104079
O O1 0.005017 0.500000 0.602800
O O2 0.063642 0.736529 0.614499
O O3 0.000000 0.740359 0.500000
O O4 0.958872 0.745057 0.682846
O O5 0.122989 0.225850 0.168441
O O6 0.142229 0.243885 0.332854
O O7 0.093001 0.000000 0.286115
O O8 0.351018 0.274651 0.322661
O O9 0.244703 0.241678 0.348663
O O10 0.314641 0.200468 0.183384
O O11 0.310714 0.000000 0.318686
O O12 0.839648 0.500000 0.870279
O O13 0.769670 0.718315 0.876320
O O14 0.825106 0.709373 0.003611
O O15 0.610569 0.500000 0.597879
O O16 0.661208 0.732543 0.497730
O O17 0.684280 0.500000 0.380646
O O18 0.261537 0.000000 0.107597
#
# Coordination Sequence:
#
# PCOD8086920 Si02
#       7
#     8   8   8   8   8   8   8
#     4  11  23  38  56  80 106 138 181 228 268 310
#     4  11  20  35  57  79 108 145 179 218 270 323
#     4  10  19  35  54  76 108 148 183 217 262 317
#     4  10  19  31  51  82 111 138 178 226 269 317
#     4  11  22  36  53  78 108 145 184 220 265 317
#     4   9  18  32  52  76 107 144 178 210 259 319
#     4   9  18  33  53  76 109 147 179 216 271 325
#
# _framework density 17.638511999999999
#
# number of rings (size 3 to 8) (size 9 to 14) (size 15 to 20)
#    0.000    1.857    2.857    2.143    0.000    1.714 
#    0.000    0.714    0.000    0.857    0.000    6.000 
#    0.000    0.000    0.000    0.000    0.000    0.000 
#
# Total GULP energy -347287.517461 kJ/mol
# GULP energy per Si atom -12403.125624 kJ/mol
# Density = 1.759837 g / cm^3
# Si number density = 17.638512 Si / 1000 Ang^3
#
#
#
# Elastic Constant Matrix: (Units=GPa)
#
#
# Indices 1 2 3 4 5 6 
#
# 1 104.4111 29.2363 54.3119 0.0000 -3.5898 0.0000
# 2 29.2363 55.3699 33.2487 0.0000 -3.4771 0.0000
# 3 54.3119 33.2487 122.2083 0.0000 -3.7794 0.0000
# 4 0.0000 0.0000 0.0000 27.0468 0.0000 -1.2823
# 5 -3.5898 -3.4771 -3.7794 0.0000 22.6427 0.0000
# 6 0.0000 0.0000 0.0000 -1.2823 0.0000 25.6388
#
#
#
# Elastic Compliance Matrix: (Units=1/GPa)
#
#
# Indices 1 2 3 4 5 6 
#
# 1 0.013210 -0.004088 -0.004738 0.000000 0.000676 0.000000
# 2 -0.004088 0.022977 -0.004368 0.000000 0.002151 0.000000
# 3 -0.004738 -0.004368 0.011492 0.000000 0.000496 0.000000
# 4 0.000000 0.000000 0.000000 0.037061 0.000000 0.001854
# 5 0.000676 0.002151 0.000496 0.000000 0.044685 0.000000
# 6 0.000000 0.000000 0.000000 0.001854 0.000000 0.039096
#
#
# Mechanical properties :
#
#
# Convention : Reuss Voigt Hill
#
# Bulk Modulus (GPa) = 46.96645 57.28701 52.12673
# Shear Modulus (GPa) = 24.75196 26.07847 25.41521
#
# Velocity S-wave (km/s) = 3.75012 3.84929 3.80003
# Velocity P-wave (km/s) = 6.74064 7.23222 6.99075
#
# Compressibility (1/GPa) = 0.02129179
#
# Stress axis : x y z
#
# Youngs Moduli (GPa) = 75.70152 43.52230 87.01691
#
# Poissons Ratio (x) = 0.17790 0.41226
# Poissons Ratio (y) = 0.30944 0.38009
# Poissons Ratio (z) = 0.35865 0.19011
#
# Static dielectric constant tensor:
#      x y z
#    x 3.097590 0.000000 -0.042160 
#    y 0.000000 3.176640 0.000000 
#    z -0.042160 0.000000 3.442570 
# 
# 
# High freq. dielectric constant tensor:
#      x y z
#    x 1.660310 0.000000 -0.003860 
#    y 0.000000 1.677980 0.000000 
#    z -0.003860 0.000000 1.686780 
# 
# From -- ./inp_files/237313.got.cif
#   From: 2010.06.25/outbox.cif.g09.slc.cpg/sg12_119_cif.got.tgz:237313.got - 2010.06.28 00:19:55.
