data_PCOD8086322
_publ_section_title
;
Structure prediction by ZEFSAII (Michael W. Deem and Ramdas Pophale) SiO2 
 PCOD8086322
Probable space group: C 2/M
;
_chemical_formula_sum "Si O2"
_cell_formula_units_Z 60
_cell_length_a 12.714182
_cell_length_b 13.841634
_cell_length_c 26.004279
_cell_angle_alpha 90.000000
_cell_angle_beta 133.048790
_cell_angle_gamma 90.000000
_cell_volume 3344.282122
_symmetry_space_group_name_H-M "C 2/M"
_symmetry_group_IT_number 12
_symmetry_cell_setting 'monoclinic'
loop_
_space_group_symop_operation_xyz
x,y,z
-x,y,-z
-x,-y,-z
x,-y,z
1/2+x,1/2+y,z
1/2-x,1/2+y,-z
1/2-x,1/2-y,-z
1/2+x,1/2-y,z
loop_
_atom_site_type_symbol
_atom_site_label
_atom_site_fract_x
_atom_site_fract_y
_atom_site_fract_z
Si Si1 0.130336 0.110281 0.581565
Si Si2 0.361821 0.758402 0.782266
Si Si3 0.780350 0.896147 0.906804
Si Si4 0.118697 0.316094 0.938927
Si Si5 0.000000 0.728788 0.000000
Si Si6 0.596971 0.765330 0.323748
Si Si7 0.337172 0.892602 0.242472
Si Si8 0.089116 0.112147 0.686350
O O1 0.248531 0.192328 0.607606
O O2 0.072002 0.124717 0.619657
O O3 0.000000 0.129541 0.500000
O O4 0.190656 0.000000 0.595609
O O5 0.501766 0.763882 0.864485
O O6 0.411506 0.758834 0.740292
O O7 0.296828 0.654387 0.773238
O O8 0.242342 0.841190 0.755011
O O9 0.683920 0.902712 0.926811
O O10 0.675768 0.887167 0.823446
O O11 0.863801 0.000000 0.931518
O O12 0.878153 0.801629 0.938857
O O13 0.044194 0.343515 0.968490
O O14 0.250000 0.250000 0.000000
O O15 0.483592 0.841798 0.307649
O O16 0.550125 0.662711 0.333226
O O17 0.344797 0.000000 0.266072
O O18 0.090395 0.000000 0.703308
#
# Coordination Sequence:
#
# PCOD8086322 Si02
#       8
#     8   8   8   8   4   8   8   8
#     4   9  18  34  55  81 110 139 171 207 248 298
#     4  10  19  34  50  71 102 130 169 210 258 306
#     4  10  19  31  49  71  91 120 162 208 251 303
#     4  10  20  32  49  71  94 128 166 206 259 310
#     4  10  19  34  51  64  94 130 158 204 255 316
#     4  10  19  33  55  76 105 136 169 211 251 304
#     4  10  19  31  50  75  97 124 166 210 253 298
#     4   9  20  34  53  78 104 138 174 210 253 303
#
# _framework density 17.94107
#
# number of rings (size 3 to 8) (size 9 to 14) (size 15 to 20)
#    0.000    2.267    2.667    0.600    0.000    2.133 
#    0.000    0.333    0.000    3.600    0.000    0.000 
#    0.000    0.000    0.000    0.000    0.000    0.000 
#
# Total GULP energy -371671.362706 kJ/mol
# GULP energy per Si atom -12389.045424 kJ/mol
# Density = 1.790024 g / cm^3
# Si number density = 17.941070 Si / 1000 Ang^3
#
#
#
# Elastic Constant Matrix: (Units=GPa)
#
#
# Indices 1 2 3 4 5 6 
#
# 1 84.0447 33.9251 27.8758 0.0000 5.6575 0.0000
# 2 33.9251 97.2139 22.7015 0.0000 7.4534 0.0000
# 3 27.8758 22.7015 83.3774 0.0000 15.1688 0.0000
# 4 0.0000 0.0000 0.0000 10.7297 0.0000 11.2558
# 5 5.6575 7.4534 15.1688 0.0000 17.8099 0.0000
# 6 0.0000 0.0000 0.0000 11.2558 0.0000 -0.8647
#
#
#
# Elastic Compliance Matrix: (Units=1/GPa)
#
#
# Indices 1 2 3 4 5 6 
#
# 1 0.014904 -0.004325 -0.003873 0.000000 0.000375 0.000000
# 2 -0.004325 0.012330 -0.001446 0.000000 -0.002554 0.000000
# 3 -0.003873 -0.001446 0.015796 0.000000 -0.011618 0.000000
# 4 0.000000 0.000000 0.000000 0.006360 0.000000 0.082781
# 5 0.000375 -0.002554 -0.011618 0.000000 0.066994 0.000000
# 6 0.000000 0.000000 0.000000 0.082781 0.000000 -0.078911
#
#
# Mechanical properties :
#
#
# Convention : Reuss Voigt Hill
#
# Bulk Modulus (GPa) = 42.12356 48.18230 45.15293
# Shear Modulus (GPa) = 77.31018 17.54387 47.42703
#
# Velocity S-wave (km/s) = 6.57151 3.13047 5.14707
# Velocity P-wave (km/s) = 9.00608 6.32302 7.78107
#
# Compressibility (1/GPa) = 0.02373968
#
# Stress axis : x y z
#
# Youngs Moduli (GPa) = 67.09690 81.10591 63.30688
#
# Poissons Ratio (x) = 0.35080 0.24521
# Poissons Ratio (y) = 0.29021 0.09156
# Poissons Ratio (z) = 0.25989 0.11730
#
# Static dielectric constant tensor:
#      x y z
#    x 3.552770 0.000000 -0.132960 
#    y 0.000000 3.279360 0.000000 
#    z -0.132960 0.000000 2.968730 
# 
# 
# High freq. dielectric constant tensor:
#      x y z
#    x 1.699180 0.000000 -0.001910 
#    y 0.000000 1.679190 0.000000 
#    z -0.001910 0.000000 1.687690 
# 
# From -- ./inp_files/335920.got.cif
#   From: 2010.06.25/outbox.cif.g09.slc.cpg/sg12_168_cif.got.tgz:335920.got - 2010.06.28 00:19:55.
