data_PCOD8086704
_publ_section_title
;
Structure prediction by ZEFSAII (Michael W. Deem and Ramdas Pophale) SiO2 
 PCOD8086704
Probable space group: C 2/M
;
_chemical_formula_sum "Si O2"
_cell_formula_units_Z 64
_cell_length_a 12.949983
_cell_length_b 19.891455
_cell_length_c 25.624894
_cell_angle_alpha 90.000000
_cell_angle_beta 147.003610
_cell_angle_gamma 90.000000
_cell_volume 3594.714913
_symmetry_space_group_name_H-M "C 2/M"
_symmetry_group_IT_number 12
_symmetry_cell_setting 'monoclinic'
loop_
_space_group_symop_operation_xyz
x,y,z
-x,y,-z
-x,-y,-z
x,-y,z
1/2+x,1/2+y,z
1/2-x,1/2+y,-z
1/2-x,1/2-y,-z
1/2+x,1/2-y,z
loop_
_atom_site_type_symbol
_atom_site_label
_atom_site_fract_x
_atom_site_fract_y
_atom_site_fract_z
Si Si1 0.467328 0.675905 0.614657
Si Si2 0.445216 0.919838 0.083241
Si Si3 0.444014 0.074792 0.196971
Si Si4 0.207474 0.580118 0.760627
Si Si5 0.091660 0.079483 0.869248
Si Si6 0.677459 0.624423 0.605459
Si Si7 0.894147 0.678130 0.603398
Si Si8 0.135413 0.079689 0.769851
O O1 0.605137 0.665830 0.624173
O O2 0.246889 0.670613 0.505337
O O3 0.505624 0.751130 0.651521
O O4 0.503594 0.619843 0.673913
O O5 0.421060 0.888038 0.131432
O O6 0.646917 0.898211 0.145511
O O7 0.436209 0.000000 0.081979
O O8 0.279491 0.890175 0.976283
O O9 0.312088 0.105131 0.187136
O O10 0.665236 0.071614 0.308429
O O11 0.371961 0.000000 0.157530
O O12 0.176636 0.500000 0.742415
O O13 0.408859 0.604016 0.823904
O O14 0.042154 0.617217 0.658650
O O15 0.076476 0.102564 0.802969
O O16 0.107283 0.000000 0.877726
O O17 0.500000 0.588484 0.500000
O O18 0.777661 0.675746 0.608103
O O19 0.106438 0.000000 0.748278
#
# Coordination Sequence:
#
# PCOD8086704 Si02
#       8
#     8   8   8   8   8   8   8   8
#     4  10  19  33  52  74  99 130 166 203 246 302
#     4   9  16  28  48  75 103 127 164 212 251 291
#     4   9  16  27  46  74 100 126 161 205 250 292
#     4   9  18  33  50  71 101 133 168 204 245 295
#     4   9  18  31  48  73 103 136 168 205 249 292
#     4   9  17  30  47  69  96 125 161 205 247 292
#     4   9  20  34  50  74 100 130 166 201 248 299
#     4  10  19  31  50  77 103 129 168 210 250 292
#
# _framework density 17.803916000000001
#
# number of rings (size 3 to 8) (size 9 to 14) (size 15 to 20)
#    0.000    2.750    1.250    0.375    0.000    3.750 
#    0.000    6.875    0.000    3.000    6.500    0.000 
#    0.000    0.000    0.000    0.000    0.000    0.000 
#
# Total GULP energy -396567.076335 kJ/mol
# GULP energy per Si atom -12392.721135 kJ/mol
# Density = 1.776339 g / cm^3
# Si number density = 17.803916 Si / 1000 Ang^3
#
#
#
# Elastic Constant Matrix: (Units=GPa)
#
#
# Indices 1 2 3 4 5 6 
#
# 1 129.3390 26.3217 57.7732 0.0002 -3.4511 0.0000
# 2 26.3217 47.0749 32.5195 -0.0002 -2.2169 -0.0001
# 3 57.7732 32.5195 102.0236 -0.0035 -10.1195 -0.0006
# 4 0.0002 -0.0002 -0.0035 9.2826 -0.0006 -1.0104
# 5 -3.4511 -2.2169 -10.1195 -0.0006 26.1486 -0.0001
# 6 0.0000 -0.0001 -0.0006 -1.0104 -0.0001 14.8414
#
#
#
# Elastic Compliance Matrix: (Units=1/GPa)
#
#
# Indices 1 2 3 4 5 6 
#
# 1 0.010554 -0.002249 -0.005345 -0.000002 -0.000866 0.000000
# 2 -0.002249 0.027750 -0.007662 -0.000002 -0.000909 0.000000
# 3 -0.005345 -0.007662 0.015741 0.000006 0.004737 0.000001
# 4 -0.000002 -0.000002 0.000006 0.108533 0.000004 0.007389
# 5 -0.000866 -0.000909 0.004737 0.000004 0.039885 0.000001
# 6 0.000000 0.000000 0.000001 0.007389 0.000001 0.067882
#
#
# Mechanical properties :
#
#
# Convention : Reuss Voigt Hill
#
# Bulk Modulus (GPa) = 42.49549 56.85182 49.67365
# Shear Modulus (GPa) = 16.19687 20.84273 18.51980
#
# Velocity S-wave (km/s) = 3.01946 3.42524 3.22873
# Velocity P-wave (km/s) = 6.00638 6.90250 6.46997
#
# Compressibility (1/GPa) = 0.02353191
#
# Stress axis : x y z
#
# Youngs Moduli (GPa) = 94.75122 36.03556 63.53026
#
# Poissons Ratio (x) = 0.08106 0.33959
# Poissons Ratio (y) = 0.21313 0.48675
# Poissons Ratio (z) = 0.50648 0.27609
#
# Static dielectric constant tensor:
#      x y z
#    x 3.552440 0.000000 -0.083760 
#    y 0.000000 2.867050 0.000000 
#    z -0.083760 0.000000 3.466160 
# 
# 
# High freq. dielectric constant tensor:
#      x y z
#    x 1.702690 0.000000 -0.004680 
#    y 0.000000 1.636520 0.000000 
#    z -0.004680 0.000000 1.689130 
# 
# From -- ./inp_files/336681.got.cif
#   From: 2010.06.25/outbox.cif.g09.slc.cpg/sg12_169_cif.got.tgz:336681.got - 2010.06.28 00:19:55.
