data_PCOD8086792
_publ_section_title
;
Structure prediction by ZEFSAII (Michael W. Deem and Ramdas Pophale) SiO2 
 PCOD8086792
Probable space group: C 2/M
;
_chemical_formula_sum "Si O2"
_cell_formula_units_Z 64
_cell_length_a 20.377579
_cell_length_b 13.261782
_cell_length_c 13.230441
_cell_angle_alpha 90.000000
_cell_angle_beta 87.225625
_cell_angle_gamma 90.000000
_cell_volume 3571.243385
_symmetry_space_group_name_H-M "C 2/M"
_symmetry_group_IT_number 12
_symmetry_cell_setting 'monoclinic'
loop_
_space_group_symop_operation_xyz
x,y,z
-x,y,-z
-x,-y,-z
x,-y,z
1/2+x,1/2+y,z
1/2-x,1/2+y,-z
1/2-x,1/2-y,-z
1/2+x,1/2-y,z
loop_
_atom_site_type_symbol
_atom_site_label
_atom_site_fract_x
_atom_site_fract_y
_atom_site_fract_z
Si Si1 0.133620 0.616084 0.394972
Si Si2 0.151764 0.247611 0.806724
Si Si3 0.996669 0.719105 0.616433
Si Si4 0.530650 0.386076 0.758253
Si Si5 0.438229 0.386299 0.942455
Si Si6 0.219706 0.384021 0.198834
Si Si7 0.872415 0.383739 0.375163
Si Si8 0.173717 0.272838 0.019149
O O1 0.111366 0.500000 0.401750
O O2 0.074728 0.678703 0.348574
O O3 0.193855 0.633150 0.314939
O O4 0.150464 0.649899 0.509549
O O5 0.087972 0.176550 0.809119
O O6 0.213051 0.174647 0.813691
O O7 0.163643 0.317400 0.707767
O O8 0.148128 0.314297 0.911261
O O9 0.000000 0.737560 0.500000
O O10 0.012284 0.829094 0.657686
O O11 0.049921 0.635072 0.645326
O O12 0.554924 0.500000 0.733241
O O13 0.463142 0.387946 0.825782
O O14 0.423678 0.500000 0.983362
O O15 0.500000 0.339725 0.000000
O O16 0.370562 0.325194 0.953840
O O17 0.233957 0.500000 0.177595
O O18 0.167859 0.348705 0.115128
O O19 0.855512 0.500000 0.356554
O O20 0.250000 0.250000 0.000000
#
# Coordination Sequence:
#
# PCOD8086792 Si02
#       8
#     8   8   8   8   8   8   8   8
#     4   9  17  32  53  74  97 129 170 212 255 310
#     4  10  20  34  51  75 103 135 171 213 263 314
#     4   9  17  30  50  74 101 132 165 208 260 311
#     4  10  19  31  51  76 103 134 171 216 259 305
#     4  10  19  33  56  80 102 135 177 221 261 306
#     4  10  21  35  52  72 100 138 175 211 260 316
#     4   9  18  32  52  76  99 127 167 214 261 308
#     4  10  21  35  52  77 107 140 175 217 262 313
#
# _framework density 17.920929000000001
#
# number of rings (size 3 to 8) (size 9 to 14) (size 15 to 20)
#    0.000    2.375    1.250    1.500    0.000    4.750 
#    0.000    1.875    0.000    1.125    0.000    0.000 
#    0.000    0.000    0.000    0.000    0.000    0.000 
#
# Total GULP energy -396473.429374 kJ/mol
# GULP energy per Si atom -12389.794668 kJ/mol
# Density = 1.788014 g / cm^3
# Si number density = 17.920929 Si / 1000 Ang^3
#
#
#
# Elastic Constant Matrix: (Units=GPa)
#
#
# Indices 1 2 3 4 5 6 
#
# 1 75.9694 38.6205 23.8499 0.0000 3.4870 0.0000
# 2 38.6205 84.1998 53.3336 0.0000 7.6907 0.0000
# 3 23.8499 53.3336 75.0358 0.0000 12.7011 0.0000
# 4 0.0000 0.0000 0.0000 23.8626 0.0000 0.2805
# 5 3.4870 7.6907 12.7011 0.0000 26.0673 0.0000
# 6 0.0000 0.0000 0.0000 0.2805 0.0000 27.7447
#
#
#
# Elastic Compliance Matrix: (Units=1/GPa)
#
#
# Indices 1 2 3 4 5 6 
#
# 1 0.017169 -0.008038 0.000265 0.000000 -0.000054 0.000000
# 2 -0.008038 0.025400 -0.015708 0.000000 0.001235 0.000000
# 3 0.000265 -0.015708 0.025753 0.000000 -0.007949 0.000000
# 4 0.000000 0.000000 0.000000 0.041911 0.000000 -0.000424
# 5 -0.000054 0.001235 -0.007949 0.000000 0.041878 0.000000
# 6 0.000000 0.000000 0.000000 -0.000424 0.000000 0.036047
#
#
# Mechanical properties :
#
#
# Convention : Reuss Voigt Hill
#
# Bulk Modulus (GPa) = 46.81499 51.86810 49.34155
# Shear Modulus (GPa) = 20.64063 23.49502 22.06782
#
# Velocity S-wave (km/s) = 3.39744 3.62475 3.51294
# Velocity P-wave (km/s) = 6.44748 6.82085 6.63679
#
# Compressibility (1/GPa) = 0.02136068
#
# Stress axis : x y z
#
# Youngs Moduli (GPa) = 58.24575 39.36947 38.83027
#
# Poissons Ratio (x) = 0.31645 -0.01031
# Poissons Ratio (y) = 0.46818 0.60995
# Poissons Ratio (z) = -0.01546 0.61842
#
# Static dielectric constant tensor:
#      x y z
#    x 3.358090 0.000000 0.138530 
#    y 0.000000 3.236650 0.000000 
#    z 0.138530 0.000000 3.757530 
# 
# 
# High freq. dielectric constant tensor:
#      x y z
#    x 1.682600 0.000000 -0.002210 
#    y 0.000000 1.676290 0.000000 
#    z -0.002210 0.000000 1.710210 
# 
# From -- ./inp_files/223820.got.cif
#   From: 2010.06.25/outbox.cif.g09.slc.cpg/sg12_112_cif.got.tgz:223820.got - 2010.06.28 00:19:55.
