data_PCOD8086108
_publ_section_title
;
Structure prediction by ZEFSAII (Michael W. Deem and Ramdas Pophale) SiO2 
 PCOD8086108
Probable space group: C 2/M
;
_chemical_formula_sum "Si O2"
_cell_formula_units_Z 56
_cell_length_a 21.684208
_cell_length_b 8.729493
_cell_length_c 15.885327
_cell_angle_alpha 90.000000
_cell_angle_beta 96.324350
_cell_angle_gamma 90.000000
_cell_volume 2988.667860
_symmetry_space_group_name_H-M "C 2/M"
_symmetry_group_IT_number 12
_symmetry_cell_setting 'monoclinic'
loop_
_space_group_symop_operation_xyz
x,y,z
-x,y,-z
-x,-y,-z
x,-y,z
1/2+x,1/2+y,z
1/2-x,1/2+y,-z
1/2-x,1/2-y,-z
1/2+x,1/2-y,z
loop_
_atom_site_type_symbol
_atom_site_label
_atom_site_fract_x
_atom_site_fract_y
_atom_site_fract_z
Si Si1 0.774146 0.677020 0.373637
Si Si2 0.945033 0.182692 0.055349
Si Si3 0.161081 0.824185 0.472851
Si Si4 0.812994 0.678999 0.045372
Si Si5 0.815495 0.828370 0.219643
Si Si6 0.956416 0.171838 0.244556
Si Si7 0.476457 0.321060 0.584845
O O1 0.779211 0.500000 0.350813
O O2 0.831700 0.722592 0.442223
O O3 0.711319 0.721837 0.411285
O O4 0.771790 0.774929 0.288483
O O5 0.877368 0.248769 0.017852
O O6 0.962994 0.246242 0.151808
O O7 0.937467 0.000000 0.056334
O O8 0.000000 0.233980 0.000000
O O9 0.096211 0.791518 0.418933
O O10 0.168199 0.000000 0.502061
O O11 0.814297 0.500000 0.025657
O O12 0.809110 0.708559 0.143771
O O13 0.750000 0.750000 0.000000
O O14 0.885547 0.826711 0.263573
O O15 0.796688 0.000000 0.187400
O O16 0.993821 0.256075 0.326224
O O17 0.982584 0.000000 0.240094
O O18 0.500000 0.247751 0.500000
O O19 0.494809 0.500000 0.587150
#
# Coordination Sequence:
#
# PCOD8086108 Si02
#       7
#     8   8   8   8   8   8   8
#     4  10  19  31  47  71 101 136 175 214 264 319
#     4   9  18  35  57  83 113 149 189 227 277 339
#     4   9  18  31  47  69  99 134 174 218 261 311
#     4  11  22  38  59  84 114 145 184 233 285 336
#     4  10  19  34  56  78 102 135 175 217 268 325
#     4   8  15  28  49  75 100 128 170 218 259 311
#     4   9  15  25  45  72  97 124 168 218 259 300
#
# _framework density 18.737445000000001
#
# number of rings (size 3 to 8) (size 9 to 14) (size 15 to 20)
#    0.000    2.571    0.000    3.857    0.000    3.143 
#    2.571    0.000    0.000    7.286    0.000    0.000 
#    0.000    0.000    0.000    0.000    0.000    0.000 
#
# Total GULP energy -347018.895101 kJ/mol
# GULP energy per Si atom -12393.531968 kJ/mol
# Density = 1.869480 g / cm^3
# Si number density = 18.737445 Si / 1000 Ang^3
#
#
#
# Elastic Constant Matrix: (Units=GPa)
#
#
# Indices 1 2 3 4 5 6 
#
# 1 108.4004 30.9951 67.3453 0.0000 1.7258 0.0000
# 2 30.9951 53.1747 23.1721 0.0000 -2.6598 0.0000
# 3 67.3453 23.1721 107.1249 0.0000 -1.2374 0.0000
# 4 0.0000 0.0000 0.0000 23.0671 0.0000 -0.7844
# 5 1.7258 -2.6598 -1.2374 0.0000 34.4154 0.0000
# 6 0.0000 0.0000 0.0000 -0.7844 0.0000 22.4456
#
#
#
# Elastic Compliance Matrix: (Units=1/GPa)
#
#
# Indices 1 2 3 4 5 6 
#
# 1 0.016628 -0.005752 -0.009228 0.000000 -0.001610 0.000000
# 2 -0.005752 0.022825 -0.001298 0.000000 0.002006 0.000000
# 3 -0.009228 -0.001298 0.015428 0.000000 0.000917 0.000000
# 4 0.000000 0.000000 0.000000 0.043403 0.000000 0.001517
# 5 -0.001610 0.002006 0.000917 0.000000 0.029326 0.000000
# 6 0.000000 0.000000 0.000000 0.001517 0.000000 0.044605
#
#
# Mechanical properties :
#
#
# Convention : Reuss Voigt Hill
#
# Bulk Modulus (GPa) = 44.79333 56.85834 50.82583
# Shear Modulus (GPa) = 23.56136 25.79813 24.67974
#
# Velocity S-wave (km/s) = 3.54990 3.71458 3.63317
# Velocity P-wave (km/s) = 6.38436 6.98628 6.69209
#
# Compressibility (1/GPa) = 0.02232475
#
# Stress axis : x y z
#
# Youngs Moduli (GPa) = 60.13822 43.81243 64.81888
#
# Poissons Ratio (x) = 0.25200 0.59815
# Poissons Ratio (y) = 0.34590 0.08414
# Poissons Ratio (z) = 0.55496 0.05687
#
# Static dielectric constant tensor:
#      x y z
#    x 3.458940 0.000000 0.018810 
#    y 0.000000 3.198040 0.000000 
#    z 0.018810 0.000000 3.594220 
# 
# 
# High freq. dielectric constant tensor:
#      x y z
#    x 1.724330 0.000000 -0.002450 
#    y 0.000000 1.695180 0.000000 
#    z -0.002450 0.000000 1.730490 
# 
# From -- ./inp_files/280456.got.cif
#   From: 2010.06.25/outbox.cif.g09.slc.cpg/sg12_141_cif.got.tgz:280456.got - 2010.06.28 00:19:55.
