data_PCOD8086685
_publ_section_title
;
Structure prediction by ZEFSAII (Michael W. Deem and Ramdas Pophale) SiO2 
 PCOD8086685
Probable space group: C 2/M
;
_chemical_formula_sum "Si O2"
_cell_formula_units_Z 48
_cell_length_a 14.795890
_cell_length_b 20.456848
_cell_length_c 12.902219
_cell_angle_alpha 90.000000
_cell_angle_beta 45.810416
_cell_angle_gamma 90.000000
_cell_volume 2800.180270
_symmetry_space_group_name_H-M "C 2/M"
_symmetry_group_IT_number 12
_symmetry_cell_setting 'monoclinic'
loop_
_space_group_symop_operation_xyz
x,y,z
-x,y,-z
-x,-y,-z
x,-y,z
1/2+x,1/2+y,z
1/2-x,1/2+y,-z
1/2-x,1/2-y,-z
1/2+x,1/2-y,z
loop_
_atom_site_type_symbol
_atom_site_label
_atom_site_fract_x
_atom_site_fract_y
_atom_site_fract_z
Si Si1 0.739607 0.425310 0.563198
Si Si2 0.400355 0.342941 0.162340
Si Si3 0.987505 0.425745 0.632289
Si Si4 0.799101 0.313378 0.835875
Si Si5 0.404042 0.312465 0.831853
Si Si6 0.491483 0.424697 0.387352
O O1 0.761033 0.500000 0.573478
O O2 0.673764 0.399351 0.719550
O O3 0.879445 0.397154 0.429053
O O4 0.653420 0.413982 0.531272
O O5 0.297700 0.299930 0.181896
O O6 0.477252 0.300422 0.185781
O O7 0.500000 0.373675 0.000000
O O8 0.959438 0.500000 0.692542
O O9 0.000000 0.422808 0.500000
O O10 0.875885 0.379814 0.760029
O O11 0.892331 0.251179 0.768000
O O12 0.724752 0.322459 0.002558
O O13 0.419581 0.377343 0.750161
O O14 0.500000 0.405273 0.500000
O O15 0.533292 0.500000 0.334897
#
# Coordination Sequence:
#
# PCOD8086685 Si02
#       6
#     8   8   8   8   8   8
#     4   9  17  31  49  74 103 127 160 203 246 296
#     4   9  17  31  50  71  98 130 164 204 247 291
#     4  10  19  31  50  76 105 134 159 193 249 306
#     4  10  19  34  52  72 104 133 161 203 248 296
#     4   9  20  35  51  75  98 129 170 206 246 290
#     4   9  18  35  55  73  97 129 167 210 247 284
#
# _framework density 17.141753000000001
#
# number of rings (size 3 to 8) (size 9 to 14) (size 15 to 20)
#    0.000    2.667    1.667    0.000    0.000    1.667 
#    3.000    5.000    0.000    0.000    0.000    4.667 
#    0.000    0.000    0.000    0.000    0.000    0.000 
#
# Total GULP energy -297453.629722 kJ/mol
# GULP energy per Si atom -12393.901238 kJ/mol
# Density = 1.710274 g / cm^3
# Si number density = 17.141753 Si / 1000 Ang^3
#
#
#
# Elastic Constant Matrix: (Units=GPa)
#
#
# Indices 1 2 3 4 5 6 
#
# 1 117.9104 52.8954 48.5883 0.0001 1.1281 -0.0002
# 2 52.8954 89.2956 46.6297 0.0000 -4.8519 -0.0001
# 3 48.5883 46.6297 62.1826 0.0002 -4.7806 -0.0003
# 4 0.0001 0.0000 0.0002 25.3898 -0.0002 -3.2000
# 5 1.1281 -4.8519 -4.7806 -0.0002 27.4958 0.0002
# 6 -0.0002 -0.0001 -0.0003 -3.2000 0.0002 23.5776
#
#
#
# Elastic Compliance Matrix: (Units=1/GPa)
#
#
# Indices 1 2 3 4 5 6 
#
# 1 0.013524 -0.004158 -0.007651 0.000000 -0.002619 0.000000
# 2 -0.004158 0.019705 -0.011399 0.000000 0.001666 0.000000
# 3 -0.007651 -0.011399 0.030890 0.000000 0.003673 0.000000
# 4 0.000000 0.000000 0.000000 0.040071 0.000000 0.005439
# 5 -0.002619 0.001666 0.003673 0.000000 0.037409 0.000000
# 6 0.000000 0.000000 0.000000 0.005439 0.000000 0.043151
#
#
# Mechanical properties :
#
#
# Convention : Reuss Voigt Hill
#
# Bulk Modulus (GPa) = 56.48716 62.84615 59.66665
# Shear Modulus (GPa) = 21.09094 23.37765 22.23429
#
# Velocity S-wave (km/s) = 3.51149 3.69695 3.60541
# Velocity P-wave (km/s) = 7.03315 7.41387 7.22602
#
# Compressibility (1/GPa) = 0.01770314
#
# Stress axis : x y z
#
# Youngs Moduli (GPa) = 73.94158 50.74808 32.37289
#
# Poissons Ratio (x) = 0.21103 0.24767
# Poissons Ratio (y) = 0.30748 0.36902
# Poissons Ratio (z) = 0.56569 0.57849
#
# Static dielectric constant tensor:
#      x y z
#    x 3.557090 0.000000 -0.169220 
#    y 0.000000 3.097070 0.000000 
#    z -0.169220 0.000000 3.182390 
# 
# 
# High freq. dielectric constant tensor:
#      x y z
#    x 1.678050 0.000000 -0.008760 
#    y 0.000000 1.642330 0.000000 
#    z -0.008760 0.000000 1.648580 
# 
# From -- ./inp_files/135188.got.cif
#   From: 2010.06.25/outbox.cif.g09.slc.cpg/sg12_68_cif.got.tgz:135188.got - 2010.06.28 00:19:55.
