data_PCOD8086968
_publ_section_title
;
Structure prediction by ZEFSAII (Michael W. Deem and Ramdas Pophale) SiO2 
 PCOD8086968
Probable space group: C 2/M
;
_chemical_formula_sum "Si O2"
_cell_formula_units_Z 64
_cell_length_a 20.494711
_cell_length_b 9.335946
_cell_length_c 22.584469
_cell_angle_alpha 90.000000
_cell_angle_beta 125.045159
_cell_angle_gamma 90.000000
_cell_volume 3537.811191
_symmetry_space_group_name_H-M "C 2/M"
_symmetry_group_IT_number 12
_symmetry_cell_setting 'monoclinic'
loop_
_space_group_symop_operation_xyz
x,y,z
-x,y,-z
-x,-y,-z
x,-y,z
1/2+x,1/2+y,z
1/2-x,1/2+y,-z
1/2-x,1/2-y,-z
1/2+x,1/2-y,z
loop_
_atom_site_type_symbol
_atom_site_label
_atom_site_fract_x
_atom_site_fract_y
_atom_site_fract_z
Si Si1 0.221922 0.833462 0.156220
Si Si2 0.873215 0.665348 0.693669
Si Si3 0.764965 0.330970 0.310147
Si Si4 0.980835 0.668238 0.155319
Si Si5 0.435250 0.161812 0.915917
Si Si6 0.802853 0.330593 0.075917
Si Si7 0.169161 0.665848 0.459047
Si Si8 0.412152 0.830193 0.464593
O O1 0.263881 0.788541 0.240074
O O2 0.140085 0.751668 0.103346
O O3 0.277722 0.793961 0.129961
O O4 0.201495 0.000000 0.146636
O O5 0.853514 0.500000 0.697659
O O6 0.807898 0.758260 0.693596
O O7 0.876192 0.695647 0.625567
O O8 0.962678 0.706086 0.759997
O O9 0.755153 0.500000 0.314137
O O10 0.848813 0.277443 0.381892
O O11 0.970763 0.500000 0.141101
O O12 0.892560 0.731606 0.117375
O O13 0.024439 0.733498 0.120580
O O14 0.406566 0.000000 0.887590
O O15 0.500000 0.164377 0.000000
O O16 0.797036 0.500000 0.060538
O O17 0.750000 0.250000 0.000000
O O18 0.189773 0.500000 0.478815
O O19 0.250000 0.750000 0.500000
O O20 0.115544 0.722503 0.485144
O O21 0.500000 0.763025 0.500000
O O22 0.418088 0.000000 0.465225
#
# Coordination Sequence:
#
# PCOD8086968 Si02
#       8
#     8   8   8   8   8   8   8   8
#     4  10  21  34  52  79 106 136 170 212 267 315
#     4  10  19  32  53  79 104 135 177 220 259 304
#     4  10  19  33  53  77 107 139 170 213 267 312
#     4   9  18  33  52  75 102 134 172 215 257 303
#     4  10  19  32  53  77 100 132 174 213 252 306
#     4  10  21  38  56  76 106 139 174 215 262 313
#     4  10  19  31  52  79 104 137 178 217 259 307
#     4   9  18  32  51  77 108 139 174 214 257 308
#
# _framework density 18.090281000000001
#
# number of rings (size 3 to 8) (size 9 to 14) (size 15 to 20)
#    0.000    2.250    2.500    0.750    0.000    2.750 
#    0.000    6.250    0.000    1.500    0.000    3.500 
#    0.000    0.000    0.000    0.000    0.000    0.000 
#
# Total GULP energy -396728.481924 kJ/mol
# GULP energy per Si atom -12397.765060 kJ/mol
# Density = 1.804911 g / cm^3
# Si number density = 18.090281 Si / 1000 Ang^3
#
#
#
# Elastic Constant Matrix: (Units=GPa)
#
#
# Indices 1 2 3 4 5 6 
#
# 1 132.0176 32.0820 58.9824 0.0000 6.8671 0.0000
# 2 32.0820 27.7277 28.6345 0.0000 0.0557 0.0000
# 3 58.9824 28.6345 131.4179 0.0000 -0.0855 0.0000
# 4 0.0000 0.0000 0.0000 -2.8247 0.0000 -8.6591
# 5 6.8671 0.0557 -0.0855 0.0000 38.4816 0.0000
# 6 0.0000 0.0000 0.0000 -8.6591 0.0000 21.2846
#
#
#
# Elastic Compliance Matrix: (Units=1/GPa)
#
#
# Indices 1 2 3 4 5 6 
#
# 1 0.011478 -0.010265 -0.002916 0.000000 -0.002040 0.000000
# 2 -0.010265 0.055717 -0.007532 0.000000 0.001734 0.000000
# 3 -0.002916 -0.007532 0.010560 0.000000 0.000555 0.000000
# 4 0.000000 0.000000 0.000000 -0.157543 0.000000 -0.064092
# 5 -0.002040 0.001734 0.000555 0.000000 0.026349 0.000000
# 6 0.000000 0.000000 0.000000 -0.064092 0.000000 0.020908
#
#
# Mechanical properties :
#
#
# Convention : Reuss Voigt Hill
#
# Bulk Modulus (GPa) = 27.52672 58.95120 43.23896
# Shear Modulus (GPa) = 238.04588 22.81925 130.43257
#
# Velocity S-wave (km/s) = 11.48361 3.55549 8.50044
# Velocity P-wave (km/s) = 13.82319 7.03657 10.96799
#
# Compressibility (1/GPa) = 0.03632834
#
# Stress axis : x y z
#
# Youngs Moduli (GPa) = 87.12047 17.94793 94.69990
#
# Poissons Ratio (x) = 0.18424 0.27618
# Poissons Ratio (y) = 0.89430 0.71326
# Poissons Ratio (z) = 0.25407 0.13518
#
# Static dielectric constant tensor:
#      x y z
#    x 3.666720 0.000000 -0.020270 
#    y 0.000000 3.106420 0.000000 
#    z -0.020270 0.000000 3.592880 
# 
# 
# High freq. dielectric constant tensor:
#      x y z
#    x 1.703790 0.000000 -0.004620 
#    y 0.000000 1.665840 0.000000 
#    z -0.004620 0.000000 1.720150 
# 
# From -- ./inp_files/315358.got.cif
#   From: 2010.06.25/outbox.cif.g09.slc.cpg/sg12_158_cif.got.tgz:315358.got - 2010.06.28 00:19:55.
