data_PCOD8086100
_publ_section_title
;
Structure prediction by ZEFSAII (Michael W. Deem and Ramdas Pophale) SiO2 
 PCOD8086100
Probable space group: C 2/M
;
_chemical_formula_sum "Si O2"
_cell_formula_units_Z 56
_cell_length_a 14.335864
_cell_length_b 9.211053
_cell_length_c 27.460163
_cell_angle_alpha 90.000000
_cell_angle_beta 121.044755
_cell_angle_gamma 90.000000
_cell_volume 3106.689467
_symmetry_space_group_name_H-M "C 2/M"
_symmetry_group_IT_number 12
_symmetry_cell_setting 'monoclinic'
loop_
_space_group_symop_operation_xyz
x,y,z
-x,y,-z
-x,-y,-z
x,-y,z
1/2+x,1/2+y,z
1/2-x,1/2+y,-z
1/2-x,1/2-y,-z
1/2+x,1/2-y,z
loop_
_atom_site_type_symbol
_atom_site_label
_atom_site_fract_x
_atom_site_fract_y
_atom_site_fract_z
Si Si1 0.905246 0.828453 0.141121
Si Si2 0.960100 0.829819 0.361746
Si Si3 0.519074 0.828664 0.927480
Si Si4 0.831273 0.671721 0.947370
Si Si5 0.232791 0.331834 0.346622
Si Si6 0.019618 0.168216 0.269604
Si Si7 0.676130 0.829791 0.441295
O O1 0.986869 0.754151 0.125198
O O2 0.786268 0.762667 0.097104
O O3 0.938908 0.783741 0.204719
O O4 0.909344 0.000000 0.134958
O O5 0.846777 0.776823 0.354805
O O6 0.958611 0.795418 0.303701
O O7 0.055958 0.738210 0.412417
O O8 0.980462 0.000000 0.377447
O O9 0.414879 0.772818 0.929168
O O10 0.515879 0.000000 0.917272
O O11 0.626939 0.783232 0.987529
O O12 0.827547 0.500000 0.943297
O O13 0.216956 0.500000 0.330694
O O14 0.230905 0.300867 0.403692
O O15 0.133571 0.250395 0.294069
O O16 0.048662 0.000000 0.274113
O O17 0.750000 0.750000 0.500000
O O18 0.668713 0.000000 0.451096
#
# Coordination Sequence:
#
# PCOD8086100 Si02
#       7
#     8   8   8   8   8   8   8
#     4  10  19  31  47  70  98 126 155 196 247 294
#     4   9  18  35  55  73  96 131 168 201 240 286
#     4   9  17  31  50  70  91 123 163 200 238 290
#     4   8  16  31  49  68  94 125 159 197 242 294
#     4   9  19  35  55  75  97 128 167 206 241 277
#     4   9  19  33  49  70  97 127 161 199 243 292
#     4  10  20  34  52  78 108 134 162 201 242 283
#
# _framework density 18.025618000000001
#
# number of rings (size 3 to 8) (size 9 to 14) (size 15 to 20)
#    0.000    2.857    0.000    1.714    0.000    3.429 
#    0.000    7.857    0.000    0.000    0.000    0.000 
#    0.000    0.000    0.000    0.000    0.000    0.000 
#
# Total GULP energy -347162.528119 kJ/mol
# GULP energy per Si atom -12398.661719 kJ/mol
# Density = 1.798459 g / cm^3
# Si number density = 18.025618 Si / 1000 Ang^3
#
#
#
# Elastic Constant Matrix: (Units=GPa)
#
#
# Indices 1 2 3 4 5 6 
#
# 1 116.6768 35.3241 46.3705 0.0000 4.2960 0.0000
# 2 35.3241 45.1546 41.0097 0.0000 2.9527 0.0000
# 3 46.3705 41.0097 107.6130 0.0000 3.1361 0.0000
# 4 0.0000 0.0000 0.0000 28.6643 0.0000 -0.5726
# 5 4.2960 2.9527 3.1361 0.0000 18.4901 0.0000
# 6 0.0000 0.0000 0.0000 -0.5726 0.0000 28.0052
#
#
#
# Elastic Compliance Matrix: (Units=1/GPa)
#
#
# Indices 1 2 3 4 5 6 
#
# 1 0.011635 -0.006885 -0.002355 0.000000 -0.001205 0.000000
# 2 -0.006885 0.038135 -0.011492 0.000000 -0.002541 0.000000
# 3 -0.002355 -0.011492 0.014690 0.000000 -0.000109 0.000000
# 4 0.000000 0.000000 0.000000 0.034901 0.000000 0.000714
# 5 -0.001205 -0.002541 -0.000109 0.000000 0.054787 0.000000
# 6 0.000000 0.000000 0.000000 0.000714 0.000000 0.035722
#
#
# Mechanical properties :
#
#
# Convention : Reuss Voigt Hill
#
# Bulk Modulus (GPa) = 43.48365 57.20587 50.34476
# Shear Modulus (GPa) = 20.92050 24.81460 22.86755
#
# Velocity S-wave (km/s) = 3.41045 3.71432 3.56562
# Velocity P-wave (km/s) = 6.29951 7.08517 6.70386
#
# Compressibility (1/GPa) = 0.02299715
#
# Stress axis : x y z
#
# Youngs Moduli (GPa) = 85.94551 26.22237 68.07380
#
# Poissons Ratio (x) = 0.18053 0.16031
# Poissons Ratio (y) = 0.59171 0.78231
# Poissons Ratio (z) = 0.20239 0.30135
#
# Static dielectric constant tensor:
#      x y z
#    x 3.491180 0.000000 0.073250 
#    y 0.000000 3.133500 0.000000 
#    z 0.073250 0.000000 3.430710 
# 
# 
# High freq. dielectric constant tensor:
#      x y z
#    x 1.700850 0.000000 -0.001160 
#    y 0.000000 1.680140 0.000000 
#    z -0.001160 0.000000 1.699350 
# 
# From -- ./inp_files/338152.got.cif
#   From: 2010.06.25/outbox.cif.g09.slc.cpg/sg12_170_cif.got.tgz:338152.got - 2010.06.28 00:19:55.
