data_PCOD8086976
_publ_section_title
;
Structure prediction by ZEFSAII (Michael W. Deem and Ramdas Pophale) SiO2 
 PCOD8086976
Probable space group: C 2/M
;
_chemical_formula_sum "Si O2"
_cell_formula_units_Z 64
_cell_length_a 20.293541
_cell_length_b 8.548463
_cell_length_c 33.432945
_cell_angle_alpha 90.000000
_cell_angle_beta 146.402862
_cell_angle_gamma 90.000000
_cell_volume 3209.374318
_symmetry_space_group_name_H-M "C 2/M"
_symmetry_group_IT_number 12
_symmetry_cell_setting 'monoclinic'
loop_
_space_group_symop_operation_xyz
x,y,z
-x,y,-z
-x,-y,-z
x,-y,z
1/2+x,1/2+y,z
1/2-x,1/2+y,-z
1/2-x,1/2-y,-z
1/2+x,1/2-y,z
loop_
_atom_site_type_symbol
_atom_site_label
_atom_site_fract_x
_atom_site_fract_y
_atom_site_fract_z
Si Si1 0.463736 0.314488 0.790001
Si Si2 0.057316 0.813860 0.308799
Si Si3 0.135026 0.184360 0.060278
Si Si4 0.015273 0.314189 0.552534
Si Si5 0.276143 0.685553 0.056753
Si Si6 0.305523 0.684340 0.213669
Si Si7 0.269032 0.814278 0.282608
Si Si8 0.774609 0.685515 0.469568
O O1 0.467424 0.500000 0.789893
O O2 0.434841 0.246023 0.731821
O O3 0.592155 0.249187 0.867356
O O4 0.361191 0.260673 0.768519
O O5 0.171726 0.745576 0.389231
O O6 0.936643 0.754717 0.268557
O O7 0.060214 0.000000 0.310257
O O8 0.183383 0.258325 0.043530
O O9 0.211118 0.232642 0.137264
O O10 0.139937 0.000000 0.057312
O O11 0.000000 0.241502 0.000000
O O12 0.017735 0.500000 0.551212
O O13 0.134388 0.256795 0.635561
O O14 0.000000 0.245279 0.500000
O O15 0.902453 0.251943 0.520215
O O16 0.272621 0.500000 0.054363
O O17 0.250000 0.750000 0.000000
O O18 0.292616 0.500000 0.200635
O O19 0.286610 0.727395 0.249961
O O20 0.278330 0.000000 0.280850
O O21 0.771989 0.500000 0.468183
O O22 0.750000 0.750000 0.500000
#
# Coordination Sequence:
#
# PCOD8086976 Si02
#       8
#     8   8   8   8   8   8   8   8
#     4   9  18  35  58  81 109 148 192 230 276 335
#     4   9  17  33  56  79 105 147 192 232 281 338
#     4  11  25  44  65  89 118 153 193 239 296 354
#     4   9  17  31  53  83 112 145 196 246 284 332
#     4  11  23  41  64  91 123 156 195 238 285 345
#     4  11  22  38  59  84 117 153 193 238 288 352
#     4  10  20  34  56  84 116 153 193 242 291 339
#     4  10  19  31  52  79 110 144 185 234 283 335
#
# _framework density 19.941582
#
# number of rings (size 3 to 8) (size 9 to 14) (size 15 to 20)
#    0.000    2.000    1.250    2.625    1.750    4.000 
#    0.000    1.250    0.000    3.000    0.000    0.000 
#    0.000    0.000    0.000    0.000    0.000    0.000 
#
# Total GULP energy -396762.931184 kJ/mol
# GULP energy per Si atom -12398.841599 kJ/mol
# Density = 1.989619 g / cm^3
# Si number density = 19.941582 Si / 1000 Ang^3
#
#
#
# Elastic Constant Matrix: (Units=GPa)
#
#
# Indices 1 2 3 4 5 6 
#
# 1 148.5686 15.2412 59.8333 0.0001 2.2379 -0.0001
# 2 15.2412 28.1917 17.8912 0.0001 4.2747 0.0002
# 3 59.8333 17.8912 143.9805 0.0001 2.2043 -0.0002
# 4 0.0001 0.0001 0.0001 18.5718 0.0000 -6.9448
# 5 2.2379 4.2747 2.2043 0.0000 48.1380 -0.0001
# 6 -0.0001 0.0002 -0.0002 -6.9448 -0.0001 30.8132
#
#
#
# Elastic Compliance Matrix: (Units=1/GPa)
#
#
# Indices 1 2 3 4 5 6 
#
# 1 0.008240 -0.002474 -0.003117 0.000000 -0.000021 0.000000
# 2 -0.002474 0.039751 -0.003862 0.000000 -0.003238 0.000000
# 3 -0.003117 -0.003862 0.008719 0.000000 0.000089 0.000000
# 4 0.000000 0.000000 0.000000 0.058801 0.000000 0.013253
# 5 -0.000021 -0.003238 0.000089 0.000000 0.021058 0.000000
# 6 0.000000 0.000000 0.000000 0.013253 0.000000 0.035441
#
#
# Mechanical properties :
#
#
# Convention : Reuss Voigt Hill
#
# Bulk Modulus (GPa) = 26.45131 56.29692 41.37411
# Shear Modulus (GPa) = 24.56810 34.68960 29.62885
#
# Velocity S-wave (km/s) = 3.51380 4.17533 3.85877
# Velocity P-wave (km/s) = 5.45487 7.17891 6.37543
#
# Compressibility (1/GPa) = 0.03780532
#
# Stress axis : x y z
#
# Youngs Moduli (GPa) = 121.35710 25.15678 114.69124
#
# Poissons Ratio (x) = 0.06223 0.35745
# Poissons Ratio (y) = 0.30022 0.44292
# Poissons Ratio (z) = 0.37822 0.09715
#
# Static dielectric constant tensor:
#      x y z
#    x 3.831010 0.000000 0.108750 
#    y 0.000000 3.252460 0.000000 
#    z 0.108750 0.000000 3.952160 
# 
# 
# High freq. dielectric constant tensor:
#      x y z
#    x 1.797070 0.000000 0.000960 
#    y 0.000000 1.738240 0.000000 
#    z 0.000960 0.000000 1.796770 
# 
# From -- ./inp_files/378372.got.cif
#   From: 2010.06.25/outbox.cif.g09.slc.cpg/sg12_190_cif.got.tgz:378372.got - 2010.06.28 00:19:55.
