data_PCOD8086001
_publ_section_title
;
Structure prediction by ZEFSAII (Michael W. Deem and Ramdas Pophale) SiO2 
 PCOD8086001
Probable space group: C 2/M
;
_chemical_formula_sum "Si O2"
_cell_formula_units_Z 56
_cell_length_a 22.493019
_cell_length_b 9.196400
_cell_length_c 21.534440
_cell_angle_alpha 90.000000
_cell_angle_beta 49.866040
_cell_angle_gamma 90.000000
_cell_volume 3405.642880
_symmetry_space_group_name_H-M "C 2/M"
_symmetry_group_IT_number 12
_symmetry_cell_setting 'monoclinic'
loop_
_space_group_symop_operation_xyz
x,y,z
-x,y,-z
-x,-y,-z
x,-y,z
1/2+x,1/2+y,z
1/2-x,1/2+y,-z
1/2-x,1/2-y,-z
1/2+x,1/2-y,z
loop_
_atom_site_type_symbol
_atom_site_label
_atom_site_fract_x
_atom_site_fract_y
_atom_site_fract_z
Si Si1 0.626683 0.667021 0.076938
Si Si2 0.178916 0.830428 0.468291
Si Si3 0.737872 0.166577 0.091983
Si Si4 0.588170 0.171286 0.423618
Si Si5 0.882083 0.667207 0.732381
Si Si6 0.351165 0.832364 0.389147
Si Si7 0.488025 0.830399 0.773033
O O1 0.606314 0.500000 0.101636
O O2 0.690874 0.718631 0.082806
O O3 0.546370 0.754918 0.141379
O O4 0.668771 0.691540 0.980812
O O5 0.146345 0.752344 0.430035
O O6 0.271224 0.800057 0.407424
O O7 0.139253 0.765220 0.556337
O O8 0.159450 0.000000 0.478678
O O9 0.707553 0.188344 0.183370
O O10 0.717533 0.000000 0.085068
O O11 0.500000 0.208847 0.500000
O O12 0.605920 0.238197 0.343251
O O13 0.604884 0.000000 0.417134
O O14 0.904164 0.500000 0.708604
O O15 0.941925 0.730758 0.743497
O O16 0.421005 0.793505 0.295013
O O17 0.356372 0.000000 0.407166
O O18 0.472870 0.000000 0.791092
#
# Coordination Sequence:
#
# PCOD8086001 Si02
#       7
#     8   8   8   8   8   8   8
#     4   9  15  22  36  60  87 111 138 177 220 256
#     4  10  20  32  47  68  91 113 142 184 226 256
#     4   8  14  25  38  54  82 118 149 174 206 255
#     4  10  19  31  47  65  87 118 153 181 209 257
#     4   8  14  25  42  61  81 112 150 178 202 244
#     4   9  18  33  50  65  85 117 150 177 213 266
#     4   9  16  28  45  63  85 113 145 177 211 258
#
# _framework density 16.443297000000001
#
# number of rings (size 3 to 8) (size 9 to 14) (size 15 to 20)
#    0.000    3.000    0.000    2.571    0.000    4.286 
#    0.000    2.857    0.000    0.000    0.000    1.000 
#    0.000    8.000    0.000    0.000    0.000    0.000 
#
# Total GULP energy -346906.485046 kJ/mol
# GULP energy per Si atom -12389.517323 kJ/mol
# Density = 1.640587 g / cm^3
# Si number density = 16.443297 Si / 1000 Ang^3
#
#
#
# Elastic Constant Matrix: (Units=GPa)
#
#
# Indices 1 2 3 4 5 6 
#
# 1 52.9760 24.4012 43.8347 0.0001 -5.6419 0.0001
# 2 24.4012 50.1519 42.4646 0.0004 -6.9886 -0.0001
# 3 43.8347 42.4646 152.1378 0.0001 -20.7974 -0.0001
# 4 0.0001 0.0004 0.0001 24.2597 -0.0001 -2.6638
# 5 -5.6419 -6.9886 -20.7974 -0.0001 23.3565 0.0000
# 6 0.0001 -0.0001 -0.0001 -2.6638 0.0000 20.7947
#
#
#
# Elastic Compliance Matrix: (Units=1/GPa)
#
#
# Indices 1 2 3 4 5 6 
#
# 1 0.027431 -0.008744 -0.005596 0.000000 -0.000973 0.000000
# 2 -0.008744 0.028944 -0.005311 0.000000 0.001819 0.000000
# 3 -0.005596 -0.005311 0.010550 0.000000 0.006453 0.000000
# 4 0.000000 0.000000 0.000000 0.041809 0.000000 0.005356
# 5 -0.000973 0.001819 0.006453 0.000000 0.048870 0.000000
# 6 0.000000 0.000000 0.000000 0.005356 0.000000 0.048775
#
#
# Mechanical properties :
#
#
# Convention : Reuss Voigt Hill
#
# Bulk Modulus (GPa) = 36.20102 52.96294 44.58198
# Shear Modulus (GPa) = 19.61656 23.31987 21.46821
#
# Velocity S-wave (km/s) = 3.45770 3.76998 3.61722
# Velocity P-wave (km/s) = 6.16477 7.15750 6.67960
#
# Compressibility (1/GPa) = 0.02762353
#
# Stress axis : x y z
#
# Youngs Moduli (GPa) = 36.45569 34.54960 94.78841
#
# Poissons Ratio (x) = 0.30209 0.53043
# Poissons Ratio (y) = 0.31875 0.50341
# Poissons Ratio (z) = 0.20400 0.18349
#
# Static dielectric constant tensor:
#      x y z
#    x 2.748790 0.000000 -0.189180 
#    y 0.000000 3.030240 0.000000 
#    z -0.189180 0.000000 3.622460 
# 
# 
# High freq. dielectric constant tensor:
#      x y z
#    x 1.578390 0.000000 -0.022410 
#    y 0.000000 1.623600 0.000000 
#    z -0.022410 0.000000 1.651100 
# 
# From -- ./inp_files/323544.got.cif
#   From: 2010.06.25/outbox.cif.g09.slc.cpg/sg12_162_cif.got.tgz:323544.got - 2010.06.28 00:19:55.
