data_PCOD8086370
_publ_section_title
;
Structure prediction by ZEFSAII (Michael W. Deem and Ramdas Pophale) SiO2 
 PCOD8086370
Probable space group: C 2/M
;
_chemical_formula_sum "Si O2"
_cell_formula_units_Z 48
_cell_length_a 32.600135
_cell_length_b 9.170140
_cell_length_c 14.708888
_cell_angle_alpha 90.000000
_cell_angle_beta 142.874639
_cell_angle_gamma 90.000000
_cell_volume 2653.972083
_symmetry_space_group_name_H-M "C 2/M"
_symmetry_group_IT_number 12
_symmetry_cell_setting 'monoclinic'
loop_
_space_group_symop_operation_xyz
x,y,z
-x,y,-z
-x,-y,-z
x,-y,z
1/2+x,1/2+y,z
1/2-x,1/2+y,-z
1/2-x,1/2-y,-z
1/2+x,1/2-y,z
loop_
_atom_site_type_symbol
_atom_site_label
_atom_site_fract_x
_atom_site_fract_y
_atom_site_fract_z
Si Si1 0.279709 0.327760 0.293905
Si Si2 0.405710 0.673233 0.401341
Si Si3 0.307881 0.330494 0.548453
Si Si4 0.074248 0.827986 0.114181
Si Si5 0.050481 0.826886 0.715774
Si Si6 0.361929 0.326039 0.960664
O O1 0.267122 0.500000 0.261951
O O2 0.336936 0.267873 0.325770
O O3 0.306815 0.286505 0.441612
O O4 0.211044 0.243681 0.150026
O O5 0.405739 0.500000 0.406514
O O6 0.408935 0.726687 0.302424
O O7 0.472636 0.730667 0.573704
O O8 0.294445 0.500000 0.539069
O O9 0.250000 0.250000 0.500000
O O10 0.380430 0.285399 0.718747
O O11 0.108280 0.766777 0.082082
O O12 0.066968 0.000000 0.089725
O O13 0.000000 0.758128 0.000000
O O14 0.049835 0.000000 0.716139
O O15 0.087639 0.768375 0.871429
O O16 0.354140 0.500000 0.947583
#
# Coordination Sequence:
#
# PCOD8086370 Si02
#       6
#     8   8   8   8   8   8
#     4  10  20  31  48  71  97 127 156 187 232 284
#     4   8  15  29  47  71  97 121 154 196 238 276
#     4  10  19  32  49  69  95 126 155 188 231 279
#     4   9  18  30  46  70  95 118 153 199 236 267
#     4   8  15  28  48  71  95 121 155 199 237 271
#     4  10  19  31  49  72  96 123 157 196 235 274
#
# _framework density 18.086099000000001
#
# number of rings (size 3 to 8) (size 9 to 14) (size 15 to 20)
#    0.000    2.833    1.667    1.000    2.333    0.667 
#    0.000    0.000    0.000    3.000    0.000    2.333 
#    0.000    0.000    0.000    0.000    0.000    0.000 
#
# Total GULP energy -297504.408190 kJ/mol
# GULP energy per Si atom -12396.017008 kJ/mol
# Density = 1.804493 g / cm^3
# Si number density = 18.086099 Si / 1000 Ang^3
#
#
#
# Elastic Constant Matrix: (Units=GPa)
#
#
# Indices 1 2 3 4 5 6 
#
# 1 108.5180 12.9686 53.7643 0.0000 16.6193 0.0000
# 2 12.9686 11.9846 17.3059 0.0000 1.9061 0.0000
# 3 53.7643 17.3059 129.4368 0.0000 4.0855 0.0000
# 4 0.0000 0.0000 0.0000 20.1682 0.0000 5.9876
# 5 16.6193 1.9061 4.0855 0.0000 40.3257 0.0000
# 6 0.0000 0.0000 0.0000 5.9876 0.0000 16.8103
#
#
#
# Elastic Compliance Matrix: (Units=1/GPa)
#
#
# Indices 1 2 3 4 5 6 
#
# 1 0.012861 -0.007049 -0.004256 0.000000 -0.004536 0.000000
# 2 -0.007049 0.107762 -0.011448 0.000000 -0.001029 0.000000
# 3 -0.004256 -0.011448 0.010987 0.000000 0.001182 0.000000
# 4 0.000000 0.000000 0.000000 0.055446 0.000000 -0.019749
# 5 -0.004536 -0.001029 0.001182 0.000000 0.026596 0.000000
# 6 0.000000 0.000000 0.000000 -0.019749 0.000000 0.066522
#
#
# Mechanical properties :
#
#
# Convention : Reuss Voigt Hill
#
# Bulk Modulus (GPa) = 11.61384 46.44632 29.03008
# Shear Modulus (GPa) = 14.10906 26.52087 20.31496
#
# Velocity S-wave (km/s) = 2.79607 3.83347 3.35511
# Velocity P-wave (km/s) = 4.10601 6.73279 5.57628
#
# Compressibility (1/GPa) = 0.08610416
#
# Stress axis : x y z
#
# Youngs Moduli (GPa) = 77.75478 9.27968 91.01654
#
# Poissons Ratio (x) = 0.06541 0.38740
# Poissons Ratio (y) = 0.54810 1.04192
# Poissons Ratio (z) = 0.33096 0.10623
#
# Static dielectric constant tensor:
#      x y z
#    x 3.533190 0.000000 -0.191360 
#    y 0.000000 2.787610 0.000000 
#    z -0.191360 0.000000 2.988130 
# 
# 
# High freq. dielectric constant tensor:
#      x y z
#    x 1.710960 0.000000 -0.000710 
#    y 0.000000 1.637020 0.000000 
#    z -0.000710 0.000000 1.714250 
# 
# From -- ./inp_files/212845.got.cif
#   From: 2010.06.25/outbox.cif.g09.slc.cpg/sg12_107_cif.got.tgz:212845.got - 2010.06.28 00:19:55.
