data_PCOD8086684
_publ_section_title
;
Structure prediction by ZEFSAII (Michael W. Deem and Ramdas Pophale) SiO2 
 PCOD8086684
Probable space group: C 2/M
;
_chemical_formula_sum "Si O2"
_cell_formula_units_Z 40
_cell_length_a 27.168970
_cell_length_b 9.174228
_cell_length_c 19.123302
_cell_angle_alpha 90.000000
_cell_angle_beta 28.244361
_cell_angle_gamma 90.000000
_cell_volume 2255.696053
_symmetry_space_group_name_H-M "C 2/M"
_symmetry_group_IT_number 12
_symmetry_cell_setting 'monoclinic'
loop_
_space_group_symop_operation_xyz
x,y,z
-x,y,-z
-x,-y,-z
x,-y,z
1/2+x,1/2+y,z
1/2-x,1/2+y,-z
1/2-x,1/2-y,-z
1/2+x,1/2-y,z
loop_
_atom_site_type_symbol
_atom_site_label
_atom_site_fract_x
_atom_site_fract_y
_atom_site_fract_z
Si Si1 0.669163 0.332526 0.553825
Si Si2 0.754528 0.667578 0.821395
Si Si3 0.065119 0.329373 0.295014
Si Si4 0.434730 0.330807 0.846430
Si Si5 0.354982 0.671493 0.574718
O O1 0.692643 0.500000 0.536619
O O2 0.750000 0.250000 0.500000
O O3 0.551738 0.292912 0.724123
O O4 0.684608 0.290241 0.453397
O O5 0.761594 0.500000 0.788662
O O6 0.840240 0.703168 0.772049
O O7 0.769217 0.770003 0.735937
O O8 0.641409 0.704305 0.994225
O O9 0.041669 0.500000 0.317238
O O10 0.097296 0.265785 0.179733
O O11 0.963989 0.251067 0.453262
O O12 0.426978 0.500000 0.833101
O O13 0.371971 0.500000 0.562934
#
# Coordination Sequence:
#
# PCOD8086684 Si02
#       5
#     8   8   8   8   8
#     4   9  19  36  56  74  93 124 166 209 253 301
#     4  10  20  33  50  75 107 137 166 204 246 291
#     4  10  19  31  50  76 104 137 174 204 237 289
#     4   9  19  35  52  74 104 134 167 206 248 296
#     4  10  21  35  51  74 103 134 169 206 247 297
#
# _framework density 17.732886000000001
#
# number of rings (size 3 to 8) (size 9 to 14) (size 15 to 20)
#    0.000    2.400    0.000    3.600    0.000    8.800 
#    0.000    1.000    0.000    6.000    0.000    0.000 
#    0.000    0.000    0.000    0.000    0.000    0.000 
#
# Total GULP energy -248045.421629 kJ/mol
# GULP energy per Si atom -12402.271081 kJ/mol
# Density = 1.769253 g / cm^3
# Si number density = 17.732886 Si / 1000 Ang^3
#
#
#
# Elastic Constant Matrix: (Units=GPa)
#
#
# Indices 1 2 3 4 5 6 
#
# 1 109.7269 63.4249 76.9297 -0.0049 -7.9389 0.0023
# 2 63.4249 84.8306 65.0665 -0.0015 2.6963 0.0025
# 3 76.9297 65.0665 148.5536 -0.0030 9.2572 0.0027
# 4 -0.0049 -0.0015 -0.0030 32.6321 0.0021 4.7583
# 5 -7.9389 2.6963 9.2572 0.0021 15.5233 -0.0008
# 6 0.0023 0.0025 0.0027 4.7583 -0.0008 33.0352
#
#
#
# Elastic Compliance Matrix: (Units=1/GPa)
#
#
# Indices 1 2 3 4 5 6 
#
# 1 0.022463 -0.011419 -0.007759 0.000001 0.018099 0.000000
# 2 -0.011419 0.023596 -0.003949 0.000000 -0.007583 -0.000001
# 3 -0.007759 -0.003949 0.013173 0.000001 -0.011138 -0.000001
# 4 0.000001 0.000000 0.000001 0.031302 -0.000004 -0.004509
# 5 0.018099 -0.007583 -0.011138 -0.000004 0.081635 0.000003
# 6 0.000000 -0.000001 -0.000001 -0.004509 0.000003 0.030920
#
#
# Mechanical properties :
#
#
# Convention : Reuss Voigt Hill
#
# Bulk Modulus (GPa) = 77.05128 83.77261 80.41194
# Shear Modulus (GPa) = 19.71064 25.41746 22.56405
#
# Velocity S-wave (km/s) = 3.33758 3.79007 3.57100
# Velocity P-wave (km/s) = 7.64186 8.15456 7.90237
#
# Compressibility (1/GPa) = 0.01297837
#
# Stress axis : x y z
#
# Youngs Moduli (GPa) = 44.51682 42.38058 75.91008
#
# Poissons Ratio (x) = 0.48394 0.58900
# Poissons Ratio (y) = 0.50834 0.29977
# Poissons Ratio (z) = 0.34541 0.16736
#
# Static dielectric constant tensor:
#      x y z
#    x 3.077650 0.000000 0.080390 
#    y 0.000000 3.332360 0.000010 
#    z 0.080390 0.000010 3.571090 
# 
# 
# High freq. dielectric constant tensor:
#      x y z
#    x 1.668010 0.000000 0.004490 
#    y 0.000000 1.691400 0.000000 
#    z 0.004490 0.000000 1.692650 
# 
# From -- ./inp_files/151931.got.cif
#   From: 2010.06.25/outbox.cif.g09.slc.cpg/sg12_76_cif.got.tgz:151931.got - 2010.06.28 00:19:55.
