data_PCOD8086405
_publ_section_title
;
Structure prediction by ZEFSAII (Michael W. Deem and Ramdas Pophale) SiO2 
 PCOD8086405
Probable space group: C 2/M
;
_chemical_formula_sum "Si O2"
_cell_formula_units_Z 64
_cell_length_a 14.702285
_cell_length_b 9.400535
_cell_length_c 26.619050
_cell_angle_alpha 90.000000
_cell_angle_beta 104.007915
_cell_angle_gamma 90.000000
_cell_volume 3569.596406
_symmetry_space_group_name_H-M "C 2/M"
_symmetry_group_IT_number 12
_symmetry_cell_setting 'monoclinic'
loop_
_space_group_symop_operation_xyz
x,y,z
-x,y,-z
-x,-y,-z
x,-y,z
1/2+x,1/2+y,z
1/2-x,1/2+y,-z
1/2-x,1/2-y,-z
1/2+x,1/2-y,z
loop_
_atom_site_type_symbol
_atom_site_label
_atom_site_fract_x
_atom_site_fract_y
_atom_site_fract_z
Si Si1 0.391981 0.833817 0.493260
Si Si2 0.742298 0.332761 0.767300
Si Si3 0.543727 0.166495 0.057367
Si Si4 0.739859 0.166504 0.121025
Si Si5 0.226039 0.334402 0.425397
Si Si6 0.138565 0.668643 0.308699
Si Si7 0.529916 0.663698 0.750959
Si Si8 0.443650 0.665453 0.130206
O O1 0.500000 0.782213 0.500000
O O2 0.322712 0.750192 0.446742
O O3 0.355282 0.801369 0.544686
O O4 0.384726 0.000000 0.479335
O O5 0.758419 0.500000 0.768089
O O6 0.779183 0.269296 0.825671
O O7 0.799441 0.266611 0.728589
O O8 0.633481 0.295618 0.746570
O O9 0.655048 0.198768 0.071648
O O10 0.503229 0.244213 0.099777
O O11 0.522671 0.000000 0.060306
O O12 0.500000 0.226586 0.000000
O O13 0.836827 0.223919 0.110861
O O14 0.755878 0.000000 0.131901
O O15 0.252267 0.500000 0.429247
O O16 0.185861 0.283898 0.366824
O O17 0.127055 0.500000 0.304787
O O18 0.036728 0.737727 0.290946
O O19 0.507219 0.500000 0.736412
O O20 0.518682 0.694103 0.808816
O O21 0.451509 0.500000 0.116896
#
# Coordination Sequence:
#
# PCOD8086405 Si02
#       8
#     8   8   8   8   8   8   8   8
#     4   9  18  34  53  69  92 130 168 201 243 288
#     4   8  15  29  48  67  90 125 159 183 225 290
#     4  10  20  32  48  72  97 121 155 198 241 285
#     4   8  15  30  49  66  90 125 157 185 228 286
#     4   9  19  33  48  72 100 124 160 203 237 280
#     4  10  19  31  49  73 101 128 154 193 241 283
#     4   9  18  32  49  70  94 122 159 194 226 278
#     4   9  18  33  51  68  90 124 161 193 228 277
#
# _framework density 17.929199000000001
#
# number of rings (size 3 to 8) (size 9 to 14) (size 15 to 20)
#    0.000    3.000    0.000    2.250    0.000    4.000 
#    0.000    1.250    0.000    1.500    0.000    0.000 
#    0.000    0.000    0.000    0.000    0.000    0.000 
#
# Total GULP energy -396669.037159 kJ/mol
# GULP energy per Si atom -12395.907411 kJ/mol
# Density = 1.788839 g / cm^3
# Si number density = 17.929199 Si / 1000 Ang^3
#
#
#
# Elastic Constant Matrix: (Units=GPa)
#
#
# Indices 1 2 3 4 5 6 
#
# 1 78.1076 25.4688 27.5050 0.0000 17.2640 0.0000
# 2 25.4688 30.9491 28.5203 0.0000 10.7782 0.0000
# 3 27.5050 28.5203 77.0847 0.0000 24.3188 0.0000
# 4 0.0000 0.0000 0.0000 22.7802 0.0000 0.6394
# 5 17.2640 10.7782 24.3188 0.0000 25.8065 0.0000
# 6 0.0000 0.0000 0.0000 0.6394 0.0000 23.1384
#
#
#
# Elastic Compliance Matrix: (Units=1/GPa)
#
#
# Indices 1 2 3 4 5 6 
#
# 1 0.018552 -0.013256 0.000646 0.000000 -0.007483 0.000000
# 2 -0.013256 0.058922 -0.017226 0.000000 0.000491 0.000000
# 3 0.000646 -0.017226 0.024167 0.000000 -0.016011 0.000000
# 4 0.000000 0.000000 0.000000 0.043932 0.000000 -0.001214
# 5 -0.007483 0.000491 -0.016011 0.000000 0.058639 0.000000
# 6 0.000000 0.000000 0.000000 -0.001214 0.000000 0.043252
#
#
# Mechanical properties :
#
#
# Convention : Reuss Voigt Hill
#
# Bulk Modulus (GPa) = 23.82682 38.79219 31.30951
# Shear Modulus (GPa) = 15.57027 21.32150 18.44588
#
# Velocity S-wave (km/s) = 2.95011 3.45223 3.21100
# Velocity P-wave (km/s) = 4.99224 6.12975 5.59000
#
# Compressibility (1/GPa) = 0.04196951
#
# Stress axis : x y z
#
# Youngs Moduli (GPa) = 53.90323 16.97147 41.37890
#
# Poissons Ratio (x) = 0.22497 -0.02671
# Poissons Ratio (y) = 0.71453 0.71278
# Poissons Ratio (z) = -0.03480 0.29234
#
# Static dielectric constant tensor:
#      x y z
#    x 3.416670 0.000000 0.006010 
#    y 0.000000 2.981750 0.000000 
#    z 0.006010 0.000000 3.397900 
# 
# 
# High freq. dielectric constant tensor:
#      x y z
#    x 1.701720 0.000000 0.004510 
#    y 0.000000 1.661690 0.000000 
#    z 0.004510 0.000000 1.693150 
# 
# From -- ./inp_files/359997.got.cif
#   From: 2010.06.25/outbox.cif.g09.slc.cpg/sg12_180_cif.got.tgz:359997.got - 2010.06.28 00:19:55.
