data_PCOD8086271
_publ_section_title
;
Structure prediction by ZEFSAII (Michael W. Deem and Ramdas Pophale) SiO2 
 PCOD8086271
Probable space group: C 2/M
;
_chemical_formula_sum "Si O2"
_cell_formula_units_Z 64
_cell_length_a 28.637216
_cell_length_b 8.808269
_cell_length_c 16.674332
_cell_angle_alpha 90.000000
_cell_angle_beta 115.996120
_cell_angle_gamma 90.000000
_cell_volume 3780.457315
_symmetry_space_group_name_H-M "C 2/M"
_symmetry_group_IT_number 12
_symmetry_cell_setting 'monoclinic'
loop_
_space_group_symop_operation_xyz
x,y,z
-x,y,-z
-x,-y,-z
x,-y,z
1/2+x,1/2+y,z
1/2-x,1/2+y,-z
1/2-x,1/2-y,-z
1/2+x,1/2-y,z
loop_
_atom_site_type_symbol
_atom_site_label
_atom_site_fract_x
_atom_site_fract_y
_atom_site_fract_z
Si Si1 0.832913 0.670642 0.348195
Si Si2 0.905084 0.827595 0.285828
Si Si3 0.727318 0.176709 0.261840
Si Si4 0.119294 0.328279 0.445127
Si Si5 0.818448 0.174883 0.101141
Si Si6 0.295473 0.678738 0.587715
Si Si7 0.280742 0.323470 0.903284
Si Si8 0.015483 0.174819 0.422361
O O1 0.815641 0.500000 0.311907
O O2 0.884142 0.715891 0.338318
O O3 0.788037 0.789471 0.293160
O O4 0.844397 0.680170 0.450264
O O5 0.876380 0.796284 0.179344
O O6 0.966768 0.800388 0.325447
O O7 0.894676 0.000000 0.306487
O O8 0.707302 0.269876 0.322563
O O9 0.698516 0.231378 0.158699
O O10 0.717709 0.000000 0.269276
O O11 0.115161 0.500000 0.410207
O O12 0.147412 0.226090 0.399611
O O13 0.061811 0.271259 0.420555
O O14 0.778438 0.279171 0.119658
O O15 0.800942 0.000000 0.099012
O O16 0.818053 0.217269 0.006574
O O17 0.288672 0.500000 0.577678
O O18 0.250000 0.750000 0.500000
O O19 0.282397 0.500000 0.883479
O O20 0.000000 0.230828 0.500000
O O21 0.033134 0.000000 0.439621
#
# Coordination Sequence:
#
# PCOD8086271 Si02
#       8
#     8   8   8   8   8   8   8   8
#     4  11  21  31  48  73 103 137 175 216 254 298
#     4  10  19  32  50  73 103 140 180 215 256 307
#     4  12  23  35  52  74 103 139 176 212 256 309
#     4  11  23  37  52  73 105 139 176 217 256 298
#     4   9  18  31  48  72 103 139 174 213 259 308
#     4  12  24  38  56  77 103 135 173 213 256 305
#     4  10  19  31  48  73 104 135 173 216 258 309
#     4  10  20  33  51  75 103 138 179 216 254 302
#
# _framework density 16.929168000000001
#
# number of rings (size 3 to 8) (size 9 to 14) (size 15 to 20)
#    0.000    1.375    3.750    3.375    0.000    2.250 
#    0.000    0.000    0.000    0.000    0.000    0.875 
#    0.000    7.000    0.000    0.000    0.000    0.000 
#
# Total GULP energy -396827.253517 kJ/mol
# GULP energy per Si atom -12400.851672 kJ/mol
# Density = 1.689064 g / cm^3
# Si number density = 16.929168 Si / 1000 Ang^3
#
#
#
# Elastic Constant Matrix: (Units=GPa)
#
#
# Indices 1 2 3 4 5 6 
#
# 1 76.3068 39.0586 40.1146 0.0000 -4.1671 0.0000
# 2 39.0586 104.5218 43.1650 0.0000 -7.4207 0.0000
# 3 40.1146 43.1650 105.6093 0.0000 -3.2193 0.0000
# 4 0.0000 0.0000 0.0000 25.1667 0.0000 -3.0552
# 5 -4.1671 -7.4207 -3.2193 0.0000 26.5517 0.0000
# 6 0.0000 0.0000 0.0000 -3.0552 0.0000 25.9115
#
#
#
# Elastic Compliance Matrix: (Units=1/GPa)
#
#
# Indices 1 2 3 4 5 6 
#
# 1 0.018153 -0.004669 -0.004958 0.000000 0.000943 0.000000
# 2 -0.004669 0.012901 -0.003424 0.000000 0.002458 0.000000
# 3 -0.004958 -0.003424 0.012746 0.000000 -0.000190 0.000000
# 4 0.000000 0.000000 0.000000 0.040312 0.000000 0.004753
# 5 0.000943 0.002458 -0.000190 0.000000 0.038474 0.000000
# 6 0.000000 0.000000 0.000000 0.004753 0.000000 0.039153
#
#
# Mechanical properties :
#
#
# Convention : Reuss Voigt Hill
#
# Bulk Modulus (GPa) = 56.50817 59.01268 57.76043
# Shear Modulus (GPa) = 25.80758 26.46594 26.13676
#
# Velocity S-wave (km/s) = 3.90865 3.95819 3.93350
# Velocity P-wave (km/s) = 7.33633 7.47154 7.40424
#
# Compressibility (1/GPa) = 0.01769656
#
# Stress axis : x y z
#
# Youngs Moduli (GPa) = 55.08775 77.51426 78.45578
#
# Poissons Ratio (x) = 0.36191 0.38899
# Poissons Ratio (y) = 0.25720 0.26867
# Poissons Ratio (z) = 0.27313 0.26545
#
# Static dielectric constant tensor:
#      x y z
#    x 2.953620 0.000000 0.035320 
#    y 0.000000 3.273640 0.000000 
#    z 0.035320 0.000000 3.348260 
# 
# 
# High freq. dielectric constant tensor:
#      x y z
#    x 1.618660 0.000000 0.001060 
#    y 0.000000 1.664070 0.000000 
#    z 0.001060 0.000000 1.650570 
# 
# From -- ./inp_files/244069.got.cif
#   From: 2010.06.25/outbox.cif.g09.slc.cpg/sg12_123_cif.got.tgz:244069.got - 2010.06.28 00:19:55.
