data_PCOD8086438
_publ_section_title
;
Structure prediction by ZEFSAII (Michael W. Deem and Ramdas Pophale) SiO2 
 PCOD8086438
Probable space group: C 2/M
;
_chemical_formula_sum "Si O2"
_cell_formula_units_Z 56
_cell_length_a 30.360783
_cell_length_b 9.095097
_cell_length_c 16.884015
_cell_angle_alpha 90.000000
_cell_angle_beta 45.833100
_cell_angle_gamma 90.000000
_cell_volume 3344.297323
_symmetry_space_group_name_H-M "C 2/M"
_symmetry_group_IT_number 12
_symmetry_cell_setting 'monoclinic'
loop_
_space_group_symop_operation_xyz
x,y,z
-x,y,-z
-x,-y,-z
x,-y,z
1/2+x,1/2+y,z
1/2-x,1/2+y,-z
1/2-x,1/2-y,-z
1/2+x,1/2-y,z
loop_
_atom_site_type_symbol
_atom_site_label
_atom_site_fract_x
_atom_site_fract_y
_atom_site_fract_z
Si Si1 0.055186 0.674199 0.603022
Si Si2 0.341879 0.171362 0.409620
Si Si3 0.381036 0.174518 0.633163
Si Si4 0.255734 0.673319 0.209125
Si Si5 0.804154 0.174136 0.980631
Si Si6 0.417308 0.826554 0.761489
Si Si7 0.283658 0.671308 0.345319
O O1 0.061239 0.500000 0.590250
O O2 0.097349 0.732485 0.622347
O O3 0.079243 0.739850 0.489275
O O4 0.984936 0.719711 0.706315
O O5 0.335380 0.249081 0.332829
O O6 0.284133 0.208127 0.537691
O O7 0.347323 0.000000 0.386001
O O8 0.312332 0.241196 0.715973
O O9 0.412032 0.221567 0.676673
O O10 0.378708 0.000000 0.630252
O O11 0.247922 0.500000 0.227131
O O12 0.287243 0.731673 0.250563
O O13 0.296979 0.715211 0.082130
O O14 0.869717 0.235778 0.873338
O O15 0.800276 0.000000 0.971479
O O16 0.750000 0.250000 0.000000
O O17 0.404472 0.000000 0.787839
O O18 0.297894 0.500000 0.332257
#
# Coordination Sequence:
#
# PCOD8086438 Si02
#       7
#     8   8   8   8   8   8   8
#     4   9  16  27  47  73  99 128 160 195 233 281
#     4   9  16  27  45  70  98 121 148 190 240 286
#     4   9  14  25  46  73  97 122 158 196 229 273
#     4   9  16  28  48  70  94 122 157 197 233 273
#     4  11  21  34  51  71  95 127 163 200 238 276
#     4  10  19  31  49  73  98 127 164 198 232 279
#     4   9  16  28  47  69  93 121 154 193 237 280
#
# _framework density 16.744923
#
# number of rings (size 3 to 8) (size 9 to 14) (size 15 to 20)
#    0.000    2.571    2.857    0.857    0.000    1.714 
#    0.000    2.143    0.000    3.429    0.000    6.000 
#    0.000    0.000    0.000    0.000    0.000    0.000 
#
# Total GULP energy -347103.905587 kJ/mol
# GULP energy per Si atom -12396.568057 kJ/mol
# Density = 1.670681 g / cm^3
# Si number density = 16.744923 Si / 1000 Ang^3
#
#
#
# Elastic Constant Matrix: (Units=GPa)
#
#
# Indices 1 2 3 4 5 6 
#
# 1 168.9169 37.3980 79.0857 0.0000 6.5354 0.0000
# 2 37.3980 32.8478 35.9795 -0.0002 3.2658 0.0000
# 3 79.0857 35.9795 112.0835 -0.0001 -0.5413 0.0000
# 4 0.0000 -0.0002 -0.0001 22.1914 0.0001 0.5256
# 5 6.5354 3.2658 -0.5413 0.0001 28.6846 0.0000
# 6 0.0000 0.0000 0.0000 0.5256 0.0000 22.3184
#
#
#
# Elastic Compliance Matrix: (Units=1/GPa)
#
#
# Indices 1 2 3 4 5 6 
#
# 1 0.009482 -0.005076 -0.005069 0.000000 -0.001678 0.000000
# 2 -0.005076 0.050597 -0.012684 0.000000 -0.004843 0.000000
# 3 -0.005069 -0.012684 0.016584 0.000000 0.002912 0.000000
# 4 0.000000 0.000000 0.000000 0.045088 0.000000 -0.001062
# 5 -0.001678 -0.004843 0.002912 0.000000 0.035851 0.000000
# 6 0.000000 0.000000 0.000000 -0.001062 0.000000 0.044831
#
#
# Mechanical properties :
#
#
# Convention : Reuss Voigt Hill
#
# Bulk Modulus (GPa) = 32.25226 68.75274 50.50250
# Shear Modulus (GPa) = 19.34784 25.39788 22.37286
#
# Velocity S-wave (km/s) = 3.40287 3.89877 3.65923
# Velocity P-wave (km/s) = 5.89424 7.83679 6.93388
#
# Compressibility (1/GPa) = 0.03100558
#
# Stress axis : x y z
#
# Youngs Moduli (GPa) = 105.45985 19.76386 60.29806
#
# Poissons Ratio (x) = 0.10033 0.30566
# Poissons Ratio (y) = 0.53536 0.76479
# Poissons Ratio (z) = 0.53460 0.25068
#
# Static dielectric constant tensor:
#      x y z
#    x 3.399520 0.000000 0.087180 
#    y 0.000000 2.765680 0.000000 
#    z 0.087180 0.000000 3.149320 
# 
# 
# High freq. dielectric constant tensor:
#      x y z
#    x 1.653200 0.000000 0.006690 
#    y 0.000000 1.601800 0.000000 
#    z 0.006690 0.000000 1.630600 
# 
# From -- ./inp_files/295113.got.cif
#   From: 2010.06.25/outbox.cif.g09.slc.cpg/sg12_148_cif.got.tgz:295113.got - 2010.06.28 00:19:55.
