data_PCOD8086531
_publ_section_title
;
Structure prediction by ZEFSAII (Michael W. Deem and Ramdas Pophale) SiO2 
 PCOD8086531
Probable space group: C 2/M
;
_chemical_formula_sum "Si O2"
_cell_formula_units_Z 48
_cell_length_a 26.872114
_cell_length_b 12.380042
_cell_length_c 20.714682
_cell_angle_alpha 90.000000
_cell_angle_beta 18.803281
_cell_angle_gamma 90.000000
_cell_volume 2221.208603
_symmetry_space_group_name_H-M "C 2/M"
_symmetry_group_IT_number 12
_symmetry_cell_setting 'monoclinic'
loop_
_space_group_symop_operation_xyz
x,y,z
-x,y,-z
-x,-y,-z
x,-y,z
1/2+x,1/2+y,z
1/2-x,1/2+y,-z
1/2-x,1/2-y,-z
1/2+x,1/2-y,z
loop_
_atom_site_type_symbol
_atom_site_label
_atom_site_fract_x
_atom_site_fract_y
_atom_site_fract_z
Si Si1 0.823202 0.877378 0.697228
Si Si2 0.190033 0.626254 0.123829
Si Si3 0.373062 0.874585 0.942347
Si Si4 0.885462 0.247535 0.498386
Si Si5 0.212237 0.372160 0.493761
Si Si6 0.475265 0.373387 0.267223
O O1 0.794892 0.799960 0.670722
O O2 0.000000 0.874811 0.500000
O O3 0.774713 0.000000 0.739224
O O4 0.721942 0.829063 0.880139
O O5 0.165491 0.500000 0.170419
O O6 0.219677 0.641803 0.010614
O O7 0.039997 0.690131 0.332632
O O8 0.349154 0.673658 0.961451
O O9 0.545175 0.821556 0.722706
O O10 0.401374 0.000000 0.920527
O O11 0.770185 0.329191 0.601333
O O12 0.924057 0.148378 0.403335
O O13 0.203797 0.500000 0.502776
O O14 0.348096 0.329264 0.372633
O O15 0.491561 0.500000 0.238739
#
# Coordination Sequence:
#
# PCOD8086531 Si02
#       6
#     8   8   8   8   8   8
#     4  10  20  33  51  79 113 144 173 212 264 318
#     4   9  18  33  56  82 107 136 174 221 265 310
#     4   8  15  31  52  74 104 139 171 207 258 314
#     4  11  19  31  52  80 109 139 176 216 262 314
#     4   9  19  35  55  77 105 140 176 218 264 311
#     4  10  19  31  49  78 110 138 173 217 265 313
#
# _framework density 21.609857999999999
#
# number of rings (size 3 to 8) (size 9 to 14) (size 15 to 20)
#    0.000    2.500    0.000    4.000    0.000    4.000 
#    0.000    0.833    0.000    8.000    0.000   21.000 
#    0.000   30.667    0.000    0.000    0.000    0.000 
#
# Total GULP energy -297539.870890 kJ/mol
# GULP energy per Si atom -12397.494620 kJ/mol
# Density = 2.156067 g / cm^3
# Si number density = 21.609858 Si / 1000 Ang^3
#
#
#
# Elastic Constant Matrix: (Units=GPa)
#
#
# Indices 1 2 3 4 5 6 
#
# 1 105.6248 48.5441 68.6607 0.0003 -6.6689 0.0001
# 2 48.5441 60.5171 47.7059 0.0009 -5.0496 -0.0008
# 3 68.6607 47.7059 78.7883 0.0008 -1.7558 -0.0003
# 4 0.0003 0.0009 0.0008 33.9817 -0.0006 -1.2196
# 5 -6.6689 -5.0496 -1.7558 -0.0006 51.3625 0.0002
# 6 0.0001 -0.0008 -0.0003 -1.2196 0.0002 43.0230
#
#
#
# Elastic Compliance Matrix: (Units=1/GPa)
#
#
# Indices 1 2 3 4 5 6 
#
# 1 0.022781 -0.004779 -0.016916 0.000000 0.001910 0.000000
# 2 -0.004779 0.032929 -0.015727 0.000000 0.002079 0.000001
# 3 -0.016916 -0.015727 0.036901 0.000000 -0.002481 0.000000
# 4 0.000000 0.000000 0.000000 0.029458 0.000000 0.000835
# 5 0.001910 0.002079 -0.002481 0.000000 0.019837 0.000000
# 6 0.000000 0.000001 0.000000 0.000835 0.000000 0.023267
#
#
# Mechanical properties :
#
#
# Convention : Reuss Voigt Hill
#
# Bulk Modulus (GPa) = 56.28662 63.86128 60.07395
# Shear Modulus (GPa) = 20.33012 31.00808 25.66910
#
# Velocity S-wave (km/s) = 3.07054 3.79212 3.45025
# Velocity P-wave (km/s) = 6.21886 6.98496 6.61301
#
# Compressibility (1/GPa) = 0.01776621
#
# Stress axis : x y z
#
# Youngs Moduli (GPa) = 43.89673 30.36803 27.09926
#
# Poissons Ratio (x) = 0.14514 0.45841
# Poissons Ratio (y) = 0.20980 0.42620
# Poissons Ratio (z) = 0.74256 0.47761
#
# Static dielectric constant tensor:
#      x y z
#    x 3.887770 0.000000 -0.301230 
#    y 0.000000 4.373590 0.000000 
#    z -0.301230 0.000000 3.923850 
# 
# 
# High freq. dielectric constant tensor:
#      x y z
#    x 1.828910 0.000000 -0.026000 
#    y 0.000000 1.895970 0.000000 
#    z -0.026000 0.000000 1.818400 
# 
# From -- ./inp_files/328206.got.cif
#   From: 2010.06.25/outbox.cif.g09.slc.cpg/sg12_165_cif.got.tgz:328206.got - 2010.06.28 00:19:55.
