data_PCOD8086672
_publ_section_title
;
Structure prediction by ZEFSAII (Michael W. Deem and Ramdas Pophale) SiO2 
 PCOD8086672
Probable space group: C 2/M
;
_chemical_formula_sum "Si O2"
_cell_formula_units_Z 40
_cell_length_a 19.491851
_cell_length_b 7.656675
_cell_length_c 17.804630
_cell_angle_alpha 90.000000
_cell_angle_beta 54.542483
_cell_angle_gamma 90.000000
_cell_volume 2164.421272
_symmetry_space_group_name_H-M "C 2/M"
_symmetry_group_IT_number 12
_symmetry_cell_setting 'monoclinic'
loop_
_space_group_symop_operation_xyz
x,y,z
-x,y,-z
-x,-y,-z
x,-y,z
1/2+x,1/2+y,z
1/2-x,1/2+y,-z
1/2-x,1/2-y,-z
1/2+x,1/2-y,z
loop_
_atom_site_type_symbol
_atom_site_label
_atom_site_fract_x
_atom_site_fract_y
_atom_site_fract_z
Si Si1 0.812759 0.306442 0.742398
Si Si2 0.479139 0.203328 0.726760
Si Si3 0.865305 0.706924 0.095211
Si Si4 0.367505 0.500000 0.613297
Si Si5 0.011568 0.293700 0.109320
Si Si6 0.541325 0.500000 0.590383
O O1 0.826180 0.500000 0.700299
O O2 0.884669 0.264856 0.757660
O O3 0.724530 0.298586 0.841622
O O4 0.815682 0.171417 0.671302
O O5 0.481769 0.274542 0.810150
O O6 0.543865 0.323407 0.638534
O O7 0.506438 0.000000 0.702474
O O8 0.852594 0.500000 0.102977
O O9 0.923479 0.766731 0.128436
O O10 0.909715 0.774151 0.990385
O O11 0.457873 0.500000 0.593964
O O12 0.377993 0.500000 0.516344
O O13 0.015605 0.500000 0.105310
#
# Coordination Sequence:
#
# PCOD8086672 Si02
#       6
#     8   8   8   4   8   4
#     4  10  19  31  50  76 102 130 163 203 252 293
#     4   9  18  33  50  74 104 128 162 207 248 292
#     4   9  16  31  52  72 100 137 171 200 239 293
#     4   9  18  34  52  73 102 126 161 210 248 298
#     4   8  16  31  51  73  99 137 171 199 243 290
#     4   9  18  32  54  77  94 128 167 202 254 296
#
# _framework density 18.480689999999999
#
# number of rings (size 3 to 8) (size 9 to 14) (size 15 to 20)
#    0.000    3.000    1.000    1.200    0.000    1.600 
#    3.600    5.000    0.000    1.200    0.000    0.000 
#    0.000    0.000    0.000    0.000    0.000    0.000 
#
# Total GULP energy -247916.017585 kJ/mol
# GULP energy per Si atom -12395.800879 kJ/mol
# Density = 1.843863 g / cm^3
# Si number density = 18.480690 Si / 1000 Ang^3
#
#
#
# Elastic Constant Matrix: (Units=GPa)
#
#
# Indices 1 2 3 4 5 6 
#
# 1 45.7498 23.9576 40.5859 0.0004 15.7214 -0.0003
# 2 23.9576 89.8650 50.4445 -0.0004 12.5682 -0.0009
# 3 40.5859 50.4445 132.1751 0.0004 29.0149 0.0010
# 4 0.0004 -0.0004 0.0004 20.4664 0.0000 0.4110
# 5 15.7214 12.5682 29.0149 0.0000 17.0596 -0.0006
# 6 -0.0003 -0.0009 0.0010 0.4110 -0.0006 11.6985
#
#
#
# Elastic Compliance Matrix: (Units=1/GPa)
#
#
# Indices 1 2 3 4 5 6 
#
# 1 0.035531 -0.003793 -0.004609 -0.000001 -0.022111 0.000000
# 2 -0.003793 0.014609 -0.004493 0.000000 0.000374 0.000001
# 3 -0.004609 -0.004493 0.014421 0.000000 -0.016969 -0.000003
# 4 -0.000001 0.000000 0.000000 0.048895 0.000001 -0.001718
# 5 -0.022111 0.000374 -0.016969 0.000001 0.107580 0.000006
# 6 0.000000 0.000001 -0.000003 -0.001718 0.000006 0.085541
#
#
# Mechanical properties :
#
#
# Convention : Reuss Voigt Hill
#
# Bulk Modulus (GPa) = 25.79250 55.30731 40.54991
# Shear Modulus (GPa) = 14.48056 20.03168 17.25612
#
# Velocity S-wave (km/s) = 2.80223 3.29587 3.05903
# Velocity P-wave (km/s) = 4.94538 6.66901 5.87080
#
# Compressibility (1/GPa) = 0.03877096
#
# Stress axis : x y z
#
# Youngs Moduli (GPa) = 28.14435 68.45257 69.34451
#
# Poissons Ratio (x) = 0.25964 0.31960
# Poissons Ratio (y) = 0.10675 0.31156
# Poissons Ratio (z) = 0.12972 0.30755
#
# Static dielectric constant tensor:
#      x y z
#    x 3.288300 0.000000 0.195070 
#    y 0.000000 3.365310 0.000000 
#    z 0.195070 0.000000 3.709180 
# 
# 
# High freq. dielectric constant tensor:
#      x y z
#    x 1.687740 0.000000 0.002320 
#    y 0.000000 1.717350 0.000000 
#    z 0.002320 0.000000 1.708850 
# 
# From -- ./inp_files/221267.got.cif
#   From: 2010.06.25/outbox.cif.g09.slc.cpg/sg12_111_cif.got.tgz:221267.got - 2010.06.28 00:19:55.
