data_PCOD8086636
_publ_section_title
;
Structure prediction by ZEFSAII (Michael W. Deem and Ramdas Pophale) SiO2 
 PCOD8086636
Probable space group: C 2/M
;
_chemical_formula_sum "Si O2"
_cell_formula_units_Z 40
_cell_length_a 25.335470
_cell_length_b 9.049236
_cell_length_c 9.292519
_cell_angle_alpha 90.000000
_cell_angle_beta 90.342001
_cell_angle_gamma 90.000000
_cell_volume 2130.426722
_symmetry_space_group_name_H-M "C 2/M"
_symmetry_group_IT_number 12
_symmetry_cell_setting 'monoclinic'
loop_
_space_group_symop_operation_xyz
x,y,z
-x,y,-z
-x,-y,-z
x,-y,z
1/2+x,1/2+y,z
1/2-x,1/2+y,-z
1/2-x,1/2-y,-z
1/2+x,1/2-y,z
loop_
_atom_site_type_symbol
_atom_site_label
_atom_site_fract_x
_atom_site_fract_y
_atom_site_fract_z
Si Si1 0.894144 0.175510 0.163183
Si Si2 0.691250 0.827727 0.658513
Si Si3 0.503678 0.324105 0.662167
Si Si4 0.687984 0.328199 0.364486
Si Si5 0.905279 0.825134 0.840260
O O1 0.840009 0.247976 0.214880
O O2 0.941768 0.228892 0.265919
O O3 0.887458 0.000000 0.165588
O O4 0.905482 0.235127 0.002806
O O5 0.673119 0.763446 0.505413
O O6 0.752872 0.794734 0.686932
O O7 0.678552 0.000000 0.660336
O O8 0.500000 0.261267 0.500000
O O9 0.500838 0.500000 0.660134
O O10 0.455136 0.258983 0.754383
O O11 0.680255 0.500000 0.403177
O O12 0.648919 0.276797 0.237564
O O13 0.910438 0.000000 0.843879
#
# Coordination Sequence:
#
# PCOD8086636 Si02
#       5
#     8   8   8   8   8
#     4  10  19  31  50  75 102 131 161 197 244 294
#     4  10  20  33  50  73 100 130 165 203 242 288
#     4   9  16  27  48  76 100 124 160 205 245 282
#     4   9  18  34  54  73  95 127 167 207 244 284
#     4   9  17  30  50  76 101 125 161 207 247 285
#
# _framework density 18.775580999999999
#
# number of rings (size 3 to 8) (size 9 to 14) (size 15 to 20)
#    0.000    2.600    0.000    2.400    0.000    7.200 
#    0.000    1.000    0.000    7.800    0.000    0.000 
#    0.000    0.000    0.000    0.000    0.000    0.000 
#
# Total GULP energy -248025.243071 kJ/mol
# GULP energy per Si atom -12401.262154 kJ/mol
# Density = 1.873285 g / cm^3
# Si number density = 18.775581 Si / 1000 Ang^3
#
#
#
# Elastic Constant Matrix: (Units=GPa)
#
#
# Indices 1 2 3 4 5 6 
#
# 1 114.6606 28.4066 75.7714 0.0000 -12.2562 0.0000
# 2 28.4066 30.8906 29.2121 0.0000 -5.0153 0.0000
# 3 75.7714 29.2121 157.0432 0.0000 -14.6093 0.0000
# 4 0.0000 0.0000 0.0000 18.0442 0.0000 -5.4281
# 5 -12.2562 -5.0153 -14.6093 0.0000 37.5635 0.0000
# 6 0.0000 0.0000 0.0000 -5.4281 0.0000 21.8146
#
#
#
# Elastic Compliance Matrix: (Units=1/GPa)
#
#
# Indices 1 2 3 4 5 6 
#
# 1 0.014362 -0.007933 -0.005308 0.000000 0.001562 0.000000
# 2 -0.007933 0.043891 -0.004184 0.000000 0.001645 0.000000
# 3 -0.005308 -0.004184 0.009850 0.000000 0.001540 0.000000
# 4 0.000000 0.000000 0.000000 0.059904 0.000000 0.014906
# 5 0.001562 0.001645 0.001540 0.000000 0.027950 0.000000
# 6 0.000000 0.000000 0.000000 0.014906 0.000000 0.049550
#
#
# Mechanical properties :
#
#
# Convention : Reuss Voigt Hill
#
# Bulk Modulus (GPa) = 30.07282 63.26386 46.66834
# Shear Modulus (GPa) = 19.88536 26.76473 23.32504
#
# Velocity S-wave (km/s) = 3.25792 3.77969 3.52846
# Velocity P-wave (km/s) = 5.49580 7.26746 6.44282
#
# Compressibility (1/GPa) = 0.03325262
#
# Stress axis : x y z
#
# Youngs Moduli (GPa) = 69.62950 22.78372 101.51893
#
# Poissons Ratio (x) = 0.18075 0.53890
# Poissons Ratio (y) = 0.55239 0.42471
# Poissons Ratio (z) = 0.36962 0.09532
#
# Static dielectric constant tensor:
#      x y z
#    x 3.583370 0.000000 -0.016550 
#    y 0.000000 2.978420 0.000000 
#    z -0.016550 0.000000 3.613590 
# 
# 
# High freq. dielectric constant tensor:
#      x y z
#    x 1.743270 0.000000 -0.002270 
#    y 0.000000 1.677630 0.000000 
#    z -0.002270 0.000000 1.736580 
# 
# From -- ./inp_files/92739.got.cif
#   From: 2010.06.25/outbox.cif.g09.slc.cpg/sg12_47_cif.got.tgz:92739.got - 2010.06.28 00:19:55.
