data_PCOD8086510
_publ_section_title
;
Structure prediction by ZEFSAII (Michael W. Deem and Ramdas Pophale) SiO2 
 PCOD8086510
Probable space group: C 2/M
;
_chemical_formula_sum "Si O2"
_cell_formula_units_Z 48
_cell_length_a 20.569176
_cell_length_b 14.922247
_cell_length_c 12.198586
_cell_angle_alpha 90.000000
_cell_angle_beta 136.379176
_cell_angle_gamma 90.000000
_cell_volume 2583.068142
_symmetry_space_group_name_H-M "C 2/M"
_symmetry_group_IT_number 12
_symmetry_cell_setting 'monoclinic'
loop_
_space_group_symop_operation_xyz
x,y,z
-x,y,-z
-x,-y,-z
x,-y,z
1/2+x,1/2+y,z
1/2-x,1/2+y,-z
1/2-x,1/2-y,-z
1/2+x,1/2-y,z
loop_
_atom_site_type_symbol
_atom_site_label
_atom_site_fract_x
_atom_site_fract_y
_atom_site_fract_z
Si Si1 0.532455 0.232587 0.664361
Si Si2 0.681860 0.900946 0.788508
Si Si3 0.868375 0.897643 0.905665
Si Si4 0.704138 0.340202 0.401966
Si Si5 0.388965 0.095150 0.543914
Si Si6 0.985036 0.102334 0.739818
O O1 0.500000 0.240602 0.500000
O O2 0.631264 0.178336 0.795589
O O3 0.458335 0.178245 0.650924
O O4 0.538564 0.332572 0.720170
O O5 0.792990 0.880657 0.911643
O O6 0.635668 0.901613 0.613276
O O7 0.667019 0.000000 0.824563
O O8 0.847565 0.830188 0.779722
O O9 0.858878 0.000000 0.849399
O O10 0.971320 0.882725 0.084811
O O11 0.750000 0.250000 0.500000
O O12 0.793949 0.404881 0.500003
O O13 0.627035 0.377662 0.393498
O O14 0.439797 0.000000 0.631465
O O15 0.001804 0.000000 0.721773
#
# Coordination Sequence:
#
# PCOD8086510 Si02
#       6
#     8   8   8   8   8   8
#     4  10  19  31  49  76 106 138 175 213 255 304
#     4   8  15  29  51  75 100 127 165 216 261 301
#     4   9  19  35  55  79 104 132 172 221 267 305
#     4  11  19  32  53  79 103 128 165 218 269 311
#     4   9  16  29  49  75 101 126 162 215 267 302
#     4  11  22  35  51  75 109 145 175 209 256 309
#
# _framework density 18.582552
#
# number of rings (size 3 to 8) (size 9 to 14) (size 15 to 20)
#    0.000    2.333    1.667    3.500    0.000    4.333 
#    0.000    0.000    0.000    0.000    0.000    7.000 
#    0.000    0.000    0.000    0.000    0.000    0.000 
#
# Total GULP energy -297348.604106 kJ/mol
# GULP energy per Si atom -12389.525171 kJ/mol
# Density = 1.854026 g / cm^3
# Si number density = 18.582552 Si / 1000 Ang^3
#
#
#
# Elastic Constant Matrix: (Units=GPa)
#
#
# Indices 1 2 3 4 5 6 
#
# 1 69.3706 46.1560 13.6821 0.0000 10.7636 0.0000
# 2 46.1560 135.9668 36.4669 0.0000 0.8307 0.0000
# 3 13.6821 36.4669 48.9991 0.0000 7.1129 0.0000
# 4 0.0000 0.0000 0.0000 23.2735 0.0000 -3.4488
# 5 10.7636 0.8307 7.1129 0.0000 20.6540 0.0000
# 6 0.0000 0.0000 0.0000 -3.4488 0.0000 25.5457
#
#
#
# Elastic Compliance Matrix: (Units=1/GPa)
#
#
# Indices 1 2 3 4 5 6 
#
# 1 0.020725 -0.007299 0.001232 0.000000 -0.010931 0.000000
# 2 -0.007299 0.011846 -0.007643 0.000000 0.005960 0.000000
# 3 0.001232 -0.007643 0.027159 0.000000 -0.009688 0.000000
# 4 0.000000 0.000000 0.000000 0.043845 0.000000 0.005919
# 5 -0.010931 0.005960 -0.009688 0.000000 0.057210 0.000000
# 6 0.000000 0.000000 0.000000 0.005919 0.000000 0.039945
#
#
# Mechanical properties :
#
#
# Convention : Reuss Voigt Hill
#
# Bulk Modulus (GPa) = 30.95058 49.66071 40.30564
# Shear Modulus (GPa) = 20.92752 24.43007 22.67880
#
# Velocity S-wave (km/s) = 3.35952 3.62978 3.49726
# Velocity P-wave (km/s) = 5.63386 6.65954 6.16806
#
# Compressibility (1/GPa) = 0.03230958
#
# Stress axis : x y z
#
# Youngs Moduli (GPa) = 48.25127 84.41643 36.81990
#
# Poissons Ratio (x) = 0.61616 -0.04536
# Poissons Ratio (y) = 0.35219 0.28142
# Poissons Ratio (z) = -0.05944 0.64522
#
# Static dielectric constant tensor:
#      x y z
#    x 3.664780 0.000000 0.400800 
#    y 0.000000 3.498580 0.000000 
#    z 0.400800 0.000000 3.111940 
# 
# 
# High freq. dielectric constant tensor:
#      x y z
#    x 1.719430 0.000000 0.037860 
#    y 0.000000 1.717130 0.000000 
#    z 0.037860 0.000000 1.678160 
# 
# From -- ./inp_files/167619.got.cif
#   From: 2010.06.25/outbox.cif.g09.slc.cpg/sg12_84_cif.got.tgz:167619.got - 2010.06.28 00:19:55.
