data_PCOD8086843
_publ_section_title
;
Structure prediction by ZEFSAII (Michael W. Deem and Ramdas Pophale) SiO2 
 PCOD8086843
Probable space group: C 2/M
;
_chemical_formula_sum "Si O2"
_cell_formula_units_Z 64
_cell_length_a 25.012109
_cell_length_b 9.022775
_cell_length_c 22.763333
_cell_angle_alpha 90.000000
_cell_angle_beta 44.695239
_cell_angle_gamma 90.000000
_cell_volume 3613.174317
_symmetry_space_group_name_H-M "C 2/M"
_symmetry_group_IT_number 12
_symmetry_cell_setting 'monoclinic'
loop_
_space_group_symop_operation_xyz
x,y,z
-x,y,-z
-x,-y,-z
x,-y,z
1/2+x,1/2+y,z
1/2-x,1/2+y,-z
1/2-x,1/2-y,-z
1/2+x,1/2-y,z
loop_
_atom_site_type_symbol
_atom_site_label
_atom_site_fract_x
_atom_site_fract_y
_atom_site_fract_z
Si Si1 0.028042 0.332532 0.722634
Si Si2 0.540350 0.830511 0.343130
Si Si3 0.677942 0.169390 0.531437
Si Si4 0.667127 0.170058 0.330160
Si Si5 0.976156 0.174036 0.152623
Si Si6 0.571151 0.833829 0.987245
Si Si7 0.903721 0.175544 0.507263
Si Si8 0.338720 0.674163 0.177051
O O1 0.012512 0.500000 0.756709
O O2 0.111621 0.318590 0.630723
O O3 0.022446 0.221392 0.781019
O O4 0.967210 0.284690 0.719642
O O5 0.627443 0.816337 0.296783
O O6 0.488088 0.729642 0.425512
O O7 0.510145 0.000000 0.372347
O O8 0.750000 0.250000 0.500000
O O9 0.657519 0.252758 0.487893
O O10 0.697621 0.000000 0.501039
O O11 0.618426 0.274067 0.410428
O O12 0.753904 0.225963 0.259865
O O13 0.663880 0.000000 0.354668
O O14 0.896353 0.221519 0.184330
O O15 0.987393 0.000000 0.139496
O O16 0.048039 0.249011 0.064584
O O17 0.640303 0.752282 0.900653
O O18 0.596487 0.000000 0.983678
O O19 0.500000 0.833416 0.000000
O O20 0.900751 0.000000 0.505004
O O21 0.342330 0.500000 0.162864
#
# Coordination Sequence:
#
# PCOD8086843 Si02
#       8
#     8   8   8   8   8   8   8   8
#     4   9  19  34  51  73  99 131 171 212 251 301
#     4   9  19  37  56  72  97 137 180 219 263 308
#     4  10  21  36  52  72 103 140 174 213 261 309
#     4  10  20  35  55  76 101 136 174 217 265 313
#     4  10  19  31  51  78 105 134 166 204 248 305
#     4   9  17  31  51  74 102 136 165 198 247 304
#     4  11  22  34  50  75 103 136 177 219 261 305
#     4   9  19  33  50  77 106 131 162 205 257 311
#
# _framework density 17.712956999999999
#
# number of rings (size 3 to 8) (size 9 to 14) (size 15 to 20)
#    0.000    2.375    0.000    3.375    1.750    7.000 
#    0.000    0.000    0.000    0.750    0.000    0.000 
#    0.000    0.000    0.000    0.000    0.000    0.000 
#
# Total GULP energy -396797.381289 kJ/mol
# GULP energy per Si atom -12399.918165 kJ/mol
# Density = 1.767264 g / cm^3
# Si number density = 17.712957 Si / 1000 Ang^3
#
#
#
# Elastic Constant Matrix: (Units=GPa)
#
#
# Indices 1 2 3 4 5 6 
#
# 1 90.3051 36.6314 49.7126 -0.0006 8.4998 0.0005
# 2 36.6314 94.9356 42.1873 -0.0020 6.8172 0.0060
# 3 49.7126 42.1873 76.7261 -0.0004 13.6641 0.0008
# 4 -0.0006 -0.0020 -0.0004 32.3831 0.0007 5.2021
# 5 8.4998 6.8172 13.6641 0.0007 18.4300 -0.0008
# 6 0.0005 0.0060 0.0008 5.2021 -0.0008 21.8874
#
#
#
# Elastic Compliance Matrix: (Units=1/GPa)
#
#
# Indices 1 2 3 4 5 6 
#
# 1 0.017579 -0.002275 -0.010190 0.000000 0.000289 0.000001
# 2 -0.002275 0.014240 -0.006457 0.000001 0.000569 -0.000004
# 3 -0.010190 -0.006457 0.025259 0.000000 -0.011639 0.000001
# 4 0.000000 0.000001 0.000000 0.032106 -0.000002 -0.007631
# 5 0.000289 0.000569 -0.011639 -0.000002 0.062544 0.000003
# 6 0.000001 -0.000004 0.000001 -0.007631 0.000003 0.047502
#
#
# Mechanical properties :
#
#
# Convention : Reuss Voigt Hill
#
# Bulk Modulus (GPa) = 51.99443 57.66994 54.83218
# Shear Modulus (GPa) = 20.53506 23.43581 21.98543
#
# Velocity S-wave (km/s) = 3.40858 3.64137 3.52690
# Velocity P-wave (km/s) = 6.70140 7.09283 6.89989
#
# Compressibility (1/GPa) = 0.01923283
#
# Stress axis : x y z
#
# Youngs Moduli (GPa) = 56.88590 70.22587 39.59009
#
# Poissons Ratio (x) = 0.15979 0.40344
# Poissons Ratio (y) = 0.12944 0.25562
# Poissons Ratio (z) = 0.57968 0.45343
#
# Static dielectric constant tensor:
#      x y z
#    x 3.281520 0.000000 0.032730 
#    y 0.000000 3.329750 0.000000 
#    z 0.032730 0.000000 3.173330 
# 
# 
# High freq. dielectric constant tensor:
#      x y z
#    x 1.675620 0.000000 0.006990 
#    y 0.000000 1.689310 0.000000 
#    z 0.006990 0.000000 1.669300 
# 
# From -- ./inp_files/324188.got.cif
#   From: 2010.06.25/outbox.cif.g09.slc.cpg/sg12_163_cif.got.tgz:324188.got - 2010.06.28 00:19:55.
