data_PCOD8086822
_publ_section_title
;
Structure prediction by ZEFSAII (Michael W. Deem and Ramdas Pophale) SiO2 
 PCOD8086822
Probable space group: C 2/M
;
_chemical_formula_sum "Si O2"
_cell_formula_units_Z 64
_cell_length_a 29.650714
_cell_length_b 9.447507
_cell_length_c 23.769969
_cell_angle_alpha 90.000000
_cell_angle_beta 30.848371
_cell_angle_gamma 90.000000
_cell_volume 3414.300775
_symmetry_space_group_name_H-M "C 2/M"
_symmetry_group_IT_number 12
_symmetry_cell_setting 'monoclinic'
loop_
_space_group_symop_operation_xyz
x,y,z
-x,y,-z
-x,-y,-z
x,-y,z
1/2+x,1/2+y,z
1/2-x,1/2+y,-z
1/2-x,1/2-y,-z
1/2+x,1/2-y,z
loop_
_atom_site_type_symbol
_atom_site_label
_atom_site_fract_x
_atom_site_fract_y
_atom_site_fract_z
Si Si1 0.398392 0.340597 0.624608
Si Si2 0.840336 0.334468 0.907477
Si Si3 0.488105 0.831027 0.833599
Si Si4 0.224883 0.347328 0.669420
Si Si5 0.069296 0.662018 0.306549
Si Si6 0.960190 0.667312 0.099582
Si Si7 0.829507 0.653011 0.396470
Si Si8 0.129264 0.336138 0.450825
O O1 0.500000 0.341732 0.500000
O O2 0.360494 0.500000 0.668390
O O3 0.381550 0.264573 0.702231
O O4 0.350414 0.249570 0.628201
O O5 0.817967 0.500000 0.936427
O O6 0.897731 0.281341 0.899790
O O7 0.897670 0.302632 0.790765
O O8 0.750000 0.250000 0.000000
O O9 0.494069 0.771950 0.891656
O O10 0.571948 0.779249 0.705061
O O11 0.492008 0.000000 0.829145
O O12 0.263748 0.500000 0.649153
O O13 0.143475 0.295247 0.794882
O O14 0.180132 0.376439 0.658481
O O15 0.299413 0.227436 0.582664
O O16 0.088901 0.500000 0.302777
O O17 0.965252 0.691480 0.420772
O O18 0.975169 0.500000 0.083907
O O19 0.000000 0.735669 0.000000
O O20 0.824505 0.500000 0.433765
O O21 0.750000 0.750000 0.500000
O O22 0.145800 0.500000 0.421078
#
# Coordination Sequence:
#
# PCOD8086822 Si02
#       8
#     8   8   8   8   8   8   8   8
#     4   9  17  31  51  74 101 132 167 215 263 307
#     4  10  21  38  56  76 106 140 183 233 272 318
#     4   8  16  32  53  74 102 140 176 215 266 316
#     4   9  18  31  46  75 110 133 163 216 264 302
#     4   9  19  34  52  72  99 140 180 217 264 321
#     4   8  14  29  53  77 102 134 173 215 258 311
#     4   9  18  31  50  75 106 139 171 212 259 313
#     4  10  19  31  51  77 105 140 176 209 257 326
#
# _framework density 18.744688
#
# number of rings (size 3 to 8) (size 9 to 14) (size 15 to 20)
#    0.000    3.000    0.000    2.250    1.750    3.000 
#    2.250    0.625    0.000    1.125    0.000    0.000 
#    0.000    0.000    0.000    0.000    0.000    0.000 
#
# Total GULP energy -396456.745965 kJ/mol
# GULP energy per Si atom -12389.273311 kJ/mol
# Density = 1.870202 g / cm^3
# Si number density = 18.744688 Si / 1000 Ang^3
#
#
#
# Elastic Constant Matrix: (Units=GPa)
#
#
# Indices 1 2 3 4 5 6 
#
# 1 85.6609 36.9819 47.0834 -0.0002 -8.7274 0.0002
# 2 36.9819 77.3315 44.2546 0.0112 -5.8353 -0.0014
# 3 47.0834 44.2546 108.4417 0.0028 -2.9674 0.0007
# 4 -0.0002 0.0112 0.0028 24.6879 -0.0001 -3.5554
# 5 -8.7274 -5.8353 -2.9674 -0.0001 29.1150 -0.0012
# 6 0.0002 -0.0014 0.0007 -3.5554 -0.0012 24.6044
#
#
#
# Elastic Compliance Matrix: (Units=1/GPa)
#
#
# Indices 1 2 3 4 5 6 
#
# 1 0.017061 -0.004833 -0.005336 0.000003 0.003601 0.000000
# 2 -0.004833 0.018453 -0.005386 -0.000008 0.001701 0.000000
# 3 -0.005336 -0.005386 0.013701 0.000001 -0.001283 -0.000001
# 4 0.000003 -0.000008 0.000001 0.041367 0.000000 0.005978
# 5 0.003601 0.001701 -0.001283 0.000000 0.035636 0.000002
# 6 0.000000 0.000000 -0.000001 0.005978 0.000002 0.041507
#
#
# Mechanical properties :
#
#
# Convention : Reuss Voigt Hill
#
# Bulk Modulus (GPa) = 55.23490 58.67488 56.95489
# Shear Modulus (GPa) = 24.40571 25.22240 24.81406
#
# Velocity S-wave (km/s) = 3.61225 3.67219 3.64234
# Velocity P-wave (km/s) = 6.85045 7.02496 6.93825
#
# Compressibility (1/GPa) = 0.01810450
#
# Stress axis : x y z
#
# Youngs Moduli (GPa) = 58.61446 54.19157 72.98580
#
# Poissons Ratio (x) = 0.26192 0.38949
# Poissons Ratio (y) = 0.28329 0.39307
# Poissons Ratio (z) = 0.31279 0.29185
#
# Static dielectric constant tensor:
#      x y z
#    x 3.614050 -0.000010 0.070020 
#    y -0.000010 3.235040 0.000000 
#    z 0.070020 0.000000 3.643580 
# 
# 
# High freq. dielectric constant tensor:
#      x y z
#    x 1.729590 0.000000 0.001540 
#    y 0.000000 1.697160 0.000000 
#    z 0.001540 0.000000 1.714720 
# 
# From -- ./inp_files/353408.got.cif
#   From: 2010.06.25/outbox.cif.g09.slc.cpg/sg12_177_cif.got.tgz:353408.got - 2010.06.28 00:19:55.
