data_PCOD8086962
_publ_section_title
;
Structure prediction by ZEFSAII (Michael W. Deem and Ramdas Pophale) SiO2 
 PCOD8086962
Probable space group: C 2/M
;
_chemical_formula_sum "Si O2"
_cell_formula_units_Z 48
_cell_length_a 29.508759
_cell_length_b 9.290768
_cell_length_c 10.271347
_cell_angle_alpha 90.000000
_cell_angle_beta 99.372644
_cell_angle_gamma 90.000000
_cell_volume 2778.389286
_symmetry_space_group_name_H-M "C 2/M"
_symmetry_group_IT_number 12
_symmetry_cell_setting 'monoclinic'
loop_
_space_group_symop_operation_xyz
x,y,z
-x,y,-z
-x,-y,-z
x,-y,z
1/2+x,1/2+y,z
1/2-x,1/2+y,-z
1/2-x,1/2-y,-z
1/2+x,1/2-y,z
loop_
_atom_site_type_symbol
_atom_site_label
_atom_site_fract_x
_atom_site_fract_y
_atom_site_fract_z
Si Si1 0.534455 0.167923 0.621314
Si Si2 0.268835 0.166617 0.386924
Si Si3 0.225080 0.165101 0.100880
Si Si4 0.629010 0.666232 0.944963
Si Si5 0.461122 0.170294 0.083260
Si Si6 0.863096 0.333848 0.310450
O O1 0.500000 0.242344 0.500000
O O2 0.525354 0.223621 0.764568
O O3 0.587032 0.201773 0.604248
O O4 0.524294 0.000000 0.616441
O O5 0.250000 0.250000 0.500000
O O6 0.242032 0.224413 0.247575
O O7 0.323489 0.195539 0.397589
O O8 0.258468 0.000000 0.404791
O O9 0.240262 0.000000 0.092506
O O10 0.250000 0.250000 0.000000
O O11 0.170135 0.182555 0.067631
O O12 0.616135 0.500000 0.915688
O O13 0.585395 0.750626 0.982217
O O14 0.646037 0.734091 0.817648
O O15 0.452218 0.000000 0.076494
O O16 0.500000 0.216992 0.000000
O O17 0.861947 0.500000 0.262711
#
# Coordination Sequence:
#
# PCOD8086962 Si02
#       6
#     8   8   8   8   8   8
#     4   8  14  27  49  72  93 120 159 203 244 288
#     4  10  21  36  51  73 105 137 171 211 256 305
#     4  10  20  34  54  77 102 133 173 215 253 302
#     4  10  19  31  52  79 101 130 169 207 254 303
#     4   9  18  33  51  73 100 131 164 205 252 295
#     4   9  17  32  53  73  98 133 169 209 252 295
#
# _framework density 17.276197
#
# number of rings (size 3 to 8) (size 9 to 14) (size 15 to 20)
#    0.000    2.667    1.667    1.500    0.000    2.333 
#    3.000    0.000    0.000    8.000    0.000    0.000 
#    0.000    0.000    0.000    0.000    0.000    0.000 
#
# Total GULP energy -297527.092378 kJ/mol
# GULP energy per Si atom -12396.962182 kJ/mol
# Density = 1.723688 g / cm^3
# Si number density = 17.276197 Si / 1000 Ang^3
#
#
#
# Elastic Constant Matrix: (Units=GPa)
#
#
# Indices 1 2 3 4 5 6 
#
# 1 139.4350 42.9715 85.7745 0.0000 -3.8195 0.0000
# 2 42.9715 53.1671 40.8398 0.0000 -5.7624 0.0000
# 3 85.7745 40.8398 125.1993 0.0000 -2.3694 0.0000
# 4 0.0000 0.0000 0.0000 24.0867 0.0000 -3.4382
# 5 -3.8195 -5.7624 -2.3694 0.0000 35.6041 0.0000
# 6 0.0000 0.0000 0.0000 -3.4382 0.0000 26.8636
#
#
#
# Elastic Compliance Matrix: (Units=1/GPa)
#
#
# Indices 1 2 3 4 5 6 
#
# 1 0.013329 -0.005000 -0.007498 0.000000 0.000122 0.000000
# 2 -0.005000 0.027421 -0.005453 0.000000 0.003539 0.000000
# 3 -0.007498 -0.005453 0.014890 0.000000 -0.000696 0.000000
# 4 0.000000 0.000000 0.000000 0.042289 0.000000 0.005412
# 5 0.000122 0.003539 -0.000696 0.000000 0.028626 0.000000
# 6 0.000000 0.000000 0.000000 0.005412 0.000000 0.037918
#
#
# Mechanical properties :
#
#
# Convention : Reuss Voigt Hill
#
# Bulk Modulus (GPa) = 50.66169 72.99699 61.82934
# Shear Modulus (GPa) = 24.16003 27.19193 25.67598
#
# Velocity S-wave (km/s) = 3.74365 3.97161 3.85932
# Velocity P-wave (km/s) = 6.93360 7.96092 7.46495
#
# Compressibility (1/GPa) = 0.01973878
#
# Stress axis : x y z
#
# Youngs Moduli (GPa) = 75.02693 36.46787 67.16026
#
# Poissons Ratio (x) = 0.18233 0.50358
# Poissons Ratio (y) = 0.37511 0.36619
# Poissons Ratio (z) = 0.56257 0.19884
#
# Static dielectric constant tensor:
#      x y z
#    x 3.529850 0.000000 0.256030 
#    y 0.000000 3.062900 0.000000 
#    z 0.256030 0.000000 3.304180 
# 
# 
# High freq. dielectric constant tensor:
#      x y z
#    x 1.678930 0.000000 0.006730 
#    y 0.000000 1.648410 0.000000 
#    z 0.006730 0.000000 1.649770 
# 
# From -- ./inp_files/108779.got.cif
#   From: 2010.06.25/outbox.cif.g09.slc.cpg/sg12_55_cif.got.tgz:108779.got - 2010.06.28 00:19:55.
