data_PCOD8086787
_publ_section_title
;
Structure prediction by ZEFSAII (Michael W. Deem and Ramdas Pophale) SiO2 
 PCOD8086787
Probable space group: C 2/M
;
_chemical_formula_sum "Si O2"
_cell_formula_units_Z 64
_cell_length_a 25.073935
_cell_length_b 9.000015
_cell_length_c 18.277842
_cell_angle_alpha 90.000000
_cell_angle_beta 61.994638
_cell_angle_gamma 90.000000
_cell_volume 3641.698287
_symmetry_space_group_name_H-M "C 2/M"
_symmetry_group_IT_number 12
_symmetry_cell_setting 'monoclinic'
loop_
_space_group_symop_operation_xyz
x,y,z
-x,y,-z
-x,-y,-z
x,-y,z
1/2+x,1/2+y,z
1/2-x,1/2+y,-z
1/2-x,1/2-y,-z
1/2+x,1/2-y,z
loop_
_atom_site_type_symbol
_atom_site_label
_atom_site_fract_x
_atom_site_fract_y
_atom_site_fract_z
Si Si1 0.755664 0.825887 0.709672
Si Si2 0.905028 0.828634 0.491899
Si Si3 0.507239 0.671206 0.310623
Si Si4 0.886346 0.826538 0.665873
Si Si5 0.056189 0.166849 0.017777
Si Si6 0.519573 0.174827 0.819639
Si Si7 0.786255 0.324178 0.540783
Si Si8 0.127691 0.326201 0.855244
O O1 0.815065 0.788669 0.720688
O O2 0.758059 0.730926 0.634899
O O3 0.695685 0.779152 0.791616
O O4 0.754374 0.000000 0.689957
O O5 0.911208 0.770043 0.571358
O O6 0.855008 0.727125 0.485475
O O7 0.967008 0.810492 0.409015
O O8 0.882712 0.000000 0.506408
O O9 0.509489 0.500000 0.283139
O O10 0.573123 0.736603 0.292939
O O11 0.478884 0.766905 0.263914
O O12 0.898417 0.000000 0.661175
O O13 0.038424 0.255049 0.102389
O O14 0.074628 0.000000 0.027657
O O15 0.112289 0.243796 0.940862
O O16 0.000000 0.169533 0.000000
O O17 0.582153 0.221239 0.819184
O O18 0.511195 0.000000 0.825087
O O19 0.781334 0.500000 0.539322
O O20 0.750000 0.250000 0.500000
O O21 0.121664 0.500000 0.874094
#
# Coordination Sequence:
#
# PCOD8086787 Si02
#       8
#     8   8   8   8   8   8   8   8
#     4   9  18  34  54  75  98 130 169 205 245 298
#     4   9  18  33  51  72  96 129 171 211 253 298
#     4  10  19  31  51  76 100 130 169 213 251 293
#     4   8  15  31  53  73  97 130 171 211 249 292
#     4   9  17  31  51  74 100 130 162 199 242 295
#     4  10  20  32  47  73 106 135 161 198 251 303
#     4  11  22  34  48  68  99 135 168 206 252 296
#     4   9  18  32  52  76 102 131 160 196 245 303
#
# _framework density 17.574217999999998
#
# number of rings (size 3 to 8) (size 9 to 14) (size 15 to 20)
#    0.000    2.625    0.000    3.000    1.750    4.500 
#    0.000    2.500    0.000    4.500    0.000    0.000 
#    0.000    0.000    0.000    0.000    0.000    0.000 
#
# Total GULP energy -396685.419700 kJ/mol
# GULP energy per Si atom -12396.419366 kJ/mol
# Density = 1.753422 g / cm^3
# Si number density = 17.574218 Si / 1000 Ang^3
#
#
#
# Elastic Constant Matrix: (Units=GPa)
#
#
# Indices 1 2 3 4 5 6 
#
# 1 82.6638 26.4250 43.1626 0.0000 -11.6633 0.0001
# 2 26.4250 70.9645 30.2840 -0.0001 -7.6637 0.0001
# 3 43.1626 30.2840 83.8642 0.0000 -17.8083 0.0001
# 4 0.0000 -0.0001 0.0000 28.7319 0.0000 1.2990
# 5 -11.6633 -7.6637 -17.8083 0.0000 23.1885 0.0000
# 6 0.0001 0.0001 0.0001 1.2990 0.0000 18.6732
#
#
#
# Elastic Compliance Matrix: (Units=1/GPa)
#
#
# Indices 1 2 3 4 5 6 
#
# 1 0.017175 -0.003060 -0.007306 0.000000 0.002016 0.000000
# 2 -0.003060 0.017226 -0.004497 0.000000 0.000701 0.000000
# 3 -0.007306 -0.004497 0.019371 0.000000 0.009716 0.000000
# 4 0.000000 0.000000 0.000000 0.034914 0.000000 -0.002429
# 5 0.002016 0.000701 0.009716 0.000000 0.051832 0.000000
# 6 0.000000 0.000000 0.000000 -0.002429 0.000000 0.053722
#
#
# Mechanical properties :
#
#
# Convention : Reuss Voigt Hill
#
# Bulk Modulus (GPa) = 41.58695 48.58173 45.08434
# Shear Modulus (GPa) = 21.55357 23.29346 22.42351
#
# Velocity S-wave (km/s) = 3.50584 3.64460 3.57589
# Velocity P-wave (km/s) = 6.33269 6.73903 6.53902
#
# Compressibility (1/GPa) = 0.02404600
#
# Stress axis : x y z
#
# Youngs Moduli (GPa) = 58.22507 58.05342 51.62263
#
# Poissons Ratio (x) = 0.17762 0.37717
# Poissons Ratio (y) = 0.17815 0.23214
# Poissons Ratio (z) = 0.42541 0.26105
#
# Static dielectric constant tensor:
#      x y z
#    x 3.232370 0.000000 -0.494000 
#    y 0.000000 3.261070 0.000000 
#    z -0.494000 0.000000 2.634230 
# 
# 
# High freq. dielectric constant tensor:
#      x y z
#    x 1.668240 0.000000 -0.007170 
#    y 0.000000 1.666760 0.000000 
#    z -0.007170 0.000000 1.670950 
# 
# From -- ./inp_files/323652.got.cif
#   From: 2010.06.25/outbox.cif.g09.slc.cpg/sg12_162_cif.got.tgz:323652.got - 2010.06.28 00:19:55.
