data_PCOD8086553
_publ_section_title
;
Structure prediction by ZEFSAII (Michael W. Deem and Ramdas Pophale) SiO2 
 PCOD8086553
Probable space group: C 2/M
;
_chemical_formula_sum "Si O2"
_cell_formula_units_Z 64
_cell_length_a 22.658152
_cell_length_b 17.909720
_cell_length_c 8.952423
_cell_angle_alpha 90.000000
_cell_angle_beta 96.040453
_cell_angle_gamma 90.000000
_cell_volume 3612.733182
_symmetry_space_group_name_H-M "C 2/M"
_symmetry_group_IT_number 12
_symmetry_cell_setting 'monoclinic'
loop_
_space_group_symop_operation_xyz
x,y,z
-x,y,-z
-x,-y,-z
x,-y,z
1/2+x,1/2+y,z
1/2-x,1/2+y,-z
1/2-x,1/2-y,-z
1/2+x,1/2-y,z
loop_
_atom_site_type_symbol
_atom_site_label
_atom_site_fract_x
_atom_site_fract_y
_atom_site_fract_z
Si Si1 0.697059 0.913260 0.272437
Si Si2 0.887554 0.713238 0.680961
Si Si3 0.967877 0.915743 0.844510
Si Si4 0.506665 0.282790 0.674379
Si Si5 0.194360 0.085178 0.485375
Si Si6 0.841777 0.143294 0.824208
Si Si7 0.723350 0.318335 0.907345
Si Si8 0.865432 0.212991 0.367559
O O1 0.635053 0.869935 0.286751
O O2 0.741231 0.903025 0.423992
O O3 0.728000 0.877633 0.135302
O O4 0.682186 0.000000 0.238737
O O5 0.959476 0.721392 0.726836
O O6 0.856456 0.771019 0.786128
O O7 0.867397 0.727985 0.503889
O O8 0.987492 0.865511 0.712422
O O9 0.897846 0.911011 0.844227
O O10 0.988027 0.000000 0.817937
O O11 0.000000 0.883750 0.000000
O O12 0.500000 0.277026 0.500000
O O13 0.576850 0.274053 0.724620
O O14 0.201882 0.110827 0.315193
O O15 0.141931 0.131643 0.555145
O O16 0.173678 0.000000 0.492257
O O17 0.816518 0.137028 0.984519
O O18 0.689561 0.279677 0.759080
O O19 0.750000 0.250000 0.000000
#
# Coordination Sequence:
#
# PCOD8086553 Si02
#       8
#     8   8   8   8   8   8   8   8
#     4  10  21  36  53  76 104 135 171 211 262 310
#     4   9  18  34  54  73  99 132 174 216 252 297
#     4  10  20  31  45  68 105 143 169 200 246 298
#     4   9  18  33  51  75  95 129 176 213 248 294
#     4   9  19  32  50  76 107 142 170 203 252 307
#     4  10  19  31  50  73 102 134 176 207 245 302
#     4  11  21  32  52  79 105 134 167 205 260 306
#     4   9  19  32  53  75 104 132 170 215 250 301
#
# _framework density 17.715119000000001
#
# number of rings (size 3 to 8) (size 9 to 14) (size 15 to 20)
#    0.000    2.375    1.250    1.875    1.750    3.250 
#    0.000    2.500    0.000    3.375    0.000    0.875 
#    0.000    0.000    0.000    0.000    0.000    0.000 
#
# Total GULP energy -396491.958650 kJ/mol
# GULP energy per Si atom -12390.373708 kJ/mol
# Density = 1.767480 g / cm^3
# Si number density = 17.715119 Si / 1000 Ang^3
#
#
#
# Elastic Constant Matrix: (Units=GPa)
#
#
# Indices 1 2 3 4 5 6 
#
# 1 75.7119 47.5160 16.2532 0.0000 -15.0509 0.0000
# 2 47.5160 99.5043 20.2150 0.0000 -6.1511 0.0000
# 3 16.2532 20.2150 49.1030 0.0000 -7.9577 0.0000
# 4 0.0000 0.0000 0.0000 -12.3555 0.0000 -3.1638
# 5 -15.0509 -6.1511 -7.9577 0.0000 27.4295 0.0000
# 6 0.0000 0.0000 0.0000 -3.1638 0.0000 20.3810
#
#
#
# Elastic Compliance Matrix: (Units=1/GPa)
#
#
# Indices 1 2 3 4 5 6 
#
# 1 0.021142 -0.009181 -0.001754 0.000000 0.009033 0.000000
# 2 -0.009181 0.014992 -0.003573 0.000000 -0.002712 0.000000
# 3 -0.001754 -0.003573 0.023223 0.000000 0.004973 0.000000
# 4 0.000000 0.000000 0.000000 -0.077841 0.000000 -0.012084
# 5 0.009033 -0.002712 0.004973 0.000000 0.042248 0.000000
# 6 0.000000 0.000000 0.000000 -0.012084 0.000000 0.047189
#
#
# Mechanical properties :
#
#
# Convention : Reuss Voigt Hill
#
# Bulk Modulus (GPa) = 32.95889 43.58753 38.27321
# Shear Modulus (GPa) = 45.41974 16.44666 30.93320
#
# Velocity S-wave (km/s) = 5.06899 3.05027 4.18323
# Velocity P-wave (km/s) = 7.27357 6.08799 6.70703
#
# Compressibility (1/GPa) = 0.03034083
#
# Stress axis : x y z
#
# Youngs Moduli (GPa) = 47.29839 66.70121 43.06097
#
# Poissons Ratio (x) = 0.61240 0.07555
# Poissons Ratio (y) = 0.43426 0.15384
# Poissons Ratio (z) = 0.08298 0.23830
#
# Static dielectric constant tensor:
#      x y z
#    x 3.473410 0.000000 -0.324350 
#    y 0.000000 3.082610 0.000000 
#    z -0.324350 0.000000 3.788330 
# 
# 
# High freq. dielectric constant tensor:
#      x y z
#    x 1.676760 0.000000 -0.000660 
#    y 0.000000 1.658220 0.000000 
#    z -0.000660 0.000000 1.689840 
# 
# From -- ./inp_files/97731.got.cif
#   From: 2010.06.25/outbox.cif.g09.slc.cpg/sg12_49_cif.got.tgz:97731.got - 2010.06.28 00:19:55.
