data_PCOD8086152
_publ_section_title
;
Structure prediction by ZEFSAII (Michael W. Deem and Ramdas Pophale) SiO2 
 PCOD8086152
Probable space group: C 2/M
;
_chemical_formula_sum "Si O2"
_cell_formula_units_Z 64
_cell_length_a 27.589495
_cell_length_b 8.952528
_cell_length_c 13.794830
_cell_angle_alpha 90.000000
_cell_angle_beta 98.182786
_cell_angle_gamma 90.000000
_cell_volume 3372.574831
_symmetry_space_group_name_H-M "C 2/M"
_symmetry_group_IT_number 12
_symmetry_cell_setting 'monoclinic'
loop_
_space_group_symop_operation_xyz
x,y,z
-x,y,-z
-x,-y,-z
x,-y,z
1/2+x,1/2+y,z
1/2-x,1/2+y,-z
1/2-x,1/2-y,-z
1/2+x,1/2-y,z
loop_
_atom_site_type_symbol
_atom_site_label
_atom_site_fract_x
_atom_site_fract_y
_atom_site_fract_z
Si Si1 0.542714 0.678212 0.082025
Si Si2 0.169193 0.822477 0.832327
Si Si3 0.104208 0.822066 0.459794
Si Si4 0.147203 0.177511 0.041478
Si Si5 0.268276 0.323779 0.791034
Si Si6 0.916884 0.822176 0.331434
Si Si7 0.209684 0.823861 0.421888
Si Si8 0.978449 0.178211 0.708854
O O1 0.543138 0.500000 0.081768
O O2 0.594624 0.741538 0.059391
O O3 0.533054 0.739111 0.187227
O O4 0.500000 0.739040 0.000000
O O5 0.218934 0.756769 0.806257
O O6 0.124991 0.763963 0.752807
O O7 0.172757 0.000000 0.831015
O O8 0.159838 0.762712 0.938108
O O9 0.093891 0.759671 0.564339
O O10 0.156704 0.763060 0.439041
O O11 0.062664 0.759564 0.375944
O O12 0.103214 0.000000 0.458930
O O13 0.188478 0.234843 0.127200
O O14 0.145013 0.000000 0.041235
O O15 0.261027 0.500000 0.799352
O O16 0.281964 0.276806 0.686374
O O17 0.968966 0.759673 0.310033
O O18 0.917810 0.000000 0.332864
O O19 0.250000 0.750000 0.500000
O O20 0.212999 0.000000 0.436648
O O21 0.978563 0.000000 0.708618
#
# Coordination Sequence:
#
# PCOD8086152 Si02
#       8
#     8   8   8   8   8   8   8   8
#     4   9  15  23  37  58  86 118 149 182 224 274
#     4  10  19  31  48  69  94 123 155 192 233 274
#     4   9  16  26  40  59  86 118 149 182 224 274
#     4   9  17  29  44  64  92 124 155 189 230 275
#     4  10  20  33  48  67  93 124 158 193 229 272
#     4   9  16  25  39  62  90 117 146 183 227 272
#     4  10  20  33  49  69  93 123 157 192 230 272
#     4   9  15  23  37  59  88 119 147 179 225 276
#
# _framework density 18.976599
#
# number of rings (size 3 to 8) (size 9 to 14) (size 15 to 20)
#    0.000    2.625    0.000    3.000    0.000    9.000 
#    0.000    0.000    0.000    0.000    0.000    0.875 
#    0.000   15.000    0.000    0.000    0.000    0.000 
#
# Total GULP energy -396809.663718 kJ/mol
# GULP energy per Si atom -12400.301991 kJ/mol
# Density = 1.893341 g / cm^3
# Si number density = 18.976599 Si / 1000 Ang^3
#
#
#
# Elastic Constant Matrix: (Units=GPa)
#
#
# Indices 1 2 3 4 5 6 
#
# 1 210.1470 19.2002 110.5115 0.0000 1.6143 0.0000
# 2 19.2002 5.8943 19.1167 0.0000 -0.6733 0.0000
# 3 110.5115 19.1167 205.4755 0.0000 3.6213 0.0000
# 4 0.0000 0.0000 0.0000 12.7645 0.0000 -0.3433
# 5 1.6143 -0.6733 3.6213 0.0000 47.6545 0.0000
# 6 0.0000 0.0000 0.0000 -0.3433 0.0000 21.2295
#
#
#
# Elastic Compliance Matrix: (Units=1/GPa)
#
#
# Indices 1 2 3 4 5 6 
#
# 1 0.007615 -0.016576 -0.002548 0.000000 -0.000299 0.000000
# 2 -0.016576 0.280320 -0.017268 0.000000 0.005834 0.000000
# 3 -0.002548 -0.017268 0.007857 0.000000 -0.000755 0.000000
# 4 0.000000 0.000000 0.000000 0.078377 0.000000 0.001268
# 5 -0.000299 0.005834 -0.000755 0.000000 0.021134 0.000000
# 6 0.000000 0.000000 0.000000 0.001268 0.000000 0.047125
#
#
# Mechanical properties :
#
#
# Convention : Reuss Voigt Hill
#
# Bulk Modulus (GPa) = 4.48412 79.90818 42.19615
# Shear Modulus (GPa) = 8.48106 34.50892 21.49499
#
# Velocity S-wave (km/s) = 2.11635 4.26901 3.36923
# Velocity P-wave (km/s) = 2.88791 8.15472 6.11717
#
# Compressibility (1/GPa) = 0.22300905
#
# Stress axis : x y z
#
# Youngs Moduli (GPa) = 131.31138 3.56735 127.27094
#
# Poissons Ratio (x) = 0.05913 0.32434
# Poissons Ratio (y) = 2.17657 2.19771
# Poissons Ratio (z) = 0.33464 0.06160
#
# Static dielectric constant tensor:
#      x y z
#    x 3.715550 0.000000 -0.000130 
#    y 0.000000 2.728950 0.000000 
#    z -0.000130 0.000000 3.804650 
# 
# 
# High freq. dielectric constant tensor:
#      x y z
#    x 1.759500 0.000000 -0.000130 
#    y 0.000000 1.654430 0.000000 
#    z -0.000130 0.000000 1.760920 
# 
# From -- ./inp_files/174687.got.cif
#   From: 2010.06.25/outbox.cif.g09.slc.cpg/sg12_88_cif.got.tgz:174687.got - 2010.06.28 00:19:55.
