data_PCOD8086165
_publ_section_title
;
Structure prediction by ZEFSAII (Michael W. Deem and Ramdas Pophale) SiO2 
 PCOD8086165
Probable space group: C 2/M
;
_chemical_formula_sum "Si O2"
_cell_formula_units_Z 48
_cell_length_a 25.139132
_cell_length_b 7.863357
_cell_length_c 28.619537
_cell_angle_alpha 90.000000
_cell_angle_beta 150.473524
_cell_angle_gamma 90.000000
_cell_volume 2788.137686
_symmetry_space_group_name_H-M "C 2/M"
_symmetry_group_IT_number 12
_symmetry_cell_setting 'monoclinic'
loop_
_space_group_symop_operation_xyz
x,y,z
-x,y,-z
-x,-y,-z
x,-y,z
1/2+x,1/2+y,z
1/2-x,1/2+y,-z
1/2-x,1/2-y,-z
1/2+x,1/2-y,z
loop_
_atom_site_type_symbol
_atom_site_label
_atom_site_fract_x
_atom_site_fract_y
_atom_site_fract_z
Si Si1 0.023126 0.806916 0.386491
Si Si2 0.859691 0.302407 0.607665
Si Si3 0.547408 0.000000 0.109458
Si Si4 0.293027 0.189622 0.229537
Si Si5 0.821401 0.809587 0.762441
Si Si6 0.239742 0.799742 0.604181
Si Si7 0.333936 0.000000 0.898116
O O1 0.921879 0.694375 0.324108
O O2 0.044040 0.793582 0.346198
O O3 0.127908 0.739779 0.494720
O O4 0.996512 0.000000 0.379146
O O5 0.882125 0.500000 0.618788
O O6 0.750000 0.250000 0.500000
O O7 0.843174 0.255569 0.649816
O O8 0.582728 0.829709 0.164218
O O9 0.600232 0.000000 0.099236
O O10 0.417612 0.000000 0.005325
O O11 0.261088 0.228775 0.258551
O O12 0.238849 0.329795 0.154190
O O13 0.253839 0.000000 0.185008
O O14 0.753468 0.798647 0.662965
O O15 0.870542 0.000000 0.804682
O O16 0.234977 0.000000 0.609865
#
# Coordination Sequence:
#
# PCOD8086165 Si02
#       7
#     8   8   4   8   8   8   4
#     4  10  19  31  48  70 100 137 169 202 245 285
#     4   9  17  29  45  67  95 129 167 208 242 275
#     4   9  18  34  53  71 101 123 160 208 252 295
#     4  10  20  33  49  74 103 129 166 204 240 298
#     4  10  20  32  50  74 101 132 165 201 244 295
#     4   9  18  31  47  68 101 137 167 202 241 285
#     4   9  18  34  53  73  95 131 156 204 260 293
#
# _framework density 17.215793000000001
#
# number of rings (size 3 to 8) (size 9 to 14) (size 15 to 20)
#    0.000    2.500    1.667    2.000    0.000    5.333 
#    0.000    6.667    0.000    0.000    0.000    1.167 
#    0.000    0.000    0.000    0.000    0.000    0.000 
#
# Total GULP energy -297446.348778 kJ/mol
# GULP energy per Si atom -12393.597866 kJ/mol
# Density = 1.717661 g / cm^3
# Si number density = 17.215793 Si / 1000 Ang^3
#
#
#
# Elastic Constant Matrix: (Units=GPa)
#
#
# Indices 1 2 3 4 5 6 
#
# 1 71.9559 31.5801 39.8097 0.0000 4.2503 0.0001
# 2 31.5801 100.9396 46.5412 -0.0001 4.3175 0.0036
# 3 39.8097 46.5412 86.8457 0.0001 5.5127 0.0000
# 4 0.0000 -0.0001 0.0001 16.6135 -0.0005 0.3950
# 5 4.2503 4.3175 5.5127 -0.0005 3.5920 0.0001
# 6 0.0001 0.0036 0.0000 0.3950 0.0001 23.8021
#
#
#
# Elastic Compliance Matrix: (Units=1/GPa)
#
#
# Indices 1 2 3 4 5 6 
#
# 1 0.019384 -0.002447 -0.006985 0.000000 -0.009274 0.000000
# 2 -0.002447 0.013567 -0.005870 0.000000 -0.004404 -0.000002
# 3 -0.006985 -0.005870 0.018713 -0.000001 -0.013398 0.000001
# 4 0.000000 0.000000 -0.000001 0.060216 0.000010 -0.000999
# 5 -0.009274 -0.004404 -0.013398 0.000010 0.315230 -0.000001
# 6 0.000000 -0.000002 0.000001 -0.000999 -0.000001 0.042030
#
#
# Mechanical properties :
#
#
# Convention : Reuss Voigt Hill
#
# Bulk Modulus (GPa) = 47.48329 55.06701 51.27515
# Shear Modulus (GPa) = 9.86655 18.25553 14.06104
#
# Velocity S-wave (km/s) = 2.39657 3.25990 2.86099
# Velocity P-wave (km/s) = 5.94131 6.79890 6.38452
#
# Compressibility (1/GPa) = 0.02106004
#
# Stress axis : x y z
#
# Youngs Moduli (GPa) = 51.58938 73.70743 53.43952
#
# Poissons Ratio (x) = 0.18036 0.37330
# Poissons Ratio (y) = 0.12623 0.31366
# Poissons Ratio (z) = 0.36037 0.43263
#
# Static dielectric constant tensor:
#      x y z
#    x 3.377900 0.000000 -0.014080 
#    y 0.000000 3.401900 0.000000 
#    z -0.014080 0.000000 3.016900 
# 
# 
# High freq. dielectric constant tensor:
#      x y z
#    x 1.650710 0.000000 0.002050 
#    y 0.000000 1.679790 0.000000 
#    z 0.002050 0.000000 1.621500 
# 
# From -- ./inp_files/367232.got.cif
#   From: 2010.06.25/outbox.cif.g09.slc.cpg/sg12_184_cif.got.tgz:367232.got - 2010.06.28 00:19:55.
