data_PCOD8086283
_publ_section_title
;
Structure prediction by ZEFSAII (Michael W. Deem and Ramdas Pophale) SiO2 
 PCOD8086283
Probable space group: C 2/M
;
_chemical_formula_sum "Si O2"
_cell_formula_units_Z 48
_cell_length_a 15.246376
_cell_length_b 14.991326
_cell_length_c 17.817917
_cell_angle_alpha 90.000000
_cell_angle_beta 142.312807
_cell_angle_gamma 90.000000
_cell_volume 2489.737962
_symmetry_space_group_name_H-M "C 2/M"
_symmetry_group_IT_number 12
_symmetry_cell_setting 'monoclinic'
loop_
_space_group_symop_operation_xyz
x,y,z
-x,y,-z
-x,-y,-z
x,-y,z
1/2+x,1/2+y,z
1/2-x,1/2+y,-z
1/2-x,1/2-y,-z
1/2+x,1/2-y,z
loop_
_atom_site_type_symbol
_atom_site_label
_atom_site_fract_x
_atom_site_fract_y
_atom_site_fract_z
Si Si1 0.236918 0.843473 0.450932
Si Si2 0.954640 0.901438 0.067493
Si Si3 0.466125 0.098968 0.307781
Si Si4 0.224123 0.269143 0.896383
Si Si5 0.577199 0.598297 0.776361
Si Si6 0.732045 0.897407 0.691296
O O1 0.250000 0.750000 0.500000
O O2 0.362268 0.904187 0.570814
O O3 0.264506 0.834938 0.380029
O O4 0.081275 0.884686 0.364448
O O5 0.932762 0.897658 0.141319
O O6 0.121235 0.884080 0.162223
O O7 0.909263 0.000000 0.007200
O O8 0.862116 0.825531 0.961376
O O9 0.415610 0.167732 0.209172
O O10 0.398551 0.129316 0.342430
O O11 0.411258 0.000000 0.249799
O O12 0.191870 0.175737 0.830082
O O13 0.250000 0.250000 0.000000
O O14 0.630013 0.500000 0.785272
O O15 0.718332 0.000000 0.654040
#
# Coordination Sequence:
#
# PCOD8086283 Si02
#       6
#     8   8   8   8   8   8
#     4  11  19  32  52  78 110 140 177 212 260 323
#     4   8  15  29  49  71 103 136 163 203 258 318
#     4  11  21  33  53  83 114 139 169 218 274 324
#     4  10  19  31  48  74 107 140 181 218 255 309
#     4   9  17  31  48  69 100 138 173 212 258 304
#     4   9  19  34  53  80 114 143 165 208 278 336
#
# _framework density 19.279136999999999
#
# number of rings (size 3 to 8) (size 9 to 14) (size 15 to 20)
#    0.000    2.333    1.667    3.500    0.000    2.667 
#    0.000    2.500    0.000    0.000    0.000    7.000 
#    0.000    0.000    0.000    0.000    0.000    0.000 
#
# Total GULP energy -297332.256915 kJ/mol
# GULP energy per Si atom -12388.844038 kJ/mol
# Density = 1.923526 g / cm^3
# Si number density = 19.279137 Si / 1000 Ang^3
#
#
#
# Elastic Constant Matrix: (Units=GPa)
#
#
# Indices 1 2 3 4 5 6 
#
# 1 38.4766 30.7297 25.4041 0.0001 -4.1095 0.0001
# 2 30.7297 152.8236 68.2675 0.0000 2.8938 0.0001
# 3 25.4041 68.2675 110.9763 0.0003 18.3566 0.0001
# 4 0.0001 0.0000 0.0003 38.0891 0.0001 2.7556
# 5 -4.1095 2.8938 18.3566 0.0001 20.2307 0.0001
# 6 0.0001 0.0001 0.0001 2.7556 0.0001 7.0249
#
#
#
# Elastic Compliance Matrix: (Units=1/GPa)
#
#
# Indices 1 2 3 4 5 6 
#
# 1 0.036362 -0.003762 -0.008613 0.000000 0.015740 -0.000001
# 2 -0.003762 0.009759 -0.005630 0.000000 0.002948 0.000000
# 3 -0.008613 -0.005630 0.017180 0.000000 -0.016533 0.000000
# 4 0.000000 0.000000 0.000000 0.027021 0.000000 -0.010599
# 5 0.015740 0.002948 -0.016533 0.000000 0.067207 -0.000001
# 6 -0.000001 0.000000 0.000000 -0.010599 -0.000001 0.146508
#
#
# Mechanical properties :
#
#
# Convention : Reuss Voigt Hill
#
# Bulk Modulus (GPa) = 36.64086 61.23103 48.93595
# Shear Modulus (GPa) = 14.32070 24.92730 19.62400
#
# Velocity S-wave (km/s) = 2.72841 3.59969 3.19390
# Velocity P-wave (km/s) = 5.38259 7.00758 6.24814
#
# Compressibility (1/GPa) = 0.02729193
#
# Stress axis : x y z
#
# Youngs Moduli (GPa) = 27.50093 102.46948 58.20570
#
# Poissons Ratio (x) = 0.38552 0.50133
# Poissons Ratio (y) = 0.10347 0.32768
# Poissons Ratio (z) = 0.23687 0.57687
#
# Static dielectric constant tensor:
#      x y z
#    x 3.187980 0.000000 0.328530 
#    y 0.000000 4.048010 0.000000 
#    z 0.328530 0.000000 3.939480 
# 
# 
# High freq. dielectric constant tensor:
#      x y z
#    x 1.693200 0.000000 0.011920 
#    y 0.000000 1.747440 0.000000 
#    z 0.011920 0.000000 1.773340 
# 
# From -- ./inp_files/270437.got.cif
#   From: 2010.06.25/outbox.cif.g09.slc.cpg/sg12_136_cif.got.tgz:270437.got - 2010.06.28 00:19:55.
