data_PCOD8086644
_publ_section_title
;
Structure prediction by ZEFSAII (Michael W. Deem and Ramdas Pophale) SiO2 
 PCOD8086644
Probable space group: C 2/M
;
_chemical_formula_sum "Si O2"
_cell_formula_units_Z 48
_cell_length_a 20.132944
_cell_length_b 8.309879
_cell_length_c 29.345981
_cell_angle_alpha 90.000000
_cell_angle_beta 30.982681
_cell_angle_gamma 90.000000
_cell_volume 2527.384975
_symmetry_space_group_name_H-M "C 2/M"
_symmetry_group_IT_number 12
_symmetry_cell_setting 'monoclinic'
loop_
_space_group_symop_operation_xyz
x,y,z
-x,y,-z
-x,-y,-z
x,-y,z
1/2+x,1/2+y,z
1/2-x,1/2+y,-z
1/2-x,1/2-y,-z
1/2+x,1/2-y,z
loop_
_atom_site_type_symbol
_atom_site_label
_atom_site_fract_x
_atom_site_fract_y
_atom_site_fract_z
Si Si1 0.138754 0.312511 0.435003
Si Si2 0.523375 0.311444 0.235750
Si Si3 0.130282 0.688342 0.755589
Si Si4 0.208119 0.312877 0.573307
Si Si5 0.450766 0.191293 0.098597
Si Si6 0.197320 0.308734 0.901438
O O1 0.134939 0.500000 0.449460
O O2 0.241014 0.281892 0.334714
O O3 0.177680 0.216526 0.457587
O O4 0.000000 0.249841 0.500000
O O5 0.529889 0.500000 0.221196
O O6 0.483564 0.218062 0.213507
O O7 0.420537 0.281394 0.336245
O O8 0.661604 0.240445 0.169760
O O9 0.161694 0.500000 0.739615
O O10 0.086044 0.759831 0.830260
O O11 0.175807 0.500000 0.590099
O O12 0.250000 0.250000 0.500000
O O13 0.346357 0.252709 0.122881
O O14 0.451306 0.000000 0.099756
O O15 0.593496 0.251847 0.000039
O O16 0.201340 0.500000 0.898594
#
# Coordination Sequence:
#
# PCOD8086644 Si02
#       6
#     8   8   8   8   8   8
#     4  10  21  37  55  76 104 136 170 212 260 307
#     4  10  19  32  51  75 102 133 168 206 252 302
#     4  10  19  31  50  75 102 133 168 208 252 301
#     4  11  22  37  56  77 104 136 171 212 256 305
#     4   8  15  29  48  72 100 129 167 210 250 293
#     4   8  15  29  49  72  99 131 167 209 250 293
#
# _framework density 18.991962000000001
#
# number of rings (size 3 to 8) (size 9 to 14) (size 15 to 20)
#    0.000    2.500    0.000    6.000    0.000    3.333 
#    0.000    1.667    0.000    6.000    0.000    9.333 
#    0.000    0.000    0.000    0.000    0.000    0.000 
#
# Total GULP energy -297578.550921 kJ/mol
# GULP energy per Si atom -12399.106288 kJ/mol
# Density = 1.894873 g / cm^3
# Si number density = 18.991962 Si / 1000 Ang^3
#
#
#
# Elastic Constant Matrix: (Units=GPa)
#
#
# Indices 1 2 3 4 5 6 
#
# 1 133.0360 2.6572 107.9211 0.0031 -2.1076 -0.0044
# 2 2.6572 34.0079 -0.4791 0.0054 -0.7831 -0.0048
# 3 107.9211 -0.4791 131.4618 -0.0003 1.6215 -0.0041
# 4 0.0031 0.0054 -0.0003 19.7494 -0.0002 0.5371
# 5 -2.1076 -0.7831 1.6215 -0.0002 50.8485 0.0015
# 6 -0.0044 -0.0048 -0.0041 0.5371 0.0015 24.1773
#
#
#
# Elastic Compliance Matrix: (Units=1/GPa)
#
#
# Indices 1 2 3 4 5 6 
#
# 1 0.022757 -0.002007 -0.018708 -0.000003 0.001509 0.000001
# 2 -0.002007 0.029594 0.001751 -0.000008 0.000317 0.000006
# 3 -0.018708 0.001751 0.022989 0.000003 -0.001482 0.000001
# 4 -0.000003 -0.000008 0.000003 0.050665 0.000000 -0.001125
# 5 0.001509 0.000317 -0.001482 0.000000 0.019781 -0.000001
# 6 0.000001 0.000006 0.000001 -0.001125 -0.000001 0.041386
#
#
# Mechanical properties :
#
#
# Convention : Reuss Voigt Hill
#
# Bulk Modulus (GPa) = 26.72838 57.63379 42.18108
# Shear Modulus (GPa) = 21.04654 31.51548 26.28101
#
# Velocity S-wave (km/s) = 3.33255 4.07801 3.72398
# Velocity P-wave (km/s) = 5.37698 7.25161 6.38348
#
# Compressibility (1/GPa) = 0.03741342
#
# Stress axis : x y z
#
# Youngs Moduli (GPa) = 43.94318 33.79098 43.49893
#
# Poissons Ratio (x) = 0.06781 0.81376
# Poissons Ratio (y) = 0.08819 -0.07619
# Poissons Ratio (z) = 0.82207 -0.05918
#
# Static dielectric constant tensor:
#      x y z
#    x 3.640490 0.000000 -0.040970 
#    y 0.000000 3.238190 0.000000 
#    z -0.040970 0.000000 3.682230 
# 
# 
# High freq. dielectric constant tensor:
#      x y z
#    x 1.741000 0.000000 0.000070 
#    y 0.000000 1.717410 0.000000 
#    z 0.000070 0.000000 1.741130 
# 
# From -- ./inp_files/380136.got.cif
#   From: 2010.06.25/outbox.cif.g09.slc.cpg/sg12_191_cif.got.tgz:380136.got - 2010.06.28 00:19:55.
