data_PCOD8086701
_publ_section_title
;
Structure prediction by ZEFSAII (Michael W. Deem and Ramdas Pophale) SiO2 
 PCOD8086701
Probable space group: C 2/M
;
_chemical_formula_sum "Si O2"
_cell_formula_units_Z 64
_cell_length_a 29.146423
_cell_length_b 8.888534
_cell_length_c 12.637817
_cell_angle_alpha 90.000000
_cell_angle_beta 90.805593
_cell_angle_gamma 90.000000
_cell_volume 3273.742635
_symmetry_space_group_name_H-M "C 2/M"
_symmetry_group_IT_number 12
_symmetry_cell_setting 'monoclinic'
loop_
_space_group_symop_operation_xyz
x,y,z
-x,y,-z
-x,-y,-z
x,-y,z
1/2+x,1/2+y,z
1/2-x,1/2+y,-z
1/2-x,1/2-y,-z
1/2+x,1/2-y,z
loop_
_atom_site_type_symbol
_atom_site_label
_atom_site_fract_x
_atom_site_fract_y
_atom_site_fract_z
Si Si1 0.384478 0.829948 0.536262
Si Si2 0.483907 0.170664 0.610569
Si Si3 0.006703 0.823775 0.179040
Si Si4 0.591750 0.324924 0.880465
Si Si5 0.824184 0.680100 0.719241
Si Si6 0.639459 0.174024 0.685538
Si Si7 0.393654 0.676667 0.882658
Si Si8 0.257546 0.176239 0.384976
O O1 0.429356 0.823993 0.609164
O O2 0.346357 0.756885 0.610386
O O3 0.388830 0.760467 0.418196
O O4 0.368449 0.000000 0.513482
O O5 0.500000 0.237348 0.500000
O O6 0.503320 0.278228 0.700716
O O7 0.502422 0.000000 0.627262
O O8 0.055536 0.755001 0.142803
O O9 0.961356 0.764507 0.115778
O O10 0.011227 0.000000 0.165273
O O11 0.588940 0.500000 0.855356
O O12 0.623194 0.255279 0.790733
O O13 0.615356 0.292434 0.993742
O O14 0.822872 0.500000 0.726063
O O15 0.853035 0.739591 0.819873
O O16 0.773569 0.749700 0.709118
O O17 0.691979 0.206709 0.658539
O O18 0.629450 0.000000 0.706142
O O19 0.391628 0.500000 0.855305
O O20 0.250000 0.250000 0.500000
O O21 0.247109 0.000000 0.395178
#
# Coordination Sequence:
#
# PCOD8086701 Si02
#       8
#     8   8   8   8   8   8   8   8
#     4   9  17  32  52  78 113 147 180 227 282 332
#     4  10  19  31  50  76 111 153 188 226 281 340
#     4  10  20  35  56  82 112 150 194 239 286 336
#     4  10  22  39  58  83 116 153 195 242 290 341
#     4  11  21  37  60  87 117 148 190 239 288 340
#     4  10  21  39  60  84 116 151 189 235 288 345
#     4  10  21  39  60  83 115 155 197 241 289 338
#     4  11  22  38  62  91 120 152 190 234 288 349
#
# _framework density 19.549489999999999
#
# number of rings (size 3 to 8) (size 9 to 14) (size 15 to 20)
#    0.000    1.875    2.500    1.875    0.000    4.750 
#    0.000    1.250    0.000    2.250    0.000    0.000 
#    0.000    0.000    0.000    0.000    0.000    0.000 
#
# Total GULP energy -396552.413690 kJ/mol
# GULP energy per Si atom -12392.262928 kJ/mol
# Density = 1.950499 g / cm^3
# Si number density = 19.549490 Si / 1000 Ang^3
#
#
#
# Elastic Constant Matrix: (Units=GPa)
#
#
# Indices 1 2 3 4 5 6 
#
# 1 81.0410 36.9351 45.3399 0.0000 16.8673 0.0000
# 2 36.9351 49.8110 37.3290 0.0000 6.5103 0.0000
# 3 45.3399 37.3290 113.9626 0.0000 13.0116 0.0000
# 4 0.0000 0.0000 0.0000 32.0385 0.0000 0.5101
# 5 16.8673 6.5103 13.0116 0.0000 31.2754 0.0000
# 6 0.0000 0.0000 0.0000 0.5101 0.0000 25.0852
#
#
#
# Elastic Compliance Matrix: (Units=1/GPa)
#
#
# Indices 1 2 3 4 5 6 
#
# 1 0.021552 -0.012213 -0.003714 0.000000 -0.007536 0.000000
# 2 -0.012213 0.033649 -0.006420 0.000000 0.002253 0.000000
# 3 -0.003714 -0.006420 0.012571 0.000000 -0.001891 0.000000
# 4 0.000000 0.000000 0.000000 0.031223 0.000000 -0.000635
# 5 -0.007536 0.002253 -0.001891 0.000000 0.036356 0.000000
# 6 0.000000 0.000000 0.000000 -0.000635 0.000000 0.039877
#
#
# Mechanical properties :
#
#
# Convention : Reuss Voigt Hill
#
# Bulk Modulus (GPa) = 43.33063 53.78029 48.55546
# Shear Modulus (GPa) = 21.96718 26.02718 23.99718
#
# Velocity S-wave (km/s) = 3.35576 3.65272 3.50738
# Velocity P-wave (km/s) = 6.10143 6.73494 6.42600
#
# Compressibility (1/GPa) = 0.02307836
#
# Stress axis : x y z
#
# Youngs Moduli (GPa) = 46.40041 29.71894 79.54756
#
# Poissons Ratio (x) = 0.36295 0.29540
# Poissons Ratio (y) = 0.56667 0.51071
# Poissons Ratio (z) = 0.17231 0.19080
#
# Static dielectric constant tensor:
#      x y z
#    x 3.729000 0.000000 0.124920 
#    y 0.000000 3.352960 0.000000 
#    z 0.124920 0.000000 3.590580 
# 
# 
# High freq. dielectric constant tensor:
#      x y z
#    x 1.767550 0.000000 0.008380 
#    y 0.000000 1.735430 0.000000 
#    z 0.008380 0.000000 1.763930 
# 
# From -- ./inp_files/187577.got.cif
#   From: 2010.06.25/outbox.cif.g09.slc.cpg/sg12_94_cif.got.tgz:187577.got - 2010.06.28 00:19:55.
