data_PCOD8086814
_publ_section_title
;
Structure prediction by ZEFSAII (Michael W. Deem and Ramdas Pophale) SiO2 
 PCOD8086814
Probable space group: C 2/M
;
_chemical_formula_sum "Si O2"
_cell_formula_units_Z 56
_cell_length_a 23.559319
_cell_length_b 9.076366
_cell_length_c 15.647593
_cell_angle_alpha 90.000000
_cell_angle_beta 115.507552
_cell_angle_gamma 90.000000
_cell_volume 3019.835003
_symmetry_space_group_name_H-M "C 2/M"
_symmetry_group_IT_number 12
_symmetry_cell_setting 'monoclinic'
loop_
_space_group_symop_operation_xyz
x,y,z
-x,y,-z
-x,-y,-z
x,-y,z
1/2+x,1/2+y,z
1/2-x,1/2+y,-z
1/2-x,1/2-y,-z
1/2+x,1/2-y,z
loop_
_atom_site_type_symbol
_atom_site_label
_atom_site_fract_x
_atom_site_fract_y
_atom_site_fract_z
Si Si1 0.281171 0.174505 0.261505
Si Si2 0.859221 0.170436 0.837609
Si Si3 0.403119 0.174640 0.425506
Si Si4 0.476793 0.329535 0.803503
Si Si5 0.488621 0.825549 0.630861
Si Si6 0.585126 0.828654 0.963418
Si Si7 0.303000 0.170304 0.086823
O O1 0.210154 0.225918 0.236667
O O2 0.332340 0.236622 0.363148
O O3 0.302372 0.233179 0.182376
O O4 0.285262 0.000000 0.266055
O O5 0.904927 0.192151 0.786786
O O6 0.857093 0.000000 0.865595
O O7 0.881007 0.266268 0.931472
O O8 0.448473 0.225532 0.377592
O O9 0.429119 0.226944 0.534384
O O10 0.404693 0.000000 0.426694
O O11 0.495182 0.500000 0.809043
O O12 0.485395 0.255115 0.718291
O O13 0.520028 0.254807 0.903895
O O14 0.488182 0.000000 0.647481
O O15 0.628693 0.802290 0.909028
O O16 0.570937 0.000000 0.969142
O O17 0.284939 0.000000 0.074357
O O18 0.250000 0.250000 0.000000
#
# Coordination Sequence:
#
# PCOD8086814 Si02
#       7
#     8   8   8   8   8   8   8
#     4   9  16  30  52  75 102 136 171 205 250 308
#     4  10  21  36  52  71 102 144 181 212 253 311
#     4   8  15  30  56  84 104 128 165 211 264 316
#     4  11  23  36  51  73 103 141 180 214 257 313
#     4   9  17  33  57  82 105 128 165 217 264 309
#     4  11  22  35  54  79 103 133 176 223 263 303
#     4  10  19  31  51  77 104 132 165 206 253 304
#
# _framework density 18.544059000000001
#
# number of rings (size 3 to 8) (size 9 to 14) (size 15 to 20)
#    0.000    2.286    1.429    3.000    0.000    5.714 
#    0.000    2.143    0.000    1.714    0.000    0.000 
#    0.000    0.000    0.000    0.000    0.000    0.000 
#
# Total GULP energy -347118.123749 kJ/mol
# GULP energy per Si atom -12397.075848 kJ/mol
# Density = 1.850185 g / cm^3
# Si number density = 18.544059 Si / 1000 Ang^3
#
#
#
# Elastic Constant Matrix: (Units=GPa)
#
#
# Indices 1 2 3 4 5 6 
#
# 1 93.6440 32.7426 45.5085 0.0000 22.3401 0.0000
# 2 32.7426 60.3823 32.0701 0.0000 4.9715 0.0000
# 3 45.5085 32.0701 109.8436 0.0000 30.1066 0.0000
# 4 0.0000 0.0000 0.0000 26.7536 0.0000 -2.1551
# 5 22.3401 4.9715 30.1066 0.0000 32.9677 0.0000
# 6 0.0000 0.0000 0.0000 -2.1551 0.0000 18.4772
#
#
#
# Elastic Compliance Matrix: (Units=1/GPa)
#
#
# Indices 1 2 3 4 5 6 
#
# 1 0.016097 -0.006697 -0.002669 0.000000 -0.007461 0.000000
# 2 -0.006697 0.022616 -0.005519 0.000000 0.006168 0.000000
# 3 -0.002669 -0.005519 0.014802 0.000000 -0.010877 0.000000
# 4 0.000000 0.000000 0.000000 0.037733 0.000000 0.004401
# 5 -0.007461 0.006168 -0.010877 0.000000 0.044391 0.000000
# 6 0.000000 0.000000 0.000000 0.004401 0.000000 0.054634
#
#
# Mechanical properties :
#
#
# Convention : Reuss Voigt Hill
#
# Bulk Modulus (GPa) = 42.11300 53.83470 47.97385
# Shear Modulus (GPa) = 21.93384 25.87626 23.90505
#
# Velocity S-wave (km/s) = 3.44291 3.73955 3.59429
# Velocity P-wave (km/s) = 6.20998 6.90937 6.56899
#
# Compressibility (1/GPa) = 0.02374564
#
# Stress axis : x y z
#
# Youngs Moduli (GPa) = 62.12226 44.21648 67.55828
#
# Poissons Ratio (x) = 0.29612 0.18031
# Poissons Ratio (y) = 0.41603 0.37284
# Poissons Ratio (z) = 0.16580 0.24402
#
# Static dielectric constant tensor:
#      x y z
#    x 3.528010 0.000000 0.152420 
#    y 0.000000 3.160150 0.000000 
#    z 0.152420 0.000000 3.556550 
# 
# 
# High freq. dielectric constant tensor:
#      x y z
#    x 1.723640 0.000000 0.011530 
#    y 0.000000 1.688560 0.000000 
#    z 0.011530 0.000000 1.720810 
# 
# From -- ./inp_files/237816.got.cif
#   From: 2010.06.25/outbox.cif.g09.slc.cpg/sg12_119_cif.got.tgz:237816.got - 2010.06.28 00:19:55.
