data_PCOD8086115
_publ_section_title
;
Structure prediction by ZEFSAII (Michael W. Deem and Ramdas Pophale) SiO2 
 PCOD8086115
Probable space group: C 2/M
;
_chemical_formula_sum "Si O2"
_cell_formula_units_Z 64
_cell_length_a 26.953213
_cell_length_b 13.486682
_cell_length_c 20.186688
_cell_angle_alpha 90.000000
_cell_angle_beta 148.076453
_cell_angle_gamma 90.000000
_cell_volume 3880.267451
_symmetry_space_group_name_H-M "C 2/M"
_symmetry_group_IT_number 12
_symmetry_cell_setting 'monoclinic'
loop_
_space_group_symop_operation_xyz
x,y,z
-x,y,-z
-x,-y,-z
x,-y,z
1/2+x,1/2+y,z
1/2-x,1/2+y,-z
1/2-x,1/2-y,-z
1/2+x,1/2-y,z
loop_
_atom_site_type_symbol
_atom_site_label
_atom_site_fract_x
_atom_site_fract_y
_atom_site_fract_z
Si Si1 0.122452 0.698295 0.480912
Si Si2 0.943887 0.387243 0.213477
Si Si3 0.912377 0.201628 0.094926
Si Si4 0.302224 0.388002 0.627415
Si Si5 0.989136 0.885398 0.912814
Si Si6 0.712938 0.884883 0.856588
Si Si7 0.573930 0.612089 0.358308
Si Si8 0.894217 0.616366 0.396924
O O1 0.216789 0.684954 0.545299
O O2 0.090353 0.812866 0.437640
O O3 0.140995 0.675364 0.578669
O O4 0.043794 0.625849 0.362087
O O5 0.934960 0.500000 0.178125
O O6 0.932395 0.315699 0.137203
O O7 0.865332 0.360765 0.178084
O O8 0.943506 0.183868 0.054657
O O9 0.971819 0.129368 0.210207
O O10 0.802700 0.179721 0.977444
O O11 0.264466 0.500000 0.589047
O O12 0.381234 0.369922 0.772055
O O13 0.345777 0.366925 0.604916
O O14 0.019736 0.000000 0.937335
O O15 0.000000 0.850276 0.000000
O O16 0.673449 0.853651 0.740050
O O17 0.740589 0.000000 0.887816
O O18 0.578563 0.500000 0.390504
O O19 0.889091 0.500000 0.406361
O O20 0.000000 0.648159 0.500000
#
# Coordination Sequence:
#
# PCOD8086115 Si02
#       8
#     8   8   8   8   8   8   8   8
#     4  11  19  30  51  74  97 130 161 192 241 294
#     4  10  20  33  49  73 101 126 159 202 237 279
#     4  10  19  32  52  73  95 130 162 193 240 291
#     4   9  17  29  47  72  99 122 155 196 240 287
#     4   9  18  31  47  72 102 126 154 196 240 285
#     4  10  19  31  50  74  99 124 157 199 243 290
#     4   9  19  34  49  70  99 128 160 202 236 276
#     4  10  19  31  47  72 103 126 152 197 246 288
#
# _framework density 16.493708999999999
#
# number of rings (size 3 to 8) (size 9 to 14) (size 15 to 20)
#    0.000    2.250    1.250    3.750    1.750    0.000 
#    0.000    0.000    0.000    1.500    0.000    0.000 
#    0.000    0.000    0.000    0.000    0.000    0.000 
#
# Total GULP energy -396851.345979 kJ/mol
# GULP energy per Si atom -12401.604562 kJ/mol
# Density = 1.645617 g / cm^3
# Si number density = 16.493709 Si / 1000 Ang^3
#
#
#
# Elastic Constant Matrix: (Units=GPa)
#
#
# Indices 1 2 3 4 5 6 
#
# 1 80.0501 46.5864 39.5555 0.0000 -2.5956 0.0000
# 2 46.5864 85.6884 33.5044 0.0000 -5.7617 0.0000
# 3 39.5555 33.5044 68.3753 0.0000 9.8457 0.0000
# 4 0.0000 0.0000 0.0000 19.2721 0.0000 -3.4898
# 5 -2.5956 -5.7617 9.8457 0.0000 25.7544 0.0000
# 6 0.0000 0.0000 0.0000 -3.4898 0.0000 24.0892
#
#
#
# Elastic Compliance Matrix: (Units=1/GPa)
#
#
# Indices 1 2 3 4 5 6 
#
# 1 0.021867 -0.007979 -0.009313 0.000000 0.003979 0.000000
# 2 -0.007979 0.018376 -0.005148 0.000000 0.005275 0.000000
# 3 -0.009313 -0.005148 0.024167 0.000000 -0.011329 0.000000
# 4 0.000000 0.000000 0.000000 0.053286 0.000000 0.007720
# 5 0.003979 0.005275 -0.011329 0.000000 0.044740 0.000000
# 6 0.000000 0.000000 0.000000 0.007720 0.000000 0.042631
#
#
# Mechanical properties :
#
#
# Convention : Reuss Voigt Hill
#
# Bulk Modulus (GPa) = 51.20629 52.60072 51.90351
# Shear Modulus (GPa) = 19.49647 21.45429 20.47538
#
# Velocity S-wave (km/s) = 3.44183 3.61051 3.52718
# Velocity P-wave (km/s) = 6.84896 7.02436 6.93722
#
# Compressibility (1/GPa) = 0.01952885
#
# Stress axis : x y z
#
# Youngs Moduli (GPa) = 45.73130 54.41939 41.37948
#
# Poissons Ratio (x) = 0.43423 0.38537
# Poissons Ratio (y) = 0.36491 0.21301
# Poissons Ratio (z) = 0.42590 0.28013
#
# Static dielectric constant tensor:
#      x y z
#    x 3.032650 0.000000 0.056460 
#    y 0.000000 2.940590 0.000000 
#    z 0.056460 0.000000 3.090540 
# 
# 
# High freq. dielectric constant tensor:
#      x y z
#    x 1.629840 0.000000 0.011800 
#    y 0.000000 1.613160 0.000000 
#    z 0.011800 0.000000 1.638230 
# 
# From -- ./inp_files/232456.got.cif
#   From: 2010.06.25/outbox.cif.g09.slc.cpg/sg12_117_cif.got.tgz:232456.got - 2010.06.28 00:19:55.
