data_PCOD8086991
_publ_section_title
;
Structure prediction by ZEFSAII (Michael W. Deem and Ramdas Pophale) SiO2 
 PCOD8086991
Probable space group: C 2/M
;
_chemical_formula_sum "Si O2"
_cell_formula_units_Z 64
_cell_length_a 24.058821
_cell_length_b 8.977926
_cell_length_c 20.603576
_cell_angle_alpha 90.000000
_cell_angle_beta 52.416770
_cell_angle_gamma 90.000000
_cell_volume 3526.751072
_symmetry_space_group_name_H-M "C 2/M"
_symmetry_group_IT_number 12
_symmetry_cell_setting 'monoclinic'
loop_
_space_group_symop_operation_xyz
x,y,z
-x,y,-z
-x,-y,-z
x,-y,z
1/2+x,1/2+y,z
1/2-x,1/2+y,-z
1/2-x,1/2-y,-z
1/2+x,1/2-y,z
loop_
_atom_site_type_symbol
_atom_site_label
_atom_site_fract_x
_atom_site_fract_y
_atom_site_fract_z
Si Si1 0.334586 0.327008 0.225548
Si Si2 0.634200 0.326164 0.191745
Si Si3 0.141741 0.827496 0.566520
Si Si4 0.727332 0.327952 0.870397
Si Si5 0.525285 0.172797 0.831930
Si Si6 0.492572 0.172644 0.306732
Si Si7 0.731512 0.827418 0.612155
Si Si8 0.116185 0.826390 0.055983
O O1 0.336700 0.500000 0.241995
O O2 0.313386 0.299253 0.166908
O O3 0.411029 0.258772 0.180728
O O4 0.276630 0.247437 0.311959
O O5 0.624574 0.500000 0.210808
O O6 0.702903 0.269990 0.179502
O O7 0.567488 0.243453 0.270174
O O8 0.641212 0.287783 0.110695
O O9 0.066387 0.752720 0.607291
O O10 0.188636 0.806089 0.468618
O O11 0.177836 0.748325 0.601342
O O12 0.132179 0.000000 0.590781
O O13 0.748452 0.500000 0.864032
O O14 0.677584 0.274669 0.964333
O O15 0.526898 0.201696 0.754071
O O16 0.453336 0.235323 0.913006
O O17 0.531375 0.000000 0.844714
O O18 0.494952 0.000000 0.322921
O O19 0.710396 0.000000 0.631462
O O20 0.098768 0.000000 0.060097
#
# Coordination Sequence:
#
# PCOD8086991 Si02
#       8
#     8   8   8   8   8   8   8   8
#     4  11  22  35  53  74 105 146 180 214 258 316
#     4  10  20  34  56  81 103 134 176 222 269 312
#     4  10  19  31  52  80 109 138 172 212 257 312
#     4  10  22  38  54  75 103 140 181 219 265 315
#     4  10  20  33  51  77 107 138 174 216 264 313
#     4  10  19  32  53  79 109 140 171 215 265 310
#     4  10  20  33  50  77 110 141 172 212 259 307
#     4   9  19  36  56  77 104 135 173 221 269 317
#
# _framework density 18.147015
#
# number of rings (size 3 to 8) (size 9 to 14) (size 15 to 20)
#    0.000    2.000    1.250    2.625    0.000    5.000 
#    0.000    2.500    0.000    0.750    0.000    5.250 
#    0.000    0.000    0.000    0.000    0.000    0.000 
#
# Total GULP energy -396939.861940 kJ/mol
# GULP energy per Si atom -12404.370686 kJ/mol
# Density = 1.810571 g / cm^3
# Si number density = 18.147015 Si / 1000 Ang^3
#
#
#
# Elastic Constant Matrix: (Units=GPa)
#
#
# Indices 1 2 3 4 5 6 
#
# 1 81.8334 50.3773 31.7573 0.0008 -25.8639 0.0005
# 2 50.3773 111.9654 39.9232 0.0028 -21.0795 -0.0011
# 3 31.7573 39.9232 65.0288 0.0013 -28.8471 -0.0001
# 4 0.0008 0.0028 0.0013 31.7657 -0.0008 -7.2962
# 5 -25.8639 -21.0795 -28.8471 -0.0008 29.1068 0.0007
# 6 0.0005 -0.0011 -0.0001 -7.2962 0.0007 30.8475
#
#
#
# Elastic Compliance Matrix: (Units=1/GPa)
#
#
# Indices 1 2 3 4 5 6 
#
# 1 0.020621 -0.006762 0.000066 0.000000 0.013492 -0.000001
# 2 -0.006762 0.013743 -0.006042 -0.000001 -0.002043 0.000000
# 3 0.000066 -0.006042 0.030587 0.000000 0.025998 -0.000001
# 4 0.000000 -0.000001 0.000000 0.033289 0.000000 0.007874
# 5 0.013492 -0.002043 0.025998 0.000000 0.070631 -0.000002
# 6 -0.000001 0.000000 -0.000001 0.007874 -0.000002 0.034280
#
#
# Mechanical properties :
#
#
# Convention : Reuss Voigt Hill
#
# Bulk Modulus (GPa) = 25.33114 55.88259 40.60686
# Shear Modulus (GPa) = 20.67949 27.46197 24.07073
#
# Velocity S-wave (km/s) = 3.37939 3.89434 3.64597
# Velocity P-wave (km/s) = 5.40520 7.14720 6.33635
#
# Compressibility (1/GPa) = 0.03947710
#
# Stress axis : x y z
#
# Youngs Moduli (GPa) = 48.49396 72.76315 32.69322
#
# Poissons Ratio (x) = 0.49199 -0.00215
# Poissons Ratio (y) = 0.32789 0.19752
# Poissons Ratio (z) = -0.00319 0.43960
#
# Static dielectric constant tensor:
#      x y z
#    x 3.087520 0.000000 -0.187150 
#    y 0.000000 3.470530 0.000000 
#    z -0.187150 0.000000 3.466240 
# 
# 
# High freq. dielectric constant tensor:
#      x y z
#    x 1.679350 0.000000 -0.023460 
#    y 0.000000 1.717360 0.000000 
#    z -0.023460 0.000000 1.702060 
# 
# From -- ./inp_files/324089.got.cif
#   From: 2010.06.25/outbox.cif.g09.slc.cpg/sg12_163_cif.got.tgz:324089.got - 2010.06.28 00:19:55.
