data_PCOD8086574
_publ_section_title
;
Structure prediction by ZEFSAII (Michael W. Deem and Ramdas Pophale) SiO2 
 PCOD8086574
Probable space group: C 2/M
;
_chemical_formula_sum "Si O2"
_cell_formula_units_Z 40
_cell_length_a 27.252482
_cell_length_b 13.275143
_cell_length_c 9.465943
_cell_angle_alpha 90.000000
_cell_angle_beta 136.990501
_cell_angle_gamma 90.000000
_cell_volume 2335.983032
_symmetry_space_group_name_H-M "C 2/M"
_symmetry_group_IT_number 12
_symmetry_cell_setting 'monoclinic'
loop_
_space_group_symop_operation_xyz
x,y,z
-x,y,-z
-x,-y,-z
x,-y,z
1/2+x,1/2+y,z
1/2-x,1/2+y,-z
1/2-x,1/2-y,-z
1/2+x,1/2-y,z
loop_
_atom_site_type_symbol
_atom_site_label
_atom_site_fract_x
_atom_site_fract_y
_atom_site_fract_z
Si Si1 0.567001 0.703372 0.539333
Si Si2 0.702558 0.263131 0.537400
Si Si3 0.842116 0.617289 0.335184
Si Si4 0.563802 0.617455 0.235878
Si Si5 0.280366 0.617493 0.149350
O O1 0.500000 0.690792 0.500000
O O2 0.585685 0.821573 0.555137
O O3 0.540086 0.648824 0.341979
O O4 0.641180 0.649764 0.745944
O O5 0.750000 0.250000 0.500000
O O6 0.683167 0.153651 0.562397
O O7 0.632855 0.320167 0.332704
O O8 0.737524 0.327750 0.739360
O O9 0.860694 0.500000 0.377830
O O10 0.779614 0.645191 0.092072
O O11 0.582114 0.500000 0.266347
O O12 0.500000 0.648871 0.000000
O O13 0.280574 0.500000 0.181667
#
# Coordination Sequence:
#
# PCOD8086574 Si02
#       5
#     8   8   8   8   8
#     4  10  19  31  50  73  98 124 158 200 240 283
#     4  10  19  31  50  74 101 127 160 201 242 287
#     4   9  19  35  52  70  97 131 164 198 237 287
#     4   9  19  34  49  69  99 129 156 193 243 292
#     4   9  18  34  52  72  99 127 159 201 246 289
#
# _framework density 17.123411999999998
#
# number of rings (size 3 to 8) (size 9 to 14) (size 15 to 20)
#    0.000    3.000    0.000    4.800    0.000    6.800 
#    0.000    4.000    0.000    9.600    0.000    0.000 
#    0.000    0.000    0.000    0.000    0.000    0.000 
#
# Total GULP energy -247840.020138 kJ/mol
# GULP energy per Si atom -12392.001007 kJ/mol
# Density = 1.708444 g / cm^3
# Si number density = 17.123412 Si / 1000 Ang^3
#
#
#
# Elastic Constant Matrix: (Units=GPa)
#
#
# Indices 1 2 3 4 5 6 
#
# 1 149.5700 23.1963 35.7972 0.0000 -7.5051 0.0000
# 2 23.1963 73.6308 36.8423 0.0000 3.1072 0.0000
# 3 35.7972 36.8423 94.8680 0.0000 6.2016 0.0000
# 4 0.0000 0.0000 0.0000 31.6201 0.0000 1.7669
# 5 -7.5051 3.1072 6.2016 0.0000 9.5702 0.0000
# 6 0.0000 0.0000 0.0000 1.7669 0.0000 9.7333
#
#
#
# Elastic Compliance Matrix: (Units=1/GPa)
#
#
# Indices 1 2 3 4 5 6 
#
# 1 0.008079 -0.001369 -0.003091 0.000000 0.008783 0.000000
# 2 -0.001369 0.017104 -0.005944 0.000000 -0.002775 0.000000
# 3 -0.003091 -0.005944 0.014669 0.000000 -0.010000 0.000000
# 4 0.000000 0.000000 0.000000 0.031950 0.000000 -0.005800
# 5 0.008783 -0.002775 -0.010000 0.000000 0.118760 0.000000
# 6 0.000000 0.000000 0.000000 -0.005800 0.000000 0.103793
#
#
# Mechanical properties :
#
#
# Convention : Reuss Voigt Hill
#
# Bulk Modulus (GPa) = 52.51143 56.63784 54.57463
# Shear Modulus (GPa) = 15.55157 25.00024 20.27590
#
# Velocity S-wave (km/s) = 3.01691 3.82514 3.44481
# Velocity P-wave (km/s) = 6.54742 7.25652 6.91107
#
# Compressibility (1/GPa) = 0.01904347
#
# Stress axis : x y z
#
# Youngs Moduli (GPa) = 123.78387 58.46554 68.16891
#
# Poissons Ratio (x) = 0.08005 0.21069
# Poissons Ratio (y) = 0.16948 0.40522
# Poissons Ratio (z) = 0.38259 0.34754
#
# Static dielectric constant tensor:
#      x y z
#    x 2.828040 0.000000 -0.011990 
#    y 0.000000 3.341820 0.000000 
#    z -0.011990 0.000000 3.301230 
# 
# 
# High freq. dielectric constant tensor:
#      x y z
#    x 1.638070 0.000000 -0.001190 
#    y 0.000000 1.675700 0.000000 
#    z -0.001190 0.000000 1.665060 
# 
# From -- ./inp_files/103775.got.cif
#   From: 2010.06.25/outbox.cif.g09.slc.cpg/sg12_52_cif.got.tgz:103775.got - 2010.06.28 00:19:55.
