data_PCOD8086687
_publ_section_title
;
Structure prediction by ZEFSAII (Michael W. Deem and Ramdas Pophale) SiO2 
 PCOD8086687
Probable space group: C 2/M
;
_chemical_formula_sum "Si O2"
_cell_formula_units_Z 64
_cell_length_a 23.280484
_cell_length_b 8.864225
_cell_length_c 21.330293
_cell_angle_alpha 90.000000
_cell_angle_beta 127.817382
_cell_angle_gamma 90.000000
_cell_volume 3477.280030
_symmetry_space_group_name_H-M "C 2/M"
_symmetry_group_IT_number 12
_symmetry_cell_setting 'monoclinic'
loop_
_space_group_symop_operation_xyz
x,y,z
-x,y,-z
-x,-y,-z
x,-y,z
1/2+x,1/2+y,z
1/2-x,1/2+y,-z
1/2-x,1/2-y,-z
1/2+x,1/2-y,z
loop_
_atom_site_type_symbol
_atom_site_label
_atom_site_fract_x
_atom_site_fract_y
_atom_site_fract_z
Si Si1 0.381958 0.331102 0.325015
Si Si2 0.671194 0.324173 0.251471
Si Si3 0.167953 0.674827 0.590515
Si Si4 0.075162 0.327570 0.764281
Si Si5 0.228666 0.678038 0.920567
Si Si6 0.418071 0.174576 0.703563
Si Si7 0.673209 0.321573 0.464585
Si Si8 0.220068 0.329564 0.164566
O O1 0.407080 0.500000 0.358517
O O2 0.385181 0.229720 0.389580
O O3 0.434702 0.265436 0.306785
O O4 0.301116 0.328371 0.244545
O O5 0.652958 0.500000 0.236200
O O6 0.748177 0.294610 0.336456
O O7 0.609349 0.238561 0.248868
O O8 0.669318 0.257787 0.180070
O O9 0.153339 0.500000 0.567762
O O10 0.147049 0.769600 0.515377
O O11 0.085484 0.500000 0.750422
O O12 0.145452 0.274611 0.850509
O O13 0.004971 0.304794 0.760793
O O14 0.238981 0.500000 0.930549
O O15 0.282368 0.743558 0.903304
O O16 0.250000 0.750000 0.000000
O O17 0.385540 0.269048 0.624842
O O18 0.395272 0.000000 0.681563
O O19 0.680885 0.500000 0.467085
O O20 0.750000 0.250000 0.500000
O O21 0.191355 0.500000 0.136668
#
# Coordination Sequence:
#
# PCOD8086687 Si02
#       8
#     8   8   8   8   8   8   8   8
#     4   9  17  30  51  76 102 134 173 219 265 311
#     4  10  19  31  50  76 105 138 177 219 264 310
#     4  10  19  32  51  74 102 135 175 223 271 315
#     4   9  20  37  55  77 107 142 176 212 259 318
#     4  10  19  34  57  85 113 139 172 211 258 311
#     4  11  22  36  54  75 104 142 180 219 265 316
#     4  12  23  35  51  74 104 137 178 226 271 315
#     4   9  17  30  50  78 108 137 173 214 259 307
#
# _framework density 18.405189
#
# number of rings (size 3 to 8) (size 9 to 14) (size 15 to 20)
#    0.000    2.000    1.250    3.375    0.000    5.500 
#    0.000    0.625    0.000    4.500    0.000    5.250 
#    0.000    0.000    0.000    0.000    0.000    0.000 
#
# Total GULP energy -396884.509720 kJ/mol
# GULP energy per Si atom -12402.640929 kJ/mol
# Density = 1.836330 g / cm^3
# Si number density = 18.405189 Si / 1000 Ang^3
#
#
#
# Elastic Constant Matrix: (Units=GPa)
#
#
# Indices 1 2 3 4 5 6 
#
# 1 115.0588 60.3326 51.3119 0.0000 -28.3214 0.0000
# 2 60.3326 139.4016 49.4937 0.0000 -20.2457 0.0000
# 3 51.3119 49.4937 84.4615 0.0000 -28.5911 0.0000
# 4 0.0000 0.0000 0.0000 28.9550 0.0000 -11.0632
# 5 -28.3214 -20.2457 -28.5911 0.0000 31.9395 0.0000
# 6 0.0000 0.0000 0.0000 -11.0632 0.0000 33.1722
#
#
#
# Elastic Compliance Matrix: (Units=1/GPa)
#
#
# Indices 1 2 3 4 5 6 
#
# 1 0.014069 -0.003656 -0.004256 0.000000 0.006348 0.000000
# 2 -0.003656 0.010053 -0.003745 0.000000 -0.000222 0.000000
# 3 -0.004256 -0.003745 0.020860 0.000000 0.012525 0.000000
# 4 0.000000 0.000000 0.000000 0.039580 0.000000 0.013200
# 5 0.006348 -0.000222 0.012525 0.000000 0.048009 0.000000
# 6 0.000000 0.000000 0.000000 0.013200 0.000000 0.034548
#
#
# Mechanical properties :
#
#
# Convention : Reuss Voigt Hill
#
# Bulk Modulus (GPa) = 46.15125 73.46648 59.80886
# Shear Modulus (GPa) = 25.29653 30.66560 27.98106
#
# Velocity S-wave (km/s) = 3.71134 4.08626 3.90331
# Velocity P-wave (km/s) = 6.59507 7.89090 7.27191
#
# Compressibility (1/GPa) = 0.02166789
#
# Stress axis : x y z
#
# Youngs Moduli (GPa) = 71.07967 99.46983 47.93928
#
# Poissons Ratio (x) = 0.36366 0.20402
# Poissons Ratio (y) = 0.25987 0.17954
# Poissons Ratio (z) = 0.30250 0.37253
#
# Static dielectric constant tensor:
#      x y z
#    x 3.452870 0.000000 -0.218990 
#    y 0.000000 3.605550 0.000000 
#    z -0.218990 0.000000 3.194260 
# 
# 
# High freq. dielectric constant tensor:
#      x y z
#    x 1.709930 0.000000 -0.028940 
#    y 0.000000 1.731400 0.000000 
#    z -0.028940 0.000000 1.679670 
# 
# From -- ./inp_files/320095.got.cif
#   From: 2010.06.25/outbox.cif.g09.slc.cpg/sg12_161_cif.got.tgz:320095.got - 2010.06.28 00:19:55.
