data_PCOD8086674
_publ_section_title
;
Structure prediction by ZEFSAII (Michael W. Deem and Ramdas Pophale) SiO2 
 PCOD8086674
Probable space group: C 2/M
;
_chemical_formula_sum "Si O2"
_cell_formula_units_Z 48
_cell_length_a 29.435275
_cell_length_b 12.485220
_cell_length_c 7.433082
_cell_angle_alpha 90.000000
_cell_angle_beta 110.626391
_cell_angle_gamma 90.000000
_cell_volume 2556.592143
_symmetry_space_group_name_H-M "C 2/M"
_symmetry_group_IT_number 12
_symmetry_cell_setting 'monoclinic'
loop_
_space_group_symop_operation_xyz
x,y,z
-x,y,-z
-x,-y,-z
x,-y,z
1/2+x,1/2+y,z
1/2-x,1/2+y,-z
1/2-x,1/2-y,-z
1/2+x,1/2-y,z
loop_
_atom_site_type_symbol
_atom_site_label
_atom_site_fract_x
_atom_site_fract_y
_atom_site_fract_z
Si Si1 0.805249 0.775958 0.265918
Si Si2 0.110926 0.380019 0.640906
Si Si3 0.781206 0.122440 0.865604
Si Si4 0.141933 0.123144 0.326708
Si Si5 0.966440 0.622922 0.180700
Si Si6 0.431845 0.194996 0.768455
O O1 0.846437 0.698797 0.241656
O O2 0.760071 0.702695 0.263675
O O3 0.823467 0.842160 0.461603
O O4 0.790919 0.858628 0.089960
O O5 0.126323 0.500000 0.716122
O O6 0.062073 0.346494 0.678537
O O7 0.100777 0.374169 0.413851
O O8 0.829859 0.144057 0.819884
O O9 0.763784 0.000000 0.814215
O O10 0.091073 0.186644 0.251997
O O11 0.127785 0.000000 0.331675
O O12 0.984926 0.500000 0.212259
O O13 0.012747 0.700946 0.226369
O O14 0.930565 0.638275 0.960786
#
# Coordination Sequence:
#
# PCOD8086674 Si02
#       6
#     8   8   8   8   8   8
#     4  10  20  34  54  77 102 131 165 206 247 293
#     4  10  19  31  50  76 103 131 164 203 250 300
#     4  10  20  35  54  76 102 132 166 203 247 296
#     4  10  21  36  53  73 100 135 170 205 246 291
#     4  10  19  32  51  75 103 132 162 202 253 301
#     4  10  19  32  50  71  98 131 168 204 244 293
#
# _framework density 18.774992000000001
#
# number of rings (size 3 to 8) (size 9 to 14) (size 15 to 20)
#    0.000    2.000    0.000    5.000    0.000    1.333 
#    0.000    1.667    0.000   27.000    0.000    0.000 
#    0.000    0.000    0.000    0.000    0.000    0.000 
#
# Total GULP energy -297633.157443 kJ/mol
# GULP energy per Si atom -12401.381560 kJ/mol
# Density = 1.873226 g / cm^3
# Si number density = 18.774992 Si / 1000 Ang^3
#
#
#
# Elastic Constant Matrix: (Units=GPa)
#
#
# Indices 1 2 3 4 5 6 
#
# 1 90.8175 65.8414 22.3698 0.0000 2.1892 0.0000
# 2 65.8414 103.5047 22.9985 0.0000 2.3340 0.0000
# 3 22.3698 22.9985 64.3050 0.0000 -0.3346 0.0000
# 4 0.0000 0.0000 0.0000 19.8574 0.0000 2.8272
# 5 2.1892 2.3340 -0.3346 0.0000 27.2864 0.0000
# 6 0.0000 0.0000 0.0000 2.8272 0.0000 33.7325
#
#
#
# Elastic Compliance Matrix: (Units=1/GPa)
#
#
# Indices 1 2 3 4 5 6 
#
# 1 0.020878 -0.012658 -0.002739 0.000000 -0.000626 0.000000
# 2 -0.012658 0.018194 -0.002107 0.000000 -0.000567 0.000000
# 3 -0.002739 -0.002107 0.017260 0.000000 0.000612 0.000000
# 4 0.000000 0.000000 0.000000 0.050967 0.000000 -0.004272
# 5 -0.000626 -0.000567 0.000612 0.000000 0.036754 0.000000
# 6 0.000000 0.000000 0.000000 -0.004272 0.000000 0.030003
#
#
# Mechanical properties :
#
#
# Convention : Reuss Voigt Hill
#
# Bulk Modulus (GPa) = 46.89327 53.44964 50.17146
# Shear Modulus (GPa) = 23.12963 26.00309 24.56636
#
# Velocity S-wave (km/s) = 3.51371 3.72558 3.62119
# Velocity P-wave (km/s) = 6.44144 6.85834 6.65316
#
# Compressibility (1/GPa) = 0.02132502
#
# Stress axis : x y z
#
# Youngs Moduli (GPa) = 47.89787 54.96216 57.93638
#
# Poissons Ratio (x) = 0.69572 0.15868
# Poissons Ratio (y) = 0.60629 0.12206
# Poissons Ratio (z) = 0.13119 0.11579
#
# Static dielectric constant tensor:
#      x y z
#    x 3.410560 0.000000 -0.058140 
#    y 0.000000 3.318820 0.000000 
#    z -0.058140 0.000000 3.496410 
# 
# 
# High freq. dielectric constant tensor:
#      x y z
#    x 1.728420 0.000000 -0.006850 
#    y 0.000000 1.716890 0.000000 
#    z -0.006850 0.000000 1.736130 
# 
# From -- ./inp_files/102792.got.cif
#   From: 2010.06.25/outbox.cif.g09.slc.cpg/sg12_52_cif.got.tgz:102792.got - 2010.06.28 00:19:55.
