data_PCOD8086570
_publ_section_title
;
Structure prediction by ZEFSAII (Michael W. Deem and Ramdas Pophale) SiO2 
 PCOD8086570
Probable space group: C 2/M
;
_chemical_formula_sum "Si O2"
_cell_formula_units_Z 48
_cell_length_a 18.278530
_cell_length_b 8.900389
_cell_length_c 16.150702
_cell_angle_alpha 90.000000
_cell_angle_beta 92.168052
_cell_angle_gamma 90.000000
_cell_volume 2625.612698
_symmetry_space_group_name_H-M "C 2/M"
_symmetry_group_IT_number 12
_symmetry_cell_setting 'monoclinic'
loop_
_space_group_symop_operation_xyz
x,y,z
-x,y,-z
-x,-y,-z
x,-y,z
1/2+x,1/2+y,z
1/2-x,1/2+y,-z
1/2-x,1/2-y,-z
1/2+x,1/2-y,z
loop_
_atom_site_type_symbol
_atom_site_label
_atom_site_fract_x
_atom_site_fract_y
_atom_site_fract_z
Si Si1 0.662234 0.678000 0.826621
Si Si2 0.828397 0.326175 0.500714
Si Si3 0.910645 0.673475 0.332363
Si Si4 0.781958 0.825052 0.920420
Si Si5 0.458744 0.669451 0.584841
Si Si6 0.078491 0.175053 0.984824
O O1 0.668169 0.500000 0.826122
O O2 0.628130 0.733388 0.740510
O O3 0.744887 0.745374 0.839320
O O4 0.613934 0.740203 0.901785
O O5 0.820677 0.500000 0.523658
O O6 0.750000 0.250000 0.500000
O O7 0.862447 0.304011 0.411895
O O8 0.880178 0.248909 0.571628
O O9 0.916872 0.500000 0.307654
O O10 0.992397 0.738100 0.347862
O O11 0.869722 0.799684 0.932012
O O12 0.762455 0.000000 0.917727
O O13 0.750000 0.750000 0.000000
O O14 0.500000 0.668247 0.500000
O O15 0.446915 0.500000 0.617171
O O16 0.066816 0.000000 0.967666
O O17 0.000000 0.252569 0.000000
#
# Coordination Sequence:
#
# PCOD8086570 Si02
#       6
#     8   8   8   8   8   8
#     4  10  19  31  50  73  97 128 164 203 246 293
#     4  10  20  34  53  76 101 131 167 207 251 298
#     4  10  20  34  52  74 101 132 166 205 250 299
#     4   9  16  28  48  70  94 126 162 200 242 293
#     4   9  17  31  52  75  99 130 167 204 244 295
#     4   8  15  29  49  72  95 122 159 200 241 286
#
# _framework density 18.281448000000001
#
# number of rings (size 3 to 8) (size 9 to 14) (size 15 to 20)
#    0.000    2.667    0.000    3.500    0.000    4.000 
#    0.000    1.667    0.000   26.000    0.000    0.000 
#    0.000    0.000    0.000    0.000    0.000    0.000 
#
# Total GULP energy -297476.254437 kJ/mol
# GULP energy per Si atom -12394.843935 kJ/mol
# Density = 1.823984 g / cm^3
# Si number density = 18.281448 Si / 1000 Ang^3
#
#
#
# Elastic Constant Matrix: (Units=GPa)
#
#
# Indices 1 2 3 4 5 6 
#
# 1 143.8549 65.1394 36.1653 0.0000 31.8374 0.0000
# 2 65.1394 119.7663 33.4919 0.0000 17.1072 0.0000
# 3 36.1653 33.4919 53.6791 0.0000 27.0755 0.0000
# 4 0.0000 0.0000 0.0000 28.5671 0.0000 10.1700
# 5 31.8374 17.1072 27.0755 0.0000 30.7038 0.0000
# 6 0.0000 0.0000 0.0000 10.1700 0.0000 31.1134
#
#
#
# Elastic Compliance Matrix: (Units=1/GPa)
#
#
# Indices 1 2 3 4 5 6 
#
# 1 0.011055 -0.004741 -0.000073 0.000000 -0.008757 0.000000
# 2 -0.004741 0.012148 -0.006216 0.000000 0.003629 0.000000
# 3 -0.000073 -0.006216 0.037412 0.000000 -0.029452 0.000000
# 4 0.000000 0.000000 0.000000 0.039615 0.000000 -0.012949
# 5 -0.008757 0.003629 -0.029452 0.000000 0.065600 0.000000
# 6 0.000000 0.000000 0.000000 -0.012949 0.000000 0.036373
#
#
# Mechanical properties :
#
#
# Convention : Reuss Voigt Hill
#
# Bulk Modulus (GPa) = 25.93652 65.21040 45.57346
# Shear Modulus (GPa) = 21.08690 30.24377 25.66534
#
# Velocity S-wave (km/s) = 3.39995 4.07177 3.75093
# Velocity P-wave (km/s) = 5.44344 7.60615 6.61379
#
# Compressibility (1/GPa) = 0.03855567
#
# Stress axis : x y z
#
# Youngs Moduli (GPa) = 90.45869 82.31682 26.72950
#
# Poissons Ratio (x) = 0.39030 0.00194
# Poissons Ratio (y) = 0.42890 0.16614
# Poissons Ratio (z) = 0.00657 0.51165
#
# Static dielectric constant tensor:
#      x y z
#    x 3.808040 0.000000 0.322470 
#    y 0.000000 3.500710 0.000000 
#    z 0.322470 0.000000 3.175670 
# 
# 
# High freq. dielectric constant tensor:
#      x y z
#    x 1.713670 0.000000 0.032450 
#    y 0.000000 1.711880 0.000000 
#    z 0.032450 0.000000 1.677160 
# 
# From -- ./inp_files/221663.got.cif
#   From: 2010.06.25/outbox.cif.g09.slc.cpg/sg12_111_cif.got.tgz:221663.got - 2010.06.28 00:19:55.
