data_PCOD8086880
_publ_section_title
;
Structure prediction by ZEFSAII (Michael W. Deem and Ramdas Pophale) SiO2 
 PCOD8086880
Probable space group: C 2/M
;
_chemical_formula_sum "Si O2"
_cell_formula_units_Z 64
_cell_length_a 20.301631
_cell_length_b 9.157157
_cell_length_c 24.687232
_cell_angle_alpha 90.000000
_cell_angle_beta 129.417762
_cell_angle_gamma 90.000000
_cell_volume 3545.546177
_symmetry_space_group_name_H-M "C 2/M"
_symmetry_group_IT_number 12
_symmetry_cell_setting 'monoclinic'
loop_
_space_group_symop_operation_xyz
x,y,z
-x,y,-z
-x,-y,-z
x,-y,z
1/2+x,1/2+y,z
1/2-x,1/2+y,-z
1/2-x,1/2-y,-z
1/2+x,1/2-y,z
loop_
_atom_site_type_symbol
_atom_site_label
_atom_site_fract_x
_atom_site_fract_y
_atom_site_fract_z
Si Si1 0.218504 0.165708 0.855785
Si Si2 0.817528 0.672351 0.269144
Si Si3 0.922855 0.828527 0.497708
Si Si4 0.572595 0.168815 0.280396
Si Si5 0.564462 0.328918 0.856173
Si Si6 0.762136 0.168319 0.344331
Si Si7 0.325967 0.830971 0.010312
Si Si8 0.987179 0.671774 0.632757
O O1 0.224663 0.272544 0.808300
O O2 0.137120 0.207700 0.850028
O O3 0.208410 0.000000 0.829740
O O4 0.306715 0.182474 0.935974
O O5 0.809772 0.500000 0.266471
O O6 0.765260 0.737711 0.291623
O O7 0.915521 0.724199 0.323613
O O8 0.834859 0.780370 0.423925
O O9 0.000000 0.775330 0.500000
O O10 0.927935 0.749166 0.557817
O O11 0.927522 0.000000 0.510775
O O12 0.524999 0.266092 0.211007
O O13 0.672848 0.194841 0.327060
O O14 0.545382 0.221877 0.325614
O O15 0.547569 0.000000 0.258343
O O16 0.556283 0.500000 0.863124
O O17 0.587142 0.248563 0.925075
O O18 0.775883 0.000000 0.335396
O O19 0.328087 0.000000 0.029108
O O20 0.250000 0.750000 0.000000
O O21 0.978080 0.500000 0.620169
#
# Coordination Sequence:
#
# PCOD8086880 Si02
#       8
#     8   8   8   8   8   8   8   8
#     4   9  18  31  50  78 109 141 179 220 263 315
#     4  11  21  33  54  81 108 139 178 225 271 315
#     4  10  20  35  56  80 105 139 180 222 268 321
#     4  10  21  38  56  77 109 146 181 221 271 327
#     4  10  19  31  51  79 110 145 181 222 270 322
#     4  10  22  39  57  77 106 144 183 221 269 330
#     4   9  17  29  47  76 111 145 181 223 270 319
#     4  10  21  35  54  81 107 138 177 221 273 321
#
# _framework density 18.050813999999999
#
# number of rings (size 3 to 8) (size 9 to 14) (size 15 to 20)
#    0.000    2.125    2.500    1.875    0.000    5.250 
#    0.000    0.000    0.000    0.750    0.000    5.250 
#    0.000    0.000    0.000    0.000    0.000    0.000 
#
# Total GULP energy -396851.633837 kJ/mol
# GULP energy per Si atom -12401.613557 kJ/mol
# Density = 1.800973 g / cm^3
# Si number density = 18.050814 Si / 1000 Ang^3
#
#
#
# Elastic Constant Matrix: (Units=GPa)
#
#
# Indices 1 2 3 4 5 6 
#
# 1 58.6513 26.0848 30.5680 0.0000 2.1310 0.0000
# 2 26.0848 77.8045 57.2752 0.0000 -2.3877 0.0000
# 3 30.5680 57.2752 135.7580 0.0000 3.1300 0.0000
# 4 0.0000 0.0000 0.0000 39.3792 0.0000 -3.5127
# 5 2.1310 -2.3877 3.1300 0.0000 22.2977 0.0000
# 6 0.0000 0.0000 0.0000 -3.5127 0.0000 22.0929
#
#
#
# Elastic Compliance Matrix: (Units=1/GPa)
#
#
# Indices 1 2 3 4 5 6 
#
# 1 0.020714 -0.005245 -0.002400 0.000000 -0.002204 0.000000
# 2 -0.005245 0.020188 -0.007422 0.000000 0.003705 0.000000
# 3 -0.002400 -0.007422 0.011087 0.000000 -0.002122 0.000000
# 4 0.000000 0.000000 0.000000 0.025759 0.000000 0.004096
# 5 -0.002204 0.003705 -0.002122 0.000000 0.045753 0.000000
# 6 0.000000 0.000000 0.000000 0.004096 0.000000 0.045915
#
#
# Mechanical properties :
#
#
# Convention : Reuss Voigt Hill
#
# Bulk Modulus (GPa) = 45.75754 55.56332 50.66043
# Shear Modulus (GPa) = 24.17387 27.30633 25.74010
#
# Velocity S-wave (km/s) = 3.66349 3.89363 3.78031
# Velocity P-wave (km/s) = 6.58022 7.14578 6.86882
#
# Compressibility (1/GPa) = 0.02185432
#
# Stress axis : x y z
#
# Youngs Moduli (GPa) = 48.27708 49.53345 90.19912
#
# Poissons Ratio (x) = 0.25981 0.21650
# Poissons Ratio (y) = 0.25322 0.66943
# Poissons Ratio (z) = 0.11588 0.36762
#
# Static dielectric constant tensor:
#      x y z
#    x 3.041930 0.000000 0.014110 
#    y 0.000000 3.325620 0.000000 
#    z 0.014110 0.000000 3.864530 
# 
# 
# High freq. dielectric constant tensor:
#      x y z
#    x 1.662400 0.000000 -0.001090 
#    y 0.000000 1.702180 0.000000 
#    z -0.001090 0.000000 1.713840 
# 
# From -- ./inp_files/346303.got.cif
#   From: 2010.06.25/outbox.cif.g09.slc.cpg/sg12_174_cif.got.tgz:346303.got - 2010.06.28 00:19:55.
