data_PCOD8086811
_publ_section_title
;
Structure prediction by ZEFSAII (Michael W. Deem and Ramdas Pophale) SiO2 
 PCOD8086811
Probable space group: C 2/M
;
_chemical_formula_sum "Si O2"
_cell_formula_units_Z 56
_cell_length_a 21.949984
_cell_length_b 9.784771
_cell_length_c 23.484691
_cell_angle_alpha 90.000000
_cell_angle_beta 35.149340
_cell_angle_gamma 90.000000
_cell_volume 2903.843349
_symmetry_space_group_name_H-M "C 2/M"
_symmetry_group_IT_number 12
_symmetry_cell_setting 'monoclinic'
loop_
_space_group_symop_operation_xyz
x,y,z
-x,y,-z
-x,-y,-z
x,-y,z
1/2+x,1/2+y,z
1/2-x,1/2+y,-z
1/2-x,1/2-y,-z
1/2+x,1/2-y,z
loop_
_atom_site_type_symbol
_atom_site_label
_atom_site_fract_x
_atom_site_fract_y
_atom_site_fract_z
Si Si1 0.044879 0.157712 0.814304
Si Si2 0.914695 0.841513 0.022412
Si Si3 0.521302 0.662864 0.261140
Si Si4 0.821197 0.654532 0.793891
Si Si5 0.573917 0.249746 0.394846
Si Si6 0.892286 0.848542 0.461383
Si Si7 0.242354 0.341744 0.668856
O O1 0.142381 0.249526 0.760107
O O2 0.004846 0.203423 0.783110
O O3 0.081721 0.000000 0.786568
O O4 0.949002 0.182879 0.931017
O O5 0.797076 0.782994 0.122157
O O6 0.909615 0.000000 0.042019
O O7 0.000000 0.771218 0.000000
O O8 0.540983 0.500000 0.253361
O O9 0.623938 0.746251 0.202273
O O10 0.422759 0.714586 0.376472
O O11 0.819016 0.500000 0.820159
O O12 0.879407 0.646266 0.687981
O O13 0.500000 0.175905 0.500000
O O14 0.497711 0.354562 0.419865
O O15 0.671401 0.332256 0.347097
O O16 0.795377 0.778709 0.569981
O O17 0.852352 0.000000 0.481042
O O18 0.208480 0.500000 0.688396
#
# Coordination Sequence:
#
# PCOD8086811 Si02
#       7
#     8   8   8   8   8   8   8
#     4  10  21  36  53  73 100 137 176 211 251 302
#     4   9  18  34  54  75 102 135 167 201 251 311
#     4   9  19  36  54  73 101 136 172 209 253 304
#     4  10  20  34  55  79 102 133 171 211 252 296
#     4   9  17  30  50  77 107 133 163 204 255 308
#     4   8  15  30  50  72 101 136 168 201 251 312
#     4  10  19  31  51  77 103 135 173 211 252 298
#
# _framework density 19.284787000000001
#
# number of rings (size 3 to 8) (size 9 to 14) (size 15 to 20)
#    0.000    2.714    0.000    1.286    0.000    6.000 
#    0.000    6.429    0.000    1.714    0.000    0.000 
#    0.000    0.000    0.000    0.000    0.000    0.000 
#
# Total GULP energy -346885.456955 kJ/mol
# GULP energy per Si atom -12388.766320 kJ/mol
# Density = 1.924089 g / cm^3
# Si number density = 19.284787 Si / 1000 Ang^3
#
#
#
# Elastic Constant Matrix: (Units=GPa)
#
#
# Indices 1 2 3 4 5 6 
#
# 1 77.0945 17.1447 30.3799 0.0000 13.7427 0.0000
# 2 17.1447 49.5815 23.4054 0.0001 -5.9403 -0.0001
# 3 30.3799 23.4054 97.6933 0.0000 -0.8330 0.0000
# 4 0.0000 0.0001 0.0000 22.3561 0.0000 -4.9898
# 5 13.7427 -5.9403 -0.8330 0.0000 29.1710 0.0000
# 6 0.0000 -0.0001 0.0000 -4.9898 0.0000 21.2717
#
#
#
# Elastic Compliance Matrix: (Units=1/GPa)
#
#
# Indices 1 2 3 4 5 6 
#
# 1 0.017481 -0.005150 -0.004282 0.000000 -0.009406 0.000000
# 2 -0.005150 0.024858 -0.004291 0.000000 0.007366 0.000000
# 3 -0.004282 -0.004291 0.012609 0.000000 0.001504 0.000000
# 4 0.000000 0.000000 0.000000 0.047202 0.000000 0.011072
# 5 -0.009406 0.007366 0.001504 0.000000 0.040255 0.000000
# 6 0.000000 0.000000 0.000000 0.011072 0.000000 0.049608
#
#
# Mechanical properties :
#
#
# Convention : Reuss Voigt Hill
#
# Bulk Modulus (GPa) = 36.36347 40.69213 38.52780
# Shear Modulus (GPa) = 21.86984 24.78906 23.32945
#
# Velocity S-wave (km/s) = 3.37121 3.58917 3.48190
# Velocity P-wave (km/s) = 5.83527 6.19052 6.01552
#
# Compressibility (1/GPa) = 0.02750012
#
# Stress axis : x y z
#
# Youngs Moduli (GPa) = 57.20615 40.22896 79.31034
#
# Poissons Ratio (x) = 0.20718 0.33964
# Poissons Ratio (y) = 0.29461 0.34033
# Poissons Ratio (z) = 0.24498 0.17263
#
# Static dielectric constant tensor:
#      x y z
#    x 3.495750 0.000000 0.136770 
#    y 0.000000 3.077240 0.000000 
#    z 0.136770 0.000000 3.763310 
# 
# 
# High freq. dielectric constant tensor:
#      x y z
#    x 1.746800 0.000000 0.010450 
#    y 0.000000 1.706640 0.000000 
#    z 0.010450 0.000000 1.760340 
# 
# From -- ./inp_files/346992.got.cif
#   From: 2010.06.25/outbox.cif.g09.slc.cpg/sg12_174_cif.got.tgz:346992.got - 2010.06.28 00:19:55.
