data_PCOD8086726
_publ_section_title
;
Structure prediction by ZEFSAII (Michael W. Deem and Ramdas Pophale) SiO2 
 PCOD8086726
Probable space group: C 2/M
;
_chemical_formula_sum "Si O2"
_cell_formula_units_Z 56
_cell_length_a 25.027080
_cell_length_b 9.307608
_cell_length_c 12.415869
_cell_angle_alpha 90.000000
_cell_angle_beta 105.232038
_cell_angle_gamma 90.000000
_cell_volume 2790.577397
_symmetry_space_group_name_H-M "C 2/M"
_symmetry_group_IT_number 12
_symmetry_cell_setting 'monoclinic'
loop_
_space_group_symop_operation_xyz
x,y,z
-x,y,-z
-x,-y,-z
x,-y,z
1/2+x,1/2+y,z
1/2-x,1/2+y,-z
1/2-x,1/2-y,-z
1/2+x,1/2-y,z
loop_
_atom_site_type_symbol
_atom_site_label
_atom_site_fract_x
_atom_site_fract_y
_atom_site_fract_z
Si Si1 0.763372 0.667362 0.811754
Si Si2 0.058395 0.169806 0.260824
Si Si3 0.637345 0.329300 0.708397
Si Si4 0.937578 0.830456 0.135173
Si Si5 0.633365 0.669539 0.100833
Si Si6 0.212616 0.345217 0.409184
Si Si7 0.898498 0.661195 0.524528
O O1 0.769766 0.500000 0.844014
O O2 0.699209 0.714848 0.780967
O O3 0.807428 0.759485 0.904556
O O4 0.788481 0.714922 0.710686
O O5 0.108275 0.211492 0.205329
O O6 0.059551 0.247904 0.378515
O O7 0.001065 0.219998 0.175392
O O8 0.058944 0.000000 0.284008
O O9 0.634707 0.500000 0.684444
O O10 0.596250 0.275083 0.779080
O O11 0.619065 0.246514 0.591288
O O12 0.934290 0.000000 0.132810
O O13 0.910651 0.773100 0.010673
O O14 0.642038 0.500000 0.097527
O O15 0.242288 0.500000 0.419992
O O16 0.250000 0.250000 0.500000
O O17 0.152651 0.357416 0.424621
O O18 0.921199 0.500000 0.508075
#
# Coordination Sequence:
#
# PCOD8086726 Si02
#       7
#     8   8   8   8   8   8   8
#     4  10  20  34  53  81 113 144 177 218 272 328
#     4  10  20  36  60  84 107 140 184 229 273 320
#     4  10  21  38  58  79 110 150 185 217 264 328
#     4   9  20  39  59  80 107 143 188 231 266 312
#     4  10  20  35  59  86 109 138 181 231 275 316
#     4  10  19  31  50  77 110 142 176 221 270 320
#     4  11  22  35  54  82 115 143 176 225 276 324
#
# _framework density 20.067530999999999
#
# number of rings (size 3 to 8) (size 9 to 14) (size 15 to 20)
#    0.000    2.000    2.857    0.857    0.000    4.571 
#    0.000    5.000    0.000    1.714    0.000    0.000 
#    0.000    0.000    0.000    0.000    0.000    0.000 
#
# Total GULP energy -346910.274231 kJ/mol
# GULP energy per Si atom -12389.652651 kJ/mol
# Density = 2.002186 g / cm^3
# Si number density = 20.067531 Si / 1000 Ang^3
#
#
#
# Elastic Constant Matrix: (Units=GPa)
#
#
# Indices 1 2 3 4 5 6 
#
# 1 73.6636 28.7043 30.0133 0.0000 10.6539 0.0000
# 2 28.7043 56.6986 33.0935 0.0000 13.9391 0.0000
# 3 30.0133 33.0935 77.3560 0.0000 21.8389 0.0000
# 4 0.0000 0.0000 0.0000 20.6363 0.0000 8.0581
# 5 10.6539 13.9391 21.8389 0.0000 36.3373 0.0000
# 6 0.0000 0.0000 0.0000 8.0581 0.0000 23.5743
#
#
#
# Elastic Compliance Matrix: (Units=1/GPa)
#
#
# Indices 1 2 3 4 5 6 
#
# 1 0.017827 -0.006618 -0.004006 0.000000 -0.000280 0.000000
# 2 -0.006618 0.026357 -0.007710 0.000000 -0.003537 0.000000
# 3 -0.004006 -0.007710 0.020008 0.000000 -0.007893 0.000000
# 4 0.000000 0.000000 0.000000 0.055923 0.000000 -0.019115
# 5 -0.000280 -0.003537 -0.007893 0.000000 0.033703 0.000000
# 6 0.000000 0.000000 0.000000 -0.019115 0.000000 0.048953
#
#
# Mechanical properties :
#
#
# Convention : Reuss Voigt Hill
#
# Bulk Modulus (GPa) = 36.33119 43.48226 39.90672
# Shear Modulus (GPa) = 20.11167 23.83671 21.97419
#
# Velocity S-wave (km/s) = 3.16919 3.45022 3.31269
# Velocity P-wave (km/s) = 5.61564 6.13083 5.87888
#
# Compressibility (1/GPa) = 0.02752456
#
# Stress axis : x y z
#
# Youngs Moduli (GPa) = 56.09534 37.94098 49.97953
#
# Poissons Ratio (x) = 0.25108 0.20024
# Poissons Ratio (y) = 0.37122 0.38532
# Poissons Ratio (z) = 0.22474 0.29251
#
# Static dielectric constant tensor:
#      x y z
#    x 3.694870 0.000000 0.074790 
#    y 0.000000 3.644400 0.000000 
#    z 0.074790 0.000000 3.739180 
# 
# 
# High freq. dielectric constant tensor:
#      x y z
#    x 1.785280 0.000000 0.007480 
#    y 0.000000 1.758930 0.000000 
#    z 0.007480 0.000000 1.787510 
# 
# From -- ./inp_files/181087.got.cif
#   From: 2010.06.25/outbox.cif.g09.slc.cpg/sg12_91_cif.got.tgz:181087.got - 2010.06.28 00:19:55.
