data_PCOD8086259
_publ_section_title
;
Structure prediction by ZEFSAII (Michael W. Deem and Ramdas Pophale) SiO2 
 PCOD8086259
Probable space group: C 2/M
;
_chemical_formula_sum "Si O2"
_cell_formula_units_Z 64
_cell_length_a 10.525796
_cell_length_b 19.481216
_cell_length_c 22.606104
_cell_angle_alpha 90.000000
_cell_angle_beta 55.711543
_cell_angle_gamma 90.000000
_cell_volume 3829.906124
_symmetry_space_group_name_H-M "C 2/M"
_symmetry_group_IT_number 12
_symmetry_cell_setting 'monoclinic'
loop_
_space_group_symop_operation_xyz
x,y,z
-x,y,-z
-x,-y,-z
x,-y,z
1/2+x,1/2+y,z
1/2-x,1/2+y,-z
1/2-x,1/2-y,-z
1/2+x,1/2-y,z
loop_
_atom_site_type_symbol
_atom_site_label
_atom_site_fract_x
_atom_site_fract_y
_atom_site_fract_z
Si Si1 0.000636 0.577201 0.318620
Si Si2 0.423606 0.820708 0.966372
Si Si3 0.851912 0.693139 0.792292
Si Si4 0.557111 0.581627 0.547848
Si Si5 0.633356 0.800591 0.799717
Si Si6 0.163885 0.825189 0.956758
Si Si7 0.273349 0.577219 0.696680
Si Si8 0.899599 0.418370 0.472397
O O1 0.068277 0.500000 0.299427
O O2 0.832881 0.578603 0.333407
O O3 0.982207 0.604323 0.390225
O O4 0.118936 0.625354 0.253399
O O5 0.550149 0.802375 0.884495
O O6 0.282678 0.860772 0.971894
O O7 0.500000 0.865306 0.000000
O O8 0.358907 0.752977 0.016166
O O9 0.775405 0.748018 0.767954
O O10 0.731396 0.671328 0.873794
O O11 0.009995 0.721375 0.781199
O O12 0.500000 0.612420 0.500000
O O13 0.561872 0.500000 0.541338
O O14 0.440538 0.603128 0.631045
O O15 0.725611 0.611133 0.520129
O O16 0.705821 0.874559 0.765708
O O17 0.000000 0.864586 0.000000
O O18 0.281103 0.500000 0.720847
O O19 0.892197 0.500000 0.478057
O O20 0.000000 0.387763 0.500000
#
# Coordination Sequence:
#
# PCOD8086259 Si02
#       8
#     8   8   8   8   8   8   8   8
#     4   9  17  31  50  72  98 126 156 197 241 283
#     4   9  15  25  44  67  89 116 153 196 231 265
#     4  10  19  31  49  72  97 125 159 196 239 284
#     4   9  14  25  48  70  86 115 160 198 229 266
#     4  10  19  31  48  72  98 126 158 195 239 284
#     4   9  15  25  44  68  88 114 154 200 229 261
#     4   9  17  30  50  74  97 122 159 203 237 277
#     4   9  16  27  46  70  94 120 157 198 233 275
#
# _framework density 16.710591000000001
#
# number of rings (size 3 to 8) (size 9 to 14) (size 15 to 20)
#    0.000    2.750    3.750    0.000    0.000    0.000 
#    2.250    0.000    0.000    2.250    0.000    0.000 
#    0.000    0.000    0.000    0.000    0.000    0.000 
#
# Total GULP energy -396494.801649 kJ/mol
# GULP energy per Si atom -12390.462552 kJ/mol
# Density = 1.667256 g / cm^3
# Si number density = 16.710591 Si / 1000 Ang^3
#
#
#
# Elastic Constant Matrix: (Units=GPa)
#
#
# Indices 1 2 3 4 5 6 
#
# 1 129.1162 33.8222 51.9612 -0.0001 -2.6677 0.0000
# 2 33.8222 45.3719 41.1277 0.0000 -4.5296 0.0000
# 3 51.9612 41.1277 110.6957 -0.0001 -6.4439 -0.0001
# 4 -0.0001 0.0000 -0.0001 19.4497 0.0001 -2.0032
# 5 -2.6677 -4.5296 -6.4439 0.0001 26.0757 0.0000
# 6 0.0000 0.0000 -0.0001 -2.0032 0.0000 13.4841
#
#
#
# Elastic Compliance Matrix: (Units=1/GPa)
#
#
# Indices 1 2 3 4 5 6 
#
# 1 0.010241 -0.004980 -0.002989 0.000000 -0.000556 0.000000
# 2 -0.004980 0.035851 -0.010805 0.000000 0.003048 0.000000
# 3 -0.002989 -0.010805 0.014533 0.000000 0.001409 0.000000
# 4 0.000000 0.000000 0.000000 0.052214 0.000000 0.007757
# 5 -0.000556 0.003048 0.001409 0.000000 0.039171 0.000000
# 6 0.000000 0.000000 0.000000 0.007757 0.000000 0.075314
#
#
# Mechanical properties :
#
#
# Convention : Reuss Voigt Hill
#
# Bulk Modulus (GPa) = 43.33334 59.88957 51.61145
# Shear Modulus (GPa) = 18.34433 22.35340 20.34886
#
# Velocity S-wave (km/s) = 3.31685 3.66140 3.49337
# Velocity P-wave (km/s) = 6.37625 7.33427 6.87198
#
# Compressibility (1/GPa) = 0.02307692
#
# Stress axis : x y z
#
# Youngs Moduli (GPa) = 97.64701 27.89340 68.80679
#
# Poissons Ratio (x) = 0.13891 0.20569
# Poissons Ratio (y) = 0.48627 0.74345
# Poissons Ratio (z) = 0.29190 0.30139
#
# Static dielectric constant tensor:
#      x y z
#    x 3.990650 0.000000 0.065460 
#    y 0.000000 2.630070 0.000000 
#    z 0.065460 0.000000 3.142850 
# 
# 
# High freq. dielectric constant tensor:
#      x y z
#    x 1.658190 0.000000 -0.002740 
#    y 0.000000 1.572870 0.000000 
#    z -0.002740 0.000000 1.650900 
# 
# From -- ./inp_files/306478.got.cif
#   From: 2010.06.25/outbox.cif.g09.slc.cpg/sg12_154_cif.got.tgz:306478.got - 2010.06.28 00:19:55.
