data_PCOD8086925
_publ_section_title
;
Structure prediction by ZEFSAII (Michael W. Deem and Ramdas Pophale) SiO2 
 PCOD8086925
Probable space group: C 2/M
;
_chemical_formula_sum "Si O2"
_cell_formula_units_Z 40
_cell_length_a 29.146150
_cell_length_b 9.008298
_cell_length_c 24.201022
_cell_angle_alpha 90.000000
_cell_angle_beta 19.962832
_cell_angle_gamma 90.000000
_cell_volume 2169.374377
_symmetry_space_group_name_H-M "C 2/M"
_symmetry_group_IT_number 12
_symmetry_cell_setting 'monoclinic'
loop_
_space_group_symop_operation_xyz
x,y,z
-x,y,-z
-x,-y,-z
x,-y,z
1/2+x,1/2+y,z
1/2-x,1/2+y,-z
1/2-x,1/2-y,-z
1/2+x,1/2-y,z
loop_
_atom_site_type_symbol
_atom_site_label
_atom_site_fract_x
_atom_site_fract_y
_atom_site_fract_z
Si Si1 0.890293 0.831509 0.476693
Si Si2 0.809061 0.823775 0.879205
Si Si3 0.132690 0.824714 0.752911
Si Si4 0.306546 0.832043 0.211245
Si Si5 0.876023 0.324765 0.011688
O O1 0.038915 0.765468 0.301422
O O2 0.780374 0.734674 0.566664
O O3 0.846867 0.825527 0.591005
O O4 0.884767 0.000000 0.460681
O O5 0.805367 0.000000 0.889232
O O6 0.750000 0.750000 0.000000
O O7 0.722669 0.770374 0.924689
O O8 0.101171 0.766172 0.851311
O O9 0.018449 0.757647 0.842266
O O10 0.129485 0.000000 0.753869
O O11 0.361930 0.000000 0.151461
O O12 0.309090 0.774103 0.145616
O O13 0.899801 0.500000 0.982118
#
# Coordination Sequence:
#
# PCOD8086925 Si02
#       5
#     8   8   8   8   8
#     4   8  17  35  55  76 105 140 173 211 257 312
#     4  10  22  39  58  77 102 137 179 222 264 307
#     4  10  19  31  51  82 114 140 167 209 263 313
#     4   8  16  31  54  79 109 138 170 211 255 311
#     4  10  19  33  55  81 106 140 177 210 255 314
#
# _framework density 18.438495
#
# number of rings (size 3 to 8) (size 9 to 14) (size 15 to 20)
#    1.200    1.600    0.000    1.800    0.000    5.600 
#    0.000    5.000    0.000    1.200    0.000    0.000 
#    0.000    0.000    0.000    0.000    0.000    0.000 
#
# Total GULP energy -247794.533134 kJ/mol
# GULP energy per Si atom -12389.726657 kJ/mol
# Density = 1.839653 g / cm^3
# Si number density = 18.438495 Si / 1000 Ang^3
#
#
#
# Elastic Constant Matrix: (Units=GPa)
#
#
# Indices 1 2 3 4 5 6 
#
# 1 59.2764 23.2345 62.0715 0.0042 -5.7103 0.0006
# 2 23.2345 63.8022 41.3367 0.0000 -12.6048 -0.0007
# 3 62.0715 41.3367 153.6348 -0.0001 -23.5788 -0.0010
# 4 0.0042 0.0000 -0.0001 21.2971 -0.0030 3.2664
# 5 -5.7103 -12.6048 -23.5788 -0.0030 20.1351 0.0004
# 6 0.0006 -0.0007 -0.0010 3.2664 0.0004 18.7175
#
#
#
# Elastic Compliance Matrix: (Units=1/GPa)
#
#
# Indices 1 2 3 4 5 6 
#
# 1 0.031201 -0.004949 -0.012668 -0.000008 -0.009085 0.000000
# 2 -0.004949 0.020663 -0.002182 0.000002 0.008976 0.000000
# 3 -0.012668 -0.002182 0.013963 0.000004 0.011392 0.000000
# 4 -0.000008 0.000002 0.000004 0.048246 0.000012 -0.008420
# 5 -0.009085 0.008976 0.011392 0.000012 0.066047 -0.000002
# 6 0.000000 0.000000 0.000000 -0.008420 -0.000002 0.054895
#
#
# Mechanical properties :
#
#
# Convention : Reuss Voigt Hill
#
# Bulk Modulus (GPa) = 38.12944 58.88875 48.50910
# Shear Modulus (GPa) = 17.64560 22.03466 19.84013
#
# Velocity S-wave (km/s) = 3.09689 3.46068 3.28383
# Velocity P-wave (km/s) = 5.78894 6.92645 6.38308
#
# Compressibility (1/GPa) = 0.02622645
#
# Stress axis : x y z
#
# Youngs Moduli (GPa) = 32.05076 48.39559 71.61959
#
# Poissons Ratio (x) = 0.23952 0.90729
# Poissons Ratio (y) = 0.15863 0.15630
# Poissons Ratio (z) = 0.40603 0.10562
#
# Static dielectric constant tensor:
#      x y z
#    x 3.213810 0.000000 -0.067020 
#    y 0.000000 3.120500 0.000000 
#    z -0.067020 0.000000 3.480870 
# 
# 
# High freq. dielectric constant tensor:
#      x y z
#    x 1.684950 0.000000 -0.006050 
#    y 0.000000 1.696970 0.000000 
#    z -0.006050 0.000000 1.719360 
# 
# From -- ./inp_files/370391.got.cif
#   From: 2010.06.25/outbox.cif.g09.slc.cpg/sg12_186_cif.got.tgz:370391.got - 2010.06.28 00:19:55.
