data_PCOD8086203
_publ_section_title
;
Structure prediction by ZEFSAII (Michael W. Deem and Ramdas Pophale) SiO2 
 PCOD8086203
Probable space group: C 2/M
;
_chemical_formula_sum "Si O2"
_cell_formula_units_Z 56
_cell_length_a 19.279847
_cell_length_b 8.953873
_cell_length_c 26.917086
_cell_angle_alpha 90.000000
_cell_angle_beta 141.118857
_cell_angle_gamma 90.000000
_cell_volume 2916.751646
_symmetry_space_group_name_H-M "C 2/M"
_symmetry_group_IT_number 12
_symmetry_cell_setting 'monoclinic'
loop_
_space_group_symop_operation_xyz
x,y,z
-x,y,-z
-x,-y,-z
x,-y,z
1/2+x,1/2+y,z
1/2-x,1/2+y,-z
1/2-x,1/2-y,-z
1/2+x,1/2-y,z
loop_
_atom_site_type_symbol
_atom_site_label
_atom_site_fract_x
_atom_site_fract_y
_atom_site_fract_z
Si Si1 0.889982 0.673804 0.713315
Si Si2 0.529979 0.677541 0.070605
Si Si3 0.653345 0.676346 0.415186
Si Si4 0.215379 0.822930 0.248820
Si Si5 0.089842 0.172405 0.691551
Si Si6 0.809691 0.831674 0.990415
Si Si7 0.626244 0.167314 0.809904
O O1 0.856658 0.500000 0.694508
O O2 0.845901 0.749681 0.638563
O O3 0.835237 0.751455 0.730100
O O4 0.022988 0.695283 0.789537
O O5 0.527965 0.500000 0.064497
O O6 0.644588 0.727661 0.160423
O O7 0.500000 0.747683 0.000000
O O8 0.431721 0.734856 0.051400
O O9 0.671547 0.500000 0.419106
O O10 0.750000 0.750000 0.500000
O O11 0.540603 0.709996 0.382989
O O12 0.341039 0.766850 0.310557
O O13 0.214132 0.000000 0.254824
O O14 0.130579 0.211115 0.769366
O O15 0.112951 0.000000 0.693608
O O16 0.741952 0.816638 0.901892
O O17 0.818996 0.000000 0.013212
O O18 0.750000 0.750000 0.000000
O O19 0.615536 0.000000 0.780891
#
# Coordination Sequence:
#
# PCOD8086203 Si02
#       7
#     8   8   8   8   8   8   8
#     4  10  20  35  56  82 113 146 181 224 272 321
#     4   9  18  32  50  72 101 141 186 230 274 318
#     4  10  21  39  63  89 114 140 173 213 263 323
#     4  11  21  34  54  79 110 148 189 229 271 323
#     4  10  21  36  56  81 108 139 175 217 264 317
#     4  10  19  31  48  71 100 134 176 226 275 320
#     4   9  18  33  53  75 101 139 184 226 270 323
#
# _framework density 19.199441
#
# number of rings (size 3 to 8) (size 9 to 14) (size 15 to 20)
#    0.000    2.143    0.000    3.429    0.000    5.143 
#    0.000    1.429    0.000    7.286    0.000    0.000 
#    0.000    0.000    0.000    0.000    0.000    0.000 
#
# Total GULP energy -347090.169833 kJ/mol
# GULP energy per Si atom -12396.077494 kJ/mol
# Density = 1.915574 g / cm^3
# Si number density = 19.199441 Si / 1000 Ang^3
#
#
#
# Elastic Constant Matrix: (Units=GPa)
#
#
# Indices 1 2 3 4 5 6 
#
# 1 108.0507 47.3603 38.5746 0.0000 11.1070 0.0000
# 2 47.3603 87.9017 43.0029 0.0000 6.3327 0.0001
# 3 38.5746 43.0029 80.9656 0.0000 9.8406 0.0000
# 4 0.0000 0.0000 0.0000 25.0978 0.0000 -2.8010
# 5 11.1070 6.3327 9.8406 0.0000 25.7478 0.0000
# 6 0.0000 0.0001 0.0000 -2.8010 0.0000 37.8251
#
#
#
# Elastic Compliance Matrix: (Units=1/GPa)
#
#
# Indices 1 2 3 4 5 6 
#
# 1 0.012966 -0.005302 -0.002979 0.000000 -0.003151 0.000000
# 2 -0.005302 0.017550 -0.006868 0.000000 0.000595 0.000000
# 3 -0.002979 -0.006868 0.017887 0.000000 -0.003862 0.000000
# 4 0.000000 0.000000 0.000000 0.040176 0.000000 0.002975
# 5 -0.003151 0.000595 -0.003862 0.000000 0.041527 0.000000
# 6 0.000000 0.000000 0.000000 0.002975 0.000000 0.026658
#
#
# Mechanical properties :
#
#
# Convention : Reuss Voigt Hill
#
# Bulk Modulus (GPa) = 55.22743 59.42150 57.32446
# Shear Modulus (GPa) = 25.89398 27.59948 26.74673
#
# Velocity S-wave (km/s) = 3.67643 3.79557 3.73647
# Velocity P-wave (km/s) = 6.84464 7.08698 6.96686
#
# Compressibility (1/GPa) = 0.01810694
#
# Stress axis : x y z
#
# Youngs Moduli (GPa) = 77.12470 56.98111 55.90675
#
# Poissons Ratio (x) = 0.30210 0.16652
# Poissons Ratio (y) = 0.40890 0.38394
# Poissons Ratio (z) = 0.22972 0.39132
#
# Static dielectric constant tensor:
#      x y z
#    x 3.621660 0.000000 0.144570 
#    y 0.000000 3.497640 0.000000 
#    z 0.144570 0.000000 3.601700 
# 
# 
# High freq. dielectric constant tensor:
#      x y z
#    x 1.756400 0.000000 0.013570 
#    y 0.000000 1.738520 0.000000 
#    z 0.013570 0.000000 1.734600 
# 
# From -- ./inp_files/342596.got.cif
#   From: 2010.06.25/outbox.cif.g09.slc.cpg/sg12_172_cif.got.tgz:342596.got - 2010.06.28 00:19:55.
