data_PCOD8086506
_publ_section_title
;
Structure prediction by ZEFSAII (Michael W. Deem and Ramdas Pophale) SiO2 
 PCOD8086506
Probable space group: C 2/M
;
_chemical_formula_sum "Si O2"
_cell_formula_units_Z 44
_cell_length_a 5.135888
_cell_length_b 14.000635
_cell_length_c 29.559322
_cell_angle_alpha 90.000000
_cell_angle_beta 104.631301
_cell_angle_gamma 90.000000
_cell_volume 2056.556914
_symmetry_space_group_name_H-M "C 2/M"
_symmetry_group_IT_number 12
_symmetry_cell_setting 'monoclinic'
loop_
_space_group_symop_operation_xyz
x,y,z
-x,y,-z
-x,-y,-z
x,-y,z
1/2+x,1/2+y,z
1/2-x,1/2+y,-z
1/2-x,1/2-y,-z
1/2+x,1/2-y,z
loop_
_atom_site_type_symbol
_atom_site_label
_atom_site_fract_x
_atom_site_fract_y
_atom_site_fract_z
Si Si1 0.025073 0.690712 0.301942
Si Si2 0.362465 0.391183 0.896455
Si Si3 0.832627 0.313421 0.201465
Si Si4 0.590260 0.815991 0.403190
Si Si5 0.296478 0.000000 0.532018
Si Si6 0.435996 0.114310 0.947020
O O1 0.830341 0.782198 0.301943
O O2 0.891780 0.634897 0.253017
O O3 0.032369 0.637329 0.350729
O O4 0.388402 0.500000 0.912049
O O5 0.267089 0.387986 0.840197
O O6 0.652066 0.342988 0.917275
O O7 0.152394 0.342100 0.921516
O O8 0.609277 0.232226 0.196661
O O9 0.331271 0.760879 0.411380
O O10 0.662041 0.904214 0.437712
O O11 0.500000 0.000000 0.500000
O O12 0.000000 0.000000 0.500000
O O13 0.436746 0.000000 0.945594
O O14 0.500000 0.151867 0.000000
#
# Coordination Sequence:
#
# PCOD8086506 Si02
#       6
#     8   8   8   8   4   8
#     4   8  16  32  55  78 102 140 184 217 260 330
#     4  10  19  31  49  75  99 121 166 217 256 309
#     4  10  19  33  53  75 104 138 168 206 267 328
#     4  10  21  40  63  86 120 161 202 249 297 348
#     4  12  26  40  60  94 126 158 208 250 295 358
#     4   9  17  30  49  69  93 128 168 211 256 305
#
# _framework density 21.394983
#
# number of rings (size 3 to 8) (size 9 to 14) (size 15 to 20)
#    0.000    2.364    0.000    2.727    0.000    4.364 
#    1.636    0.000    0.000   10.909    0.000    0.000 
#    0.000    0.000    0.000    0.000    0.000    0.000 
#
# Total GULP energy -272560.538841 kJ/mol
# GULP energy per Si atom -12389.115402 kJ/mol
# Density = 2.134629 g / cm^3
# Si number density = 21.394983 Si / 1000 Ang^3
#
#
#
# Elastic Constant Matrix: (Units=GPa)
#
#
# Indices 1 2 3 4 5 6 
#
# 1 132.2727 9.9669 59.2100 0.0000 2.5489 0.0000
# 2 9.9669 42.0949 40.2380 0.0000 3.2952 0.0000
# 3 59.2100 40.2380 199.9568 0.0000 12.0874 0.0000
# 4 0.0000 0.0000 0.0000 26.6876 0.0000 2.7185
# 5 2.5489 3.2952 12.0874 0.0000 37.4786 0.0000
# 6 0.0000 0.0000 0.0000 2.7185 0.0000 4.9762
#
#
#
# Elastic Compliance Matrix: (Units=1/GPa)
#
#
# Indices 1 2 3 4 5 6 
#
# 1 0.008726 0.000494 -0.002697 0.000000 0.000233 0.000000
# 2 0.000494 0.029459 -0.006034 0.000000 -0.000678 0.000000
# 3 -0.002697 -0.006034 0.007109 0.000000 -0.001579 0.000000
# 4 0.000000 0.000000 0.000000 0.039679 0.000000 -0.021676
# 5 0.000233 -0.000678 -0.001579 0.000000 0.027235 0.000000
# 6 0.000000 0.000000 0.000000 -0.021676 0.000000 0.212797
#
#
# Mechanical properties :
#
#
# Convention : Reuss Voigt Hill
#
# Bulk Modulus (GPa) = 34.69696 65.90602 50.30149
# Shear Modulus (GPa) = 14.24152 31.48911 22.86531
#
# Velocity S-wave (km/s) = 2.58281 3.84056 3.27268
# Velocity P-wave (km/s) = 5.01469 7.10900 6.15163
#
# Compressibility (1/GPa) = 0.02882097
#
# Stress axis : x y z
#
# Youngs Moduli (GPa) = 114.60200 33.94510 140.65871
#
# Poissons Ratio (x) = -0.01677 0.37941
# Poissons Ratio (y) = -0.05662 0.84867
# Poissons Ratio (z) = 0.30912 0.20481
#
# Static dielectric constant tensor:
#      x y z
#    x 4.281160 0.000000 0.030700 
#    y 0.000000 3.157680 0.000000 
#    z 0.030700 0.000000 4.379540 
# 
# 
# High freq. dielectric constant tensor:
#      x y z
#    x 1.865350 0.000000 0.001970 
#    y 0.000000 1.780740 0.000000 
#    z 0.001970 0.000000 1.864900 
# 
# From -- ./inp_files/354772.got.cif
#   From: 2010.06.25/outbox.cif.g09.slc.cpg/sg12_178_cif.got.tgz:354772.got - 2010.06.28 00:19:55.
