data_PCOD8086247
_publ_section_title
;
Structure prediction by ZEFSAII (Michael W. Deem and Ramdas Pophale) SiO2 
 PCOD8086247
Probable space group: C 2/M
;
_chemical_formula_sum "Si O2"
_cell_formula_units_Z 64
_cell_length_a 24.882379
_cell_length_b 9.012182
_cell_length_c 23.836329
_cell_angle_alpha 90.000000
_cell_angle_beta 45.723343
_cell_angle_gamma 90.000000
_cell_volume 3827.017328
_symmetry_space_group_name_H-M "C 2/M"
_symmetry_group_IT_number 12
_symmetry_cell_setting 'monoclinic'
loop_
_space_group_symop_operation_xyz
x,y,z
-x,y,-z
-x,-y,-z
x,-y,z
1/2+x,1/2+y,z
1/2-x,1/2+y,-z
1/2-x,1/2-y,-z
1/2+x,1/2-y,z
loop_
_atom_site_type_symbol
_atom_site_label
_atom_site_fract_x
_atom_site_fract_y
_atom_site_fract_z
Si Si1 0.198653 0.327316 0.492013
Si Si2 0.057520 0.826598 0.188998
Si Si3 0.972018 0.173223 0.915121
Si Si4 0.080449 0.330214 0.664657
Si Si5 0.292204 0.824124 0.340119
Si Si6 0.145115 0.173970 0.812501
Si Si7 0.725410 0.326885 0.074401
Si Si8 0.152859 0.324319 0.923675
O O1 0.219846 0.500000 0.471475
O O2 0.250000 0.250000 0.500000
O O3 0.113606 0.308507 0.577400
O O4 0.214323 0.245084 0.421497
O O5 0.047517 0.767843 0.132752
O O6 0.139810 0.782913 0.151543
O O7 0.996843 0.758078 0.275104
O O8 0.043258 0.000000 0.199467
O O9 0.058312 0.206284 0.864219
O O10 0.952205 0.000000 0.937012
O O11 0.925005 0.267348 0.993867
O O12 0.061668 0.500000 0.690256
O O13 0.139528 0.275499 0.668818
O O14 0.304616 0.754638 0.270438
O O15 0.283642 0.000000 0.342202
O O16 0.169090 0.243451 0.853773
O O17 0.162719 0.000000 0.799169
O O18 0.732067 0.500000 0.058038
O O19 0.778439 0.276901 0.086429
O O20 0.750000 0.250000 0.000000
O O21 0.148095 0.500000 0.918143
#
# Coordination Sequence:
#
# PCOD8086247 Si02
#       8
#     8   8   8   8   8   8   8   8
#     4   9  17  29  45  69 101 135 167 200 241 294
#     4  10  19  32  51  73  98 130 166 205 248 295
#     4  10  20  34  51  72  98 131 168 204 247 298
#     4   9  18  30  46  72 103 131 162 201 243 290
#     4  10  19  31  48  72 102 134 166 202 244 295
#     4  11  22  35  51  72 100 135 169 204 245 298
#     4  10  21  36  53  72  95 126 167 210 253 295
#     4  11  23  36  51  72  97 130 169 212 252 292
#
# _framework density 16.723206000000001
#
# number of rings (size 3 to 8) (size 9 to 14) (size 15 to 20)
#    0.000    2.000    2.500    2.625    0.000    6.500 
#    0.000    0.000    0.000    0.000    0.000    0.875 
#    0.000    7.000    0.000    0.000    0.000    0.000 
#
# Total GULP energy -396793.658280 kJ/mol
# GULP energy per Si atom -12399.801821 kJ/mol
# Density = 1.668514 g / cm^3
# Si number density = 16.723206 Si / 1000 Ang^3
#
#
#
# Elastic Constant Matrix: (Units=GPa)
#
#
# Indices 1 2 3 4 5 6 
#
# 1 66.9485 33.8269 45.6180 0.0002 10.6351 0.0004
# 2 33.8269 76.6922 62.8216 0.0011 4.6152 0.0048
# 3 45.6180 62.8216 149.5834 -0.0003 6.9646 0.0009
# 4 0.0002 0.0011 -0.0003 36.7916 0.0000 0.9247
# 5 10.6351 4.6152 6.9646 0.0000 17.1280 -0.0003
# 6 0.0004 0.0048 0.0009 0.9247 -0.0003 20.3271
#
#
#
# Elastic Compliance Matrix: (Units=1/GPa)
#
#
# Indices 1 2 3 4 5 6 
#
# 1 0.022262 -0.006133 -0.003717 0.000000 -0.010659 0.000001
# 2 -0.006133 0.021634 -0.007259 -0.000001 0.000930 -0.000005
# 3 -0.003717 -0.007259 0.010875 0.000000 -0.000158 0.000001
# 4 0.000000 -0.000001 0.000000 0.027211 0.000000 -0.001238
# 5 -0.010659 0.000930 -0.000158 0.000000 0.064816 0.000001
# 6 0.000001 -0.000005 0.000001 -0.001238 0.000001 0.049252
#
#
# Mechanical properties :
#
#
# Convention : Reuss Voigt Hill
#
# Bulk Modulus (GPa) = 48.65472 64.19522 56.42497
# Shear Modulus (GPa) = 21.08658 24.91317 22.99988
#
# Velocity S-wave (km/s) = 3.55479 3.86390 3.71256
# Velocity P-wave (km/s) = 6.78277 7.64045 7.22435
#
# Compressibility (1/GPa) = 0.02055299
#
# Stress axis : x y z
#
# Youngs Moduli (GPa) = 44.92058 46.22327 91.95588
#
# Poissons Ratio (x) = 0.28347 0.34182
# Poissons Ratio (y) = 0.27548 0.66750
# Poissons Ratio (z) = 0.16698 0.33553
#
# Static dielectric constant tensor:
#      x y z
#    x 2.989130 0.000000 -0.004410 
#    y 0.000000 3.216830 0.000000 
#    z -0.004410 0.000000 3.193970 
# 
# 
# High freq. dielectric constant tensor:
#      x y z
#    x 1.605780 0.000000 -0.002230 
#    y 0.000000 1.653780 0.000000 
#    z -0.002230 0.000000 1.653130 
# 
# From -- ./inp_files/324100.got.cif
#   From: 2010.06.25/outbox.cif.g09.slc.cpg/sg12_163_cif.got.tgz:324100.got - 2010.06.28 00:19:55.
