data_PCOD8086260
_publ_section_title
;
Structure prediction by ZEFSAII (Michael W. Deem and Ramdas Pophale) SiO2 
 PCOD8086260
Probable space group: C 2/M
;
_chemical_formula_sum "Si O2"
_cell_formula_units_Z 48
_cell_length_a 30.815005
_cell_length_b 9.108499
_cell_length_c 9.356692
_cell_angle_alpha 90.000000
_cell_angle_beta 89.505503
_cell_angle_gamma 90.000000
_cell_volume 2626.123926
_symmetry_space_group_name_H-M "C 2/M"
_symmetry_group_IT_number 12
_symmetry_cell_setting 'monoclinic'
loop_
_space_group_symop_operation_xyz
x,y,z
-x,y,-z
-x,-y,-z
x,-y,z
1/2+x,1/2+y,z
1/2-x,1/2+y,-z
1/2-x,1/2-y,-z
1/2+x,1/2-y,z
loop_
_atom_site_type_symbol
_atom_site_label
_atom_site_fract_x
_atom_site_fract_y
_atom_site_fract_z
Si Si1 0.849597 0.671691 0.584806
Si Si2 0.427072 0.829205 0.785089
Si Si3 0.257022 0.167321 0.643483
Si Si4 0.010591 0.165872 0.833338
Si Si5 0.834572 0.172835 0.285637
Si Si6 0.594371 0.171766 0.889425
O O1 0.852948 0.500000 0.543415
O O2 0.891098 0.723026 0.673415
O O3 0.806935 0.698501 0.689297
O O4 0.847479 0.766762 0.441381
O O5 0.470854 0.739892 0.749339
O O6 0.438111 0.000000 0.769742
O O7 0.409337 0.794463 0.943088
O O8 0.250000 0.250000 0.500000
O O9 0.216693 0.207329 0.749650
O O10 0.251370 0.000000 0.601843
O O11 0.054439 0.256680 0.803227
O O12 0.016884 0.000000 0.778226
O O13 0.000000 0.170662 0.000000
O O14 0.861090 0.255828 0.163118
O O15 0.844882 0.000000 0.279847
O O16 0.594632 0.000000 0.855773
#
# Coordination Sequence:
#
# PCOD8086260 Si02
#       6
#     8   8   8   8   8   8
#     4   9  17  32  52  72  95 125 160 196 236 282
#     4   9  18  32  51  73  96 124 159 196 234 281
#     4   8  15  28  47  68  92 124 159 193 230 277
#     4   9  17  30  49  71  95 124 157 193 235 283
#     4  10  19  31  48  72  99 126 159 198 238 278
#     4  10  19  32  50  71  96 127 161 195 233 280
#
# _framework density 18.277888000000001
#
# number of rings (size 3 to 8) (size 9 to 14) (size 15 to 20)
#    0.000    2.833    0.000    1.500    0.000    4.000 
#    0.000    1.667    0.000    5.000    0.000    0.000 
#    0.000    0.000    0.000    0.000    0.000    0.000 
#
# Total GULP energy -297371.937837 kJ/mol
# GULP energy per Si atom -12390.497410 kJ/mol
# Density = 1.823629 g / cm^3
# Si number density = 18.277888 Si / 1000 Ang^3
#
#
#
# Elastic Constant Matrix: (Units=GPa)
#
#
# Indices 1 2 3 4 5 6 
#
# 1 30.7327 7.6800 -8.0685 0.0000 -2.4335 0.0000
# 2 7.6800 65.4026 6.9817 0.0000 -6.9578 0.0000
# 3 -8.0685 6.9817 19.4624 0.0000 0.4641 0.0000
# 4 0.0000 0.0000 0.0000 20.9248 0.0000 -4.5054
# 5 -2.4335 -6.9578 0.4641 0.0000 27.9408 0.0000
# 6 0.0000 0.0000 0.0000 -4.5054 0.0000 32.0269
#
#
#
# Elastic Compliance Matrix: (Units=1/GPa)
#
#
# Indices 1 2 3 4 5 6 
#
# 1 0.039109 -0.006405 0.018475 0.000000 0.001504 0.000000
# 2 -0.006405 0.017421 -0.008998 0.000000 0.003930 0.000000
# 3 0.018475 -0.008998 0.062308 0.000000 -0.001667 0.000000
# 4 0.000000 0.000000 0.000000 0.049283 0.000000 0.006933
# 5 0.001504 0.003930 -0.001667 0.000000 0.036927 0.000000
# 6 0.000000 0.000000 0.000000 0.006933 0.000000 0.032199
#
#
# Mechanical properties :
#
#
# Convention : Reuss Voigt Hill
#
# Bulk Modulus (GPa) = 8.00120 14.30934 11.15527
# Shear Modulus (GPa) = 18.33099 23.44547 20.88823
#
# Velocity S-wave (km/s) = 3.17030 3.58540 3.38422
# Velocity P-wave (km/s) = 4.21760 4.99859 4.62461
#
# Compressibility (1/GPa) = 0.12498128
#
# Stress axis : x y z
#
# Youngs Moduli (GPa) = 25.56984 57.40333 16.04938
#
# Poissons Ratio (x) = 0.36764 -0.29651
# Poissons Ratio (y) = 0.16376 0.14441
# Poissons Ratio (z) = -0.47240 0.51652
#
# Static dielectric constant tensor:
#      x y z
#    x 4.127910 0.000000 -0.034490 
#    y 0.000000 3.402690 0.000000 
#    z -0.034490 0.000000 2.876710 
# 
# 
# High freq. dielectric constant tensor:
#      x y z
#    x 1.730930 0.000000 -0.006570 
#    y 0.000000 1.716190 0.000000 
#    z -0.006570 0.000000 1.655960 
# 
# From -- ./inp_files/108592.got.cif
#   From: 2010.06.25/outbox.cif.g09.slc.cpg/sg12_55_cif.got.tgz:108592.got - 2010.06.28 00:19:55.
