data_PCOD8086568
_publ_section_title
;
Structure prediction by ZEFSAII (Michael W. Deem and Ramdas Pophale) SiO2 
 PCOD8086568
Probable space group: C 2/M
;
_chemical_formula_sum "Si O2"
_cell_formula_units_Z 64
_cell_length_a 28.706068
_cell_length_b 8.998397
_cell_length_c 15.731433
_cell_angle_alpha 90.000000
_cell_angle_beta 116.684566
_cell_angle_gamma 90.000000
_cell_volume 3630.763848
_symmetry_space_group_name_H-M "C 2/M"
_symmetry_group_IT_number 12
_symmetry_cell_setting 'monoclinic'
loop_
_space_group_symop_operation_xyz
x,y,z
-x,y,-z
-x,-y,-z
x,-y,z
1/2+x,1/2+y,z
1/2-x,1/2+y,-z
1/2-x,1/2-y,-z
1/2+x,1/2-y,z
loop_
_atom_site_type_symbol
_atom_site_label
_atom_site_fract_x
_atom_site_fract_y
_atom_site_fract_z
Si Si1 0.230490 0.327213 0.107634
Si Si2 0.067293 0.325009 0.730422
Si Si3 0.356225 0.675569 0.640040
Si Si4 0.963346 0.173847 0.642333
Si Si5 0.674895 0.174752 0.892694
Si Si6 0.584592 0.170666 0.551682
Si Si7 0.707000 0.175210 0.278100
Si Si8 0.806049 0.673194 0.442416
O O1 0.243254 0.500000 0.110593
O O2 0.285282 0.243644 0.142668
O O3 0.204404 0.287779 0.176014
O O4 0.190253 0.277201 0.000899
O O5 0.059882 0.500000 0.732804
O O6 0.116425 0.268607 0.826090
O O7 0.076530 0.275884 0.640953
O O8 0.015459 0.246486 0.723659
O O9 0.346912 0.500000 0.633469
O O10 0.415581 0.716102 0.665166
O O11 0.343626 0.747653 0.721199
O O12 0.316261 0.749208 0.540942
O O13 0.952926 0.234449 0.539315
O O14 0.971323 0.000000 0.642522
O O15 0.677691 0.000000 0.881013
O O16 0.644758 0.196035 0.578520
O O17 0.568291 0.000000 0.525803
O O18 0.758505 0.246156 0.359100
O O19 0.706531 0.000000 0.295022
O O20 0.793396 0.500000 0.446983
#
# Coordination Sequence:
#
# PCOD8086568 Si02
#       8
#     8   8   8   8   8   8   8   8
#     4   9  19  34  52  76 104 129 156 196 241 286
#     4  10  19  31  50  73  97 127 162 197 234 284
#     4  10  21  36  50  67  95 130 167 205 243 284
#     4  10  21  34  48  68  95 127 163 203 242 280
#     4   9  18  34  54  76 102 130 159 192 237 291
#     4   9  18  31  47  70  99 130 162 193 230 282
#     4  11  21  32  49  73  99 128 163 201 242 287
#     4  10  19  32  50  72 100 132 164 198 238 286
#
# _framework density 17.627144000000001
#
# number of rings (size 3 to 8) (size 9 to 14) (size 15 to 20)
#    0.000    2.250    0.000    3.000    0.000    6.500 
#    0.000    0.000    0.000    0.750    0.000    5.250 
#    0.000    0.000    0.000    0.000    0.000    0.000 
#
# Total GULP energy -396878.249973 kJ/mol
# GULP energy per Si atom -12402.445312 kJ/mol
# Density = 1.758702 g / cm^3
# Si number density = 17.627144 Si / 1000 Ang^3
#
#
#
# Elastic Constant Matrix: (Units=GPa)
#
#
# Indices 1 2 3 4 5 6 
#
# 1 104.8479 50.9336 73.8483 0.0000 8.7311 0.0000
# 2 50.9336 66.3609 45.5031 0.0000 -0.9516 0.0000
# 3 73.8483 45.5031 97.0515 0.0000 5.8317 0.0000
# 4 0.0000 0.0000 0.0000 20.4716 0.0000 2.3878
# 5 8.7311 -0.9516 5.8317 0.0000 29.6430 0.0000
# 6 0.0000 0.0000 0.0000 2.3878 0.0000 31.7021
#
#
#
# Elastic Compliance Matrix: (Units=1/GPa)
#
#
# Indices 1 2 3 4 5 6 
#
# 1 0.024007 -0.009077 -0.013731 0.000000 -0.004661 0.000000
# 2 -0.009077 0.025872 -0.005499 0.000000 0.004586 0.000000
# 3 -0.013731 -0.005499 0.023374 0.000000 -0.000731 0.000000
# 4 0.000000 0.000000 0.000000 0.049281 0.000000 -0.003712
# 5 -0.004661 0.004586 -0.000731 0.000000 0.035399 0.000000
# 6 0.000000 0.000000 0.000000 -0.003712 0.000000 0.031823
#
#
# Mechanical properties :
#
#
# Convention : Reuss Voigt Hill
#
# Bulk Modulus (GPa) = 60.10099 67.64783 63.87441
# Shear Modulus (GPa) = 19.84776 22.89502 21.37139
#
# Velocity S-wave (km/s) = 3.35920 3.60787 3.48575
# Velocity P-wave (km/s) = 7.01536 7.47101 7.24677
#
# Compressibility (1/GPa) = 0.01663866
#
# Stress axis : x y z
#
# Youngs Moduli (GPa) = 41.65494 38.65109 42.78200
#
# Poissons Ratio (x) = 0.35084 0.58745
# Poissons Ratio (y) = 0.37811 0.23526
# Poissons Ratio (z) = 0.57197 0.21254
#
# Static dielectric constant tensor:
#      x y z
#    x 3.440860 0.000000 -0.043540 
#    y 0.000000 3.287600 0.000000 
#    z -0.043540 0.000000 3.301200 
# 
# 
# High freq. dielectric constant tensor:
#      x y z
#    x 1.685620 0.000000 0.000610 
#    y 0.000000 1.686060 0.000000 
#    z 0.000610 0.000000 1.661670 
# 
# From -- ./inp_files/249132.got.cif
#   From: 2010.06.25/outbox.cif.g09.slc.cpg/sg12_125_cif.got.tgz:249132.got - 2010.06.28 00:19:55.
