data_PCOD8086772
_publ_section_title
;
Structure prediction by ZEFSAII (Michael W. Deem and Ramdas Pophale) SiO2 
 PCOD8086772
Probable space group: C 2/M
;
_chemical_formula_sum "Si O2"
_cell_formula_units_Z 64
_cell_length_a 25.254727
_cell_length_b 23.815395
_cell_length_c 14.575078
_cell_angle_alpha 90.000000
_cell_angle_beta 155.712175
_cell_angle_gamma 90.000000
_cell_volume 3605.719195
_symmetry_space_group_name_H-M "C 2/M"
_symmetry_group_IT_number 12
_symmetry_cell_setting 'monoclinic'
loop_
_space_group_symop_operation_xyz
x,y,z
-x,y,-z
-x,-y,-z
x,-y,z
1/2+x,1/2+y,z
1/2-x,1/2+y,-z
1/2-x,1/2-y,-z
1/2+x,1/2-y,z
loop_
_atom_site_type_symbol
_atom_site_label
_atom_site_fract_x
_atom_site_fract_y
_atom_site_fract_z
Si Si1 0.121194 0.061334 0.256684
Si Si2 0.464406 0.605976 0.343761
Si Si3 0.280689 0.356467 0.729732
Si Si4 0.921342 0.936799 0.083489
Si Si5 0.852534 0.801578 0.416787
Si Si6 0.743298 0.695791 0.929199
Si Si7 0.406829 0.236279 0.934628
Si Si8 0.988419 0.299109 0.708057
O O1 0.208864 0.110174 0.351076
O O2 0.063292 0.078219 0.265437
O O3 0.192046 0.000000 0.373859
O O4 0.000000 0.055417 0.000000
O O5 0.500000 0.578175 0.500000
O O6 0.423436 0.563796 0.198268
O O7 0.591780 0.635973 0.504569
O O8 0.347129 0.648625 0.171445
O O9 0.132422 0.339109 0.501029
O O10 0.314660 0.395396 0.871141
O O11 0.375373 0.302834 0.883570
O O12 0.884083 0.000000 0.995422
O O13 0.808558 0.780100 0.248233
O O14 0.967474 0.761402 0.629040
O O15 0.728494 0.797832 0.288314
O O16 0.750000 0.750000 0.000000
O O17 0.887362 0.671052 0.141552
O O18 0.487285 0.214969 0.148045
O O19 0.500000 0.219892 0.000000
#
# Coordination Sequence:
#
# PCOD8086772 Si02
#       8
#     8   8   8   8   8   8   8   8
#     4   8  15  30  51  74  97 124 164 210 253 296
#     4  10  20  34  52  73 100 134 171 215 256 292
#     4  10  19  31  51  74 104 135 165 206 257 308
#     4  10  20  34  54  78 100 128 171 219 259 300
#     4   9  19  31  46  71  97 133 172 204 237 293
#     4  10  19  32  49  68 100 134 173 211 241 291
#     4  10  20  31  45  72 111 141 162 196 244 310
#     4  10  20  31  46  73 102 135 176 199 248 298
#
# _framework density 17.749579000000001
#
# number of rings (size 3 to 8) (size 9 to 14) (size 15 to 20)
#    0.000    2.375    1.250    3.000    3.500    3.250 
#    0.000    0.000    0.000    2.250    0.000    5.250 
#    0.000   20.500    0.000    0.000    0.000    0.000 
#
# Total GULP energy -396462.402291 kJ/mol
# GULP energy per Si atom -12389.450072 kJ/mol
# Density = 1.770918 g / cm^3
# Si number density = 17.749579 Si / 1000 Ang^3
#
#
#
# Elastic Constant Matrix: (Units=GPa)
#
#
# Indices 1 2 3 4 5 6 
#
# 1 106.5574 30.4298 37.9089 0.0000 1.1090 0.0000
# 2 30.4298 51.6994 22.2050 0.0000 3.8517 0.0000
# 3 37.9089 22.2050 75.1387 0.0000 2.2547 0.0000
# 4 0.0000 0.0000 0.0000 7.9602 0.0000 -5.6662
# 5 1.1090 3.8517 2.2547 0.0000 23.4106 0.0000
# 6 0.0000 0.0000 0.0000 -5.6662 0.0000 20.9901
#
#
#
# Elastic Compliance Matrix: (Units=1/GPa)
#
#
# Indices 1 2 3 4 5 6 
#
# 1 0.012633 -0.005435 -0.004790 0.000000 0.000757 0.000000
# 2 -0.005435 0.024708 -0.004458 0.000000 -0.003378 0.000000
# 3 -0.004790 -0.004458 0.017064 0.000000 -0.000683 0.000000
# 4 0.000000 0.000000 0.000000 0.155506 0.000000 0.041979
# 5 0.000757 -0.003378 -0.000683 0.000000 0.043301 0.000000
# 6 0.000000 0.000000 0.000000 0.041979 0.000000 0.058974
#
#
# Mechanical properties :
#
#
# Convention : Reuss Voigt Hill
#
# Bulk Modulus (GPa) = 39.93959 46.05366 42.99663
# Shear Modulus (GPa) = 14.28986 19.99562 17.14274
#
# Velocity S-wave (km/s) = 2.84047 3.36004 3.11112
# Velocity P-wave (km/s) = 5.77133 6.40748 6.09771
#
# Compressibility (1/GPa) = 0.02503781
#
# Stress axis : x y z
#
# Youngs Moduli (GPa) = 79.15857 40.47277 58.60445
#
# Poissons Ratio (x) = 0.21995 0.28073
# Poissons Ratio (y) = 0.43019 0.26129
# Poissons Ratio (z) = 0.37919 0.18045
#
# Static dielectric constant tensor:
#      x y z
#    x 3.721750 0.000000 0.070680 
#    y 0.000000 3.196040 0.000000 
#    z 0.070680 0.000000 3.049680 
# 
# 
# High freq. dielectric constant tensor:
#      x y z
#    x 1.698390 0.000000 -0.005390 
#    y 0.000000 1.658830 0.000000 
#    z -0.005390 0.000000 1.672320 
# 
# From -- ./inp_files/170634.got.cif
#   From: 2010.06.25/outbox.cif.g09.slc.cpg/sg12_86_cif.got.tgz:170634.got - 2010.06.28 00:19:55.
