data_PCOD8086241
_publ_section_title
;
Structure prediction by ZEFSAII (Michael W. Deem and Ramdas Pophale) SiO2 
 PCOD8086241
Probable space group: C 2/M
;
_chemical_formula_sum "Si O2"
_cell_formula_units_Z 64
_cell_length_a 20.722868
_cell_length_b 9.841433
_cell_length_c 20.803747
_cell_angle_alpha 90.000000
_cell_angle_beta 60.774337
_cell_angle_gamma 90.000000
_cell_volume 3702.682469
_symmetry_space_group_name_H-M "C 2/M"
_symmetry_group_IT_number 12
_symmetry_cell_setting 'monoclinic'
loop_
_space_group_symop_operation_xyz
x,y,z
-x,y,-z
-x,-y,-z
x,-y,z
1/2+x,1/2+y,z
1/2-x,1/2+y,-z
1/2-x,1/2-y,-z
1/2+x,1/2-y,z
loop_
_atom_site_type_symbol
_atom_site_label
_atom_site_fract_x
_atom_site_fract_y
_atom_site_fract_z
Si Si1 0.407513 0.351552 0.116883
Si Si2 0.980803 0.342504 0.582997
Si Si3 0.159035 0.843793 0.323099
Si Si4 0.861162 0.656155 0.446633
Si Si5 0.429781 0.650832 0.954541
Si Si6 0.305466 0.844611 0.008984
Si Si7 0.716065 0.847888 0.830034
Si Si8 0.733873 0.345405 0.417913
O O1 0.378471 0.500000 0.151433
O O2 0.486956 0.322146 0.110366
O O3 0.347252 0.244962 0.170579
O O4 0.421446 0.346712 0.034675
O O5 0.957990 0.500000 0.600651
O O6 0.912182 0.251602 0.638596
O O7 0.000000 0.307001 0.500000
O O8 0.051238 0.308216 0.595086
O O9 0.202857 0.808376 0.236048
O O10 0.219908 0.818061 0.349556
O O11 0.131511 0.000000 0.337489
O O12 0.852345 0.500000 0.472861
O O13 0.819990 0.680995 0.397578
O O14 0.821253 0.747177 0.518480
O O15 0.403657 0.500000 0.942751
O O16 0.383708 0.778617 0.951255
O O17 0.284421 0.833930 0.093519
O O18 0.303979 0.000000 0.985521
O O19 0.250000 0.750000 0.000000
O O20 0.696651 0.000000 0.817571
O O21 0.712549 0.500000 0.446157
#
# Coordination Sequence:
#
# PCOD8086241 Si02
#       8
#     8   8   8   8   8   8   8   8
#     4   8  14  26  46  70  93 117 148 186 230 279
#     4  10  19  31  48  72 100 131 166 208 250 288
#     4  10  20  33  50  72  98 130 168 205 249 299
#     4   9  17  30  47  69  97 124 157 201 247 287
#     4   8  14  26  45  70  95 117 145 187 233 277
#     4  10  19  31  49  71  95 126 163 201 244 291
#     4   9  19  33  48  69  97 129 159 197 246 293
#     4   9  17  29  48  71  93 123 159 199 243 290
#
# _framework density 17.284765
#
# number of rings (size 3 to 8) (size 9 to 14) (size 15 to 20)
#    0.000    2.875    1.250    1.125    0.000    2.250 
#    0.000    2.500    2.750    0.000    0.000    0.000 
#    0.000    0.000    0.000    0.000    0.000    0.000 
#
# Total GULP energy -396458.784301 kJ/mol
# GULP energy per Si atom -12389.337009 kJ/mol
# Density = 1.724542 g / cm^3
# Si number density = 17.284765 Si / 1000 Ang^3
#
#
#
# Elastic Constant Matrix: (Units=GPa)
#
#
# Indices 1 2 3 4 5 6 
#
# 1 104.8900 66.3229 32.5580 0.0000 -27.0014 0.0004
# 2 66.3229 123.2970 51.5125 0.0000 -28.3018 0.0008
# 3 32.5580 51.5125 60.2574 0.0000 -27.1704 0.0000
# 4 0.0000 0.0000 0.0000 23.5996 0.0000 -10.2417
# 5 -27.0014 -28.3018 -27.1704 0.0000 22.7944 0.0000
# 6 0.0004 0.0008 0.0000 -10.2417 0.0000 30.5749
#
#
#
# Elastic Compliance Matrix: (Units=1/GPa)
#
#
# Indices 1 2 3 4 5 6 
#
# 1 0.016921 -0.007172 0.004348 0.000000 0.016322 0.000000
# 2 -0.007172 0.016058 -0.010146 0.000000 -0.000652 0.000000
# 3 0.004348 -0.010146 0.042293 0.000000 0.042965 0.000000
# 4 0.000000 0.000000 0.000000 0.049581 0.000000 0.016608
# 5 0.016322 -0.000652 0.042965 0.000000 0.113607 0.000000
# 6 0.000000 0.000000 0.000000 0.016608 0.000000 0.038270
#
#
# Mechanical properties :
#
#
# Convention : Reuss Voigt Hill
#
# Bulk Modulus (GPa) = 20.27121 65.47013 42.87067
# Shear Modulus (GPa) = 15.66839 24.59719 20.13279
#
# Velocity S-wave (km/s) = 3.01406 3.77643 3.41658
# Velocity P-wave (km/s) = 4.88528 7.54817 6.35771
#
# Compressibility (1/GPa) = 0.04933104
#
# Stress axis : x y z
#
# Youngs Moduli (GPa) = 59.09952 62.27544 23.64449
#
# Poissons Ratio (x) = 0.44664 -0.10281
# Poissons Ratio (y) = 0.42386 0.23991
# Poissons Ratio (z) = -0.25697 0.63187
#
# Static dielectric constant tensor:
#      x y z
#    x 3.735130 0.000000 0.011870 
#    y 0.000000 3.281680 0.000000 
#    z 0.011870 0.000000 2.737750 
# 
# 
# High freq. dielectric constant tensor:
#      x y z
#    x 1.666980 0.000000 -0.016790 
#    y 0.000000 1.678070 0.000000 
#    z -0.016790 0.000000 1.626570 
# 
# From -- ./inp_files/345943.got.cif
#   From: 2010.06.25/outbox.cif.g09.slc.cpg/sg12_173_cif.got.tgz:345943.got - 2010.06.28 00:19:55.
