data_PCOD8086031
_publ_section_title
;
Structure prediction by ZEFSAII (Michael W. Deem and Ramdas Pophale) SiO2 
 PCOD8086031
Probable space group: C 2/M
;
_chemical_formula_sum "Si O2"
_cell_formula_units_Z 56
_cell_length_a 18.855827
_cell_length_b 8.973545
_cell_length_c 18.153327
_cell_angle_alpha 90.000000
_cell_angle_beta 90.823934
_cell_angle_gamma 90.000000
_cell_volume 3071.290909
_symmetry_space_group_name_H-M "C 2/M"
_symmetry_group_IT_number 12
_symmetry_cell_setting 'monoclinic'
loop_
_space_group_symop_operation_xyz
x,y,z
-x,y,-z
-x,-y,-z
x,-y,z
1/2+x,1/2+y,z
1/2-x,1/2+y,-z
1/2-x,1/2-y,-z
1/2+x,1/2-y,z
loop_
_atom_site_type_symbol
_atom_site_label
_atom_site_fract_x
_atom_site_fract_y
_atom_site_fract_z
Si Si1 0.795139 0.672541 0.741873
Si Si2 0.659783 0.829768 0.570760
Si Si3 0.305147 0.828456 0.582200
Si Si4 0.107648 0.674992 0.128414
Si Si5 0.135371 0.824088 0.712624
Si Si6 0.917305 0.168250 0.016144
Si Si7 0.554212 0.174066 0.839667
O O1 0.791208 0.500000 0.760408
O O2 0.837003 0.698970 0.664735
O O3 0.839134 0.745335 0.809623
O O4 0.714556 0.733325 0.734987
O O5 0.637422 0.805904 0.483583
O O6 0.742752 0.790611 0.572174
O O7 0.617901 0.726137 0.628139
O O8 0.648068 0.000000 0.594836
O O9 0.275629 0.000000 0.578687
O O10 0.117944 0.500000 0.116313
O O11 0.028573 0.710152 0.154316
O O12 0.124924 0.754966 0.051435
O O13 0.078991 0.747528 0.764489
O O14 0.127824 0.000000 0.718416
O O15 0.902129 0.255781 0.091521
O O16 0.889883 0.000000 0.025051
O O17 0.000000 0.174413 0.000000
O O18 0.570110 0.000000 0.838535
#
# Coordination Sequence:
#
# PCOD8086031 Si02
#       7
#     8   8   8   8   8   8   8
#     4   8  15  29  48  69  92 119 150 185 227 269
#     4   9  15  24  41  65  91 118 152 190 224 262
#     4   8  14  25  42  64  90 120 152 186 224 266
#     4   9  17  31  51  71  91 116 149 189 227 265
#     4  10  19  31  47  67  94 124 152 185 227 272
#     4   9  17  30  48  69  92 118 150 185 221 266
#     4  10  19  31  49  71  92 116 150 189 227 267
#
# _framework density 18.233374999999999
#
# number of rings (size 3 to 8) (size 9 to 14) (size 15 to 20)
#    0.000    3.000    0.000    2.571    0.000    2.857 
#    0.000    4.286    0.000    0.857    0.000    6.000 
#    0.000    0.000    0.000    0.000    0.000    0.000 
#
# Total GULP energy -346919.889463 kJ/mol
# GULP energy per Si atom -12389.996052 kJ/mol
# Density = 1.819187 g / cm^3
# Si number density = 18.233375 Si / 1000 Ang^3
#
#
#
# Elastic Constant Matrix: (Units=GPa)
#
#
# Indices 1 2 3 4 5 6 
#
# 1 13.9595 11.9891 -2.5127 0.0000 -2.8119 0.0000
# 2 11.9891 62.3051 14.9818 0.0000 -10.8400 0.0000
# 3 -2.5127 14.9818 48.5692 0.0000 -14.4870 0.0000
# 4 0.0000 0.0000 0.0000 30.6720 0.0000 -6.7746
# 5 -2.8119 -10.8400 -14.4870 0.0000 27.1544 0.0000
# 6 0.0000 0.0000 0.0000 -6.7746 0.0000 14.4273
#
#
#
# Elastic Compliance Matrix: (Units=1/GPa)
#
#
# Indices 1 2 3 4 5 6 
#
# 1 0.092628 -0.019502 0.013494 0.000000 0.009006 0.000000
# 2 -0.019502 0.021993 -0.006870 0.000000 0.003095 0.000000
# 3 0.013494 -0.006870 0.027359 0.000000 0.013251 0.000000
# 4 0.000000 0.000000 0.000000 0.036376 0.000000 0.017081
# 5 0.009006 0.003095 0.013251 0.000000 0.046064 0.000000
# 6 0.000000 0.000000 0.000000 0.017081 0.000000 0.077334
#
#
# Mechanical properties :
#
#
# Convention : Reuss Voigt Hill
#
# Bulk Modulus (GPa) = 8.60407 19.30558 13.95482
# Shear Modulus (GPa) = 13.65189 21.14245 17.39717
#
# Velocity S-wave (km/s) = 2.73926 3.40891 3.09226
# Velocity P-wave (km/s) = 3.83847 5.10933 4.51880
#
# Compressibility (1/GPa) = 0.11622403
#
# Stress axis : x y z
#
# Youngs Moduli (GPa) = 10.79592 45.46884 36.55134
#
# Poissons Ratio (x) = 0.88672 -0.49322
# Poissons Ratio (y) = 0.21054 0.25110
# Poissons Ratio (z) = -0.14568 0.31236
#
# Static dielectric constant tensor:
#      x y z
#    x 2.908910 0.000000 0.062430 
#    y 0.000000 3.296730 0.000000 
#    z 0.062430 0.000000 3.904860 
# 
# 
# High freq. dielectric constant tensor:
#      x y z
#    x 1.638910 0.000000 -0.007630 
#    y 0.000000 1.701030 0.000000 
#    z -0.007630 0.000000 1.733040 
# 
# From -- ./inp_files/280299.got.cif
#   From: 2010.06.25/outbox.cif.g09.slc.cpg/sg12_141_cif.got.tgz:280299.got - 2010.06.28 00:19:55.
