data_PCOD8086884
_publ_section_title
;
Structure prediction by ZEFSAII (Michael W. Deem and Ramdas Pophale) SiO2 
 PCOD8086884
Probable space group: C 2/M
;
_chemical_formula_sum "Si O2"
_cell_formula_units_Z 64
_cell_length_a 27.420687
_cell_length_b 15.193539
_cell_length_c 12.830028
_cell_angle_alpha 90.000000
_cell_angle_beta 142.967150
_cell_angle_gamma 90.000000
_cell_volume 3219.275474
_symmetry_space_group_name_H-M "C 2/M"
_symmetry_group_IT_number 12
_symmetry_cell_setting 'monoclinic'
loop_
_space_group_symop_operation_xyz
x,y,z
-x,y,-z
-x,-y,-z
x,-y,z
1/2+x,1/2+y,z
1/2-x,1/2+y,-z
1/2-x,1/2-y,-z
1/2+x,1/2-y,z
loop_
_atom_site_type_symbol
_atom_site_label
_atom_site_fract_x
_atom_site_fract_y
_atom_site_fract_z
Si Si1 0.759318 0.598935 0.266773
Si Si2 0.555154 0.400727 0.237974
Si Si3 0.667574 0.903640 0.266076
Si Si4 0.732568 0.768306 0.089299
Si Si5 0.607367 0.343275 0.110757
Si Si6 0.412382 0.102936 0.663396
Si Si7 0.186199 0.104334 0.617984
Si Si8 0.085033 0.329943 0.951729
O O1 0.756451 0.500000 0.214635
O O2 0.737282 0.670582 0.143384
O O3 0.692987 0.607394 0.245355
O O4 0.847955 0.618365 0.462674
O O5 0.579423 0.500000 0.251520
O O6 0.585465 0.341154 0.194683
O O7 0.596479 0.374937 0.419094
O O8 0.458175 0.390899 0.077513
O O9 0.623339 0.857072 0.289106
O O10 0.752570 0.862927 0.369639
O O11 0.687538 0.000000 0.343940
O O12 0.610713 0.913885 0.065467
O O13 0.797615 0.836005 0.251906
O O14 0.750000 0.750000 0.000000
O O15 0.642130 0.811110 0.948600
O O16 0.609699 0.242911 0.079719
O O17 0.490785 0.160916 0.762303
O O18 0.436243 0.000000 0.713710
O O19 0.196932 0.000000 0.663163
#
# Coordination Sequence:
#
# PCOD8086884 Si02
#       8
#     8   8   8   8   8   8   8   8
#     4  10  21  38  59  81 111 150 191 235 287 349
#     4  10  19  31  51  79 114 152 186 225 273 331
#     4   9  17  30  50  79 120 156 180 213 269 348
#     4  10  23  42  60  80 107 145 196 247 299 342
#     4  10  20  31  51  81 116 156 189 223 273 335
#     4  10  20  33  55  85 120 156 184 224 282 350
#     4   9  19  35  57  86 116 151 192 239 291 344
#     4  10  21  33  51  80 110 148 189 229 277 332
#
# _framework density 19.880248999999999
#
# number of rings (size 3 to 8) (size 9 to 14) (size 15 to 20)
#    0.000    2.250    0.000    3.000    5.250    4.000 
#    0.000    4.375    0.000    1.500    0.000    4.375 
#    0.000    0.000    0.000    0.000    0.000    0.000 
#
# Total GULP energy -396456.987441 kJ/mol
# GULP energy per Si atom -12389.280858 kJ/mol
# Density = 1.983500 g / cm^3
# Si number density = 19.880249 Si / 1000 Ang^3
#
#
#
# Elastic Constant Matrix: (Units=GPa)
#
#
# Indices 1 2 3 4 5 6 
#
# 1 84.8034 25.5808 39.1237 0.0000 -9.7900 0.0000
# 2 25.5808 72.1209 32.9113 0.0000 -2.3079 0.0000
# 3 39.1237 32.9113 100.4520 0.0000 11.9020 0.0000
# 4 0.0000 0.0000 0.0000 29.6654 0.0000 1.7066
# 5 -9.7900 -2.3079 11.9020 0.0000 28.1961 0.0000
# 6 0.0000 0.0000 0.0000 1.7066 0.0000 20.8674
#
#
#
# Elastic Compliance Matrix: (Units=1/GPa)
#
#
# Indices 1 2 3 4 5 6 
#
# 1 0.016580 -0.002607 -0.006589 0.000000 0.008325 0.000000
# 2 -0.002607 0.017105 -0.004892 0.000000 0.002560 0.000000
# 3 -0.006589 -0.004892 0.015203 0.000000 -0.009106 0.000000
# 4 0.000000 0.000000 0.000000 0.033869 0.000000 -0.002770
# 5 0.008325 0.002560 -0.009106 0.000000 0.042409 0.000000
# 6 0.000000 0.000000 0.000000 -0.002770 0.000000 0.048148
#
#
# Mechanical properties :
#
#
# Convention : Reuss Voigt Hill
#
# Bulk Modulus (GPa) = 48.28566 50.28977 49.28771
# Shear Modulus (GPa) = 23.99303 26.39649 25.19476
#
# Velocity S-wave (km/s) = 3.47778 3.64782 3.56381
# Velocity P-wave (km/s) = 6.36142 6.56455 6.46378
#
# Compressibility (1/GPa) = 0.02071008
#
# Stress axis : x y z
#
# Youngs Moduli (GPa) = 60.31545 58.46382 65.77622
#
# Poissons Ratio (x) = 0.15243 0.43343
# Poissons Ratio (y) = 0.15726 0.32177
# Poissons Ratio (z) = 0.39745 0.28600
#
# Static dielectric constant tensor:
#      x y z
#    x 3.361400 0.000000 0.332930 
#    y 0.000000 3.748080 0.000000 
#    z 0.332930 0.000000 3.617680 
# 
# 
# High freq. dielectric constant tensor:
#      x y z
#    x 1.730650 0.000000 0.028300 
#    y 0.000000 1.785770 0.000000 
#    z 0.028300 0.000000 1.769560 
# 
# From -- ./inp_files/183833.got.cif
#   From: 2010.06.25/outbox.cif.g09.slc.cpg/sg12_92_cif.got.tgz:183833.got - 2010.06.28 00:19:55.
