data_PCOD8086846
_publ_section_title
;
Structure prediction by ZEFSAII (Michael W. Deem and Ramdas Pophale) SiO2 
 PCOD8086846
Probable space group: C 2/M
;
_chemical_formula_sum "Si O2"
_cell_formula_units_Z 40
_cell_length_a 18.893652
_cell_length_b 8.871909
_cell_length_c 27.735231
_cell_angle_alpha 90.000000
_cell_angle_beta 149.055118
_cell_angle_gamma 90.000000
_cell_volume 2390.606196
_symmetry_space_group_name_H-M "C 2/M"
_symmetry_group_IT_number 12
_symmetry_cell_setting 'monoclinic'
loop_
_space_group_symop_operation_xyz
x,y,z
-x,y,-z
-x,-y,-z
x,-y,z
1/2+x,1/2+y,z
1/2-x,1/2+y,-z
1/2-x,1/2-y,-z
1/2+x,1/2-y,z
loop_
_atom_site_type_symbol
_atom_site_label
_atom_site_fract_x
_atom_site_fract_y
_atom_site_fract_z
Si Si1 0.612624 0.671747 0.601772
Si Si2 0.254954 0.323324 0.766143
Si Si3 0.203702 0.677382 0.923337
Si Si4 0.089389 0.669380 0.219156
Si Si5 0.158220 0.677893 0.087724
O O1 0.500000 0.744960 0.500000
O O2 0.569587 0.500000 0.588492
O O3 0.622214 0.764332 0.657774
O O4 0.765719 0.678032 0.666443
O O5 0.246488 0.500000 0.768086
O O6 0.395268 0.276877 0.819162
O O7 0.252953 0.246644 0.816986
O O8 0.235225 0.500000 0.940815
O O9 0.282931 0.757916 0.927138
O O10 0.039488 0.712401 0.822586
O O11 0.250000 0.750000 0.000000
O O12 0.067654 0.500000 0.186036
O O13 0.174975 0.500000 0.097942
O O14 0.000000 0.728041 0.000000
#
# Coordination Sequence:
#
# PCOD8086846 Si02
#       5
#     8   8   8   8   8
#     4   8  15  31  55  78 103 136 171 208 255 307
#     4  10  19  31  51  78 106 132 168 214 255 303
#     4  11  22  35  52  74 104 136 172 214 254 306
#     4   8  17  33  50  73 103 133 167 206 252 302
#     4  11  23  37  52  71 101 139 178 217 256 304
#
# _framework density 16.732157999999998
#
# number of rings (size 3 to 8) (size 9 to 14) (size 15 to 20)
#    1.200    1.200    0.000    3.600    0.000    8.400 
#    0.000    0.000    0.000    1.200    0.000    0.000 
#    0.000    0.000    0.000    0.000    0.000    0.000 
#
# Total GULP energy -247774.941172 kJ/mol
# GULP energy per Si atom -12388.747059 kJ/mol
# Density = 1.669408 g / cm^3
# Si number density = 16.732158 Si / 1000 Ang^3
#
#
#
# Elastic Constant Matrix: (Units=GPa)
#
#
# Indices 1 2 3 4 5 6 
#
# 1 115.5286 48.2838 60.4138 0.0000 -10.2746 0.0000
# 2 48.2838 88.2880 47.8026 0.0000 -8.1817 0.0001
# 3 60.4138 47.8026 119.7610 0.0001 -12.2623 0.0000
# 4 0.0000 0.0000 0.0001 18.4949 0.0000 -4.5901
# 5 -10.2746 -8.1817 -12.2623 0.0000 25.4092 0.0000
# 6 0.0000 0.0001 0.0000 -4.5901 0.0000 27.5163
#
#
#
# Elastic Compliance Matrix: (Units=1/GPa)
#
#
# Indices 1 2 3 4 5 6 
#
# 1 0.013115 -0.004504 -0.004653 0.000000 0.001607 0.000000
# 2 -0.004504 0.016090 -0.004004 0.000000 0.001427 0.000000
# 3 -0.004653 -0.004004 0.012593 0.000000 0.002906 0.000000
# 4 0.000000 0.000000 0.000000 0.056404 0.000000 0.009409
# 5 0.001607 0.001427 0.002906 0.000000 0.041868 0.000000
# 6 0.000000 0.000000 0.000000 0.009409 0.000000 0.037912
#
#
# Mechanical properties :
#
#
# Convention : Reuss Voigt Hill
#
# Bulk Modulus (GPa) = 64.62053 70.73085 67.67569
# Shear Modulus (GPa) = 23.87065 25.42260 24.64662
#
# Velocity S-wave (km/s) = 3.78118 3.90216 3.84214
# Velocity P-wave (km/s) = 7.60049 7.91623 7.75996
#
# Compressibility (1/GPa) = 0.01547496
#
# Stress axis : x y z
#
# Youngs Moduli (GPa) = 76.25143 62.15071 79.40742
#
# Poissons Ratio (x) = 0.27991 0.36952
# Poissons Ratio (y) = 0.34341 0.31797
# Poissons Ratio (z) = 0.35483 0.24887
#
# Static dielectric constant tensor:
#      x y z
#    x 3.001060 0.000000 0.106590 
#    y 0.000000 3.160440 0.000000 
#    z 0.106590 0.000000 3.234810 
# 
# 
# High freq. dielectric constant tensor:
#      x y z
#    x 1.619340 0.000000 0.000580 
#    y 0.000000 1.651800 0.000000 
#    z 0.000580 0.000000 1.636500 
# 
# From -- ./inp_files/380084.got.cif
#   From: 2010.06.25/outbox.cif.g09.slc.cpg/sg12_191_cif.got.tgz:380084.got - 2010.06.28 00:19:55.
