data_PCOD8086767
_publ_section_title
;
Structure prediction by ZEFSAII (Michael W. Deem and Ramdas Pophale) SiO2 
 PCOD8086767
Probable space group: C 2/M
;
_chemical_formula_sum "Si O2"
_cell_formula_units_Z 48
_cell_length_a 17.070421
_cell_length_b 13.182414
_cell_length_c 14.206431
_cell_angle_alpha 90.000000
_cell_angle_beta 126.182595
_cell_angle_gamma 90.000000
_cell_volume 2580.315829
_symmetry_space_group_name_H-M "C 2/M"
_symmetry_group_IT_number 12
_symmetry_cell_setting 'monoclinic'
loop_
_space_group_symop_operation_xyz
x,y,z
-x,y,-z
-x,-y,-z
x,-y,z
1/2+x,1/2+y,z
1/2-x,1/2+y,-z
1/2-x,1/2-y,-z
1/2+x,1/2-y,z
loop_
_atom_site_type_symbol
_atom_site_label
_atom_site_fract_x
_atom_site_fract_y
_atom_site_fract_z
Si Si1 0.577282 0.117775 0.480590
Si Si2 0.973809 0.616295 0.875053
Si Si3 0.074118 0.882729 0.637436
Si Si4 0.971989 0.757398 0.718567
Si Si5 0.784421 0.119189 0.578534
Si Si6 0.744438 0.117117 0.340938
O O1 0.500000 0.166576 0.500000
O O2 0.560023 0.162422 0.366267
O O3 0.692248 0.136042 0.584182
O O4 0.554436 0.000000 0.455248
O O5 0.004240 0.500000 0.872299
O O6 0.024542 0.702102 0.845075
O O7 0.860068 0.634431 0.777375
O O8 0.000000 0.642085 0.000000
O O9 0.176417 0.836714 0.674859
O O10 0.000000 0.863514 0.500000
O O11 0.045996 0.827194 0.713989
O O12 0.080036 0.000000 0.668881
O O13 0.878155 0.822665 0.685275
O O14 0.758375 0.164223 0.455446
O O15 0.809127 0.000000 0.589577
O O16 0.769853 0.000000 0.370202
#
# Coordination Sequence:
#
# PCOD8086767 Si02
#       6
#     8   8   8   8   8   8
#     4  10  21  32  43  70 111 143 166 200 256 323
#     4  10  22  39  56  73  97 139 192 230 255 294
#     4  10  19  31  50  83 117 137 162 208 268 326
#     4  12  20  30  54  79 106 134 172 216 263 315
#     4  10  19  32  51  78 108 137 168 208 264 322
#     4   9  17  33  54  75 105 139 173 214 258 307
#
# _framework density 18.602374999999999
#
# number of rings (size 3 to 8) (size 9 to 14) (size 15 to 20)
#    0.000    1.833    3.333    2.000    0.000    0.000 
#    0.000    0.833    0.000    2.000    0.000    0.000 
#    0.000    0.000    0.000    0.000    0.000    0.000 
#
# Total GULP energy -297415.801742 kJ/mol
# GULP energy per Si atom -12392.325073 kJ/mol
# Density = 1.856003 g / cm^3
# Si number density = 18.602375 Si / 1000 Ang^3
#
#
#
# Elastic Constant Matrix: (Units=GPa)
#
#
# Indices 1 2 3 4 5 6 
#
# 1 105.1119 44.2856 23.8832 0.0000 -23.6482 0.0000
# 2 44.2856 71.7547 47.0890 0.0000 -19.6599 0.0000
# 3 23.8832 47.0890 89.3491 0.0000 -14.9326 0.0000
# 4 0.0000 0.0000 0.0000 27.9382 0.0000 -10.5858
# 5 -23.6482 -19.6599 -14.9326 0.0000 19.8529 0.0000
# 6 0.0000 0.0000 0.0000 -10.5858 0.0000 25.3677
#
#
#
# Elastic Compliance Matrix: (Units=1/GPa)
#
#
# Indices 1 2 3 4 5 6 
#
# 1 0.014745 -0.006949 0.001723 0.000000 0.011978 0.000000
# 2 -0.006949 0.028963 -0.011434 0.000000 0.011804 0.000000
# 3 0.001723 -0.011434 0.017395 0.000000 0.003813 0.000000
# 4 0.000000 0.000000 0.000000 0.042516 0.000000 0.017742
# 5 0.011978 0.011804 0.003813 0.000000 0.079195 0.000000
# 6 0.000000 0.000000 0.000000 0.017742 0.000000 0.046824
#
#
# Mechanical properties :
#
#
# Convention : Reuss Voigt Hill
#
# Bulk Modulus (GPa) = 35.99429 55.19237 45.59333
# Shear Modulus (GPa) = 18.36766 24.69559 21.53163
#
# Velocity S-wave (km/s) = 3.14567 3.64751 3.40585
# Velocity P-wave (km/s) = 5.70833 6.89007 6.32685
#
# Compressibility (1/GPa) = 0.02778218
#
# Stress axis : x y z
#
# Youngs Moduli (GPa) = 67.82068 34.52734 57.48878
#
# Poissons Ratio (x) = 0.23993 -0.09904
# Poissons Ratio (y) = 0.47128 0.65731
# Poissons Ratio (z) = -0.11684 0.39478
#
# Static dielectric constant tensor:
#      x y z
#    x 3.778990 0.000000 -0.257390 
#    y 0.000000 3.667980 0.000000 
#    z -0.257390 0.000000 3.044270 
# 
# 
# High freq. dielectric constant tensor:
#      x y z
#    x 1.729730 0.000000 -0.018410 
#    y 0.000000 1.746700 0.000000 
#    z -0.018410 0.000000 1.655100 
# 
# From -- ./inp_files/155499.got.cif
#   From: 2010.06.25/outbox.cif.g09.slc.cpg/sg12_78_cif.got.tgz:155499.got - 2010.06.28 00:19:55.
