data_PCOD8086855
_publ_section_title
;
Structure prediction by ZEFSAII (Michael W. Deem and Ramdas Pophale) SiO2 
 PCOD8086855
Probable space group: C 2/M
;
_chemical_formula_sum "Si O2"
_cell_formula_units_Z 64
_cell_length_a 23.523563
_cell_length_b 9.081952
_cell_length_c 19.817362
_cell_angle_alpha 90.000000
_cell_angle_beta 57.895935
_cell_angle_gamma 90.000000
_cell_volume 3586.367069
_symmetry_space_group_name_H-M "C 2/M"
_symmetry_group_IT_number 12
_symmetry_cell_setting 'monoclinic'
loop_
_space_group_symop_operation_xyz
x,y,z
-x,y,-z
-x,-y,-z
x,-y,z
1/2+x,1/2+y,z
1/2-x,1/2+y,-z
1/2-x,1/2-y,-z
1/2+x,1/2-y,z
loop_
_atom_site_type_symbol
_atom_site_label
_atom_site_fract_x
_atom_site_fract_y
_atom_site_fract_z
Si Si1 0.796896 0.168007 0.556616
Si Si2 0.702175 0.668263 0.151555
Si Si3 0.907532 0.673678 0.863669
Si Si4 0.954713 0.826417 0.241607
Si Si5 0.356906 0.828695 0.040681
Si Si6 0.850768 0.670537 0.401757
Si Si7 0.370847 0.327677 0.165651
Si Si8 0.235736 0.832033 0.277476
O O1 0.844274 0.274110 0.483111
O O2 0.718730 0.201356 0.592562
O O3 0.809719 0.200013 0.627885
O O4 0.813904 0.000000 0.526530
O O5 0.686086 0.500000 0.140630
O O6 0.655131 0.780807 0.142447
O O7 0.778358 0.710201 0.084784
O O8 0.690949 0.691282 0.238937
O O9 0.918024 0.500000 0.850955
O O10 0.972310 0.757246 0.795875
O O11 0.893318 0.721651 0.949527
O O12 0.908475 0.761474 0.329175
O O13 0.926635 0.784795 0.185551
O O14 0.959028 0.000000 0.249385
O O15 0.391054 0.744856 0.081709
O O16 0.366316 0.000000 0.048888
O O17 0.870502 0.500000 0.389441
O O18 0.366420 0.500000 0.157260
O O19 0.299456 0.273503 0.237529
O O20 0.263095 0.000000 0.262306
#
# Coordination Sequence:
#
# PCOD8086855 Si02
#       8
#     8   8   8   8   8   8   8   8
#     4   9  17  30  51  79 110 140 170 207 253 307
#     4   9  18  34  56  79 104 134 171 216 262 306
#     4  11  23  37  54  76 101 137 181 218 259 310
#     4  11  23  37  52  73 107 144 176 213 260 314
#     4   9  20  37  56  77 103 135 171 215 265 317
#     4  10  19  31  51  78 108 141 174 211 252 303
#     4  10  20  32  51  78 105 135 172 216 262 306
#     4   9  17  32  54  79 108 140 171 208 259 313
#
# _framework density 17.845358000000001
#
# number of rings (size 3 to 8) (size 9 to 14) (size 15 to 20)
#    0.000    2.250    1.250    2.625    0.000    6.000 
#    0.000    2.500    0.000    0.750    0.000    5.250 
#    0.000    0.000    0.000    0.000    0.000    0.000 
#
# Total GULP energy -396856.361082 kJ/mol
# GULP energy per Si atom -12401.761284 kJ/mol
# Density = 1.780474 g / cm^3
# Si number density = 17.845358 Si / 1000 Ang^3
#
#
#
# Elastic Constant Matrix: (Units=GPa)
#
#
# Indices 1 2 3 4 5 6 
#
# 1 26.1675 22.1188 24.6159 -0.0006 -5.0812 0.0003
# 2 22.1188 58.5235 42.1094 -0.0010 -1.0423 -0.0007
# 3 24.6159 42.1094 116.6600 -0.0003 5.1100 0.0004
# 4 -0.0006 -0.0010 -0.0003 31.9446 0.0000 2.1099
# 5 -5.0812 -1.0423 5.1100 0.0000 19.3262 0.0000
# 6 0.0003 -0.0007 0.0004 2.1099 0.0000 26.5107
#
#
#
# Elastic Compliance Matrix: (Units=1/GPa)
#
#
# Indices 1 2 3 4 5 6 
#
# 1 0.064691 -0.018557 -0.007743 0.000001 0.018055 -0.000001
# 2 -0.018557 0.028640 -0.006350 0.000000 -0.001655 0.000001
# 3 -0.007743 -0.006350 0.012749 0.000000 -0.005749 0.000000
# 4 0.000001 0.000000 0.000000 0.031470 0.000000 -0.002505
# 5 0.018055 -0.001655 -0.005749 0.000000 0.057921 0.000000
# 6 -0.000001 0.000001 0.000000 -0.002505 0.000000 0.037920
#
#
# Mechanical properties :
#
#
# Convention : Reuss Voigt Hill
#
# Bulk Modulus (GPa) = 24.52095 42.11549 33.31822
# Shear Modulus (GPa) = 16.01106 23.05673 19.53390
#
# Velocity S-wave (km/s) = 2.99860 3.59838 3.31209
# Velocity P-wave (km/s) = 5.07537 6.39656 5.77388
#
# Compressibility (1/GPa) = 0.04078145
#
# Stress axis : x y z
#
# Youngs Moduli (GPa) = 15.45813 34.91600 78.43461
#
# Poissons Ratio (x) = 0.64794 0.60729
# Poissons Ratio (y) = 0.28686 0.49804
# Poissons Ratio (z) = 0.11969 0.22171
#
# Static dielectric constant tensor:
#      x y z
#    x 3.078010 0.000000 0.226590 
#    y 0.000000 3.310430 0.000000 
#    z 0.226590 0.000000 3.450990 
# 
# 
# High freq. dielectric constant tensor:
#      x y z
#    x 1.662150 0.000000 0.017280 
#    y 0.000000 1.696660 0.000000 
#    z 0.017280 0.000000 1.695520 
# 
# From -- ./inp_files/319852.got.cif
#   From: 2010.06.25/outbox.cif.g09.slc.cpg/sg12_160_cif.got.tgz:319852.got - 2010.06.28 00:19:55.
