data_PCOD8086985
_publ_section_title
;
Structure prediction by ZEFSAII (Michael W. Deem and Ramdas Pophale) SiO2 
 PCOD8086985
Probable space group: C 2/M
;
_chemical_formula_sum "Si O2"
_cell_formula_units_Z 48
_cell_length_a 15.409379
_cell_length_b 20.344041
_cell_length_c 11.715320
_cell_angle_alpha 90.000000
_cell_angle_beta 136.893638
_cell_angle_gamma 90.000000
_cell_volume 2509.705677
_symmetry_space_group_name_H-M "C 2/M"
_symmetry_group_IT_number 12
_symmetry_cell_setting 'monoclinic'
loop_
_space_group_symop_operation_xyz
x,y,z
-x,y,-z
-x,-y,-z
x,-y,z
1/2+x,1/2+y,z
1/2-x,1/2+y,-z
1/2-x,1/2-y,-z
1/2+x,1/2-y,z
loop_
_atom_site_type_symbol
_atom_site_label
_atom_site_fract_x
_atom_site_fract_y
_atom_site_fract_z
Si Si1 0.618982 0.692555 0.197227
Si Si2 0.456362 0.246514 0.222463
Si Si3 0.117892 0.573076 0.034907
Si Si4 0.741770 0.204855 0.160421
Si Si5 0.030399 0.604593 0.702143
Si Si6 0.296448 0.073219 0.335845
O O1 0.569940 0.711009 0.276940
O O2 0.713849 0.750333 0.244710
O O3 0.688490 0.622845 0.274463
O O4 0.500000 0.684061 0.000000
O O5 0.385816 0.286565 0.255110
O O6 0.512938 0.180290 0.330307
O O7 0.356838 0.226206 0.030465
O O8 0.170113 0.500000 0.113699
O O9 0.225110 0.627015 0.167575
O O10 0.071874 0.573365 0.860637
O O11 0.000000 0.592115 0.000000
O O12 0.151650 0.599016 0.735435
O O13 0.910027 0.566690 0.536243
O O14 0.238082 0.000000 0.266040
#
# Coordination Sequence:
#
# PCOD8086985 Si02
#       6
#     8   8   8   8   8   8
#     4  10  20  34  53  81 107 143 185 222 270 327
#     4   9  17  30  53  73  99 137 179 221 263 310
#     4  10  19  31  52  80 106 137 181 231 275 313
#     4   9  16  31  49  73 103 134 173 223 265 309
#     4  10  19  36  55  79 105 143 186 225 270 322
#     4  11  22  35  53  79 115 149 177 221 276 332
#
# _framework density 19.125748000000002
#
# number of rings (size 3 to 8) (size 9 to 14) (size 15 to 20)
#    0.000    2.167    1.667    4.500    2.333    1.000 
#    0.000    0.833    0.000    0.000    0.000    0.000 
#    0.000    6.667    0.000    0.000    0.000    0.000 
#
# Total GULP energy -297570.042489 kJ/mol
# GULP energy per Si atom -12398.751770 kJ/mol
# Density = 1.908222 g / cm^3
# Si number density = 19.125748 Si / 1000 Ang^3
#
#
#
# Elastic Constant Matrix: (Units=GPa)
#
#
# Indices 1 2 3 4 5 6 
#
# 1 143.5473 72.2922 16.0881 0.0000 12.9908 0.0000
# 2 72.2922 161.8206 12.6781 0.0000 14.0255 0.0000
# 3 16.0881 12.6781 15.5315 0.0000 -2.3200 0.0000
# 4 0.0000 0.0000 0.0000 20.3780 0.0000 11.5858
# 5 12.9908 14.0255 -2.3200 0.0000 15.5499 0.0000
# 6 0.0000 0.0000 0.0000 11.5858 0.0000 1.5178
#
#
#
# Elastic Compliance Matrix: (Units=1/GPa)
#
#
# Indices 1 2 3 4 5 6 
#
# 1 0.010251 -0.003273 -0.008985 0.000000 -0.006952 0.000000
# 2 -0.003273 0.008463 -0.004347 0.000000 -0.005548 0.000000
# 3 -0.008985 -0.004347 0.080747 0.000000 0.023474 0.000000
# 4 0.000000 0.000000 0.000000 -0.014693 0.000000 0.112156
# 5 -0.006952 -0.005548 0.023474 0.000000 0.078623 0.000000
# 6 0.000000 0.000000 0.000000 0.112156 0.000000 -0.197268
#
#
# Mechanical properties :
#
#
# Convention : Reuss Voigt Hill
#
# Bulk Modulus (GPa) = 15.09402 58.11290 36.60346
# Shear Modulus (GPa) = 233.47314 22.14521 127.80917
#
# Velocity S-wave (km/s) = 11.06064 3.40645 8.18357
# Velocity P-wave (km/s) = 13.07769 6.77661 10.41510
#
# Compressibility (1/GPa) = 0.06625139
#
# Stress axis : x y z
#
# Youngs Moduli (GPa) = 97.55335 118.15770 12.38438
#
# Poissons Ratio (x) = 0.38672 0.11127
# Poissons Ratio (y) = 0.31929 0.05383
# Poissons Ratio (z) = 0.87651 0.51362
#
# Static dielectric constant tensor:
#      x y z
#    x 3.762240 0.000000 -0.079090 
#    y 0.000000 3.613570 0.000000 
#    z -0.079090 0.000000 3.023480 
# 
# 
# High freq. dielectric constant tensor:
#      x y z
#    x 1.751820 0.000000 -0.010400 
#    y 0.000000 1.751710 0.000000 
#    z -0.010400 0.000000 1.694080 
# 
# From -- ./inp_files/147252.got.cif
#   From: 2010.06.25/outbox.cif.g09.slc.cpg/sg12_74_cif.got.tgz:147252.got - 2010.06.28 00:19:55.
