data_PCOD8086174
_publ_section_title
;
Structure prediction by ZEFSAII (Michael W. Deem and Ramdas Pophale) SiO2 
 PCOD8086174
Probable space group: C 2/M
;
_chemical_formula_sum "Si O2"
_cell_formula_units_Z 56
_cell_length_a 29.659740
_cell_length_b 9.489195
_cell_length_c 15.691282
_cell_angle_alpha 90.000000
_cell_angle_beta 45.786203
_cell_angle_gamma 90.000000
_cell_volume 3165.325827
_symmetry_space_group_name_H-M "C 2/M"
_symmetry_group_IT_number 12
_symmetry_cell_setting 'monoclinic'
loop_
_space_group_symop_operation_xyz
x,y,z
-x,y,-z
-x,-y,-z
x,-y,z
1/2+x,1/2+y,z
1/2-x,1/2+y,-z
1/2-x,1/2-y,-z
1/2+x,1/2-y,z
loop_
_atom_site_type_symbol
_atom_site_label
_atom_site_fract_x
_atom_site_fract_y
_atom_site_fract_z
Si Si1 0.161624 0.661121 0.088443
Si Si2 0.840054 0.839248 0.287142
Si Si3 0.555355 0.659990 0.986277
Si Si4 0.284801 0.833308 0.635445
Si Si5 0.106330 0.666088 0.627918
Si Si6 0.964974 0.661608 0.823790
Si Si7 0.757860 0.665499 0.858664
O O1 0.179140 0.500000 0.043417
O O2 0.086067 0.684381 0.184299
O O3 0.184372 0.699118 0.153612
O O4 0.195181 0.758372 0.974136
O O5 0.770562 0.782417 0.355274
O O6 0.871457 0.741461 0.315850
O O7 0.838654 0.000000 0.323081
O O8 0.878648 0.830562 0.148746
O O9 0.538952 0.500000 0.034061
O O10 0.559988 0.751129 0.064110
O O11 0.500000 0.721175 0.000000
O O12 0.351064 0.783528 0.507891
O O13 0.277126 0.771901 0.740926
O O14 0.281597 0.000000 0.646976
O O15 0.113921 0.500000 0.632903
O O16 0.034372 0.709454 0.701649
O O17 0.967694 0.500000 0.849273
O O18 0.742789 0.500000 0.874025
#
# Coordination Sequence:
#
# PCOD8086174 Si02
#       7
#     8   8   8   8   8   8   8
#     4   9  18  32  51  76 100 121 151 195 241 286
#     4  10  19  32  49  69  93 122 160 202 238 273
#     4  10  19  31  48  70  95 123 160 200 233 275
#     4   9  18  32  50  70  92 123 162 199 233 275
#     4  10  20  33  47  66  96 130 161 191 229 281
#     4  10  20  32  47  70 101 130 155 189 238 288
#     4   9  17  33  55  74  94 122 157 196 240 282
#
# _framework density 17.691701999999999
#
# number of rings (size 3 to 8) (size 9 to 14) (size 15 to 20)
#    0.000    2.429    1.429    1.286    0.000    2.571 
#    0.000    2.143    0.000    4.286    0.000    0.000 
#    0.000    6.857    0.000    0.000    0.000    0.000 
#
# Total GULP energy -347157.754913 kJ/mol
# GULP energy per Si atom -12398.491247 kJ/mol
# Density = 1.765143 g / cm^3
# Si number density = 17.691702 Si / 1000 Ang^3
#
#
#
# Elastic Constant Matrix: (Units=GPa)
#
#
# Indices 1 2 3 4 5 6 
#
# 1 121.8339 30.6208 60.9171 0.0000 -17.9325 0.0000
# 2 30.6208 35.9057 29.8035 -0.0001 -2.2358 0.0000
# 3 60.9171 29.8035 101.0965 0.0000 -13.6134 0.0000
# 4 0.0000 -0.0001 0.0000 17.5707 0.0000 0.9739
# 5 -17.9325 -2.2358 -13.6134 0.0000 24.2007 0.0000
# 6 0.0000 0.0000 0.0000 0.9739 0.0000 21.4563
#
#
#
# Elastic Compliance Matrix: (Units=1/GPa)
#
#
# Indices 1 2 3 4 5 6 
#
# 1 0.013476 -0.006711 -0.005281 0.000000 0.006395 0.000000
# 2 -0.006711 0.040409 -0.008694 0.000000 -0.006131 0.000000
# 3 -0.005281 -0.008694 0.016231 0.000000 0.004414 0.000000
# 4 0.000000 0.000000 0.000000 0.057057 0.000000 -0.002590
# 5 0.006395 -0.006131 0.004414 0.000000 0.047977 0.000000
# 6 0.000000 0.000000 0.000000 -0.002590 0.000000 0.046724
#
#
# Mechanical properties :
#
#
# Convention : Reuss Voigt Hill
#
# Bulk Modulus (GPa) = 34.78987 55.72431 45.25709
# Shear Modulus (GPa) = 18.32662 21.81186 20.06924
#
# Velocity S-wave (km/s) = 3.22201 3.51506 3.37172
# Velocity P-wave (km/s) = 5.79215 6.93109 6.38706
#
# Compressibility (1/GPa) = 0.02874400
#
# Stress axis : x y z
#
# Youngs Moduli (GPa) = 74.20425 24.74686 61.61073
#
# Poissons Ratio (x) = 0.16608 0.32534
# Poissons Ratio (y) = 0.49801 0.53566
# Poissons Ratio (z) = 0.39185 0.21515
#
# Static dielectric constant tensor:
#      x y z
#    x 3.451950 0.000000 -0.153120 
#    y 0.000000 3.143080 0.000000 
#    z -0.153120 0.000000 3.347070 
# 
# 
# High freq. dielectric constant tensor:
#      x y z
#    x 1.691750 0.000000 -0.011940 
#    y 0.000000 1.664750 0.000000 
#    z -0.011940 0.000000 1.674470 
# 
# From -- ./inp_files/237387.got.cif
#   From: 2010.06.25/outbox.cif.g09.slc.cpg/sg12_119_cif.got.tgz:237387.got - 2010.06.28 00:19:55.
