data_PCOD8086677
_publ_section_title
;
Structure prediction by ZEFSAII (Michael W. Deem and Ramdas Pophale) SiO2 
 PCOD8086677
Probable space group: C 2/M
;
_chemical_formula_sum "Si O2"
_cell_formula_units_Z 56
_cell_length_a 27.292020
_cell_length_b 9.174578
_cell_length_c 20.069618
_cell_angle_alpha 90.000000
_cell_angle_beta 144.729079
_cell_angle_gamma 90.000000
_cell_volume 2901.818609
_symmetry_space_group_name_H-M "C 2/M"
_symmetry_group_IT_number 12
_symmetry_cell_setting 'monoclinic'
loop_
_space_group_symop_operation_xyz
x,y,z
-x,y,-z
-x,-y,-z
x,-y,z
1/2+x,1/2+y,z
1/2-x,1/2+y,-z
1/2-x,1/2-y,-z
1/2+x,1/2-y,z
loop_
_atom_site_type_symbol
_atom_site_label
_atom_site_fract_x
_atom_site_fract_y
_atom_site_fract_z
Si Si1 0.032068 0.326914 0.605912
Si Si2 0.216283 0.328599 0.786716
Si Si3 0.741409 0.673469 0.311305
Si Si4 0.503581 0.328006 0.212829
Si Si5 0.447511 0.672942 0.878875
Si Si6 0.185898 0.829501 0.977683
Si Si7 0.097494 0.327039 0.427879
O O1 0.024795 0.500000 0.598663
O O2 0.128434 0.270510 0.721507
O O3 0.000000 0.265089 0.500000
O O4 0.973332 0.266030 0.599601
O O5 0.207008 0.500000 0.766249
O O6 0.234081 0.259898 0.733871
O O7 0.291513 0.289357 0.920866
O O8 0.740864 0.500000 0.306442
O O9 0.648759 0.733858 0.227730
O O10 0.810161 0.722929 0.442882
O O11 0.517576 0.500000 0.234285
O O12 0.508593 0.278694 0.141306
O O13 0.411726 0.281269 0.140463
O O14 0.578498 0.248120 0.336155
O O15 0.445707 0.500000 0.883131
O O16 0.500000 0.737781 0.000000
O O17 0.197664 0.000000 0.978091
O O18 0.250000 0.750000 0.000000
O O19 0.092768 0.500000 0.413775
#
# Coordination Sequence:
#
# PCOD8086677 Si02
#       7
#     8   8   8   8   8   8   8
#     4   9  14  23  41  69 100 123 150 198 250 283
#     4   9  15  25  44  70  97 122 156 207 254 285
#     4   9  16  27  47  75  99 123 167 217 249 284
#     4  10  21  35  50  72 105 137 163 200 252 304
#     4   9  17  31  51  73  99 131 167 209 256 298
#     4  10  20  33  50  73 100 131 165 201 246 299
#     4  10  19  31  50  76 103 132 169 208 247 294
#
# _framework density 19.298242999999999
#
# number of rings (size 3 to 8) (size 9 to 14) (size 15 to 20)
#    0.000    2.571    1.429    1.714    0.000    5.714 
#    0.000    0.000    0.000    1.714    0.000    0.000 
#    0.000    0.000    0.000    0.000    0.000    0.000 
#
# Total GULP energy -347076.551109 kJ/mol
# GULP energy per Si atom -12395.591111 kJ/mol
# Density = 1.925432 g / cm^3
# Si number density = 19.298243 Si / 1000 Ang^3
#
#
#
# Elastic Constant Matrix: (Units=GPa)
#
#
# Indices 1 2 3 4 5 6 
#
# 1 122.1110 23.5048 70.0322 0.0000 1.9412 0.0000
# 2 23.5048 17.7544 28.9323 0.0000 -2.8826 0.0000
# 3 70.0322 28.9323 160.9967 0.0000 1.1271 0.0000
# 4 0.0000 0.0000 0.0000 19.5706 0.0000 -3.1707
# 5 1.9412 -2.8826 1.1271 0.0000 37.9530 0.0000
# 6 0.0000 0.0000 0.0000 -3.1707 0.0000 14.0844
#
#
#
# Elastic Compliance Matrix: (Units=1/GPa)
#
#
# Indices 1 2 3 4 5 6 
#
# 1 0.012241 -0.010981 -0.003342 0.000000 -0.001361 0.000000
# 2 -0.010981 0.091123 -0.011654 0.000000 0.007829 0.000000
# 3 -0.003342 -0.011654 0.009766 0.000000 -0.001004 0.000000
# 4 0.000000 0.000000 0.000000 0.053031 0.000000 0.011938
# 5 -0.001361 0.007829 -0.001004 0.000000 0.027042 0.000000
# 6 0.000000 0.000000 0.000000 0.011938 0.000000 0.073688
#
#
# Mechanical properties :
#
#
# Convention : Reuss Voigt Hill
#
# Bulk Modulus (GPa) = 16.34583 60.64453 38.49518
# Shear Modulus (GPa) = 14.73889 26.21446 20.47668
#
# Velocity S-wave (km/s) = 2.76659 3.68963 3.26093
# Velocity P-wave (km/s) = 4.32364 7.04587 5.84543
#
# Compressibility (1/GPa) = 0.06117767
#
# Stress axis : x y z
#
# Youngs Moduli (GPa) = 81.69098 10.97413 102.39277
#
# Poissons Ratio (x) = 0.12051 0.34219
# Poissons Ratio (y) = 0.89705 1.19326
# Poissons Ratio (z) = 0.27301 0.12789
#
# Static dielectric constant tensor:
#      x y z
#    x 3.659440 0.000000 0.059570 
#    y 0.000000 2.787920 0.000000 
#    z 0.059570 0.000000 3.780230 
# 
# 
# High freq. dielectric constant tensor:
#      x y z
#    x 1.757360 0.000000 0.001010 
#    y 0.000000 1.669270 0.000000 
#    z 0.001010 0.000000 1.770260 
# 
# From -- ./inp_files/245704.got.cif
#   From: 2010.06.25/outbox.cif.g09.slc.cpg/sg12_123_cif.got.tgz:245704.got - 2010.06.28 00:19:55.
