data_PCOD8086820
_publ_section_title
;
Structure prediction by ZEFSAII (Michael W. Deem and Ramdas Pophale) SiO2 
 PCOD8086820
Probable space group: C 2/M
;
_chemical_formula_sum "Si O2"
_cell_formula_units_Z 64
_cell_length_a 8.949422
_cell_length_b 17.834777
_cell_length_c 27.759207
_cell_angle_alpha 90.000000
_cell_angle_beta 47.687035
_cell_angle_gamma 90.000000
_cell_volume 3276.388896
_symmetry_space_group_name_H-M "C 2/M"
_symmetry_group_IT_number 12
_symmetry_cell_setting 'monoclinic'
loop_
_space_group_symop_operation_xyz
x,y,z
-x,y,-z
-x,-y,-z
x,-y,z
1/2+x,1/2+y,z
1/2-x,1/2+y,-z
1/2-x,1/2-y,-z
1/2+x,1/2-y,z
loop_
_atom_site_type_symbol
_atom_site_label
_atom_site_fract_x
_atom_site_fract_y
_atom_site_fract_z
Si Si1 0.316094 0.826815 0.257927
Si Si2 0.185291 0.830476 0.996012
Si Si3 0.165224 0.669535 0.505107
Si Si4 0.078385 0.586781 0.618778
Si Si5 0.437211 0.587415 0.611543
Si Si6 0.066625 0.916095 0.876338
Si Si7 0.818107 0.668290 0.749965
Si Si8 0.940564 0.584474 0.867281
O O1 0.141694 0.870733 0.323977
O O2 0.234130 0.745520 0.263769
O O3 0.513856 0.816023 0.246770
O O4 0.370046 0.872698 0.197784
O O5 0.374011 0.871156 0.929564
O O6 0.250000 0.750000 0.000000
O O7 0.000000 0.821477 0.000000
O O8 0.123604 0.879705 0.055496
O O9 0.250000 0.750000 0.500000
O O10 0.058354 0.634531 0.574825
O O11 0.340113 0.614642 0.449183
O O12 0.000000 0.679217 0.500000
O O13 0.055861 0.500000 0.610633
O O14 0.293593 0.603710 0.597065
O O15 0.897448 0.609363 0.693482
O O16 0.441596 0.500000 0.622787
O O17 0.119589 0.867333 0.817668
O O18 0.257643 0.919048 0.869783
O O19 0.007156 0.000000 0.873256
O O20 0.006368 0.500000 0.866952
#
# Coordination Sequence:
#
# PCOD8086820 Si02
#       8
#     8   8   8   8   8   8   8   8
#     4  10  20  34  54  79 107 140 177 219 265 314
#     4  10  19  31  51  77 105 138 174 216 264 312
#     4  12  25  40  59  83 111 143 179 220 267 318
#     4  10  21  38  59  82 109 142 179 220 268 320
#     4  10  21  38  59  82 109 142 179 220 268 320
#     4   9  17  31  52  77 103 135 179 223 260 306
#     4  10  20  34  54  79 107 140 177 219 265 314
#     4   9  17  31  52  77 103 135 179 223 260 306
#
# _framework density 19.5337
#
# number of rings (size 3 to 8) (size 9 to 14) (size 15 to 20)
#    0.000    2.000    0.000    4.125    0.000    9.500 
#    0.000    0.000    0.000    5.250    0.000    0.000 
#    0.000    0.000    0.000    0.000    0.000    0.000 
#
# Total GULP energy -396917.053465 kJ/mol
# GULP energy per Si atom -12403.657921 kJ/mol
# Density = 1.948924 g / cm^3
# Si number density = 19.533700 Si / 1000 Ang^3
#
#
#
# Elastic Constant Matrix: (Units=GPa)
#
#
# Indices 1 2 3 4 5 6 
#
# 1 58.9666 44.2554 40.4961 -0.0019 15.2537 0.0024
# 2 44.2554 142.0068 41.6079 -0.0053 19.9189 0.0035
# 3 40.4961 41.6079 112.2659 -0.0135 27.1071 0.0068
# 4 -0.0019 -0.0053 -0.0135 42.0282 0.0021 8.4209
# 5 15.2537 19.9189 27.1071 0.0021 18.5087 -0.0017
# 6 0.0024 0.0035 0.0068 8.4209 -0.0017 26.6046
#
#
#
# Elastic Compliance Matrix: (Units=1/GPa)
#
#
# Indices 1 2 3 4 5 6 
#
# 1 0.027255 -0.005690 -0.005844 -0.000001 -0.007779 0.000000
# 2 -0.005690 0.009631 -0.000227 0.000001 -0.005343 -0.000001
# 3 -0.005844 -0.000227 0.015282 0.000007 -0.017321 -0.000007
# 4 -0.000001 0.000001 0.000007 0.025405 -0.000014 -0.008041
# 5 -0.007779 -0.005343 -0.017321 -0.000014 0.091557 0.000016
# 6 0.000000 -0.000001 -0.000007 -0.008041 0.000016 0.040133
#
#
# Mechanical properties :
#
#
# Convention : Reuss Voigt Hill
#
# Bulk Modulus (GPa) = 34.90944 62.88424 48.89684
# Shear Modulus (GPa) = 20.63267 29.88694 25.25981
#
# Velocity S-wave (km/s) = 3.25354 3.91579 3.59993
# Velocity P-wave (km/s) = 5.65900 7.25997 6.50889
#
# Compressibility (1/GPa) = 0.02864555
#
# Stress axis : x y z
#
# Youngs Moduli (GPa) = 36.68994 103.82892 65.43788
#
# Poissons Ratio (x) = 0.59084 0.38243
# Poissons Ratio (y) = 0.20878 0.01484
# Poissons Ratio (z) = 0.21442 0.02354
#
# Static dielectric constant tensor:
#      x y z
#    x 3.888020 -0.000020 -0.408370 
#    y -0.000020 3.696330 0.000020 
#    z -0.408370 0.000020 4.302840 
# 
# 
# High freq. dielectric constant tensor:
#      x y z
#    x 1.723040 0.000000 0.012480 
#    y 0.000000 1.779500 0.000000 
#    z 0.012480 0.000000 1.778920 
# 
# From -- ./inp_files/372923.got.cif
#   From: 2010.06.25/outbox.cif.g09.slc.cpg/sg12_187_cif.got.tgz:372923.got - 2010.06.28 00:19:55.
