data_PCOD8086095
_publ_section_title
;
Structure prediction by ZEFSAII (Michael W. Deem and Ramdas Pophale) SiO2 
 PCOD8086095
Probable space group: C 2/M
;
_chemical_formula_sum "Si O2"
_cell_formula_units_Z 64
_cell_length_a 25.384989
_cell_length_b 8.800046
_cell_length_c 21.271155
_cell_angle_alpha 90.000000
_cell_angle_beta 52.749356
_cell_angle_gamma 90.000000
_cell_volume 3782.365055
_symmetry_space_group_name_H-M "C 2/M"
_symmetry_group_IT_number 12
_symmetry_cell_setting 'monoclinic'
loop_
_space_group_symop_operation_xyz
x,y,z
-x,y,-z
-x,-y,-z
x,-y,z
1/2+x,1/2+y,z
1/2-x,1/2+y,-z
1/2-x,1/2-y,-z
1/2+x,1/2-y,z
loop_
_atom_site_type_symbol
_atom_site_label
_atom_site_fract_x
_atom_site_fract_y
_atom_site_fract_z
Si Si1 0.543477 0.319506 0.911677
Si Si2 0.987979 0.178569 0.818583
Si Si3 0.764039 0.323573 0.088841
Si Si4 0.892654 0.325365 0.330189
Si Si5 0.696076 0.175531 0.495263
Si Si6 0.651949 0.177027 0.092007
Si Si7 0.235126 0.678113 0.659705
Si Si8 0.192202 0.820413 0.815233
O O1 0.544865 0.500000 0.913939
O O2 0.511633 0.264049 0.869717
O O3 0.617641 0.255131 0.864082
O O4 0.500000 0.251796 0.000000
O O5 0.923124 0.270757 0.846990
O O6 0.045192 0.217117 0.727388
O O7 0.972854 0.000000 0.828696
O O8 0.760970 0.500000 0.108971
O O9 0.694000 0.273446 0.111191
O O10 0.777135 0.225312 0.140772
O O11 0.822337 0.289275 0.996946
O O12 0.911642 0.500000 0.302806
O O13 0.873714 0.304066 0.417730
O O14 0.831943 0.276468 0.328801
O O15 0.750000 0.250000 0.500000
O O16 0.700518 0.256809 0.424127
O O17 0.713267 0.000000 0.473857
O O18 0.658879 0.000000 0.103453
O O19 0.243572 0.500000 0.659257
O O20 0.235758 0.749618 0.728258
O O21 0.193218 0.000000 0.807647
#
# Coordination Sequence:
#
# PCOD8086095 Si02
#       8
#     8   8   8   8   8   8   8   8
#     4   9  18  30  44  67  99 133 167 201 243 297
#     4  11  20  31  50  74 101 134 170 209 250 299
#     4  10  21  37  55  75  98 128 170 217 260 302
#     4   9  18  31  46  68 101 135 166 206 250 298
#     4   9  17  29  46  68  96 132 170 206 250 299
#     4  10  21  37  55  74  98 130 169 215 262 303
#     4  10  19  31  47  70 102 136 170 209 249 297
#     4  11  20  32  51  74 103 136 169 208 253 303
#
# _framework density 16.920631
#
# number of rings (size 3 to 8) (size 9 to 14) (size 15 to 20)
#    0.000    2.125    1.250    3.750    0.000    5.000 
#    0.000    0.000    0.000    3.000    0.000    0.875 
#    0.000    7.000    0.000    0.000    0.000    0.000 
#
# Total GULP energy -396814.707251 kJ/mol
# GULP energy per Si atom -12400.459602 kJ/mol
# Density = 1.688212 g / cm^3
# Si number density = 16.920631 Si / 1000 Ang^3
#
#
#
# Elastic Constant Matrix: (Units=GPa)
#
#
# Indices 1 2 3 4 5 6 
#
# 1 54.6388 18.7848 34.3443 -0.0059 -2.4881 0.0041
# 2 18.7848 66.5748 39.0069 -0.0201 1.2405 0.0188
# 3 34.3443 39.0069 115.0928 -0.0089 1.7750 0.0086
# 4 -0.0059 -0.0201 -0.0089 29.7738 0.0010 0.9450
# 5 -2.4881 1.2405 1.7750 0.0010 16.4401 -0.0044
# 6 0.0041 0.0188 0.0086 0.9450 -0.0044 24.3896
#
#
#
# Elastic Compliance Matrix: (Units=1/GPa)
#
#
# Indices 1 2 3 4 5 6 
#
# 1 0.023339 -0.003178 -0.005955 0.000000 0.004415 0.000001
# 2 -0.003178 0.019184 -0.005533 0.000011 -0.001331 -0.000013
# 3 -0.005955 -0.005533 0.012369 -0.000001 -0.001819 0.000001
# 4 0.000000 0.000011 -0.000001 0.033628 -0.000003 -0.001303
# 5 0.004415 -0.001331 -0.001819 -0.000003 0.061792 0.000012
# 6 0.000001 -0.000013 0.000001 -0.001303 0.000012 0.041052
#
#
# Mechanical properties :
#
#
# Convention : Reuss Voigt Hill
#
# Bulk Modulus (GPa) = 39.12509 46.73093 42.92801
# Shear Modulus (GPa) = 21.81344 23.73206 22.77275
#
# Velocity S-wave (km/s) = 3.59439 3.74913 3.67257
# Velocity P-wave (km/s) = 6.35602 6.81315 6.58855
#
# Compressibility (1/GPa) = 0.02555905
#
# Stress axis : x y z
#
# Youngs Moduli (GPa) = 42.84640 52.12665 80.84729
#
# Poissons Ratio (x) = 0.16568 0.48148
# Poissons Ratio (y) = 0.13618 0.44731
# Poissons Ratio (z) = 0.25517 0.28841
#
# Static dielectric constant tensor:
#      x y z
#    x 2.870990 -0.000010 0.014820 
#    y -0.000010 3.159130 0.000010 
#    z 0.014820 0.000010 3.500320 
# 
# 
# High freq. dielectric constant tensor:
#      x y z
#    x 1.613140 0.000000 0.002530 
#    y 0.000000 1.658320 0.000000 
#    z 0.002530 0.000000 1.660370 
# 
# From -- ./inp_files/319958.got.cif
#   From: 2010.06.25/outbox.cif.g09.slc.cpg/sg12_160_cif.got.tgz:319958.got - 2010.06.28 00:19:55.
