data_PCOD8086502
_publ_section_title
;
Structure prediction by ZEFSAII (Michael W. Deem and Ramdas Pophale) SiO2 
 PCOD8086502
Probable space group: C 2/M
;
_chemical_formula_sum "Si O2"
_cell_formula_units_Z 64
_cell_length_a 32.416354
_cell_length_b 8.906002
_cell_length_c 15.174250
_cell_angle_alpha 90.000000
_cell_angle_beta 132.830674
_cell_angle_gamma 90.000000
_cell_volume 3212.735471
_symmetry_space_group_name_H-M "C 2/M"
_symmetry_group_IT_number 12
_symmetry_cell_setting 'monoclinic'
loop_
_space_group_symop_operation_xyz
x,y,z
-x,y,-z
-x,-y,-z
x,-y,z
1/2+x,1/2+y,z
1/2-x,1/2+y,-z
1/2-x,1/2-y,-z
1/2+x,1/2-y,z
loop_
_atom_site_type_symbol
_atom_site_label
_atom_site_fract_x
_atom_site_fract_y
_atom_site_fract_z
Si Si1 0.951691 0.329890 0.711081
Si Si2 0.647221 0.323584 0.103783
Si Si3 0.563024 0.172300 0.110990
Si Si4 0.288073 0.665656 0.121750
Si Si5 0.901165 0.675172 0.309786
Si Si6 0.887715 0.823438 0.465527
Si Si7 0.260685 0.664697 0.273789
Si Si8 0.577243 0.825231 0.853529
O O1 0.943463 0.500000 0.664121
O O2 0.924185 0.310525 0.766837
O O3 0.921770 0.215035 0.602362
O O4 0.017953 0.293233 0.814635
O O5 0.648827 0.500000 0.095233
O O6 0.604950 0.278349 0.119664
O O7 0.708977 0.270581 0.226546
O O8 0.626489 0.257333 0.979579
O O9 0.571148 0.000000 0.091205
O O10 0.500000 0.225784 0.000000
O O11 0.308364 0.500000 0.117503
O O12 0.336619 0.783692 0.209489
O O13 0.252988 0.642623 0.158866
O O14 0.250000 0.750000 0.000000
O O15 0.911568 0.500000 0.338450
O O16 0.921561 0.755339 0.429988
O O17 0.928663 0.730854 0.257160
O O18 0.822989 0.765348 0.383850
O O19 0.884865 0.000000 0.444966
O O20 0.254694 0.500000 0.311021
O O21 0.593288 0.000000 0.876747
#
# Coordination Sequence:
#
# PCOD8086502 Si02
#       8
#     8   8   8   8   8   8   8   8
#     4  10  21  39  64  87 110 150 198 238 279 341
#     4  12  24  35  57  92 123 147 183 244 298 340
#     4  10  20  40  66  87 114 153 191 228 282 353
#     4  10  19  31  49  75 109 148 192 240 289 341
#     4  10  20  34  55  80 111 153 198 242 280 334
#     4  10  22  40  60  83 117 156 194 241 290 339
#     4   9  20  38  56  75 108 156 196 228 279 346
#     4  10  21  38  58  84 118 156 198 236 283 347
#
# _framework density 19.920718999999998
#
# number of rings (size 3 to 8) (size 9 to 14) (size 15 to 20)
#    0.000    1.875    1.250    3.750    0.000    8.750 
#    0.000    3.125    0.000    0.000    0.000    0.000 
#    0.000    0.000    0.000    0.000    0.000    0.000 
#
# Total GULP energy -396602.974843 kJ/mol
# GULP energy per Si atom -12393.842964 kJ/mol
# Density = 1.987538 g / cm^3
# Si number density = 19.920719 Si / 1000 Ang^3
#
#
#
# Elastic Constant Matrix: (Units=GPa)
#
#
# Indices 1 2 3 4 5 6 
#
# 1 80.1714 31.9372 12.6621 0.0000 -4.6012 0.0000
# 2 31.9372 73.2169 19.9812 0.0000 -0.8285 0.0000
# 3 12.6621 19.9812 55.4410 0.0000 -11.6877 0.0000
# 4 0.0000 0.0000 0.0000 29.2456 0.0000 -1.8437
# 5 -4.6012 -0.8285 -11.6877 0.0000 25.7277 0.0000
# 6 0.0000 0.0000 0.0000 -1.8437 0.0000 26.3058
#
#
#
# Elastic Compliance Matrix: (Units=1/GPa)
#
#
# Indices 1 2 3 4 5 6 
#
# 1 0.015279 -0.006449 -0.000700 0.000000 0.002207 0.000000
# 2 -0.006449 0.017983 -0.005673 0.000000 -0.003151 0.000000
# 3 -0.000700 -0.005673 0.022314 0.000000 0.009829 0.000000
# 4 0.000000 0.000000 0.000000 0.034345 0.000000 0.002407
# 5 0.002207 -0.003151 0.009829 0.000000 0.043627 0.000000
# 6 0.000000 0.000000 0.000000 0.002407 0.000000 0.038183
#
#
# Mechanical properties :
#
#
# Convention : Reuss Voigt Hill
#
# Bulk Modulus (GPa) = 33.40809 37.55446 35.48128
# Shear Modulus (GPa) = 24.11346 25.87241 24.99293
#
# Velocity S-wave (km/s) = 3.48296 3.60775 3.54590
# Velocity P-wave (km/s) = 5.74296 6.02058 5.88341
#
# Compressibility (1/GPa) = 0.02993287
#
# Stress axis : x y z
#
# Youngs Moduli (GPa) = 65.44720 55.60657 44.81556
#
# Poissons Ratio (x) = 0.35860 0.03138
# Poissons Ratio (y) = 0.42206 0.25423
# Poissons Ratio (z) = 0.04583 0.31545
#
# Static dielectric constant tensor:
#      x y z
#    x 3.652140 0.000000 -0.023680 
#    y 0.000000 3.596630 0.000000 
#    z -0.023680 0.000000 3.308930 
# 
# 
# High freq. dielectric constant tensor:
#      x y z
#    x 1.772110 0.000000 -0.002470 
#    y 0.000000 1.769550 0.000000 
#    z -0.002470 0.000000 1.769960 
# 
# From -- ./inp_files/249939.got.cif
#   From: 2010.06.25/outbox.cif.g09.slc.cpg/sg12_125_cif.got.tgz:249939.got - 2010.06.28 00:19:55.
