data_PCOD8086301
_publ_section_title
;
Structure prediction by ZEFSAII (Michael W. Deem and Ramdas Pophale) SiO2 
 PCOD8086301
Probable space group: C 2/M
;
_chemical_formula_sum "Si O2"
_cell_formula_units_Z 56
_cell_length_a 22.686416
_cell_length_b 9.538926
_cell_length_c 21.310575
_cell_angle_alpha 90.000000
_cell_angle_beta 131.549462
_cell_angle_gamma 90.000000
_cell_volume 3451.315769
_symmetry_space_group_name_H-M "C 2/M"
_symmetry_group_IT_number 12
_symmetry_cell_setting 'monoclinic'
loop_
_space_group_symop_operation_xyz
x,y,z
-x,y,-z
-x,-y,-z
x,-y,z
1/2+x,1/2+y,z
1/2-x,1/2+y,-z
1/2-x,1/2-y,-z
1/2+x,1/2-y,z
loop_
_atom_site_type_symbol
_atom_site_label
_atom_site_fract_x
_atom_site_fract_y
_atom_site_fract_z
Si Si1 0.004404 0.335298 0.254332
Si Si2 0.241265 0.154555 0.585865
Si Si3 0.350214 0.663350 0.125705
Si Si4 0.862926 0.345901 0.558867
Si Si5 0.413590 0.337157 0.919101
Si Si6 0.123737 0.664776 0.229290
Si Si7 0.796295 0.160047 0.948914
O O1 0.982804 0.500000 0.240723
O O2 0.056927 0.292711 0.351818
O O3 0.051143 0.299411 0.223700
O O4 0.927845 0.240075 0.204551
O O5 0.164340 0.248837 0.518284
O O6 0.295455 0.147265 0.563134
O O7 0.293958 0.212706 0.680497
O O8 0.209836 0.000000 0.580103
O O9 0.353555 0.500000 0.146302
O O10 0.276405 0.734033 0.108533
O O11 0.343327 0.685732 0.046435
O O12 0.876631 0.500000 0.540182
O O13 0.414641 0.500000 0.901074
O O14 0.384192 0.249683 0.839676
O O15 0.355639 0.305492 0.935242
O O16 0.500000 0.285986 0.000000
O O17 0.125553 0.500000 0.216182
O O18 0.765263 0.000000 0.924029
#
# Coordination Sequence:
#
# PCOD8086301 Si02
#       7
#     8   8   8   8   8   8   8
#     4   9  17  29  44  65  95 124 148 181 226 268
#     4   8  14  25  39  58  87 118 147 181 218 256
#     4  10  19  31  49  69  87 113 152 191 223 263
#     4   8  14  24  39  60  86 117 149 178 214 263
#     4  10  20  33  48  67  92 120 150 185 222 261
#     4   9  18  30  44  65  93 124 154 183 220 266
#     4   9  19  34  48  64  90 120 147 182 228 267
#
# _framework density 16.225695999999999
#
# number of rings (size 3 to 8) (size 9 to 14) (size 15 to 20)
#    0.000    3.000    0.000    3.000    0.000    4.286 
#    0.000    2.857    0.000    0.000    0.000    1.000 
#    0.000    8.000    0.000    0.000    0.000    0.000 
#
# Total GULP energy -347112.232522 kJ/mol
# GULP energy per Si atom -12396.865447 kJ/mol
# Density = 1.618877 g / cm^3
# Si number density = 16.225696 Si / 1000 Ang^3
#
#
#
# Elastic Constant Matrix: (Units=GPa)
#
#
# Indices 1 2 3 4 5 6 
#
# 1 70.3513 48.3568 54.6573 0.0000 10.5283 0.0000
# 2 48.3568 84.2656 69.6975 0.0000 14.3536 0.0000
# 3 54.6573 69.6975 125.3596 0.0000 15.4577 0.0000
# 4 0.0000 0.0000 0.0000 33.8696 0.0000 1.9459
# 5 10.5283 14.3536 15.4577 0.0000 22.4885 0.0000
# 6 0.0000 0.0000 0.0000 1.9459 0.0000 18.8775
#
#
#
# Elastic Compliance Matrix: (Units=1/GPa)
#
#
# Indices 1 2 3 4 5 6 
#
# 1 0.025438 -0.009797 -0.005405 0.000000 -0.001941 0.000000
# 2 -0.009797 0.026550 -0.009796 0.000000 -0.005626 0.000000
# 3 -0.005405 -0.009796 0.016058 0.000000 -0.002255 0.000000
# 4 0.000000 0.000000 0.000000 0.029701 0.000000 -0.003061
# 5 -0.001941 -0.005626 -0.002255 0.000000 0.050517 0.000000
# 6 0.000000 0.000000 0.000000 -0.003061 0.000000 0.053289
#
#
# Mechanical properties :
#
#
# Convention : Reuss Voigt Hill
#
# Bulk Modulus (GPa) = 55.40007 69.48885 62.44446
# Shear Modulus (GPa) = 19.41260 22.19813 20.80536
#
# Velocity S-wave (km/s) = 3.46267 3.70278 3.58473
# Velocity P-wave (km/s) = 7.08550 7.82305 7.46339
#
# Compressibility (1/GPa) = 0.01805052
#
# Stress axis : x y z
#
# Youngs Moduli (GPa) = 39.31139 37.66466 62.27372
#
# Poissons Ratio (x) = 0.36899 0.33658
# Poissons Ratio (y) = 0.38512 0.61005
# Poissons Ratio (z) = 0.21247 0.36897
#
# Static dielectric constant tensor:
#      x y z
#    x 2.736210 0.000000 0.120690 
#    y 0.000000 3.238920 0.000000 
#    z 0.120690 0.000000 3.136620 
# 
# 
# High freq. dielectric constant tensor:
#      x y z
#    x 1.584090 0.000000 0.014090 
#    y 0.000000 1.627660 0.000000 
#    z 0.014090 0.000000 1.627320 
# 
# From -- ./inp_files/295065.got.cif
#   From: 2010.06.25/outbox.cif.g09.slc.cpg/sg12_148_cif.got.tgz:295065.got - 2010.06.28 00:19:55.
