data_PCOD8086525
_publ_section_title
;
Structure prediction by ZEFSAII (Michael W. Deem and Ramdas Pophale) SiO2 
 PCOD8086525
Probable space group: C 2/M
;
_chemical_formula_sum "Si O2"
_cell_formula_units_Z 48
_cell_length_a 21.946970
_cell_length_b 20.131027
_cell_length_c 10.547784
_cell_angle_alpha 90.000000
_cell_angle_beta 33.514714
_cell_angle_gamma 90.000000
_cell_volume 2573.117881
_symmetry_space_group_name_H-M "C 2/M"
_symmetry_group_IT_number 12
_symmetry_cell_setting 'monoclinic'
loop_
_space_group_symop_operation_xyz
x,y,z
-x,y,-z
-x,-y,-z
x,-y,z
1/2+x,1/2+y,z
1/2-x,1/2+y,-z
1/2-x,1/2-y,-z
1/2+x,1/2-y,z
loop_
_atom_site_type_symbol
_atom_site_label
_atom_site_fract_x
_atom_site_fract_y
_atom_site_fract_z
Si Si1 0.122377 0.823262 0.253250
Si Si2 0.926790 0.838349 0.249808
Si Si3 0.807472 0.726354 0.088696
Si Si4 0.524212 0.188855 0.812846
Si Si5 0.094573 0.921998 0.097599
Si Si6 0.243656 0.153261 0.649305
O O1 0.200068 0.819054 0.243971
O O2 0.125636 0.896798 0.185193
O O3 0.000000 0.800880 0.500000
O O4 0.168255 0.772610 0.071395
O O5 0.802153 0.853087 0.416718
O O6 0.938360 0.764105 0.280680
O O7 0.975338 0.889120 0.270088
O O8 0.000000 0.848912 0.000000
O O9 0.788577 0.772856 0.244549
O O10 0.910313 0.676682 0.934618
O O11 0.623881 0.143040 0.586796
O O12 0.500000 0.172942 0.000000
O O13 0.080089 0.000000 0.124395
O O14 0.191423 0.902473 0.831079
#
# Coordination Sequence:
#
# PCOD8086525 Si02
#       6
#     8   8   8   8   8   8
#     4  10  20  33  51  74 104 139 177 224 263 302
#     4   9  16  30  49  79 106 134 163 210 265 318
#     4  10  19  31  49  77 108 139 170 212 268 321
#     4  11  18  29  50  81 112 134 164 214 271 323
#     4  10  21  37  53  75 106 143 185 218 251 306
#     4  10  19  31  52  77 110 140 168 209 268 319
#
# _framework density 18.654412000000001
#
# number of rings (size 3 to 8) (size 9 to 14) (size 15 to 20)
#    0.000    2.000    6.667    1.500    0.000    3.333 
#    0.000    0.000    0.000    2.500    0.000    0.000 
#    0.000    0.000    0.000    0.000    0.000    0.000 
#
# Total GULP energy -297440.447322 kJ/mol
# GULP energy per Si atom -12393.351972 kJ/mol
# Density = 1.861195 g / cm^3
# Si number density = 18.654412 Si / 1000 Ang^3
#
#
#
# Elastic Constant Matrix: (Units=GPa)
#
#
# Indices 1 2 3 4 5 6 
#
# 1 105.4030 34.3167 24.1316 0.0000 -34.3837 0.0000
# 2 34.3167 62.8921 21.0151 0.0000 -2.0883 0.0000
# 3 24.1316 21.0151 84.2197 -0.0001 -31.9492 0.0000
# 4 0.0000 0.0000 -0.0001 9.0398 0.0000 -6.4925
# 5 -34.3837 -2.0883 -31.9492 0.0000 30.3632 0.0000
# 6 0.0000 0.0000 0.0000 -6.4925 0.0000 10.1016
#
#
#
# Elastic Compliance Matrix: (Units=1/GPa)
#
#
# Indices 1 2 3 4 5 6 
#
# 1 0.025132 -0.016423 0.012091 0.000000 0.040053 0.000000
# 2 -0.016423 0.028670 -0.014572 0.000000 -0.031959 0.000000
# 3 0.012091 -0.014572 0.028060 0.000000 0.042216 0.000000
# 4 0.000000 0.000000 0.000000 0.205467 0.000000 0.132057
# 5 0.040053 -0.031959 0.042216 0.000000 0.120514 0.000000
# 6 0.000000 0.000000 0.000000 0.132057 0.000000 0.183869
#
#
# Mechanical properties :
#
#
# Convention : Reuss Voigt Hill
#
# Bulk Modulus (GPa) = 22.69965 45.71574 34.20770
# Shear Modulus (GPa) = 7.76151 21.43768 14.59959
#
# Velocity S-wave (km/s) = 2.04199 3.39367 2.80060
# Velocity P-wave (km/s) = 4.21362 6.31790 5.36984
#
# Compressibility (1/GPa) = 0.04405354
#
# Stress axis : x y z
#
# Youngs Moduli (GPa) = 39.78984 34.88020 35.63782
#
# Poissons Ratio (x) = 0.57285 -0.43091
# Poissons Ratio (y) = 0.65349 0.51931
# Poissons Ratio (z) = -0.48111 0.50827
#
# Static dielectric constant tensor:
#      x y z
#    x 4.143750 0.000000 -0.244340 
#    y 0.000000 2.890490 0.000000 
#    z -0.244340 0.000000 3.537730 
# 
# 
# High freq. dielectric constant tensor:
#      x y z
#    x 1.738660 0.000000 -0.005830 
#    y 0.000000 1.650690 0.000000 
#    z -0.005830 0.000000 1.728400 
# 
# From -- ./inp_files/132517.got.cif
#   From: 2010.06.25/outbox.cif.g09.slc.cpg/sg12_67_cif.got.tgz:132517.got - 2010.06.28 00:19:55.
