data_PCOD8086879
_publ_section_title
;
Structure prediction by ZEFSAII (Michael W. Deem and Ramdas Pophale) SiO2 
 PCOD8086879
Probable space group: C 2/M
;
_chemical_formula_sum "Si O2"
_cell_formula_units_Z 56
_cell_length_a 20.075905
_cell_length_b 9.061625
_cell_length_c 16.300263
_cell_angle_alpha 90.000000
_cell_angle_beta 91.525499
_cell_angle_gamma 90.000000
_cell_volume 2964.298114
_symmetry_space_group_name_H-M "C 2/M"
_symmetry_group_IT_number 12
_symmetry_cell_setting 'monoclinic'
loop_
_space_group_symop_operation_xyz
x,y,z
-x,y,-z
-x,-y,-z
x,-y,z
1/2+x,1/2+y,z
1/2-x,1/2+y,-z
1/2-x,1/2-y,-z
1/2+x,1/2-y,z
loop_
_atom_site_type_symbol
_atom_site_label
_atom_site_fract_x
_atom_site_fract_y
_atom_site_fract_z
Si Si1 0.680965 0.828441 0.480299
Si Si2 0.628330 0.173703 0.306942
Si Si3 0.867850 0.329391 0.347706
Si Si4 0.264303 0.327923 0.236041
Si Si5 0.511580 0.175379 0.756715
Si Si6 0.305524 0.675649 0.057052
Si Si7 0.942842 0.326889 0.063345
O O1 0.750000 0.750000 0.500000
O O2 0.646331 0.762224 0.397595
O O3 0.630074 0.803518 0.554415
O O4 0.697339 0.000000 0.468240
O O5 0.686373 0.211990 0.243820
O O6 0.559866 0.244574 0.270712
O O7 0.618251 0.000000 0.315170
O O8 0.860202 0.500000 0.325018
O O9 0.803501 0.249670 0.310058
O O10 0.935134 0.267173 0.308500
O O11 0.276299 0.500000 0.247255
O O12 0.290093 0.273388 0.149211
O O13 0.532648 0.231375 0.847366
O O14 0.506895 0.000000 0.757739
O O15 0.303082 0.500000 0.046371
O O16 0.377588 0.737098 0.033988
O O17 0.250000 0.750000 0.000000
O O18 0.925256 0.500000 0.064441
O O19 0.000000 0.291757 0.000000
#
# Coordination Sequence:
#
# PCOD8086879 Si02
#       7
#     8   8   8   8   8   8   8
#     4  10  19  31  51  79 110 142 180 227 274 322
#     4   9  18  32  52  79 108 141 183 225 267 321
#     4  10  19  32  54  81 108 141 180 226 277 324
#     4  10  20  35  57  80 106 144 184 222 267 329
#     4   9  18  33  53  78 109 141 178 226 275 325
#     4  11  24  39  59  86 116 147 186 233 281 336
#     4  10  21  37  60  84 111 148 187 231 283 340
#
# _framework density 18.891487999999999
#
# number of rings (size 3 to 8) (size 9 to 14) (size 15 to 20)
#    0.000    2.143    2.857    0.429    2.000    1.429 
#    0.000    2.857    0.000    2.571    0.000    2.000 
#    0.000    0.000    0.000    0.000    0.000    0.000 
#
# Total GULP energy -347204.456953 kJ/mol
# GULP energy per Si atom -12400.159177 kJ/mol
# Density = 1.884849 g / cm^3
# Si number density = 18.891488 Si / 1000 Ang^3
#
#
#
# Elastic Constant Matrix: (Units=GPa)
#
#
# Indices 1 2 3 4 5 6 
#
# 1 150.4519 33.4430 58.0469 0.0000 4.7411 0.0000
# 2 33.4430 35.0260 29.2581 0.0000 0.4997 0.0000
# 3 58.0469 29.2581 106.7941 0.0000 -5.6025 0.0000
# 4 0.0000 0.0000 0.0000 18.9813 0.0000 3.1076
# 5 4.7411 0.4997 -5.6025 0.0000 38.6719 0.0000
# 6 0.0000 0.0000 0.0000 3.1076 0.0000 25.4593
#
#
#
# Elastic Compliance Matrix: (Units=1/GPa)
#
#
# Indices 1 2 3 4 5 6 
#
# 1 0.009397 -0.005983 -0.003552 0.000000 -0.001589 0.000000
# 2 -0.005983 0.040980 -0.008026 0.000000 -0.000959 0.000000
# 3 -0.003552 -0.008026 0.013625 0.000000 0.002513 0.000000
# 4 0.000000 0.000000 0.000000 0.053758 0.000000 -0.006562
# 5 -0.001589 -0.000959 0.002513 0.000000 0.026430 0.000000
# 6 0.000000 0.000000 0.000000 -0.006562 0.000000 0.040079
#
#
# Mechanical properties :
#
#
# Convention : Reuss Voigt Hill
#
# Bulk Modulus (GPa) = 34.62402 59.30755 46.96579
# Shear Modulus (GPa) = 21.83242 28.05741 24.94491
#
# Velocity S-wave (km/s) = 3.40321 3.85799 3.63772
# Velocity P-wave (km/s) = 5.81464 7.16292 6.52371
#
# Compressibility (1/GPa) = 0.02888168
#
# Stress axis : x y z
#
# Youngs Moduli (GPa) = 106.41723 24.40200 73.39398
#
# Poissons Ratio (x) = 0.14599 0.26069
# Poissons Ratio (y) = 0.63665 0.58904
# Poissons Ratio (z) = 0.37799 0.19584
#
# Static dielectric constant tensor:
#      x y z
#    x 3.651750 0.000000 -0.063350 
#    y 0.000000 3.129040 0.000000 
#    z -0.063350 0.000000 3.768660 
# 
# 
# High freq. dielectric constant tensor:
#      x y z
#    x 1.741810 0.000000 -0.007110 
#    y 0.000000 1.694910 0.000000 
#    z -0.007110 0.000000 1.747170 
# 
# From -- ./inp_files/231013.got.cif
#   From: 2010.06.25/outbox.cif.g09.slc.cpg/sg12_116_cif.got.tgz:231013.got - 2010.06.28 00:19:55.
