data_PCOD8086120
_publ_section_title
;
Structure prediction by ZEFSAII (Michael W. Deem and Ramdas Pophale) SiO2 
 PCOD8086120
Probable space group: C 2/M
;
_chemical_formula_sum "Si O2"
_cell_formula_units_Z 64
_cell_length_a 23.604489
_cell_length_b 27.232586
_cell_length_c 12.001408
_cell_angle_alpha 90.000000
_cell_angle_beta 25.987010
_cell_angle_gamma 90.000000
_cell_volume 3380.303636
_symmetry_space_group_name_H-M "C 2/M"
_symmetry_group_IT_number 12
_symmetry_cell_setting 'monoclinic'
loop_
_space_group_symop_operation_xyz
x,y,z
-x,y,-z
-x,-y,-z
x,-y,z
1/2+x,1/2+y,z
1/2-x,1/2+y,-z
1/2-x,1/2-y,-z
1/2+x,1/2-y,z
loop_
_atom_site_type_symbol
_atom_site_label
_atom_site_fract_x
_atom_site_fract_y
_atom_site_fract_z
Si Si1 0.177680 0.395418 0.717261
Si Si2 0.627417 0.056156 0.022106
Si Si3 0.683430 0.556411 0.910412
Si Si4 0.172330 0.287280 0.780667
Si Si5 0.071319 0.053828 0.758411
Si Si6 0.404230 0.223815 0.338334
Si Si7 0.642994 0.441912 0.228196
Si Si8 0.112370 0.614732 0.584701
O O1 0.166499 0.345760 0.810663
O O2 0.326339 0.402336 0.419632
O O3 0.093290 0.395158 0.752431
O O4 0.143075 0.439987 0.860904
O O5 0.505540 0.089572 0.273687
O O6 0.598389 0.000000 0.106592
O O7 0.756771 0.075949 0.854356
O O8 0.727769 0.500000 0.811909
O O9 0.757248 0.591338 0.693491
O O10 0.530490 0.562067 0.160567
O O11 0.704094 0.573532 0.001118
O O12 0.313581 0.264296 0.560928
O O13 0.147383 0.280493 0.694856
O O14 0.057917 0.262745 0.058974
O O15 0.137290 0.000000 0.626075
O O16 0.000000 0.055204 0.000000
O O17 0.384428 0.173039 0.440427
O O18 0.500000 0.418437 0.500000
O O19 0.628557 0.500000 0.257998
#
# Coordination Sequence:
#
# PCOD8086120 Si02
#       8
#     8   8   8   8   8   8   8   8
#     4  11  20  33  51  77 111 147 183 221 269 333
#     4  11  22  33  52  78 110 151 186 218 267 327
#     4  10  20  34  52  75 109 148 187 229 269 318
#     4   9  18  33  52  72 105 146 184 226 276 327
#     4  10  19  31  47  73 109 144 179 218 262 318
#     4   9  18  34  51  74 106 143 182 227 275 333
#     4   9  19  37  55  72 101 144 193 237 267 305
#     4  11  21  33  50  77 116 143 174 222 279 335
#
# _framework density 18.933209999999999
#
# number of rings (size 3 to 8) (size 9 to 14) (size 15 to 20)
#    0.000    2.000    2.500    1.875    0.000    5.500 
#    2.250    1.875    0.000    0.000    0.000    0.875 
#    3.750    0.000    0.000    0.000    0.000    0.000 
#
# Total GULP energy -396613.746319 kJ/mol
# GULP energy per Si atom -12394.179572 kJ/mol
# Density = 1.889012 g / cm^3
# Si number density = 18.933210 Si / 1000 Ang^3
#
#
#
# Elastic Constant Matrix: (Units=GPa)
#
#
# Indices 1 2 3 4 5 6 
#
# 1 65.6744 17.5323 12.9873 0.0040 -8.6062 -0.0002
# 2 17.5323 60.6961 37.1994 -0.0075 -9.0929 0.0032
# 3 12.9873 37.1994 82.9278 -0.0082 -18.0636 0.0033
# 4 0.0040 -0.0075 -0.0082 23.1850 0.0059 -5.2935
# 5 -8.6062 -9.0929 -18.0636 0.0059 24.4337 0.0004
# 6 -0.0002 0.0032 0.0033 -5.2935 0.0004 10.3922
#
#
#
# Elastic Compliance Matrix: (Units=1/GPa)
#
#
# Indices 1 2 3 4 5 6 
#
# 1 0.016937 -0.004403 0.000316 -0.000006 0.004561 -0.000002
# 2 -0.004403 0.023892 -0.010047 0.000004 -0.000087 -0.000002
# 3 0.000316 -0.010047 0.018744 0.000000 0.010230 -0.000003
# 4 -0.000006 0.000004 0.000000 0.048808 -0.000013 0.024862
# 5 0.004561 -0.000087 0.010230 -0.000013 0.050064 -0.000012
# 6 -0.000002 -0.000002 -0.000003 0.024862 -0.000012 0.108890
#
#
# Mechanical properties :
#
#
# Convention : Reuss Voigt Hill
#
# Bulk Modulus (GPa) = 31.94273 38.30402 35.12337
# Shear Modulus (GPa) = 16.33790 21.04081 18.68935
#
# Velocity S-wave (km/s) = 2.94074 3.33726 3.14526
# Velocity P-wave (km/s) = 5.33278 5.92662 5.63752
#
# Compressibility (1/GPa) = 0.03130603
#
# Stress axis : x y z
#
# Youngs Moduli (GPa) = 59.04171 41.85572 53.34994
#
# Poissons Ratio (x) = 0.18428 -0.01685
# Poissons Ratio (y) = 0.25994 0.53599
# Poissons Ratio (z) = -0.01865 0.42051
#
# Static dielectric constant tensor:
#      x y z
#    x 3.363550 -0.000010 -0.228840 
#    y -0.000010 3.356220 0.000030 
#    z -0.228840 0.000030 3.711100 
# 
# 
# High freq. dielectric constant tensor:
#      x y z
#    x 1.698570 0.000000 -0.009240 
#    y 0.000000 1.702380 0.000000 
#    z -0.009240 0.000000 1.753610 
# 
# From -- ./inp_files/170601.got.cif
#   From: 2010.06.25/outbox.cif.g09.slc.cpg/sg12_86_cif.got.tgz:170601.got - 2010.06.28 00:19:55.
