data_PCOD8086194
_publ_section_title
;
Structure prediction by ZEFSAII (Michael W. Deem and Ramdas Pophale) SiO2 
 PCOD8086194
Probable space group: C 2/M
;
_chemical_formula_sum "Si O2"
_cell_formula_units_Z 64
_cell_length_a 28.051945
_cell_length_b 9.133553
_cell_length_c 15.329149
_cell_angle_alpha 90.000000
_cell_angle_beta 88.717788
_cell_angle_gamma 90.000000
_cell_volume 3926.558016
_symmetry_space_group_name_H-M "C 2/M"
_symmetry_group_IT_number 12
_symmetry_cell_setting 'monoclinic'
loop_
_space_group_symop_operation_xyz
x,y,z
-x,y,-z
-x,-y,-z
x,-y,z
1/2+x,1/2+y,z
1/2-x,1/2+y,-z
1/2-x,1/2-y,-z
1/2+x,1/2-y,z
loop_
_atom_site_type_symbol
_atom_site_label
_atom_site_fract_x
_atom_site_fract_y
_atom_site_fract_z
Si Si1 0.793073 0.667345 0.099272
Si Si2 0.107974 0.668897 0.817799
Si Si3 0.938145 0.828189 0.337409
Si Si4 0.443438 0.834824 0.508738
Si Si5 0.893772 0.827505 0.851012
Si Si6 0.451975 0.329407 0.678213
Si Si7 0.556113 0.167589 0.995402
Si Si8 0.801358 0.670137 0.898124
O O1 0.775679 0.500000 0.105619
O O2 0.837104 0.698075 0.160905
O O3 0.749887 0.770570 0.130671
O O4 0.809393 0.702793 0.000083
O O5 0.099294 0.500000 0.792984
O O6 0.095698 0.770716 0.737329
O O7 0.074428 0.714052 0.899648
O O8 0.921598 0.752319 0.427910
O O9 0.992632 0.787518 0.312098
O O10 0.930981 0.000000 0.348589
O O11 0.500000 0.830975 0.500000
O O12 0.427972 0.757766 0.599297
O O13 0.423670 0.000000 0.508596
O O14 0.925014 0.781934 0.766587
O O15 0.842277 0.753147 0.843049
O O16 0.886942 0.000000 0.858162
O O17 0.920528 0.772787 0.935431
O O18 0.446281 0.500000 0.657751
O O19 0.571295 0.000000 0.015163
O O20 0.500000 0.188792 0.000000
O O21 0.804188 0.500000 0.875723
#
# Coordination Sequence:
#
# PCOD8086194 Si02
#       8
#     8   8   8   8   8   8   8   8
#     4   9  18  33  50  68  93 123 159 204 250 287
#     4  10  19  32  47  68  97 128 162 200 239 284
#     4  10  19  31  48  70  98 130 163 199 239 283
#     4   9  17  30  49  71  93 122 161 202 243 284
#     4  11  21  32  48  70  98 130 164 199 240 288
#     4   9  19  33  47  68  99 131 162 199 239 282
#     4  10  20  33  47  65  95 133 168 201 237 277
#     4  10  19  33  51  70  93 121 161 205 248 291
#
# _framework density 16.299261999999999
#
# number of rings (size 3 to 8) (size 9 to 14) (size 15 to 20)
#    0.000    2.250    1.250    2.250    0.000    4.750 
#    0.000    0.000    0.000    0.000    0.000    0.875 
#    0.000    0.000    0.000    0.000    0.000    0.000 
#
# Total GULP energy -396905.447827 kJ/mol
# GULP energy per Si atom -12403.295245 kJ/mol
# Density = 1.626216 g / cm^3
# Si number density = 16.299262 Si / 1000 Ang^3
#
#
#
# Elastic Constant Matrix: (Units=GPa)
#
#
# Indices 1 2 3 4 5 6 
#
# 1 67.1405 40.3271 38.7229 0.0000 5.9390 0.0000
# 2 40.3271 81.7152 45.4808 0.0000 8.3251 0.0000
# 3 38.7229 45.4808 78.6350 0.0000 21.2159 0.0000
# 4 0.0000 0.0000 0.0000 30.0069 0.0000 6.5699
# 5 5.9390 8.3251 21.2159 0.0000 13.9482 0.0000
# 6 0.0000 0.0000 0.0000 6.5699 0.0000 21.5140
#
#
#
# Elastic Compliance Matrix: (Units=1/GPa)
#
#
# Indices 1 2 3 4 5 6 
#
# 1 0.024417 -0.007194 -0.010543 0.000000 0.009934 0.000000
# 2 -0.007194 0.020805 -0.010120 0.000000 0.006038 0.000000
# 3 -0.010543 -0.010120 0.035483 0.000000 -0.043441 0.000000
# 4 0.000000 0.000000 0.000000 0.035714 0.000000 -0.010906
# 5 0.009934 0.006038 -0.043441 0.000000 0.129937 0.000000
# 6 0.000000 0.000000 0.000000 -0.010906 0.000000 0.049812
#
#
# Mechanical properties :
#
#
# Convention : Reuss Voigt Hill
#
# Bulk Modulus (GPa) = 40.01478 52.95025 46.48251
# Shear Modulus (GPa) = 13.88072 19.95779 16.91925
#
# Velocity S-wave (km/s) = 2.92141 3.50302 3.22535
# Velocity P-wave (km/s) = 5.99857 6.99417 6.51542
#
# Compressibility (1/GPa) = 0.02499077
#
# Stress axis : x y z
#
# Youngs Moduli (GPa) = 40.95470 48.06499 28.18284
#
# Poissons Ratio (x) = 0.34578 0.29714
# Poissons Ratio (y) = 0.29463 0.28520
# Poissons Ratio (z) = 0.43180 0.48640
#
# Static dielectric constant tensor:
#      x y z
#    x 2.962700 0.000000 -0.040760 
#    y 0.000000 3.146440 0.000000 
#    z -0.040760 0.000000 3.014980 
# 
# 
# High freq. dielectric constant tensor:
#      x y z
#    x 1.608110 0.000000 0.002540 
#    y 0.000000 1.636970 0.000000 
#    z 0.002540 0.000000 1.613610 
# 
# From -- ./inp_files/243959.got.cif
#   From: 2010.06.25/outbox.cif.g09.slc.cpg/sg12_122_cif.got.tgz:243959.got - 2010.06.28 00:19:55.
