data_PCOD8086192
_publ_section_title
;
Structure prediction by ZEFSAII (Michael W. Deem and Ramdas Pophale) SiO2 
 PCOD8086192
Probable space group: C 2/M
;
_chemical_formula_sum "Si O2"
_cell_formula_units_Z 64
_cell_length_a 23.043111
_cell_length_b 15.517371
_cell_length_c 20.523786
_cell_angle_alpha 90.000000
_cell_angle_beta 153.582110
_cell_angle_gamma 90.000000
_cell_volume 3265.078439
_symmetry_space_group_name_H-M "C 2/M"
_symmetry_group_IT_number 12
_symmetry_cell_setting 'monoclinic'
loop_
_space_group_symop_operation_xyz
x,y,z
-x,y,-z
-x,-y,-z
x,-y,z
1/2+x,1/2+y,z
1/2-x,1/2+y,-z
1/2-x,1/2-y,-z
1/2+x,1/2-y,z
loop_
_atom_site_type_symbol
_atom_site_label
_atom_site_fract_x
_atom_site_fract_y
_atom_site_fract_z
Si Si1 0.621974 0.718501 0.079381
Si Si2 0.572400 0.901395 0.449412
Si Si3 0.556254 0.401666 0.828335
Si Si4 0.703793 0.257242 0.632546
Si Si5 0.596239 0.596767 0.445019
Si Si6 0.722907 0.901754 0.856635
Si Si7 0.647694 0.095649 0.382105
Si Si8 0.548415 0.757547 0.203871
O O1 0.724651 0.773119 0.226304
O O2 0.699708 0.640967 0.124961
O O3 0.500000 0.682698 0.000000
O O4 0.561298 0.777954 0.961316
O O5 0.628438 0.834531 0.559186
O O6 0.425317 0.870260 0.285891
O O7 0.657288 0.891959 0.469269
O O8 0.578819 0.000000 0.482576
O O9 0.511849 0.500000 0.800554
O O10 0.536420 0.386184 0.730455
O O11 0.469129 0.335030 0.780952
O O12 0.706213 0.386784 0.001856
O O13 0.607295 0.336648 0.516703
O O14 0.808643 0.253930 0.681482
O O15 0.597629 0.500000 0.475812
O O16 0.710496 0.608566 0.506600
O O17 0.723627 0.000000 0.837240
O O18 0.542975 0.163964 0.249294
O O19 0.593568 0.000000 0.311836
#
# Coordination Sequence:
#
# PCOD8086192 Si02
#       8
#     8   8   8   8   8   8   8   8
#     4   9  19  34  50  68  92 126 167 203 234 273
#     4  10  20  32  48  73 102 129 156 188 238 299
#     4   9  16  28  47  68  93 123 153 192 240 282
#     4  10  19  31  48  70  98 130 161 198 238 276
#     4   9  17  30  50  75  98 123 160 202 241 280
#     4   9  19  34  49  69  98 128 159 196 235 285
#     4   9  17  30  49  73 100 127 156 195 242 288
#     4   9  17  31  49  70  96 125 162 202 236 276
#
# _framework density 19.601367
#
# number of rings (size 3 to 8) (size 9 to 14) (size 15 to 20)
#    0.000    2.750    0.000    1.500    0.000    4.750 
#    0.000   10.000    0.000    3.750    0.000    1.750 
#    0.000    0.000    0.000    0.000    0.000    0.000 
#
# Total GULP energy -396495.587643 kJ/mol
# GULP energy per Si atom -12390.487114 kJ/mol
# Density = 1.955675 g / cm^3
# Si number density = 19.601367 Si / 1000 Ang^3
#
#
#
# Elastic Constant Matrix: (Units=GPa)
#
#
# Indices 1 2 3 4 5 6 
#
# 1 19.4813 10.2361 13.2271 -0.0008 -4.8411 -0.0004
# 2 10.2361 91.5612 52.1924 -0.0007 -17.5665 -0.0005
# 3 13.2271 52.1924 109.9229 -0.0011 -24.6451 -0.0007
# 4 -0.0008 -0.0007 -0.0011 26.0164 -0.0009 -3.5620
# 5 -4.8411 -17.5665 -24.6451 -0.0009 24.9623 -0.0006
# 6 -0.0004 -0.0005 -0.0007 -3.5620 -0.0006 12.0473
#
#
#
# Elastic Compliance Matrix: (Units=1/GPa)
#
#
# Indices 1 2 3 4 5 6 
#
# 1 0.057039 -0.002974 -0.004419 0.000002 0.004607 0.000003
# 2 -0.002974 0.015537 -0.006033 0.000000 0.004401 0.000001
# 3 -0.004419 -0.006033 0.014576 0.000001 0.009288 0.000001
# 4 0.000002 0.000000 0.000001 0.040059 0.000003 0.011844
# 5 0.004607 0.004401 0.009288 0.000003 0.053221 0.000004
# 6 0.000003 0.000001 0.000001 0.011844 0.000004 0.086508
#
#
# Mechanical properties :
#
#
# Convention : Reuss Voigt Hill
#
# Bulk Modulus (GPa) = 16.58344 41.36407 28.97375
# Shear Modulus (GPa) = 15.92909 22.29252 19.11080
#
# Velocity S-wave (km/s) = 2.85380 3.37604 3.12584
# Velocity P-wave (km/s) = 4.39745 6.02871 5.27650
#
# Compressibility (1/GPa) = 0.06030112
#
# Stress axis : x y z
#
# Youngs Moduli (GPa) = 17.53197 64.36131 68.60695
#
# Poissons Ratio (x) = 0.19142 0.30314
# Poissons Ratio (y) = 0.05214 0.41388
# Poissons Ratio (z) = 0.07747 0.38827
#
# Static dielectric constant tensor:
#      x y z
#    x 3.190470 0.000000 -0.082740 
#    y 0.000000 3.648090 0.000000 
#    z -0.082740 0.000000 3.854670 
# 
# 
# High freq. dielectric constant tensor:
#      x y z
#    x 1.721370 0.000000 -0.007770 
#    y 0.000000 1.754330 0.000000 
#    z -0.007770 0.000000 1.774900 
# 
# From -- ./inp_files/285244.got.cif
#   From: 2010.06.25/outbox.cif.g09.slc.cpg/sg12_143_cif.got.tgz:285244.got - 2010.06.28 00:19:55.
