data_PCOD8086155
_publ_section_title
;
Structure prediction by ZEFSAII (Michael W. Deem and Ramdas Pophale) SiO2 
 PCOD8086155
Probable space group: C 2/M
;
_chemical_formula_sum "Si O2"
_cell_formula_units_Z 64
_cell_length_a 24.151512
_cell_length_b 9.091684
_cell_length_c 17.056642
_cell_angle_alpha 90.000000
_cell_angle_beta 94.019048
_cell_angle_gamma 90.000000
_cell_volume 3736.051560
_symmetry_space_group_name_H-M "C 2/M"
_symmetry_group_IT_number 12
_symmetry_cell_setting 'monoclinic'
loop_
_space_group_symop_operation_xyz
x,y,z
-x,y,-z
-x,-y,-z
x,-y,z
1/2+x,1/2+y,z
1/2-x,1/2+y,-z
1/2-x,1/2-y,-z
1/2+x,1/2-y,z
loop_
_atom_site_type_symbol
_atom_site_label
_atom_site_fract_x
_atom_site_fract_y
_atom_site_fract_z
Si Si1 0.571636 0.174419 0.731292
Si Si2 0.425083 0.175467 0.931643
Si Si3 0.343182 0.329730 0.367920
Si Si4 0.953738 0.325416 0.100340
Si Si5 0.783427 0.675499 0.645162
Si Si6 0.046386 0.331711 0.342026
Si Si7 0.630995 0.328757 0.453267
Si Si8 0.135597 0.332349 0.219117
O O1 0.625066 0.240621 0.695204
O O2 0.570595 0.236424 0.820518
O O3 0.515978 0.223961 0.680125
O O4 0.576351 0.000000 0.731491
O O5 0.484490 0.236269 0.908281
O O6 0.377420 0.239838 0.867881
O O7 0.425745 0.000000 0.924455
O O8 0.415329 0.222385 0.021629
O O9 0.344985 0.500000 0.345321
O O10 0.279874 0.273132 0.362555
O O11 0.371271 0.300389 0.454324
O O12 0.956619 0.500000 0.105707
O O13 0.790119 0.500000 0.638342
O O14 0.815236 0.745788 0.574912
O O15 0.812420 0.737097 0.728319
O O16 0.047145 0.500000 0.371447
O O17 0.073616 0.232162 0.412158
O O18 0.079903 0.316748 0.264655
O O19 0.636836 0.500000 0.433939
O O20 0.151478 0.500000 0.206416
#
# Coordination Sequence:
#
# PCOD8086155 Si02
#       8
#     8   8   8   8   8   8   8   8
#     4  10  19  31  48  69  95 126 159 192 222 267
#     4   8  11  18  38  68  98 118 137 180 235 270
#     4  10  22  36  47  64  91 126 160 190 231 280
#     4   8  13  21  37  67 100 120 140 182 231 267
#     4   9  18  33  52  70  90 117 154 197 234 271
#     4   9  17  30  47  69  96 122 152 188 230 275
#     4  10  20  33  50  70  91 115 151 197 240 279
#     4   8  12  22  43  68  91 115 144 184 229 271
#
# _framework density 17.130383999999999
#
# number of rings (size 3 to 8) (size 9 to 14) (size 15 to 20)
#    0.000    3.000    1.250    2.250    0.000    2.500 
#    0.000    2.500    0.000    0.750    0.000    5.250 
#    0.000    0.000    0.000    0.000    0.000    0.000 
#
# Total GULP energy -396522.298890 kJ/mol
# GULP energy per Si atom -12391.321840 kJ/mol
# Density = 1.709139 g / cm^3
# Si number density = 17.130384 Si / 1000 Ang^3
#
#
#
# Elastic Constant Matrix: (Units=GPa)
#
#
# Indices 1 2 3 4 5 6 
#
# 1 50.9926 18.3546 35.5171 0.0000 -5.8591 0.0000
# 2 18.3546 27.3186 28.3721 0.0000 -1.4388 0.0000
# 3 35.5171 28.3721 117.7845 0.0000 2.1711 0.0000
# 4 0.0000 0.0000 0.0000 10.8173 0.0000 -3.4525
# 5 -5.8591 -1.4388 2.1711 0.0000 22.5250 0.0000
# 6 0.0000 0.0000 0.0000 -3.4525 0.0000 22.3534
#
#
#
# Elastic Compliance Matrix: (Units=1/GPa)
#
#
# Indices 1 2 3 4 5 6 
#
# 1 0.029239 -0.013287 -0.005751 0.000000 0.007311 0.000000
# 2 -0.013287 0.055267 -0.009324 0.000000 0.000973 0.000000
# 3 -0.005751 -0.009324 0.012531 0.000000 -0.003299 0.000000
# 4 0.000000 0.000000 0.000000 0.097238 0.000000 0.015018
# 5 0.007311 0.000973 -0.003299 0.000000 0.046677 0.000000
# 6 0.000000 0.000000 0.000000 0.015018 0.000000 0.047056
#
#
# Mechanical properties :
#
#
# Convention : Reuss Voigt Hill
#
# Bulk Modulus (GPa) = 24.80594 40.06481 32.43537
# Shear Modulus (GPa) = 13.95986 18.72926 16.34456
#
# Velocity S-wave (km/s) = 2.85777 3.31015 3.09225
# Velocity P-wave (km/s) = 5.03997 6.16834 5.63248
#
# Compressibility (1/GPa) = 0.04031293
#
# Stress axis : x y z
#
# Youngs Moduli (GPa) = 34.20092 18.09391 79.80163
#
# Poissons Ratio (x) = 0.24041 0.45894
# Poissons Ratio (y) = 0.45443 0.74408
# Poissons Ratio (z) = 0.19669 0.16871
#
# Static dielectric constant tensor:
#      x y z
#    x 3.130380 0.000000 0.284830 
#    y 0.000000 2.784960 0.000000 
#    z 0.284830 0.000000 3.525840 
# 
# 
# High freq. dielectric constant tensor:
#      x y z
#    x 1.640730 0.000000 0.020820 
#    y 0.000000 1.616180 0.000000 
#    z 0.020820 0.000000 1.670660 
# 
# From -- ./inp_files/287627.got.cif
#   From: 2010.06.25/outbox.cif.g09.slc.cpg/sg12_144_cif.got.tgz:287627.got - 2010.06.28 00:19:55.
