data_PCOD8086625
_publ_section_title
;
Structure prediction by ZEFSAII (Michael W. Deem and Ramdas Pophale) SiO2 
 PCOD8086625
Probable space group: C 2/M
;
_chemical_formula_sum "Si O2"
_cell_formula_units_Z 44
_cell_length_a 21.200006
_cell_length_b 25.191594
_cell_length_c 5.105167
_cell_angle_alpha 90.000000
_cell_angle_beta 56.825513
_cell_angle_gamma 90.000000
_cell_volume 2282.081875
_symmetry_space_group_name_H-M "C 2/M"
_symmetry_group_IT_number 12
_symmetry_cell_setting 'monoclinic'
loop_
_space_group_symop_operation_xyz
x,y,z
-x,y,-z
-x,-y,-z
x,-y,z
1/2+x,1/2+y,z
1/2-x,1/2+y,-z
1/2-x,1/2-y,-z
1/2+x,1/2-y,z
loop_
_atom_site_type_symbol
_atom_site_label
_atom_site_fract_x
_atom_site_fract_y
_atom_site_fract_z
Si Si1 0.664659 0.222265 0.918705
Si Si2 0.947068 0.884828 0.369166
Si Si3 0.333270 0.710398 0.576314
Si Si4 0.051176 0.000000 0.632454
Si Si5 0.910224 0.559503 0.223111
Si Si6 0.911256 0.381430 0.723292
O O1 0.634732 0.247580 0.712566
O O2 0.747448 0.196870 0.687417
O O3 0.666514 0.267764 0.131231
O O4 0.607890 0.178359 0.155819
O O5 0.881229 0.842770 0.478659
O O6 0.905148 0.943180 0.476883
O O7 0.000000 0.873103 0.500000
O O8 0.000000 0.881611 0.000000
O O9 0.000000 0.000000 0.500000
O O10 0.000000 0.000000 0.000000
O O11 0.881680 0.500000 0.345389
O O12 0.877934 0.598917 0.521195
O O13 0.877693 0.579583 0.021137
O O14 0.000000 0.561008 0.000000
O O15 0.000000 0.386380 0.500000
#
# Coordination Sequence:
#
# PCOD8086625 Si02
#       6
#     8   8   8   4   8   8
#     4  10  21  36  52  74 104 144 178 210 260 314
#     4  10  19  33  55  82 105 135 174 220 266 315
#     4  10  21  36  53  74 103 143 176 208 261 320
#     4   8  16  30  50  76 104 130 163 208 268 318
#     4   9  17  30  49  72  98 130 167 204 253 306
#     4  10  19  31  50  75 100 132 169 217 257 291
#
# _framework density 19.280639999999998
#
# number of rings (size 3 to 8) (size 9 to 14) (size 15 to 20)
#    0.000    2.364    0.000    2.727    0.000    4.364 
#    0.000    0.000    4.000    0.000    4.727    0.000 
#    0.000    0.000    0.000    0.000    0.000    0.000 
#
# Total GULP energy -272595.680387 kJ/mol
# GULP energy per Si atom -12390.712745 kJ/mol
# Density = 1.923676 g / cm^3
# Si number density = 19.280640 Si / 1000 Ang^3
#
#
#
# Elastic Constant Matrix: (Units=GPa)
#
#
# Indices 1 2 3 4 5 6 
#
# 1 51.5286 42.8282 34.0913 0.0000 14.4320 0.0000
# 2 42.8282 145.0292 47.8164 0.0000 -4.8521 0.0000
# 3 34.0913 47.8164 105.9961 0.0000 26.2999 0.0000
# 4 0.0000 0.0000 0.0000 26.2947 0.0000 14.3571
# 5 14.4320 -4.8521 26.2999 0.0000 21.8603 0.0000
# 6 0.0000 0.0000 0.0000 14.3571 0.0000 17.4504
#
#
#
# Elastic Compliance Matrix: (Units=1/GPa)
#
#
# Indices 1 2 3 4 5 6 
#
# 1 0.036660 -0.011830 0.000289 0.000000 -0.027176 0.000000
# 2 -0.011830 0.013320 -0.006950 0.000000 0.019129 0.000000
# 3 0.000289 -0.006950 0.018399 0.000000 -0.023869 0.000000
# 4 0.000000 0.000000 0.000000 0.069048 0.000000 -0.056809
# 5 -0.027176 0.019129 -0.023869 0.000000 0.096649 0.000000
# 6 0.000000 0.000000 0.000000 -0.056809 0.000000 0.104044
#
#
# Mechanical properties :
#
#
# Convention : Reuss Voigt Hill
#
# Bulk Modulus (GPa) = 31.85109 61.33618 46.59364
# Shear Modulus (GPa) = 12.96785 24.97563 18.97174
#
# Velocity S-wave (km/s) = 2.59624 3.60303 3.14025
# Velocity P-wave (km/s) = 5.05399 7.01360 6.11283
#
# Compressibility (1/GPa) = 0.03139610
#
# Stress axis : x y z
#
# Youngs Moduli (GPa) = 27.27789 75.07379 54.35034
#
# Poissons Ratio (x) = 0.88815 -0.01571
# Poissons Ratio (y) = 0.32271 0.37774
# Poissons Ratio (z) = -0.00789 0.52178
#
# Static dielectric constant tensor:
#      x y z
#    x 3.251020 0.000000 0.382790 
#    y 0.000000 4.079740 0.000000 
#    z 0.382790 0.000000 3.784760 
# 
# 
# High freq. dielectric constant tensor:
#      x y z
#    x 1.709750 0.000000 0.038050 
#    y 0.000000 1.760450 0.000000 
#    z 0.038050 0.000000 1.761040 
# 
# From -- ./inp_files/20910.got.cif
#   From: 2010.06.25/outbox.cif.g09.slc.cpg/sg12_11_cif.got.tgz:20910.got - 2010.06.28 00:19:55.
