data_PCOD8086686
_publ_section_title
;
Structure prediction by ZEFSAII (Michael W. Deem and Ramdas Pophale) SiO2 
 PCOD8086686
Probable space group: C 2/M
;
_chemical_formula_sum "Si O2"
_cell_formula_units_Z 56
_cell_length_a 17.968779
_cell_length_b 9.073907
_cell_length_c 25.070149
_cell_angle_alpha 90.000000
_cell_angle_beta 45.527770
_cell_angle_gamma 90.000000
_cell_volume 2916.880322
_symmetry_space_group_name_H-M "C 2/M"
_symmetry_group_IT_number 12
_symmetry_cell_setting 'monoclinic'
loop_
_space_group_symop_operation_xyz
x,y,z
-x,y,-z
-x,-y,-z
x,-y,z
1/2+x,1/2+y,z
1/2-x,1/2+y,-z
1/2-x,1/2-y,-z
1/2+x,1/2-y,z
loop_
_atom_site_type_symbol
_atom_site_label
_atom_site_fract_x
_atom_site_fract_y
_atom_site_fract_z
Si Si1 0.533287 0.328594 0.880145
Si Si2 0.277588 0.332068 0.137408
Si Si3 0.918307 0.826919 0.264575
Si Si4 0.762895 0.336678 0.573531
Si Si5 0.908073 0.836234 0.432845
Si Si6 0.951137 0.669188 0.713800
Si Si7 0.319543 0.174836 0.009802
O O1 0.500842 0.500000 0.899389
O O2 0.626542 0.291093 0.873019
O O3 0.569598 0.284684 0.802880
O O4 0.437835 0.227804 0.945466
O O5 0.287722 0.500000 0.111180
O O6 0.173183 0.313211 0.224395
O O7 0.274476 0.221050 0.089588
O O8 0.801349 0.780777 0.342275
O O9 0.005685 0.741833 0.253973
O O10 0.934567 0.000000 0.267315
O O11 0.807746 0.500000 0.560618
O O12 0.861225 0.233109 0.510780
O O13 0.681360 0.337832 0.566275
O O14 0.005704 0.743810 0.361720
O O15 0.947045 0.000000 0.426737
O O16 0.986576 0.500000 0.695558
O O17 0.313064 0.000000 0.006781
O O18 0.250000 0.250000 0.000000
#
# Coordination Sequence:
#
# PCOD8086686 Si02
#       7
#     8   8   8   8   8   8   8
#     4  10  21  39  60  81 110 144 177 217 266 318
#     4  10  22  39  58  81 110 144 179 217 265 318
#     4   9  18  32  52  77 103 136 176 218 265 314
#     4   8  14  25  42  68 100 130 167 216 265 312
#     4   9  16  26  43  69 100 134 172 215 265 314
#     4  10  19  31  50  76 105 137 175 219 264 312
#     4  12  25  40  60  85 111 140 177 219 264 314
#
# _framework density 19.198592999999999
#
# number of rings (size 3 to 8) (size 9 to 14) (size 15 to 20)
#    0.000    2.286    0.000    4.286    0.000    9.714 
#    0.000    0.000    0.000    0.857    0.000    6.000 
#    0.000    0.000    0.000    0.000    0.000    0.000 
#
# Total GULP energy -347210.145185 kJ/mol
# GULP energy per Si atom -12400.362328 kJ/mol
# Density = 1.915490 g / cm^3
# Si number density = 19.198593 Si / 1000 Ang^3
#
#
#
# Elastic Constant Matrix: (Units=GPa)
#
#
# Indices 1 2 3 4 5 6 
#
# 1 61.3847 34.8263 28.5525 0.0000 -19.8157 0.0001
# 2 34.8263 109.4188 53.3511 0.0000 -14.5721 0.0002
# 3 28.5525 53.3511 122.0503 0.0000 -13.1257 0.0000
# 4 0.0000 0.0000 0.0000 32.1787 0.0000 2.6461
# 5 -19.8157 -14.5721 -13.1257 0.0000 13.6105 0.0000
# 6 0.0001 0.0002 0.0000 2.6461 0.0000 18.3650
#
#
#
# Elastic Compliance Matrix: (Units=1/GPa)
#
#
# Indices 1 2 3 4 5 6 
#
# 1 0.032884 -0.004216 -0.001324 0.000000 0.042086 0.000000
# 2 -0.004216 0.013088 -0.004338 0.000000 0.003691 0.000000
# 3 -0.001324 -0.004338 0.010814 0.000000 0.003857 0.000000
# 4 0.000000 0.000000 0.000000 0.031449 0.000000 -0.004531
# 5 0.042086 0.003691 0.003857 0.000000 0.142417 0.000000
# 6 0.000000 0.000000 0.000000 -0.004531 0.000000 0.055104
#
#
# Mechanical properties :
#
#
# Convention : Reuss Voigt Hill
#
# Bulk Modulus (GPa) = 27.00482 58.47928 42.74205
# Shear Modulus (GPa) = 15.73044 24.57246 20.15145
#
# Velocity S-wave (km/s) = 2.86554 3.58146 3.24332
# Velocity P-wave (km/s) = 5.00450 6.90136 6.02801
#
# Compressibility (1/GPa) = 0.03703043
#
# Stress axis : x y z
#
# Youngs Moduli (GPa) = 30.40962 76.40791 92.47303
#
# Poissons Ratio (x) = 0.32214 0.12243
# Poissons Ratio (y) = 0.12821 0.40112
# Poissons Ratio (z) = 0.04026 0.33143
#
# Static dielectric constant tensor:
#      x y z
#    x 3.151780 0.000000 0.050090 
#    y 0.000000 3.622160 0.000000 
#    z 0.050090 0.000000 3.843260 
# 
# 
# High freq. dielectric constant tensor:
#      x y z
#    x 1.707770 0.000000 0.001100 
#    y 0.000000 1.746910 0.000000 
#    z 0.001100 0.000000 1.767630 
# 
# From -- ./inp_files/362988.got.cif
#   From: 2010.06.25/outbox.cif.g09.slc.cpg/sg12_182_cif.got.tgz:362988.got - 2010.06.28 00:19:55.
