data_PCOD8086498
_publ_section_title
;
Structure prediction by ZEFSAII (Michael W. Deem and Ramdas Pophale) SiO2 
 PCOD8086498
Probable space group: C 2/M
;
_chemical_formula_sum "Si O2"
_cell_formula_units_Z 64
_cell_length_a 24.797340
_cell_length_b 8.730505
_cell_length_c 23.842604
_cell_angle_alpha 90.000000
_cell_angle_beta 45.458778
_cell_angle_gamma 90.000000
_cell_volume 3679.026615
_symmetry_space_group_name_H-M "C 2/M"
_symmetry_group_IT_number 12
_symmetry_cell_setting 'monoclinic'
loop_
_space_group_symop_operation_xyz
x,y,z
-x,y,-z
-x,-y,-z
x,-y,z
1/2+x,1/2+y,z
1/2-x,1/2+y,-z
1/2-x,1/2-y,-z
1/2+x,1/2-y,z
loop_
_atom_site_type_symbol
_atom_site_label
_atom_site_fract_x
_atom_site_fract_y
_atom_site_fract_z
Si Si1 0.790597 0.321082 0.338983
Si Si2 0.304432 0.177703 0.505462
Si Si3 0.578297 0.175104 0.668225
Si Si4 0.855814 0.820334 0.183892
Si Si5 0.527476 0.320779 0.083792
Si Si6 0.777204 0.680051 0.922134
Si Si7 0.660813 0.179643 0.921960
Si Si8 0.066170 0.821731 0.181955
O O1 0.785931 0.500000 0.329168
O O2 0.710901 0.264974 0.424623
O O3 0.858750 0.280683 0.331619
O O4 0.801374 0.227374 0.274220
O O5 0.250000 0.250000 0.500000
O O6 0.389269 0.198520 0.418764
O O7 0.284679 0.000000 0.527462
O O8 0.506376 0.284201 0.727219
O O9 0.553083 0.000000 0.695751
O O10 0.828911 0.726583 0.149761
O O11 0.941154 0.773589 0.137113
O O12 0.848494 0.000000 0.177422
O O13 0.540667 0.500000 0.063731
O O14 0.550631 0.272141 0.129417
O O15 0.577592 0.227720 0.003207
O O16 0.770745 0.500000 0.932057
O O17 0.724575 0.734751 0.910477
O O18 0.862843 0.728336 0.846266
O O19 0.750000 0.750000 0.000000
O O20 0.671691 0.000000 0.921294
O O21 0.084438 0.000000 0.173007
#
# Coordination Sequence:
#
# PCOD8086498 Si02
#       8
#     8   8   8   8   8   8   8   8
#     4  10  19  31  49  75 107 142 179 217 261 316
#     4   9  17  29  46  71 104 141 177 214 260 315
#     4   9  18  31  48  74 108 141 176 217 261 314
#     4  11  22  37  55  77 108 145 181 220 263 316
#     4  10  21  36  54  77 107 142 179 218 264 317
#     4  12  24  40  59  78 102 136 177 224 271 317
#     4  12  25  39  56  78 104 139 180 225 268 315
#     4  11  21  34  55  81 107 139 177 220 267 316
#
# _framework density 17.395904999999999
#
# number of rings (size 3 to 8) (size 9 to 14) (size 15 to 20)
#    0.000    1.500    2.500    4.875    0.000    5.500 
#    0.000    0.000    0.000    0.000    0.000    0.875 
#    0.000    7.000    0.000    0.000    0.000    0.000 
#
# Total GULP energy -396877.051325 kJ/mol
# GULP energy per Si atom -12402.407854 kJ/mol
# Density = 1.735631 g / cm^3
# Si number density = 17.395905 Si / 1000 Ang^3
#
#
#
# Elastic Constant Matrix: (Units=GPa)
#
#
# Indices 1 2 3 4 5 6 
#
# 1 60.5210 30.7757 32.1473 0.0066 6.1828 -0.0035
# 2 30.7757 91.1293 36.9072 0.0186 -1.2636 -0.0168
# 3 32.1473 36.9072 118.6725 0.0008 4.6190 -0.0055
# 4 0.0066 0.0186 0.0008 35.4472 -0.0026 -0.0107
# 5 6.1828 -1.2636 4.6190 -0.0026 15.5737 0.0074
# 6 -0.0035 -0.0168 -0.0055 -0.0107 0.0074 24.4926
#
#
#
# Elastic Compliance Matrix: (Units=1/GPa)
#
#
# Indices 1 2 3 4 5 6 
#
# 1 0.022565 -0.006168 -0.003871 -0.000001 -0.008311 0.000001
# 2 -0.006168 0.014316 -0.002956 -0.000006 0.004487 0.000007
# 3 -0.003871 -0.002956 0.010465 0.000002 -0.001807 0.000000
# 4 -0.000001 -0.000006 0.000002 0.028211 0.000004 0.000012
# 5 -0.008311 0.004487 -0.001807 0.000004 0.068410 -0.000019
# 6 0.000001 0.000007 0.000000 0.000012 -0.000019 0.040829
#
#
# Mechanical properties :
#
#
# Convention : Reuss Voigt Hill
#
# Bulk Modulus (GPa) = 46.82604 52.22036 49.52320
# Shear Modulus (GPa) = 22.94592 26.46887 24.70739
#
# Velocity S-wave (km/s) = 3.63580 3.90495 3.77277
# Velocity P-wave (km/s) = 6.67845 7.10038 6.89264
#
# Compressibility (1/GPa) = 0.02135564
#
# Stress axis : x y z
#
# Youngs Moduli (GPa) = 44.31672 69.85263 95.55858
#
# Poissons Ratio (x) = 0.43085 0.36990
# Poissons Ratio (y) = 0.27335 0.28247
# Poissons Ratio (z) = 0.17155 0.20649
#
# Static dielectric constant tensor:
#      x y z
#    x 3.095670 -0.000020 -0.024710 
#    y -0.000020 3.363420 0.000000 
#    z -0.024710 0.000000 3.548290 
# 
# 
# High freq. dielectric constant tensor:
#      x y z
#    x 1.632500 0.000000 -0.001920 
#    y 0.000000 1.686370 0.000000 
#    z -0.001920 0.000000 1.680570 
# 
# From -- ./inp_files/324151.got.cif
#   From: 2010.06.25/outbox.cif.g09.slc.cpg/sg12_163_cif.got.tgz:324151.got - 2010.06.28 00:19:55.
