data_PCOD8086268
_publ_section_title
;
Structure prediction by ZEFSAII (Michael W. Deem and Ramdas Pophale) SiO2 
 PCOD8086268
Probable space group: C 2/M
;
_chemical_formula_sum "Si O2"
_cell_formula_units_Z 64
_cell_length_a 24.915789
_cell_length_b 8.968675
_cell_length_c 17.411036
_cell_angle_alpha 90.000000
_cell_angle_beta 77.317257
_cell_angle_gamma 90.000000
_cell_volume 3795.767952
_symmetry_space_group_name_H-M "C 2/M"
_symmetry_group_IT_number 12
_symmetry_cell_setting 'monoclinic'
loop_
_space_group_symop_operation_xyz
x,y,z
-x,y,-z
-x,-y,-z
x,-y,z
1/2+x,1/2+y,z
1/2-x,1/2+y,-z
1/2-x,1/2-y,-z
1/2+x,1/2-y,z
loop_
_atom_site_type_symbol
_atom_site_label
_atom_site_fract_x
_atom_site_fract_y
_atom_site_fract_z
Si Si1 0.284356 0.673949 0.165086
Si Si2 0.208919 0.673899 0.676587
Si Si3 0.818200 0.323166 0.592502
Si Si4 0.695372 0.826616 0.988248
Si Si5 0.380108 0.172117 0.421375
Si Si6 0.394537 0.326602 0.691262
Si Si7 0.841602 0.330332 0.838971
Si Si8 0.009599 0.173841 0.582445
O O1 0.297498 0.500000 0.164974
O O2 0.301461 0.749481 0.238868
O O3 0.220449 0.705835 0.168391
O O4 0.322116 0.746848 0.085755
O O5 0.221563 0.500000 0.684223
O O6 0.258956 0.747261 0.614900
O O7 0.154172 0.700956 0.644647
O O8 0.810108 0.500000 0.597665
O O9 0.846896 0.266811 0.505537
O O10 0.854473 0.273149 0.652834
O O11 0.651217 0.806157 0.071222
O O12 0.706739 0.000000 0.969064
O O13 0.750000 0.750000 0.000000
O O14 0.437929 0.253914 0.393894
O O15 0.392727 0.000000 0.430589
O O16 0.381308 0.500000 0.682050
O O17 0.383567 0.280713 0.782977
O O18 0.457328 0.289525 0.651600
O O19 0.856236 0.500000 0.812653
O O20 0.000000 0.240207 0.500000
O O21 0.021336 0.000000 0.572247
#
# Coordination Sequence:
#
# PCOD8086268 Si02
#       8
#     8   8   8   8   8   8   8   8
#     4  10  19  31  48  73 103 135 170 203 249 304
#     4  11  22  35  51  74 103 135 174 211 251 305
#     4  11  21  34  51  73 102 134 171 210 255 304
#     4   9  17  29  46  69 100 136 169 203 248 299
#     4  10  23  38  53  74  98 133 176 216 257 303
#     4  11  21  32  51  76 101 134 172 210 255 301
#     4   9  18  31  47  71 103 133 168 206 246 301
#     4  10  21  37  54  74  99 130 172 217 259 303
#
# _framework density 16.860883999999999
#
# number of rings (size 3 to 8) (size 9 to 14) (size 15 to 20)
#    0.000    1.875    2.500    3.000    0.000    5.250 
#    0.000    0.000    0.000    0.000    0.000    0.875 
#    0.000    7.000    0.000    0.000    0.000    0.000 
#
# Total GULP energy -396816.573747 kJ/mol
# GULP energy per Si atom -12400.517930 kJ/mol
# Density = 1.682251 g / cm^3
# Si number density = 16.860884 Si / 1000 Ang^3
#
#
#
# Elastic Constant Matrix: (Units=GPa)
#
#
# Indices 1 2 3 4 5 6 
#
# 1 76.7525 43.0599 38.7205 0.0000 -2.5905 0.0000
# 2 43.0599 85.2029 47.7193 0.0000 -8.1608 0.0000
# 3 38.7205 47.7193 115.9419 0.0000 -15.6852 0.0000
# 4 0.0000 0.0000 0.0000 31.5078 0.0000 -2.4457
# 5 -2.5905 -8.1608 -15.6852 0.0000 14.1657 0.0000
# 6 0.0000 0.0000 0.0000 -2.4457 0.0000 26.1455
#
#
#
# Elastic Compliance Matrix: (Units=1/GPa)
#
#
# Indices 1 2 3 4 5 6 
#
# 1 0.019356 -0.008148 -0.003842 0.000000 -0.005409 0.000000
# 2 -0.008148 0.018739 -0.004390 0.000000 0.004444 0.000000
# 3 -0.003842 -0.004390 0.013265 0.000000 0.011456 0.000000
# 4 0.000000 0.000000 0.000000 0.031970 0.000000 0.002991
# 5 -0.005409 0.004444 0.011456 0.000000 0.084849 0.000000
# 6 0.000000 0.000000 0.000000 0.002991 0.000000 0.038527
#
#
# Mechanical properties :
#
#
# Convention : Reuss Voigt Hill
#
# Bulk Modulus (GPa) = 53.76746 59.65520 56.71133
# Shear Modulus (GPa) = 20.35268 24.25697 22.30483
#
# Velocity S-wave (km/s) = 3.47810 3.79707 3.64108
# Velocity P-wave (km/s) = 6.93453 7.39468 7.16830
#
# Compressibility (1/GPa) = 0.01859861
#
# Stress axis : x y z
#
# Youngs Moduli (GPa) = 51.66326 53.36424 75.38668
#
# Poissons Ratio (x) = 0.43483 0.28966
# Poissons Ratio (y) = 0.42097 0.33096
# Poissons Ratio (z) = 0.19851 0.23428
#
# Static dielectric constant tensor:
#      x y z
#    x 2.854680 0.000000 -0.154830 
#    y 0.000000 3.259750 0.000000 
#    z -0.154830 0.000000 3.529920 
# 
# 
# High freq. dielectric constant tensor:
#      x y z
#    x 1.607280 0.000000 -0.009730 
#    y 0.000000 1.662530 0.000000 
#    z -0.009730 0.000000 1.659690 
# 
# From -- ./inp_files/287619.got.cif
#   From: 2010.06.25/outbox.cif.g09.slc.cpg/sg12_144_cif.got.tgz:287619.got - 2010.06.28 00:19:55.
