data_PCOD8086020
_publ_section_title
;
Structure prediction by ZEFSAII (Michael W. Deem and Ramdas Pophale) SiO2 
 PCOD8086020
Probable space group: C 2/M
;
_chemical_formula_sum "Si O2"
_cell_formula_units_Z 64
_cell_length_a 27.397929
_cell_length_b 8.905575
_cell_length_c 21.989821
_cell_angle_alpha 90.000000
_cell_angle_beta 47.375337
_cell_angle_gamma 90.000000
_cell_volume 3947.885225
_symmetry_space_group_name_H-M "C 2/M"
_symmetry_group_IT_number 12
_symmetry_cell_setting 'monoclinic'
loop_
_space_group_symop_operation_xyz
x,y,z
-x,y,-z
-x,-y,-z
x,-y,z
1/2+x,1/2+y,z
1/2-x,1/2+y,-z
1/2-x,1/2-y,-z
1/2+x,1/2-y,z
loop_
_atom_site_type_symbol
_atom_site_label
_atom_site_fract_x
_atom_site_fract_y
_atom_site_fract_z
Si Si1 0.905842 0.825228 0.841956
Si Si2 0.246424 0.165438 0.595190
Si Si3 0.347714 0.334137 0.440550
Si Si4 0.855022 0.830039 0.020642
Si Si5 0.045150 0.322299 0.725300
Si Si6 0.923510 0.325567 0.071140
Si Si7 0.780780 0.326327 0.915854
Si Si8 0.878725 0.178068 0.230166
O O1 0.849691 0.759297 0.843314
O O2 0.972468 0.736436 0.771361
O O3 0.915990 0.000000 0.819696
O O4 0.883899 0.795766 0.929694
O O5 0.310814 0.270299 0.531878
O O6 0.205408 0.155468 0.567895
O O7 0.196424 0.228439 0.689088
O O8 0.272072 0.000000 0.591667
O O9 0.375447 0.500000 0.432269
O O10 0.407683 0.226809 0.370072
O O11 0.886726 0.711662 0.039642
O O12 0.774762 0.810770 0.090167
O O13 0.873934 0.000000 0.023844
O O14 0.045545 0.500000 0.730472
O O15 0.068211 0.254487 0.770133
O O16 0.914427 0.500000 0.094326
O O17 0.891532 0.226411 0.150874
O O18 0.000000 0.281716 0.000000
O O19 0.795788 0.500000 0.916986
O O20 0.750000 0.250000 0.000000
O O21 0.886589 0.000000 0.231459
#
# Coordination Sequence:
#
# PCOD8086020 Si02
#       8
#     8   8   8   8   8   8   8   8
#     4  10  19  31  47  67  90 117 149 183 224 271
#     4   8  15  27  42  60  81 109 145 182 219 259
#     4   9  16  26  41  61  85 114 145 177 216 262
#     4   9  19  33  48  64  85 116 150 185 224 265
#     4  11  20  29  43  64  92 121 149 183 221 264
#     4  11  23  34  45  64  89 118 154 192 225 258
#     4   9  17  30  47  67  88 112 145 183 225 269
#     4  10  20  33  47  62  85 118 154 189 224 264
#
# _framework density 16.211210999999999
#
# number of rings (size 3 to 8) (size 9 to 14) (size 15 to 20)
#    0.000    2.375    0.000    5.250    0.000    9.500 
#    0.000    0.000    0.000    0.000    0.000    0.000 
#    0.000    1.000    0.000   10.500    0.000    5.250 
#
# Total GULP energy -396696.885551 kJ/mol
# GULP energy per Si atom -12396.777673 kJ/mol
# Density = 1.617431 g / cm^3
# Si number density = 16.211211 Si / 1000 Ang^3
#
#
#
# Elastic Constant Matrix: (Units=GPa)
#
#
# Indices 1 2 3 4 5 6 
#
# 1 66.7104 34.5046 30.6641 0.0024 -15.7249 -0.0117
# 2 34.5046 101.1418 40.2629 0.0151 -10.7806 -0.0278
# 3 30.6641 40.2629 83.8250 0.0029 -13.8455 -0.0153
# 4 0.0024 0.0151 0.0029 27.3347 -0.0006 -4.8018
# 5 -15.7249 -10.7806 -13.8455 -0.0006 16.8667 0.0095
# 6 -0.0117 -0.0278 -0.0153 -4.8018 0.0095 22.7804
#
#
#
# Elastic Compliance Matrix: (Units=1/GPa)
#
#
# Indices 1 2 3 4 5 6 
#
# 1 0.022616 -0.004700 -0.003504 0.000001 0.015204 -0.000003
# 2 -0.004700 0.013379 -0.004648 -0.000005 0.000354 0.000010
# 3 -0.003504 -0.004648 0.016675 0.000001 0.007450 0.000001
# 4 0.000001 -0.000005 0.000001 0.037990 -0.000004 0.008008
# 5 0.015204 0.000354 0.007450 -0.000004 0.079805 -0.000021
# 6 -0.000003 0.000010 0.000001 0.008008 -0.000021 0.045585
#
#
# Mechanical properties :
#
#
# Convention : Reuss Voigt Hill
#
# Bulk Modulus (GPa) = 37.08632 51.39337 44.23984
# Shear Modulus (GPa) = 19.94077 23.14608 21.54342
#
# Velocity S-wave (km/s) = 3.51103 3.78270 3.64939
# Velocity P-wave (km/s) = 6.27400 7.13089 6.71612
#
# Compressibility (1/GPa) = 0.02696412
#
# Stress axis : x y z
#
# Youngs Moduli (GPa) = 44.21689 74.74631 59.97094
#
# Poissons Ratio (x) = 0.35129 0.21016
# Poissons Ratio (y) = 0.20781 0.27877
# Poissons Ratio (z) = 0.15495 0.34745
#
# Static dielectric constant tensor:
#      x y z
#    x 2.949730 -0.000020 -0.305310 
#    y -0.000020 3.283510 0.000010 
#    z -0.305310 0.000010 3.094700 
# 
# 
# High freq. dielectric constant tensor:
#      x y z
#    x 1.583790 0.000000 -0.029290 
#    y 0.000000 1.640670 0.000000 
#    z -0.029290 0.000000 1.608800 
# 
# From -- ./inp_files/326873.got.cif
#   From: 2010.06.25/outbox.cif.g09.slc.cpg/sg12_164_cif.got.tgz:326873.got - 2010.06.28 00:19:55.
