data_PCOD8086669
_publ_section_title
;
Structure prediction by ZEFSAII (Michael W. Deem and Ramdas Pophale) SiO2 
 PCOD8086669
Probable space group: C 2/M
;
_chemical_formula_sum "Si O2"
_cell_formula_units_Z 64
_cell_length_a 20.663006
_cell_length_b 9.188752
_cell_length_c 27.285176
_cell_angle_alpha 90.000000
_cell_angle_beta 40.773315
_cell_angle_gamma 90.000000
_cell_volume 3383.258451
_symmetry_space_group_name_H-M "C 2/M"
_symmetry_group_IT_number 12
_symmetry_cell_setting 'monoclinic'
loop_
_space_group_symop_operation_xyz
x,y,z
-x,y,-z
-x,-y,-z
x,-y,z
1/2+x,1/2+y,z
1/2-x,1/2+y,-z
1/2-x,1/2-y,-z
1/2+x,1/2-y,z
loop_
_atom_site_type_symbol
_atom_site_label
_atom_site_fract_x
_atom_site_fract_y
_atom_site_fract_z
Si Si1 0.290943 0.826935 0.075619
Si Si2 0.057817 0.173064 0.575619
Si Si3 0.717905 0.327231 0.405670
Si Si4 0.675593 0.173300 0.834664
Si Si5 0.921941 0.832646 0.836566
Si Si6 0.529244 0.172769 0.094330
Si Si7 0.655081 0.326700 0.334663
Si Si8 0.095071 0.167354 0.663434
O O1 0.308397 0.763425 0.120013
O O2 0.186468 0.770600 0.114593
O O3 0.291358 0.000000 0.078156
O O4 0.377547 0.769913 0.990462
O O5 0.141527 0.230089 0.490462
O O6 0.084342 0.229398 0.614594
O O7 0.951574 0.236575 0.620013
O O8 0.052327 0.000000 0.578155
O O9 0.727691 0.500000 0.401328
O O10 0.679265 0.271968 0.375369
O O11 0.825219 0.260776 0.353131
O O12 0.569997 0.228031 0.875372
O O13 0.762104 0.234400 0.750001
O O14 0.678188 0.000000 0.834029
O O15 0.968523 0.739226 0.853129
O O16 0.989121 0.815789 0.750000
O O17 0.915708 0.000000 0.857029
O O18 0.530345 0.000000 0.098674
O O19 0.653758 0.500000 0.334027
O O20 0.129764 0.000000 0.642971
#
# Coordination Sequence:
#
# PCOD8086669 Si02
#       8
#     8   8   8   8   8   8   8   8
#     4   9  17  30  48  70  96 126 160 196 233 277
#     4   9  17  30  48  70  96 126 160 196 233 277
#     4  10  19  31  50  75  99 122 153 197 244 282
#     4   9  16  27  46  72  98 123 156 198 238 276
#     4  10  20  33  49  69  95 129 164 194 229 279
#     4  10  19  31  50  75  99 122 153 197 244 282
#     4   9  16  27  46  72  98 123 156 198 238 276
#     4  10  20  33  49  69  95 129 164 194 229 279
#
# _framework density 18.916675999999999
#
# number of rings (size 3 to 8) (size 9 to 14) (size 15 to 20)
#    0.000    2.500    0.000    3.000    0.000    7.500 
#    0.000    0.000    0.000    4.500    0.000    0.000 
#    0.000    0.000    0.000    0.000    0.000    0.000 
#
# Total GULP energy -396855.137076 kJ/mol
# GULP energy per Si atom -12401.723034 kJ/mol
# Density = 1.887362 g / cm^3
# Si number density = 18.916676 Si / 1000 Ang^3
#
#
#
# Elastic Constant Matrix: (Units=GPa)
#
#
# Indices 1 2 3 4 5 6 
#
# 1 128.2670 19.6518 30.9405 0.0001 0.4451 -0.0032
# 2 19.6518 15.0091 13.8343 0.0004 0.4439 -0.0063
# 3 30.9405 13.8343 102.7756 -0.0005 1.5006 -0.0012
# 4 0.0001 0.0004 -0.0005 17.5833 0.0003 0.2196
# 5 0.4451 0.4439 1.5006 0.0003 45.6669 -0.0003
# 6 -0.0032 -0.0063 -0.0012 0.2196 -0.0003 20.4524
#
#
#
# Elastic Compliance Matrix: (Units=1/GPa)
#
#
# Indices 1 2 3 4 5 6 
#
# 1 0.009930 -0.011698 -0.001416 0.000000 0.000063 -0.000002
# 2 -0.011698 0.089853 -0.008566 -0.000002 -0.000478 0.000025
# 3 -0.001416 -0.008566 0.011313 0.000001 -0.000275 -0.000002
# 4 0.000000 -0.000002 0.000001 0.056880 0.000000 -0.000611
# 5 0.000063 -0.000478 -0.000275 0.000000 0.021911 0.000000
# 6 -0.000002 0.000025 -0.000002 -0.000611 0.000000 0.048901
#
#
# Mechanical properties :
#
#
# Convention : Reuss Voigt Hill
#
# Bulk Modulus (GPa) = 14.76324 41.65612 28.20968
# Shear Modulus (GPa) = 16.40818 28.84885 22.62851
#
# Velocity S-wave (km/s) = 2.94835 3.90942 3.46239
# Velocity P-wave (km/s) = 4.40586 6.51512 5.56140
#
# Compressibility (1/GPa) = 0.06773580
#
# Stress axis : x y z
#
# Youngs Moduli (GPa) = 100.70681 11.12928 88.39257
#
# Poissons Ratio (x) = 0.13020 0.12513
# Poissons Ratio (y) = 1.17812 0.75718
# Poissons Ratio (z) = 0.14256 0.09533
#
# Static dielectric constant tensor:
#      x y z
#    x 3.627300 0.000000 -0.005390 
#    y 0.000000 2.833370 0.000000 
#    z -0.005390 0.000000 3.698040 
# 
# 
# High freq. dielectric constant tensor:
#      x y z
#    x 1.752570 0.000000 -0.000190 
#    y 0.000000 1.665950 0.000000 
#    z -0.000190 0.000000 1.755120 
# 
# From -- ./inp_files/276454.got.cif
#   From: 2010.06.25/outbox.cif.g09.slc.cpg/sg12_139_cif.got.tgz:276454.got - 2010.06.28 00:19:55.
