data_PCOD8086950
_publ_section_title
;
Structure prediction by ZEFSAII (Michael W. Deem and Ramdas Pophale) SiO2 
 PCOD8086950
Probable space group: C 2/M
;
_chemical_formula_sum "Si O2"
_cell_formula_units_Z 52
_cell_length_a 13.019789
_cell_length_b 20.664879
_cell_length_c 18.251465
_cell_angle_alpha 90.000000
_cell_angle_beta 145.624835
_cell_angle_gamma 90.000000
_cell_volume 2772.570335
_symmetry_space_group_name_H-M "C 2/M"
_symmetry_group_IT_number 12
_symmetry_cell_setting 'monoclinic'
loop_
_space_group_symop_operation_xyz
x,y,z
-x,y,-z
-x,-y,-z
x,-y,z
1/2+x,1/2+y,z
1/2-x,1/2+y,-z
1/2-x,1/2-y,-z
1/2+x,1/2-y,z
loop_
_atom_site_type_symbol
_atom_site_label
_atom_site_fract_x
_atom_site_fract_y
_atom_site_fract_z
Si Si1 0.398126 0.792759 0.174744
Si Si2 0.765851 0.852153 0.344886
Si Si3 0.889438 0.072983 0.703994
Si Si4 0.340132 0.775330 0.302838
Si Si5 0.500000 0.878791 0.500000
Si Si6 0.456748 0.321475 0.103251
Si Si7 0.488194 0.424009 0.599538
O O1 0.554862 0.841004 0.237868
O O2 0.432518 0.768928 0.277861
O O3 0.389916 0.725957 0.127247
O O4 0.208216 0.831548 0.051370
O O5 0.857081 0.786198 0.366562
O O6 0.860253 0.877678 0.474785
O O7 0.804317 0.906816 0.304507
O O8 0.670612 0.077721 0.576586
O O9 0.960802 0.096748 0.667086
O O10 0.987133 0.111564 0.826132
O O11 0.948922 0.000000 0.752241
O O12 0.444044 0.835191 0.399000
O O13 0.128649 0.790840 0.163322
O O14 0.445171 0.500000 0.561818
#
# Coordination Sequence:
#
# PCOD8086950 Si02
#       7
#     8   8   8   8   4   8   8
#     4  10  19  34  53  74 101 134 169 208 256 303
#     4  10  19  32  52  77 103 134 170 207 249 305
#     4  10  20  35  54  74 102 138 170 207 250 295
#     4  10  19  31  52  78 105 131 162 211 259 301
#     4  10  19  32  52  80 103 128 168 206 252 308
#     4   9  20  34  51  75 102 133 170 211 252 298
#     4  10  20  35  52  73 106 139 167 206 254 296
#
# _framework density 18.755161000000001
#
# number of rings (size 3 to 8) (size 9 to 14) (size 15 to 20)
#    0.000    2.154    0.000    4.385    0.000    0.000 
#    0.000   12.308    0.000   11.077    0.000    0.000 
#    0.000    0.000    0.000    0.000    0.000    0.000 
#
# Total GULP energy -322192.131850 kJ/mol
# GULP energy per Si atom -12392.005071 kJ/mol
# Density = 1.871247 g / cm^3
# Si number density = 18.755161 Si / 1000 Ang^3
#
#
#
# Elastic Constant Matrix: (Units=GPa)
#
#
# Indices 1 2 3 4 5 6 
#
# 1 79.6432 22.8821 18.7500 -0.0133 -3.0715 -0.0055
# 2 22.8821 75.1972 28.5992 -0.0053 -0.4141 -0.0022
# 3 18.7500 28.5992 69.3845 -0.0371 10.9881 -0.0145
# 4 -0.0133 -0.0053 -0.0371 18.4848 -0.0133 -0.0208
# 5 -3.0715 -0.4141 10.9881 -0.0133 25.6072 -0.0039
# 6 -0.0055 -0.0022 -0.0145 -0.0208 -0.0039 28.6723
#
#
#
# Elastic Compliance Matrix: (Units=1/GPa)
#
#
# Indices 1 2 3 4 5 6 
#
# 1 0.014296 -0.003186 -0.003019 0.000005 0.002959 0.000001
# 2 -0.003186 0.016739 -0.006460 -0.000009 0.002661 -0.000002
# 3 -0.003019 -0.006460 0.019275 0.000028 -0.008737 0.000007
# 4 0.000005 -0.000009 0.000028 0.054099 0.000017 0.000039
# 5 0.002959 0.002661 -0.008737 0.000017 0.043199 0.000002
# 6 0.000001 -0.000002 0.000007 0.000039 0.000002 0.034877
#
#
# Mechanical properties :
#
#
# Convention : Reuss Voigt Hill
#
# Bulk Modulus (GPa) = 40.03071 40.52085 40.27578
# Shear Modulus (GPa) = 23.13310 24.81910 23.97610
#
# Velocity S-wave (km/s) = 3.51583 3.64169 3.57931
# Velocity P-wave (km/s) = 6.15399 6.27174 6.21314
#
# Compressibility (1/GPa) = 0.02498082
#
# Stress axis : x y z
#
# Youngs Moduli (GPa) = 69.94918 59.73935 51.88164
#
# Poissons Ratio (x) = 0.19032 0.15661
# Poissons Ratio (y) = 0.22285 0.33516
# Poissons Ratio (z) = 0.21115 0.38592
#
# Static dielectric constant tensor:
#      x y z
#    x 3.643240 0.000000 0.165640 
#    y 0.000000 3.353750 0.000000 
#    z 0.165640 0.000000 3.435560 
# 
# 
# High freq. dielectric constant tensor:
#      x y z
#    x 1.742940 0.000000 0.001070 
#    y 0.000000 1.717700 0.000000 
#    z 0.001070 0.000000 1.713010 
# 
# From -- ./inp_files/265128.got.cif
#   From: 2010.06.25/outbox.cif.g09.slc.cpg/sg12_133_cif.got.tgz:265128.got - 2010.06.28 00:19:55.
