data_PCOD8086816
_publ_section_title
;
Structure prediction by ZEFSAII (Michael W. Deem and Ramdas Pophale) SiO2 
 PCOD8086816
Probable space group: C 2/M
;
_chemical_formula_sum "Si O2"
_cell_formula_units_Z 64
_cell_length_a 20.036461
_cell_length_b 8.928244
_cell_length_c 23.572259
_cell_angle_alpha 90.000000
_cell_angle_beta 57.674349
_cell_angle_gamma 90.000000
_cell_volume 3563.334186
_symmetry_space_group_name_H-M "C 2/M"
_symmetry_group_IT_number 12
_symmetry_cell_setting 'monoclinic'
loop_
_space_group_symop_operation_xyz
x,y,z
-x,y,-z
-x,-y,-z
x,-y,z
1/2+x,1/2+y,z
1/2-x,1/2+y,-z
1/2-x,1/2-y,-z
1/2+x,1/2-y,z
loop_
_atom_site_type_symbol
_atom_site_label
_atom_site_fract_x
_atom_site_fract_y
_atom_site_fract_z
Si Si1 0.221978 0.826766 0.455845
Si Si2 0.668576 0.675237 0.054134
Si Si3 0.412950 0.165322 0.812918
Si Si4 0.012490 0.175873 0.059062
Si Si5 0.014732 0.676660 0.666291
Si Si6 0.345828 0.677946 0.327680
Si Si7 0.536974 0.672283 0.541528
Si Si8 0.575057 0.167254 0.806850
O O1 0.250000 0.750000 0.500000
O O2 0.261495 0.743618 0.384490
O O3 0.129466 0.805616 0.493003
O O4 0.247272 0.000000 0.444746
O O5 0.681266 0.500000 0.046616
O O6 0.646422 0.721434 0.128768
O O7 0.599108 0.726149 0.042300
O O8 0.750000 0.750000 0.000000
O O9 0.434796 0.214942 0.738650
O O10 0.495507 0.161637 0.807512
O O11 0.373945 0.000000 0.831461
O O12 0.942289 0.256436 0.124967
O O13 0.002259 0.000000 0.072644
O O14 0.000000 0.224303 0.000000
O O15 0.032827 0.500000 0.661949
O O16 0.089215 0.766169 0.656984
O O17 0.000740 0.727593 0.608354
O O18 0.344532 0.500000 0.329027
O O19 0.361716 0.735137 0.256659
O O20 0.500000 0.730653 0.500000
O O21 0.514381 0.500000 0.563709
O O22 0.608389 0.000000 0.801545
#
# Coordination Sequence:
#
# PCOD8086816 Si02
#       8
#     8   8   8   8   8   8   8   8
#     4  11  21  34  54  80 107 135 173 217 260 309
#     4  10  19  31  51  77 104 135 168 210 254 299
#     4   8  16  30  48  73 102 130 166 211 254 301
#     4   9  18  33  53  77 105 138 175 210 253 308
#     4  10  19  32  53  79 105 134 172 218 263 308
#     4  11  20  31  51  78 107 137 172 218 264 308
#     4  10  22  38  55  76 105 141 175 211 260 316
#     4   9  17  30  49  76 106 135 170 214 261 307
#
# _framework density 17.960705999999998
#
# number of rings (size 3 to 8) (size 9 to 14) (size 15 to 20)
#    0.000    2.250    1.250    3.375    0.000    5.000 
#    0.000    0.000    2.750    0.000    0.000    0.000 
#    0.000    0.000    0.000    0.000    0.000    0.000 
#
# Total GULP energy -396766.932316 kJ/mol
# GULP energy per Si atom -12398.966635 kJ/mol
# Density = 1.791983 g / cm^3
# Si number density = 17.960706 Si / 1000 Ang^3
#
#
#
# Elastic Constant Matrix: (Units=GPa)
#
#
# Indices 1 2 3 4 5 6 
#
# 1 53.1222 34.3172 48.5232 0.0000 5.0915 -0.0001
# 2 34.3172 111.3068 76.8782 0.0001 -2.2709 0.0000
# 3 48.5232 76.8782 174.0117 0.0000 2.5287 -0.0001
# 4 0.0000 0.0001 0.0000 39.2848 0.0000 -2.7023
# 5 5.0915 -2.2709 2.5287 0.0000 24.8446 0.0000
# 6 -0.0001 0.0000 -0.0001 -2.7023 0.0000 17.6343
#
#
#
# Elastic Compliance Matrix: (Units=1/GPa)
#
#
# Indices 1 2 3 4 5 6 
#
# 1 0.027433 -0.004810 -0.005445 0.000000 -0.005507 0.000000
# 2 -0.004810 0.013851 -0.004818 0.000000 0.002742 0.000000
# 3 -0.005445 -0.004818 0.009398 0.000000 -0.000281 0.000000
# 4 0.000000 0.000000 0.000000 0.025726 0.000000 0.003942
# 5 -0.005507 0.002742 -0.000281 0.000000 0.041658 0.000000
# 6 0.000000 0.000000 0.000000 0.003942 0.000000 0.057312
#
#
# Mechanical properties :
#
#
# Convention : Reuss Voigt Hill
#
# Bulk Modulus (GPa) = 48.69356 73.09753 60.89554
# Shear Modulus (GPa) = 23.54415 28.26757 25.90586
#
# Velocity S-wave (km/s) = 3.62452 3.97149 3.80197
# Velocity P-wave (km/s) = 6.68478 7.86239 7.29738
#
# Compressibility (1/GPa) = 0.02053660
#
# Stress axis : x y z
#
# Youngs Moduli (GPa) = 36.45280 72.19894 106.40994
#
# Poissons Ratio (x) = 0.34725 0.57937
# Poissons Ratio (y) = 0.17532 0.51267
# Poissons Ratio (z) = 0.19848 0.34785
#
# Static dielectric constant tensor:
#      x y z
#    x 2.887660 0.000000 -0.010630 
#    y 0.000000 3.447590 0.000000 
#    z -0.010630 0.000000 3.662710 
# 
# 
# High freq. dielectric constant tensor:
#      x y z
#    x 1.645500 0.000000 -0.006070 
#    y 0.000000 1.704650 0.000000 
#    z -0.006070 0.000000 1.713960 
# 
# From -- ./inp_files/319760.got.cif
#   From: 2010.06.25/outbox.cif.g09.slc.cpg/sg12_160_cif.got.tgz:319760.got - 2010.06.28 00:19:55.
