data_PCOD8086290
_publ_section_title
;
Structure prediction by ZEFSAII (Michael W. Deem and Ramdas Pophale) SiO2 
 PCOD8086290
Probable space group: C 2/M
;
_chemical_formula_sum "Si O2"
_cell_formula_units_Z 64
_cell_length_a 18.715243
_cell_length_b 15.971143
_cell_length_c 24.422121
_cell_angle_alpha 90.000000
_cell_angle_beta 151.211954
_cell_angle_gamma 90.000000
_cell_volume 3515.402227
_symmetry_space_group_name_H-M "C 2/M"
_symmetry_group_IT_number 12
_symmetry_cell_setting 'monoclinic'
loop_
_space_group_symop_operation_xyz
x,y,z
-x,y,-z
-x,-y,-z
x,-y,z
1/2+x,1/2+y,z
1/2-x,1/2+y,-z
1/2-x,1/2-y,-z
1/2+x,1/2-y,z
loop_
_atom_site_type_symbol
_atom_site_label
_atom_site_fract_x
_atom_site_fract_y
_atom_site_fract_z
Si Si1 0.558498 0.248289 0.158452
Si Si2 0.850804 0.316222 0.371460
Si Si3 0.030173 0.910083 0.958014
Si Si4 0.861958 0.359012 0.165713
Si Si5 0.288470 0.404018 0.623007
Si Si6 0.888318 0.404618 0.061150
Si Si7 0.590380 0.682826 0.836869
Si Si8 0.494376 0.903370 0.368277
O O1 0.732787 0.239046 0.290781
O O2 0.560897 0.327256 0.118963
O O3 0.495323 0.157753 0.097011
O O4 0.443483 0.276222 0.127599
O O5 0.774754 0.387209 0.358451
O O6 0.000000 0.282023 0.500000
O O7 0.882582 0.351689 0.332163
O O8 0.985188 0.000000 0.898539
O O9 0.203076 0.899292 0.064564
O O10 0.000000 0.924213 0.000000
O O11 0.927556 0.390651 0.151711
O O12 0.851341 0.257856 0.162448
O O13 0.966470 0.388422 0.285515
O O14 0.330004 0.500000 0.646186
O O15 0.439874 0.355117 0.710886
O O16 0.164446 0.377197 0.495275
O O17 0.923962 0.500000 0.068537
O O18 0.716851 0.386574 0.930925
O O19 0.470916 0.000000 0.367852
#
# Coordination Sequence:
#
# PCOD8086290 Si02
#       8
#     8   8   8   8   8   8   8   8
#     4  10  19  33  49  75 102 129 172 209 246 307
#     4   9  18  32  51  73 102 137 167 202 249 308
#     4  11  21  31  48  76 105 133 159 196 258 314
#     4  11  20  33  47  73 107 133 166 211 256 309
#     4   9  18  31  50  75 102 135 174 208 241 299
#     4  11  20  34  55  74  98 135 175 219 259 292
#     4  10  19  33  51  71 101 136 174 212 251 296
#     4  10  19  31  48  75 107 137 165 200 256 313
#
# _framework density 18.205598999999999
#
# number of rings (size 3 to 8) (size 9 to 14) (size 15 to 20)
#    0.000    1.875    2.500    3.375    0.000    5.500 
#    0.000    0.000    0.000    0.750    0.000    0.000 
#    0.000    0.000    0.000    0.000    0.000    0.000 
#
# Total GULP energy -396513.439187 kJ/mol
# GULP energy per Si atom -12391.044975 kJ/mol
# Density = 1.816416 g / cm^3
# Si number density = 18.205599 Si / 1000 Ang^3
#
#
#
# Elastic Constant Matrix: (Units=GPa)
#
#
# Indices 1 2 3 4 5 6 
#
# 1 35.5310 24.1619 21.9456 0.0002 3.6754 0.0024
# 2 24.1619 128.8899 49.5951 -0.0061 15.9072 -0.0012
# 3 21.9456 49.5951 101.1648 -0.0338 7.4238 -0.0066
# 4 0.0002 -0.0061 -0.0338 26.4095 -0.0069 0.7148
# 5 3.6754 15.9072 7.4238 -0.0069 22.9143 0.0020
# 6 0.0024 -0.0012 -0.0066 0.7148 0.0020 18.6437
#
#
#
# Elastic Compliance Matrix: (Units=1/GPa)
#
#
# Indices 1 2 3 4 5 6 
#
# 1 0.034434 -0.004318 -0.005293 -0.000008 -0.000810 -0.000006
# 2 -0.004318 0.010761 -0.003935 -0.000004 -0.005503 0.000001
# 3 -0.005293 -0.003935 0.013009 0.000015 -0.000634 0.000005
# 4 -0.000008 -0.000004 0.000015 0.037904 0.000011 -0.001453
# 5 -0.000810 -0.005503 -0.000634 0.000011 0.047796 -0.000006
# 6 -0.000006 0.000001 0.000005 -0.001453 -0.000006 0.053693
#
#
# Mechanical properties :
#
#
# Convention : Reuss Voigt Hill
#
# Bulk Modulus (GPa) = 32.14293 50.77677 41.45985
# Shear Modulus (GPa) = 21.27098 24.91906 23.09502
#
# Velocity S-wave (km/s) = 3.42186 3.70369 3.56556
# Velocity P-wave (km/s) = 5.77114 6.80007 6.30662
#
# Compressibility (1/GPa) = 0.03111104
#
# Stress axis : x y z
#
# Youngs Moduli (GPa) = 29.04089 92.92460 76.87100
#
# Poissons Ratio (x) = 0.40127 0.40690
# Poissons Ratio (y) = 0.12541 0.30249
# Poissons Ratio (z) = 0.15372 0.36567
#
# Static dielectric constant tensor:
#      x y z
#    x 2.931280 0.000000 -0.039950 
#    y 0.000000 3.706270 0.000000 
#    z -0.039950 0.000000 3.565940 
# 
# 
# High freq. dielectric constant tensor:
#      x y z
#    x 1.669650 0.000000 0.006770 
#    y 0.000000 1.693850 0.000000 
#    z 0.006770 0.000000 1.715550 
# 
# From -- ./inp_files/344100.got.cif
#   From: 2010.06.25/outbox.cif.g09.slc.cpg/sg12_173_cif.got.tgz:344100.got - 2010.06.28 00:19:55.
