data_PCOD8086312
_publ_section_title
;
Structure prediction by ZEFSAII (Michael W. Deem and Ramdas Pophale) SiO2 
 PCOD8086312
Probable space group: C 2/M
;
_chemical_formula_sum "Si O2"
_cell_formula_units_Z 48
_cell_length_a 18.373825
_cell_length_b 8.982304
_cell_length_c 24.026581
_cell_angle_alpha 90.000000
_cell_angle_beta 43.023790
_cell_angle_gamma 90.000000
_cell_volume 2705.552245
_symmetry_space_group_name_H-M "C 2/M"
_symmetry_group_IT_number 12
_symmetry_cell_setting 'monoclinic'
loop_
_space_group_symop_operation_xyz
x,y,z
-x,y,-z
-x,-y,-z
x,-y,z
1/2+x,1/2+y,z
1/2-x,1/2+y,-z
1/2-x,1/2-y,-z
1/2+x,1/2-y,z
loop_
_atom_site_type_symbol
_atom_site_label
_atom_site_fract_x
_atom_site_fract_y
_atom_site_fract_z
Si Si1 0.168150 0.675398 0.003752
Si Si2 0.362841 0.825779 0.428826
Si Si3 0.124606 0.168249 0.918358
Si Si4 0.588834 0.324145 0.493562
Si Si5 0.677374 0.826118 0.668214
Si Si6 0.424508 0.824547 0.162602
O O1 0.188481 0.500000 0.990263
O O2 0.049351 0.714808 0.090722
O O3 0.250000 0.750000 0.000000
O O4 0.186883 0.742260 0.931663
O O5 0.250000 0.750000 0.500000
O O6 0.441658 0.750880 0.429836
O O7 0.395788 0.795549 0.345882
O O8 0.353809 0.000000 0.445757
O O9 0.142959 0.246974 0.848774
O O10 0.168905 0.000000 0.891596
O O11 0.000000 0.170936 0.000000
O O12 0.500000 0.272650 0.500000
O O13 0.590484 0.500000 0.501595
O O14 0.702828 0.263199 0.407602
O O15 0.620712 0.757253 0.754140
O O16 0.688331 0.000000 0.672593
O O17 0.407240 0.000000 0.166129
#
# Coordination Sequence:
#
# PCOD8086312 Si02
#       6
#     8   8   8   8   8   8
#     4  10  19  31  49  70  92 121 155 190 229 272
#     4   9  16  28  47  68  91 121 155 188 224 269
#     4   9  17  30  48  69  93 120 152 189 226 269
#     4   9  17  30  48  69  94 123 153 186 226 270
#     4   8  15  29  48  68  91 120 152 187 226 269
#     4   9  17  31  50  69  91 121 154 186 226 274
#
# _framework density 17.741295000000001
#
# number of rings (size 3 to 8) (size 9 to 14) (size 15 to 20)
#    0.000    3.000    0.000    2.500    0.000    3.000 
#    0.000    5.833    0.000    4.000    0.000    0.000 
#    0.000    0.000    0.000    0.000    0.000    0.000 
#
# Total GULP energy -297434.097714 kJ/mol
# GULP energy per Si atom -12393.087405 kJ/mol
# Density = 1.770092 g / cm^3
# Si number density = 17.741295 Si / 1000 Ang^3
#
#
#
# Elastic Constant Matrix: (Units=GPa)
#
#
# Indices 1 2 3 4 5 6 
#
# 1 161.3710 60.6805 62.8887 0.0000 38.5276 0.0001
# 2 60.6805 74.7014 33.9500 0.0000 17.3787 0.0001
# 3 62.8887 33.9500 96.1888 0.0000 35.4985 0.0000
# 4 0.0000 0.0000 0.0000 16.7381 0.0000 8.4819
# 5 38.5276 17.3787 35.4985 0.0000 32.3152 0.0000
# 6 0.0001 0.0001 0.0000 8.4819 0.0000 34.6266
#
#
#
# Elastic Compliance Matrix: (Units=1/GPa)
#
#
# Indices 1 2 3 4 5 6 
#
# 1 0.011293 -0.006357 -0.002409 0.000000 -0.007398 0.000000
# 2 -0.006357 0.019840 -0.002869 0.000000 0.000061 0.000000
# 3 -0.002409 -0.002869 0.019096 0.000000 -0.016562 0.000000
# 4 0.000000 0.000000 0.000000 0.068211 0.000000 -0.016709
# 5 -0.007398 0.000061 -0.016562 0.000000 0.057927 0.000000
# 6 0.000000 0.000000 0.000000 -0.016709 0.000000 0.032972
#
#
# Mechanical properties :
#
#
# Convention : Reuss Voigt Hill
#
# Bulk Modulus (GPa) = 37.09305 71.92217 54.50761
# Shear Modulus (GPa) = 20.69577 28.38544 24.54060
#
# Velocity S-wave (km/s) = 3.41916 4.00429 3.72324
# Velocity P-wave (km/s) = 6.04489 7.87443 7.01952
#
# Compressibility (1/GPa) = 0.02695923
#
# Stress axis : x y z
#
# Youngs Moduli (GPa) = 88.55399 50.40288 52.36674
#
# Poissons Ratio (x) = 0.32041 0.12615
# Poissons Ratio (y) = 0.56294 0.15023
# Poissons Ratio (z) = 0.21333 0.14459
#
# Static dielectric constant tensor:
#      x y z
#    x 3.485720 0.000000 0.449800 
#    y 0.000000 3.289550 0.000000 
#    z 0.449800 0.000000 3.405870 
# 
# 
# High freq. dielectric constant tensor:
#      x y z
#    x 1.687680 0.000000 0.033060 
#    y 0.000000 1.677250 0.000000 
#    z 0.033060 0.000000 1.660280 
# 
# From -- ./inp_files/273610.got.cif
#   From: 2010.06.25/outbox.cif.g09.slc.cpg/sg12_137_cif.got.tgz:273610.got - 2010.06.28 00:19:55.
