data_PCOD8086937
_publ_section_title
;
Structure prediction by ZEFSAII (Michael W. Deem and Ramdas Pophale) SiO2 
 PCOD8086937
Probable space group: C 2/M
;
_chemical_formula_sum "Si O2"
_cell_formula_units_Z 44
_cell_length_a 32.944282
_cell_length_b 9.385406
_cell_length_c 11.672584
_cell_angle_alpha 90.000000
_cell_angle_beta 135.627726
_cell_angle_gamma 90.000000
_cell_volume 2523.913849
_symmetry_space_group_name_H-M "C 2/M"
_symmetry_group_IT_number 12
_symmetry_cell_setting 'monoclinic'
loop_
_space_group_symop_operation_xyz
x,y,z
-x,y,-z
-x,-y,-z
x,-y,z
1/2+x,1/2+y,z
1/2-x,1/2+y,-z
1/2-x,1/2-y,-z
1/2+x,1/2-y,z
loop_
_atom_site_type_symbol
_atom_site_label
_atom_site_fract_x
_atom_site_fract_y
_atom_site_fract_z
Si Si1 0.580983 0.338997 0.863658
Si Si2 0.815012 0.663653 0.009703
Si Si3 0.500000 0.748460 0.500000
Si Si4 0.006972 0.661431 0.883724
Si Si5 0.686525 0.336581 0.762797
Si Si6 0.587454 0.155358 0.487989
O O1 0.597177 0.500000 0.926246
O O2 0.640562 0.251298 0.977011
O O3 0.542384 0.341077 0.669220
O O4 0.548899 0.271709 0.906583
O O5 0.835628 0.500000 0.058360
O O6 0.815378 0.729335 0.135882
O O7 0.749265 0.673905 0.827193
O O8 0.457941 0.839297 0.497236
O O9 0.031982 0.500000 0.926642
O O10 0.944775 0.669242 0.697584
O O11 0.000000 0.710868 0.000000
O O12 0.674375 0.500000 0.776328
O O13 0.634787 0.281727 0.577614
O O14 0.617662 0.000000 0.557088
#
# Coordination Sequence:
#
# PCOD8086937 Si02
#       6
#     8   8   4   8   8   8
#     4  11  21  32  51  77 106 135 167 211 255 301
#     4  10  20  33  49  71 103 140 173 204 246 304
#     4  10  20  30  46  74 108 136 164 200 254 306
#     4   9  20  38  56  75 101 135 173 211 255 304
#     4  10  20  32  48  73 105 137 169 208 252 297
#     4  10  19  31  52  76 102 135 170 207 250 305
#
# _framework density 17.433242
#
# number of rings (size 3 to 8) (size 9 to 14) (size 15 to 20)
#    0.000    2.000    1.818    2.182    0.000    6.909 
#    0.000    0.000    0.000    1.091    0.000    0.000 
#    0.000    0.000    0.000    0.000    0.000    0.000 
#
# Total GULP energy -272666.328637 kJ/mol
# GULP energy per Si atom -12393.924029 kJ/mol
# Density = 1.739356 g / cm^3
# Si number density = 17.433242 Si / 1000 Ang^3
#
#
#
# Elastic Constant Matrix: (Units=GPa)
#
#
# Indices 1 2 3 4 5 6 
#
# 1 85.3046 61.2779 56.0749 0.0000 1.9414 0.0000
# 2 61.2779 147.8466 45.6210 0.0000 13.1331 0.0000
# 3 56.0749 45.6210 76.6947 0.0000 0.9421 0.0000
# 4 0.0000 0.0000 0.0000 19.1328 0.0000 5.6634
# 5 1.9414 13.1331 0.9421 0.0000 32.5264 0.0000
# 6 0.0000 0.0000 0.0000 5.6634 0.0000 24.8436
#
#
#
# Elastic Compliance Matrix: (Units=1/GPa)
#
#
# Indices 1 2 3 4 5 6 
#
# 1 0.026484 -0.006273 -0.015650 0.000000 0.001405 0.000000
# 2 -0.006273 0.010118 -0.001387 0.000000 -0.003671 0.000000
# 3 -0.015650 -0.001387 0.025297 0.000000 0.000761 0.000000
# 4 0.000000 0.000000 0.000000 0.056048 0.000000 -0.012777
# 5 0.001405 -0.003671 0.000761 0.000000 0.032120 0.000000
# 6 0.000000 0.000000 0.000000 -0.012777 0.000000 0.043164
#
#
# Mechanical properties :
#
#
# Convention : Reuss Voigt Hill
#
# Bulk Modulus (GPa) = 65.44726 70.64370 68.04548
# Shear Modulus (GPa) = 20.41292 25.09202 22.75247
#
# Velocity S-wave (km/s) = 3.42558 3.79795 3.61656
# Velocity P-wave (km/s) = 7.29858 7.73582 7.52038
#
# Compressibility (1/GPa) = 0.01527948
#
# Stress axis : x y z
#
# Youngs Moduli (GPa) = 37.75892 98.83728 39.53107
#
# Poissons Ratio (x) = 0.61996 0.61864
# Poissons Ratio (y) = 0.23685 0.05483
# Poissons Ratio (z) = 0.59091 0.13710
#
# Static dielectric constant tensor:
#      x y z
#    x 3.151030 0.000000 0.326980 
#    y 0.000000 3.309950 0.000000 
#    z 0.326980 0.000000 3.333700 
# 
# 
# High freq. dielectric constant tensor:
#      x y z
#    x 1.651700 0.000000 0.024130 
#    y 0.000000 1.686460 0.000000 
#    z 0.024130 0.000000 1.654950 
# 
# From -- ./inp_files/186246.got.cif
#   From: 2010.06.25/outbox.cif.g09.slc.cpg/sg12_94_cif.got.tgz:186246.got - 2010.06.28 00:19:55.
