data_PCOD8086104
_publ_section_title
;
Structure prediction by ZEFSAII (Michael W. Deem and Ramdas Pophale) SiO2 
 PCOD8086104
Probable space group: C 2/M
;
_chemical_formula_sum "Si O2"
_cell_formula_units_Z 56
_cell_length_a 28.716263
_cell_length_b 9.140102
_cell_length_c 19.016294
_cell_angle_alpha 90.000000
_cell_angle_beta 41.933955
_cell_angle_gamma 90.000000
_cell_volume 3335.485918
_symmetry_space_group_name_H-M "C 2/M"
_symmetry_group_IT_number 12
_symmetry_cell_setting 'monoclinic'
loop_
_space_group_symop_operation_xyz
x,y,z
-x,y,-z
-x,-y,-z
x,-y,z
1/2+x,1/2+y,z
1/2-x,1/2+y,-z
1/2-x,1/2-y,-z
1/2+x,1/2-y,z
loop_
_atom_site_type_symbol
_atom_site_label
_atom_site_fract_x
_atom_site_fract_y
_atom_site_fract_z
Si Si1 0.761225 0.669025 0.377705
Si Si2 0.702706 0.829533 0.312796
Si Si3 0.737478 0.168379 0.117305
Si Si4 0.940835 0.829307 0.509466
Si Si5 0.857010 0.827831 0.880444
Si Si6 0.511474 0.326494 0.695601
Si Si7 0.854644 0.831028 0.376313
O O1 0.775034 0.500000 0.346138
O O2 0.750360 0.753055 0.317366
O O3 0.828902 0.734001 0.340338
O O4 0.693201 0.692525 0.501621
O O5 0.742222 0.803458 0.194822
O O6 0.626717 0.760146 0.392420
O O7 0.695392 0.000000 0.339108
O O8 0.674601 0.260366 0.154905
O O9 0.721913 0.000000 0.117499
O O10 0.811056 0.216539 0.999886
O O11 0.968299 0.767859 0.404236
O O12 0.000000 0.800471 0.500000
O O13 0.920465 0.000000 0.527710
O O14 0.935422 0.766903 0.803314
O O15 0.859104 0.000000 0.866095
O O16 0.511874 0.500000 0.691967
O O17 0.568217 0.275209 0.689474
O O18 0.853643 0.000000 0.354048
#
# Coordination Sequence:
#
# PCOD8086104 Si02
#       7
#     8   8   8   8   8   8   8
#     4  10  19  32  50  71  96 124 162 200 236 289
#     4  11  21  32  47  69 101 133 160 194 240 286
#     4   9  19  33  48  71 100 127 162 204 237 276
#     4  10  19  31  47  70  99 128 160 196 236 286
#     4   9  17  32  54  73  92 126 167 201 238 280
#     4   9  16  29  49  73  96 122 157 199 240 283
#     4   9  17  31  49  70  98 123 153 199 246 288
#
# _framework density 16.789156999999999
#
# number of rings (size 3 to 8) (size 9 to 14) (size 15 to 20)
#    0.000    2.429    1.429    1.714    0.000    3.143 
#    0.000    1.429    0.000    0.857    0.000    6.000 
#    0.000    0.000    0.000    0.000    0.000    0.000 
#
# Total GULP energy -347214.192660 kJ/mol
# GULP energy per Si atom -12400.506881 kJ/mol
# Density = 1.675094 g / cm^3
# Si number density = 16.789157 Si / 1000 Ang^3
#
#
#
# Elastic Constant Matrix: (Units=GPa)
#
#
# Indices 1 2 3 4 5 6 
#
# 1 137.6121 54.9970 63.0061 -0.0034 -2.4560 0.0082
# 2 54.9970 65.5120 36.7505 -0.0089 5.5555 0.0091
# 3 63.0061 36.7505 82.7169 -0.0037 -2.9621 0.0018
# 4 -0.0034 -0.0089 -0.0037 19.2894 0.0103 1.0338
# 5 -2.4560 5.5555 -2.9621 0.0103 26.0686 -0.0052
# 6 0.0082 0.0091 0.0018 1.0338 -0.0052 24.1951
#
#
#
# Elastic Compliance Matrix: (Units=1/GPa)
#
#
# Indices 1 2 3 4 5 6 
#
# 1 0.013484 -0.007702 -0.006772 -0.000004 0.002142 -0.000001
# 2 -0.007702 0.025512 -0.005712 0.000013 -0.006812 -0.000009
# 3 -0.006772 -0.005712 0.019887 -0.000002 0.002839 0.000004
# 4 -0.000004 0.000013 -0.000002 0.051961 -0.000024 -0.002220
# 5 0.002142 -0.006812 0.002839 -0.000024 0.040336 0.000011
# 6 -0.000001 -0.000009 0.000004 -0.002220 0.000011 0.041426
#
#
# Mechanical properties :
#
#
# Convention : Reuss Voigt Hill
#
# Bulk Modulus (GPa) = 54.02235 66.14979 60.08607
# Shear Modulus (GPa) = 20.90747 22.64978 21.77863
#
# Velocity S-wave (km/s) = 3.53270 3.67696 3.60555
# Velocity P-wave (km/s) = 6.99191 7.58370 7.29381
#
# Compressibility (1/GPa) = 0.01851086
#
# Stress axis : x y z
#
# Youngs Moduli (GPa) = 74.16255 39.19660 50.28396
#
# Poissons Ratio (x) = 0.30191 0.34052
# Poissons Ratio (y) = 0.57124 0.28721
# Poissons Ratio (z) = 0.50222 0.22389
#
# Static dielectric constant tensor:
#      x y z
#    x 3.265250 -0.000020 -0.096140 
#    y -0.000020 3.071080 0.000050 
#    z -0.096140 0.000050 3.180010 
# 
# 
# High freq. dielectric constant tensor:
#      x y z
#    x 1.650910 0.000000 -0.000720 
#    y 0.000000 1.636760 0.000000 
#    z -0.000720 0.000000 1.630540 
# 
# From -- ./inp_files/287342.got.cif
#   From: 2010.06.25/outbox.cif.g09.slc.cpg/sg12_144_cif.got.tgz:287342.got - 2010.06.28 00:19:55.
