data_PCOD8086512
_publ_section_title
;
Structure prediction by ZEFSAII (Michael W. Deem and Ramdas Pophale) SiO2 
 PCOD8086512
Probable space group: C 2/M
;
_chemical_formula_sum "Si O2"
_cell_formula_units_Z 56
_cell_length_a 9.613905
_cell_length_b 24.763069
_cell_length_c 13.541973
_cell_angle_alpha 90.000000
_cell_angle_beta 92.245975
_cell_angle_gamma 90.000000
_cell_volume 3221.458054
_symmetry_space_group_name_H-M "C 2/M"
_symmetry_group_IT_number 12
_symmetry_cell_setting 'monoclinic'
loop_
_space_group_symop_operation_xyz
x,y,z
-x,y,-z
-x,-y,-z
x,-y,z
1/2+x,1/2+y,z
1/2-x,1/2+y,-z
1/2-x,1/2-y,-z
1/2+x,1/2-y,z
loop_
_atom_site_type_symbol
_atom_site_label
_atom_site_fract_x
_atom_site_fract_y
_atom_site_fract_z
Si Si1 0.667966 0.397981 0.117430
Si Si2 0.334854 0.000000 0.883440
Si Si3 0.045782 0.192036 0.399796
Si Si4 0.219563 0.188038 0.732966
Si Si5 0.347319 0.000000 0.117804
Si Si6 0.273911 0.812216 0.267188
Si Si7 0.042437 0.315644 0.396450
Si Si8 0.343736 0.602042 0.115009
O O1 0.762678 0.448213 0.155090
O O2 0.734917 0.345299 0.168879
O O3 0.507118 0.407475 0.144010
O O4 0.678373 0.389010 0.001202
O O5 0.246002 0.051784 0.846925
O O6 0.491153 0.000000 0.840461
O O7 0.347081 0.000000 0.000680
O O8 0.186073 0.166558 0.359509
O O9 0.000000 0.162319 0.500000
O O10 0.935090 0.185694 0.311115
O O11 0.075711 0.254201 0.426381
O O12 0.263180 0.249735 0.757780
O O13 0.318122 0.161202 0.651039
O O14 0.220195 0.154550 0.834018
O O15 0.431247 0.820857 0.305253
O O16 0.000000 0.344663 0.500000
#
# Coordination Sequence:
#
# PCOD8086512 Si02
#       8
#     8   4   8   8   4   8   8   8
#     4  10  20  35  53  74 103 137 171 207 248 298
#     4   9  19  35  55  77  96 123 170 219 256 293
#     4   9  16  30  49  70  99 134 173 212 249 293
#     4  10  19  31  49  76 107 137 169 205 250 305
#     4   9  19  35  55  77  96 123 170 219 256 293
#     4  10  19  31  49  76 107 137 169 205 250 305
#     4   9  18  30  47  72 103 136 169 210 253 291
#     4  10  20  35  53  74 103 137 171 207 248 298
#
# _framework density 17.383433
#
# number of rings (size 3 to 8) (size 9 to 14) (size 15 to 20)
#    0.000    2.429    1.429    1.286    2.000    5.714 
#    0.000    0.000    0.000    0.000    0.000    6.000 
#    0.000    0.000    0.000    0.000    0.000    0.000 
#
# Total GULP energy -346995.269740 kJ/mol
# GULP energy per Si atom -12392.688205 kJ/mol
# Density = 1.734387 g / cm^3
# Si number density = 17.383433 Si / 1000 Ang^3
#
#
#
# Elastic Constant Matrix: (Units=GPa)
#
#
# Indices 1 2 3 4 5 6 
#
# 1 87.8726 33.1271 20.7076 0.0000 -11.9322 0.0000
# 2 33.1271 80.5795 39.1243 0.0000 -3.8172 0.0000
# 3 20.7076 39.1243 58.8510 0.0000 -8.5467 0.0000
# 4 0.0000 0.0000 0.0000 4.9966 0.0000 -0.3027
# 5 -11.9322 -3.8172 -8.5467 0.0000 25.6684 0.0000
# 6 0.0000 0.0000 0.0000 -0.3027 0.0000 24.7400
#
#
#
# Elastic Compliance Matrix: (Units=1/GPa)
#
#
# Indices 1 2 3 4 5 6 
#
# 1 0.014297 -0.005265 -0.000714 0.000000 0.005626 0.000000
# 2 -0.005265 0.020312 -0.012155 0.000000 -0.003474 0.000000
# 3 -0.000714 -0.012155 0.026284 0.000000 0.006612 0.000000
# 4 0.000000 0.000000 0.000000 0.200286 0.000000 0.002450
# 5 0.005626 -0.003474 0.006612 0.000000 0.043259 0.000000
# 6 0.000000 0.000000 0.000000 0.002450 0.000000 0.040450
#
#
# Mechanical properties :
#
#
# Convention : Reuss Voigt Hill
#
# Bulk Modulus (GPa) = 40.60800 45.91346 43.26073
# Shear Modulus (GPa) = 12.84146 20.03726 16.43936
#
# Velocity S-wave (km/s) = 2.72089 3.39877 3.07855
# Velocity P-wave (km/s) = 5.76904 6.47084 6.12999
#
# Compressibility (1/GPa) = 0.02462569
#
# Stress axis : x y z
#
# Youngs Moduli (GPa) = 69.94529 49.23254 38.04535
#
# Poissons Ratio (x) = 0.25919 0.02715
# Poissons Ratio (y) = 0.36823 0.46246
# Poissons Ratio (z) = 0.04992 0.59844
#
# Static dielectric constant tensor:
#      x y z
#    x 3.492320 0.000000 -0.167380 
#    y 0.000000 2.995760 0.000000 
#    z -0.167380 0.000000 3.163160 
# 
# 
# High freq. dielectric constant tensor:
#      x y z
#    x 1.694320 0.000000 -0.008550 
#    y 0.000000 1.626180 0.000000 
#    z -0.008550 0.000000 1.656390 
# 
# From -- ./inp_files/197595.got.cif
#   From: 2010.06.25/outbox.cif.g09.slc.cpg/sg12_99_cif.got.tgz:197595.got - 2010.06.28 00:19:55.
