data_PCOD8086285
_publ_section_title
;
Structure prediction by ZEFSAII (Michael W. Deem and Ramdas Pophale) SiO2 
 PCOD8086285
Probable space group: C 2/M
;
_chemical_formula_sum "Si O2"
_cell_formula_units_Z 64
_cell_length_a 25.691945
_cell_length_b 8.993249
_cell_length_c 14.977776
_cell_angle_alpha 90.000000
_cell_angle_beta 109.750396
_cell_angle_gamma 90.000000
_cell_volume 3257.097104
_symmetry_space_group_name_H-M "C 2/M"
_symmetry_group_IT_number 12
_symmetry_cell_setting 'monoclinic'
loop_
_space_group_symop_operation_xyz
x,y,z
-x,y,-z
-x,-y,-z
x,-y,z
1/2+x,1/2+y,z
1/2-x,1/2+y,-z
1/2-x,1/2-y,-z
1/2+x,1/2-y,z
loop_
_atom_site_type_symbol
_atom_site_label
_atom_site_fract_x
_atom_site_fract_y
_atom_site_fract_z
Si Si1 0.742645 0.162934 0.738225
Si Si2 0.797901 0.663805 0.481908
Si Si3 0.358879 0.173096 0.785509
Si Si4 0.446747 0.174927 0.689179
Si Si5 0.061705 0.326355 0.007444
Si Si6 0.135077 0.174425 0.712075
Si Si7 0.553828 0.675121 0.823591
Si Si8 0.596987 0.325397 0.496852
O O1 0.716222 0.138700 0.627611
O O2 0.801047 0.243531 0.762748
O O3 0.695660 0.254481 0.764391
O O4 0.751440 0.000000 0.787917
O O5 0.809493 0.500000 0.532329
O O6 0.750000 0.750000 0.500000
O O7 0.848746 0.774103 0.524212
O O8 0.390053 0.212641 0.710629
O O9 0.345336 0.000000 0.781505
O O10 0.397639 0.220790 0.889795
O O11 0.496503 0.241183 0.775162
O O12 0.449942 0.244567 0.590351
O O13 0.455324 0.000000 0.686287
O O14 0.066366 0.500000 0.986816
O O15 0.079160 0.230259 0.931631
O O16 0.000000 0.283638 0.000000
O O17 0.097313 0.220082 0.772692
O O18 0.102250 0.227558 0.602948
O O19 0.145420 0.000000 0.709513
O O20 0.543162 0.500000 0.818632
O O21 0.586776 0.500000 0.484119
#
# Coordination Sequence:
#
# PCOD8086285 Si02
#       8
#     8   8   8   8   8   8   8   8
#     4  10  21  35  55  83 113 145 190 241 281 327
#     4  10  19  31  48  74 108 148 190 235 285 338
#     4  10  21  37  59  84 116 153 185 226 288 351
#     4  11  22  37  57  85 119 155 192 235 287 346
#     4  10  20  40  63  86 116 150 187 228 287 353
#     4   9  21  41  60  79 114 158 196 232 284 343
#     4  11  23  39  61  88 114 148 192 241 288 338
#     4  10  20  35  54  78 110 151 194 239 282 333
#
# _framework density 19.649398000000001
#
# number of rings (size 3 to 8) (size 9 to 14) (size 15 to 20)
#    0.000    1.875    1.250    2.625    0.000    7.250 
#    0.000    3.125    0.000    0.000    0.000    0.000 
#    0.000    0.000    0.000    0.000    0.000    0.000 
#
# Total GULP energy -396638.678844 kJ/mol
# GULP energy per Si atom -12394.958714 kJ/mol
# Density = 1.960467 g / cm^3
# Si number density = 19.649398 Si / 1000 Ang^3
#
#
#
# Elastic Constant Matrix: (Units=GPa)
#
#
# Indices 1 2 3 4 5 6 
#
# 1 83.8291 42.4545 33.2241 0.0000 -5.8044 0.0000
# 2 42.4545 85.6580 42.2150 0.0000 -5.6521 0.0000
# 3 33.2241 42.2150 94.5861 0.0000 -5.8352 0.0000
# 4 0.0000 0.0000 0.0000 32.5848 0.0000 1.5801
# 5 -5.8044 -5.6521 -5.8352 0.0000 31.9395 0.0000
# 6 0.0000 0.0000 0.0000 1.5801 0.0000 27.8143
#
#
#
# Elastic Compliance Matrix: (Units=1/GPa)
#
#
# Indices 1 2 3 4 5 6 
#
# 1 0.016518 -0.006770 -0.002700 0.000000 0.001311 0.000000
# 2 -0.006770 0.017807 -0.005513 0.000000 0.000914 0.000000
# 3 -0.002700 -0.005513 0.014049 0.000000 0.001100 0.000000
# 4 0.000000 0.000000 0.000000 0.030774 0.000000 -0.001748
# 5 0.001311 0.000914 0.001100 0.000000 0.031910 0.000000
# 6 0.000000 0.000000 0.000000 -0.001748 0.000000 0.036052
#
#
# Mechanical properties :
#
#
# Convention : Reuss Voigt Hill
#
# Bulk Modulus (GPa) = 54.32196 55.54005 54.93100
# Shear Modulus (GPa) = 27.29068 28.21304 27.75186
#
# Velocity S-wave (km/s) = 3.73081 3.79333 3.76220
# Velocity P-wave (km/s) = 6.80178 6.89295 6.84752
#
# Compressibility (1/GPa) = 0.01840876
#
# Stress axis : x y z
#
# Youngs Moduli (GPa) = 60.53861 56.15759 71.17841
#
# Poissons Ratio (x) = 0.38018 0.19217
# Poissons Ratio (y) = 0.40984 0.39242
# Poissons Ratio (z) = 0.16345 0.30961
#
# Static dielectric constant tensor:
#      x y z
#    x 3.439110 0.000000 0.092090 
#    y 0.000000 3.677540 0.000000 
#    z 0.092090 0.000000 3.579870 
# 
# 
# High freq. dielectric constant tensor:
#      x y z
#    x 1.758040 0.000000 0.004190 
#    y 0.000000 1.770260 0.000000 
#    z 0.004190 0.000000 1.763710 
# 
# From -- ./inp_files/244265.got.cif
#   From: 2010.06.25/outbox.cif.g09.slc.cpg/sg12_123_cif.got.tgz:244265.got - 2010.06.28 00:19:55.
