data_PCOD8086351
_publ_section_title
;
Structure prediction by ZEFSAII (Michael W. Deem and Ramdas Pophale) SiO2 
 PCOD8086351
Probable space group: C 2/M
;
_chemical_formula_sum "Si O2"
_cell_formula_units_Z 56
_cell_length_a 14.452970
_cell_length_b 8.717554
_cell_length_c 28.163295
_cell_angle_alpha 90.000000
_cell_angle_beta 57.902231
_cell_angle_gamma 90.000000
_cell_volume 3006.019127
_symmetry_space_group_name_H-M "C 2/M"
_symmetry_group_IT_number 12
_symmetry_cell_setting 'monoclinic'
loop_
_space_group_symop_operation_xyz
x,y,z
-x,y,-z
-x,-y,-z
x,-y,z
1/2+x,1/2+y,z
1/2-x,1/2+y,-z
1/2-x,1/2-y,-z
1/2+x,1/2-y,z
loop_
_atom_site_type_symbol
_atom_site_label
_atom_site_fract_x
_atom_site_fract_y
_atom_site_fract_z
Si Si1 0.982343 0.181191 0.429400
Si Si2 0.808080 0.682033 0.938737
Si Si3 0.743247 0.682730 0.146518
Si Si4 0.549873 0.180577 0.851545
Si Si5 0.016645 0.682149 0.232713
Si Si6 0.093604 0.318672 0.641288
Si Si7 0.170159 0.182023 0.447279
O O1 0.988446 0.263593 0.377091
O O2 0.875104 0.234017 0.488757
O O3 0.088542 0.238215 0.428584
O O4 0.982948 0.000000 0.421622
O O5 0.797056 0.500000 0.940712
O O6 0.749433 0.748569 0.908163
O O7 0.935079 0.733596 0.905932
O O8 0.750000 0.750000 0.000000
O O9 0.744837 0.500000 0.142954
O O10 0.847025 0.749037 0.147961
O O11 0.634266 0.737624 0.202781
O O12 0.549907 0.232853 0.796282
O O13 0.559320 0.000000 0.851503
O O14 0.035995 0.500000 0.227801
O O15 0.947557 0.740928 0.296580
O O16 0.099661 0.500000 0.640376
O O17 0.211842 0.246086 0.596482
O O18 0.174675 0.000000 0.445142
#
# Coordination Sequence:
#
# PCOD8086351 Si02
#       7
#     8   8   8   8   8   8   8
#     4   9  17  31  50  70  94 123 162 205 244 290
#     4  10  20  36  55  79 110 138 165 200 241 288
#     4  10  19  34  56  78  98 129 172 211 244 282
#     4   8  17  34  54  72  97 135 170 197 237 292
#     4   9  19  35  50  69  99 133 165 202 247 298
#     4  10  19  31  49  71  97 128 162 199 249 302
#     4   8  16  31  49  69  94 128 162 196 243 304
#
# _framework density 18.629289
#
# number of rings (size 3 to 8) (size 9 to 14) (size 15 to 20)
#    0.000    2.857    0.000    3.000    0.000    2.286 
#    0.000   15.000    0.000    0.000    0.000    0.000 
#    0.000    0.000    0.000    0.000    0.000    0.000 
#
# Total GULP energy -347091.959334 kJ/mol
# GULP energy per Si atom -12396.141405 kJ/mol
# Density = 1.858689 g / cm^3
# Si number density = 18.629289 Si / 1000 Ang^3
#
#
#
# Elastic Constant Matrix: (Units=GPa)
#
#
# Indices 1 2 3 4 5 6 
#
# 1 135.3039 24.5673 67.5068 0.0000 12.8807 0.0000
# 2 24.5673 31.7266 31.3812 0.0000 2.5158 -0.0001
# 3 67.5068 31.3812 151.2533 0.0000 15.0066 0.0000
# 4 0.0000 0.0000 0.0000 27.8209 0.0000 3.2361
# 5 12.8807 2.5158 15.0066 0.0000 20.0341 0.0000
# 6 0.0000 -0.0001 0.0000 3.2361 0.0000 26.1199
#
#
#
# Elastic Compliance Matrix: (Units=1/GPa)
#
#
# Indices 1 2 3 4 5 6 
#
# 1 0.010150 -0.004335 -0.003281 0.000000 -0.003524 0.000000
# 2 -0.004335 0.041539 -0.006960 0.000000 0.002784 0.000000
# 3 -0.003281 -0.006960 0.009964 0.000000 -0.004480 0.000000
# 4 0.000000 0.000000 0.000000 0.036470 0.000000 -0.004518
# 5 -0.003524 0.002784 -0.004480 0.000000 0.055187 0.000000
# 6 0.000000 0.000000 0.000000 -0.004518 0.000000 0.038845
#
#
# Mechanical properties :
#
#
# Convention : Reuss Voigt Hill
#
# Bulk Modulus (GPa) = 30.76728 62.79937 46.78332
# Shear Modulus (GPa) = 21.53858 27.78355 24.66107
#
# Velocity S-wave (km/s) = 3.40394 3.86604 3.64232
# Velocity P-wave (km/s) = 5.65689 7.32882 6.54645
#
# Compressibility (1/GPa) = 0.03250206
#
# Stress axis : x y z
#
# Youngs Moduli (GPa) = 98.51757 24.07363 100.35717
#
# Poissons Ratio (x) = 0.10436 0.32930
# Poissons Ratio (y) = 0.42707 0.69846
# Poissons Ratio (z) = 0.32327 0.16755
#
# Static dielectric constant tensor:
#      x y z
#    x 3.710710 0.000000 -0.056130 
#    y 0.000000 3.084760 0.000000 
#    z -0.056130 0.000000 3.607610 
# 
# 
# High freq. dielectric constant tensor:
#      x y z
#    x 1.728640 0.000000 0.004360 
#    y 0.000000 1.694040 0.000000 
#    z 0.004360 0.000000 1.727340 
# 
# From -- ./inp_files/359651.got.cif
#   From: 2010.06.25/outbox.cif.g09.slc.cpg/sg12_180_cif.got.tgz:359651.got - 2010.06.28 00:19:55.
