data_PCOD8086333
_publ_section_title
;
Structure prediction by ZEFSAII (Michael W. Deem and Ramdas Pophale) SiO2 
 PCOD8086333
Probable space group: C 2/M
;
_chemical_formula_sum "Si O2"
_cell_formula_units_Z 64
_cell_length_a 20.692843
_cell_length_b 8.881622
_cell_length_c 20.391215
_cell_angle_alpha 90.000000
_cell_angle_beta 113.371409
_cell_angle_gamma 90.000000
_cell_volume 3440.137897
_symmetry_space_group_name_H-M "C 2/M"
_symmetry_group_IT_number 12
_symmetry_cell_setting 'monoclinic'
loop_
_space_group_symop_operation_xyz
x,y,z
-x,y,-z
-x,-y,-z
x,-y,z
1/2+x,1/2+y,z
1/2-x,1/2+y,-z
1/2-x,1/2-y,-z
1/2+x,1/2-y,z
loop_
_atom_site_type_symbol
_atom_site_label
_atom_site_fract_x
_atom_site_fract_y
_atom_site_fract_z
Si Si1 0.081426 0.321161 0.194280
Si Si2 0.899922 0.678785 0.568301
Si Si3 0.577200 0.821064 0.046786
Si Si4 0.326090 0.821163 0.031485
Si Si5 0.690766 0.178614 0.345833
Si Si6 0.841859 0.320955 0.406815
Si Si7 0.554454 0.179259 0.664139
Si Si8 0.567693 0.821014 0.815831
O O1 0.077623 0.500000 0.196118
O O2 0.100031 0.266131 0.128361
O O3 0.141612 0.262309 0.267114
O O4 0.005669 0.255698 0.185549
O O5 0.904101 0.500000 0.569706
O O6 0.844018 0.733084 0.600095
O O7 0.875050 0.740152 0.487894
O O8 0.977121 0.744205 0.615950
O O9 0.574127 0.000000 0.041810
O O10 0.500000 0.755379 0.000000
O O11 0.632768 0.760686 0.016041
O O12 0.367827 0.764987 0.113054
O O13 0.319418 0.000000 0.027973
O O14 0.250000 0.750000 0.000000
O O15 0.765030 0.255858 0.366152
O O16 0.700000 0.000000 0.348008
O O17 0.837763 0.500000 0.405629
O O18 0.890154 0.260572 0.366926
O O19 0.578293 0.236916 0.745616
O O20 0.551674 0.000000 0.661648
O O21 0.564187 0.000000 0.816115
#
# Coordination Sequence:
#
# PCOD8086333 Si02
#       8
#     8   8   8   8   8   8   8   8
#     4   9  15  26  47  73  94 116 157 206 236 261
#     4   9  16  29  49  71  92 121 162 201 232 268
#     4   9  15  26  47  73  94 116 155 202 234 260
#     4  10  20  32  49  74 101 126 153 190 237 284
#     4  10  19  31  49  71  95 124 158 195 235 279
#     4  10  20  31  46  71 101 125 150 193 243 284
#     4   9  16  28  48  72  94 120 160 202 234 269
#     4   9  15  27  48  72  94 119 157 200 233 268
#
# _framework density 18.603907
#
# number of rings (size 3 to 8) (size 9 to 14) (size 15 to 20)
#    0.000    2.625    2.500    0.750    0.000    2.500 
#    0.000    0.000    0.000    3.375    0.000    0.000 
#    0.000    0.000    0.000    0.000    0.000    0.000 
#
# Total GULP energy -396718.610630 kJ/mol
# GULP energy per Si atom -12397.456582 kJ/mol
# Density = 1.856156 g / cm^3
# Si number density = 18.603907 Si / 1000 Ang^3
#
#
#
# Elastic Constant Matrix: (Units=GPa)
#
#
# Indices 1 2 3 4 5 6 
#
# 1 170.7395 14.5055 96.2383 0.0000 2.5583 0.0000
# 2 14.5055 7.8734 13.1612 0.0000 1.6868 0.0000
# 3 96.2383 13.1612 189.6733 0.0000 -3.5973 0.0000
# 4 0.0000 0.0000 0.0000 10.6333 0.0000 8.5969
# 5 2.5583 1.6868 -3.5973 0.0000 38.4182 0.0000
# 6 0.0000 0.0000 0.0000 8.5969 0.0000 23.0653
#
#
#
# Elastic Compliance Matrix: (Units=1/GPa)
#
#
# Indices 1 2 3 4 5 6 
#
# 1 0.008851 -0.009811 -0.003820 0.000000 -0.000516 0.000000
# 2 -0.009811 0.156597 -0.006017 0.000000 -0.006786 0.000000
# 3 -0.003820 -0.006017 0.007651 0.000000 0.001235 0.000000
# 4 0.000000 0.000000 0.000000 0.134607 0.000000 -0.050170
# 5 -0.000516 -0.006786 0.001235 0.000000 0.026477 0.000000
# 6 0.000000 0.000000 0.000000 -0.050170 0.000000 0.062055
#
#
# Mechanical properties :
#
#
# Convention : Reuss Voigt Hill
#
# Bulk Modulus (GPa) = 7.47362 68.45511 37.96436
# Shear Modulus (GPa) = 10.41374 30.71543 20.56458
#
# Velocity S-wave (km/s) = 2.36849 4.06768 3.32835
# Velocity P-wave (km/s) = 3.39199 7.67707 5.93477
#
# Compressibility (1/GPa) = 0.13380401
#
# Stress axis : x y z
#
# Youngs Moduli (GPa) = 112.97721 6.38583 130.69469
#
# Poissons Ratio (x) = 0.06265 0.49927
# Poissons Ratio (y) = 1.10841 0.78636
# Poissons Ratio (z) = 0.43158 0.03842
#
# Static dielectric constant tensor:
#      x y z
#    x 3.541000 0.000000 -0.151520 
#    y 0.000000 2.687690 0.000000 
#    z -0.151520 0.000000 3.827180 
# 
# 
# High freq. dielectric constant tensor:
#      x y z
#    x 1.731050 0.000000 -0.004850 
#    y 0.000000 1.644920 0.000000 
#    z -0.004850 0.000000 1.742840 
# 
# From -- ./inp_files/315318.got.cif
#   From: 2010.06.25/outbox.cif.g09.slc.cpg/sg12_158_cif.got.tgz:315318.got - 2010.06.28 00:19:55.
