data_PCOD8086959
_publ_section_title
;
Structure prediction by ZEFSAII (Michael W. Deem and Ramdas Pophale) SiO2 
 PCOD8086959
Probable space group: C 2/M
;
_chemical_formula_sum "Si O2"
_cell_formula_units_Z 48
_cell_length_a 23.399431
_cell_length_b 9.077977
_cell_length_c 26.725664
_cell_angle_alpha 90.000000
_cell_angle_beta 28.463046
_cell_angle_gamma 90.000000
_cell_volume 2705.636765
_symmetry_space_group_name_H-M "C 2/M"
_symmetry_group_IT_number 12
_symmetry_cell_setting 'monoclinic'
loop_
_space_group_symop_operation_xyz
x,y,z
-x,y,-z
-x,-y,-z
x,-y,z
1/2+x,1/2+y,z
1/2-x,1/2+y,-z
1/2-x,1/2-y,-z
1/2+x,1/2-y,z
loop_
_atom_site_type_symbol
_atom_site_label
_atom_site_fract_x
_atom_site_fract_y
_atom_site_fract_z
Si Si1 0.165362 0.674130 0.706580
Si Si2 0.088512 0.670476 0.477679
Si Si3 0.641639 0.827316 0.611157
Si Si4 0.551103 0.173874 0.318310
Si Si5 0.960791 0.174296 0.109414
Si Si6 0.183898 0.174575 0.875060
O O1 0.166221 0.500000 0.711594
O O2 0.293382 0.736709 0.624457
O O3 0.134291 0.724007 0.674095
O O4 0.063185 0.741454 0.820607
O O5 0.125153 0.500000 0.455908
O O6 0.000000 0.692890 0.500000
O O7 0.025357 0.734347 0.576035
O O8 0.750000 0.750000 0.500000
O O9 0.516452 0.783069 0.680911
O O10 0.665127 0.000000 0.588594
O O11 0.684735 0.243742 0.215434
O O12 0.563371 0.000000 0.315357
O O13 0.861810 0.223217 0.144533
O O14 0.955804 0.000000 0.122627
O O15 0.091349 0.226008 0.989235
O O16 0.188460 0.000000 0.872706
#
# Coordination Sequence:
#
# PCOD8086959 Si02
#       6
#     8   8   8   8   8   8
#     4  11  22  33  47  72 106 138 167 202 251 307
#     4  10  19  31  52  78  99 125 166 211 252 300
#     4  10  20  34  51  70  97 137 175 207 247 297
#     4   9  16  29  50  74  98 125 164 212 254 290
#     4   9  17  32  55  78 100 128 165 210 253 300
#     4   8  15  30  54  80  99 122 165 215 256 292
#
# _framework density 17.740741
#
# number of rings (size 3 to 8) (size 9 to 14) (size 15 to 20)
#    0.000    2.500    1.667    2.500    0.000    3.667 
#    0.000    2.500    0.000    2.000    0.000    0.000 
#    0.000    0.000    0.000    0.000    0.000    0.000 
#
# Total GULP energy -297571.232008 kJ/mol
# GULP energy per Si atom -12398.801334 kJ/mol
# Density = 1.770036 g / cm^3
# Si number density = 17.740741 Si / 1000 Ang^3
#
#
#
# Elastic Constant Matrix: (Units=GPa)
#
#
# Indices 1 2 3 4 5 6 
#
# 1 97.4978 28.0389 52.3590 -0.0005 14.9709 0.0005
# 2 28.0389 34.7610 27.4239 -0.0017 9.5448 0.0018
# 3 52.3590 27.4239 117.4814 -0.0008 13.6424 0.0011
# 4 -0.0005 -0.0017 -0.0008 20.1158 0.0005 6.6518
# 5 14.9709 9.5448 13.6424 0.0005 34.7616 -0.0006
# 6 0.0005 0.0018 0.0011 6.6518 -0.0006 15.0698
#
#
#
# Elastic Compliance Matrix: (Units=1/GPa)
#
#
# Indices 1 2 3 4 5 6 
#
# 1 0.015518 -0.008069 -0.004729 -0.000001 -0.002612 0.000001
# 2 -0.008069 0.041042 -0.005322 0.000005 -0.005705 -0.000007
# 3 -0.004729 -0.005322 0.012003 0.000000 -0.001213 0.000000
# 4 -0.000001 0.000005 0.000000 0.058208 -0.000002 -0.025693
# 5 -0.002612 -0.005705 -0.001213 -0.000002 0.031935 0.000003
# 6 0.000001 -0.000007 0.000000 -0.025693 0.000003 0.077699
#
#
# Mechanical properties :
#
#
# Convention : Reuss Voigt Hill
#
# Bulk Modulus (GPa) = 30.93821 51.70932 41.32377
# Shear Modulus (GPa) = 17.64183 23.45067 20.54625
#
# Velocity S-wave (km/s) = 3.15687 3.63968 3.40684
# Velocity P-wave (km/s) = 5.54659 6.84642 6.23050
#
# Compressibility (1/GPa) = 0.03232249
#
# Stress axis : x y z
#
# Youngs Moduli (GPa) = 64.44194 24.36557 83.31427
#
# Poissons Ratio (x) = 0.19660 0.39401
# Poissons Ratio (y) = 0.51998 0.44337
# Poissons Ratio (z) = 0.30476 0.12967
#
# Static dielectric constant tensor:
#      x y z
#    x 3.518010 0.000000 -0.076050 
#    y 0.000000 2.928000 0.000000 
#    z -0.076050 0.000000 3.563630 
# 
# 
# High freq. dielectric constant tensor:
#      x y z
#    x 1.689160 0.000000 0.002690 
#    y 0.000000 1.646950 0.000000 
#    z 0.002690 0.000000 1.692050 
# 
# From -- ./inp_files/172248.got.cif
#   From: 2010.06.25/outbox.cif.g09.slc.cpg/sg12_87_cif.got.tgz:172248.got - 2010.06.28 00:19:55.
