data_PCOD8086831
_publ_section_title
;
Structure prediction by ZEFSAII (Michael W. Deem and Ramdas Pophale) SiO2 
 PCOD8086831
Probable space group: C 2/M
;
_chemical_formula_sum "Si O2"
_cell_formula_units_Z 44
_cell_length_a 8.939921
_cell_length_b 25.818507
_cell_length_c 11.084672
_cell_angle_alpha 90.000000
_cell_angle_beta 62.970454
_cell_angle_gamma 90.000000
_cell_volume 2279.052624
_symmetry_space_group_name_H-M "C 2/M"
_symmetry_group_IT_number 12
_symmetry_cell_setting 'monoclinic'
loop_
_space_group_symop_operation_xyz
x,y,z
-x,y,-z
-x,-y,-z
x,-y,z
1/2+x,1/2+y,z
1/2-x,1/2+y,-z
1/2-x,1/2-y,-z
1/2+x,1/2-y,z
loop_
_atom_site_type_symbol
_atom_site_label
_atom_site_fract_x
_atom_site_fract_y
_atom_site_fract_z
Si Si1 0.187157 0.861954 0.722860
Si Si2 0.500000 0.819214 0.000000
Si Si3 0.162098 0.836697 0.228156
Si Si4 0.897558 0.717041 0.786270
Si Si5 0.185096 0.352054 0.592895
Si Si6 0.052177 0.443268 0.344458
O O1 0.240820 0.818018 0.798961
O O2 0.255936 0.847319 0.565412
O O3 0.262271 0.917571 0.734067
O O4 0.985308 0.865669 0.790798
O O5 0.343945 0.853511 0.106846
O O6 0.578103 0.784559 0.078265
O O7 0.139598 0.775348 0.234342
O O8 0.159461 0.852316 0.370625
O O9 0.066353 0.697612 0.658679
O O10 0.082123 0.404221 0.663627
O O11 0.054005 0.500000 0.279689
O O12 0.000000 0.451454 0.500000
#
# Coordination Sequence:
#
# PCOD8086831 Si02
#       6
#     8   4   8   8   8   8
#     4  10  19  31  51  78 101 128 167 200 241 301
#     4  10  22  36  46  66  99 138 179 206 236 278
#     4  11  21  32  48  71 102 135 166 207 242 280
#     4  10  20  33  50  71 101 137 167 201 242 286
#     4   9  19  32  48  77 106 129 161 195 247 306
#     4   8  15  31  52  72  99 130 158 196 245 297
#
# _framework density 19.306267999999999
#
# number of rings (size 3 to 8) (size 9 to 14) (size 15 to 20)
#    0.000    2.364    0.000    4.909    0.000    5.091 
#    0.000    0.909    0.000    4.364    0.000   75.091 
#    0.000    0.000    0.000    0.000    0.000    0.000 
#
# Total GULP energy -272639.988719 kJ/mol
# GULP energy per Si atom -12392.726760 kJ/mol
# Density = 1.926233 g / cm^3
# Si number density = 19.306268 Si / 1000 Ang^3
#
#
#
# Elastic Constant Matrix: (Units=GPa)
#
#
# Indices 1 2 3 4 5 6 
#
# 1 143.3298 41.7516 31.9860 0.0000 7.2017 0.0000
# 2 41.7516 96.7337 25.2700 0.0000 2.1226 0.0000
# 3 31.9860 25.2700 64.4924 0.0000 10.6345 0.0000
# 4 0.0000 0.0000 0.0000 9.2935 0.0000 1.1579
# 5 7.2017 2.1226 10.6345 0.0000 38.7487 0.0000
# 6 0.0000 0.0000 0.0000 1.1579 0.0000 8.1914
#
#
#
# Elastic Compliance Matrix: (Units=1/GPa)
#
#
# Indices 1 2 3 4 5 6 
#
# 1 0.008514 -0.002879 -0.002995 0.000000 -0.000603 0.000000
# 2 -0.002879 0.012505 -0.003611 0.000000 0.000841 0.000000
# 3 -0.002995 -0.003611 0.019148 0.000000 -0.004501 0.000000
# 4 0.000000 0.000000 0.000000 0.109532 0.000000 -0.015483
# 5 -0.000603 0.000841 -0.004501 0.000000 0.027108 0.000000
# 6 0.000000 0.000000 0.000000 -0.015483 0.000000 0.124268
#
#
# Mechanical properties :
#
#
# Convention : Reuss Voigt Hill
#
# Bulk Modulus (GPa) = 47.17545 55.84123 51.50834
# Shear Modulus (GPa) = 15.28529 24.94992 20.11761
#
# Velocity S-wave (km/s) = 2.81682 3.59879 3.23154
# Velocity P-wave (km/s) = 5.92179 6.80111 6.37662
#
# Compressibility (1/GPa) = 0.02119747
#
# Stress axis : x y z
#
# Youngs Moduli (GPa) = 117.44881 79.96725 52.22447
#
# Poissons Ratio (x) = 0.23024 0.15643
# Poissons Ratio (y) = 0.33816 0.18856
# Poissons Ratio (z) = 0.35179 0.28873
#
# Static dielectric constant tensor:
#      x y z
#    x 3.975690 0.000000 0.033360 
#    y 0.000000 3.573990 0.000000 
#    z 0.033360 0.000000 3.521790 
# 
# 
# High freq. dielectric constant tensor:
#      x y z
#    x 1.768290 0.000000 0.007980 
#    y 0.000000 1.711280 0.000000 
#    z 0.007980 0.000000 1.734760 
# 
# From -- ./inp_files/121759.got.cif
#   From: 2010.06.25/outbox.cif.g09.slc.cpg/sg12_61_cif.got.tgz:121759.got - 2010.06.28 00:19:55.
