data_PCOD8086975
_publ_section_title
;
Structure prediction by ZEFSAII (Michael W. Deem and Ramdas Pophale) SiO2 
 PCOD8086975
Probable space group: C 2/M
;
_chemical_formula_sum "Si O2"
_cell_formula_units_Z 56
_cell_length_a 17.469331
_cell_length_b 14.626866
_cell_length_c 11.582098
_cell_angle_alpha 90.000000
_cell_angle_beta 104.272126
_cell_angle_gamma 90.000000
_cell_volume 2868.133879
_symmetry_space_group_name_H-M "C 2/M"
_symmetry_group_IT_number 12
_symmetry_cell_setting 'monoclinic'
loop_
_space_group_symop_operation_xyz
x,y,z
-x,y,-z
-x,-y,-z
x,-y,z
1/2+x,1/2+y,z
1/2-x,1/2+y,-z
1/2-x,1/2-y,-z
1/2+x,1/2-y,z
loop_
_atom_site_type_symbol
_atom_site_label
_atom_site_fract_x
_atom_site_fract_y
_atom_site_fract_z
Si Si1 0.472255 0.897589 0.725818
Si Si2 0.880660 0.102572 0.013131
Si Si3 0.510777 0.718815 0.633609
Si Si4 0.449937 0.397574 0.806360
Si Si5 0.678298 0.104889 0.177536
Si Si6 0.364478 0.897900 0.098956
Si Si7 0.822537 0.218483 0.188905
O O1 0.488000 0.826140 0.628690
O O2 0.390305 0.874605 0.757189
O O3 0.542119 0.885941 0.844969
O O4 0.471458 0.000000 0.673336
O O5 0.887864 0.135684 0.882080
O O6 0.845207 0.000000 0.004103
O O7 0.823445 0.168652 0.063612
O O8 0.965075 0.103583 0.103999
O O9 0.500000 0.682457 0.500000
O O10 0.448733 0.667199 0.694329
O O11 0.599939 0.698559 0.706432
O O12 0.428446 0.500000 0.758220
O O13 0.749053 0.176027 0.231371
O O14 0.708104 0.000000 0.200441
O O15 0.645008 0.123745 0.038381
O O16 0.314908 0.826983 0.160266
O O17 0.335706 0.000000 0.121251
#
# Coordination Sequence:
#
# PCOD8086975 Si02
#       7
#     8   8   8   8   8   8   8
#     4   9  19  35  55  77 104 138 176 220 265 316
#     4   8  14  26  45  71 101 131 165 207 254 309
#     4  10  21  35  52  76 103 140 187 227 260 302
#     4   8  15  28  46  69  98 133 171 209 253 304
#     4  10  19  32  52  81 110 136 170 214 268 324
#     4   9  18  32  50  77 111 142 172 206 259 323
#     4  10  19  31  52  79 109 141 173 215 265 310
#
# _framework density 19.524891
#
# number of rings (size 3 to 8) (size 9 to 14) (size 15 to 20)
#    0.000    2.857    0.000    2.143    2.000    2.857 
#    0.000    0.714    0.000    0.000    0.000    0.000 
#    0.000    0.000    0.000    0.000    0.000    0.000 
#
# Total GULP energy -347070.211950 kJ/mol
# GULP energy per Si atom -12395.364712 kJ/mol
# Density = 1.948045 g / cm^3
# Si number density = 19.524891 Si / 1000 Ang^3
#
#
#
# Elastic Constant Matrix: (Units=GPa)
#
#
# Indices 1 2 3 4 5 6 
#
# 1 87.0802 41.7064 18.5819 0.0000 -5.0503 0.0000
# 2 41.7064 100.4115 34.9170 0.0000 -7.5797 0.0000
# 3 18.5819 34.9170 85.6330 0.0000 -15.8278 0.0000
# 4 0.0000 0.0000 0.0000 16.9458 0.0000 -2.6139
# 5 -5.0503 -7.5797 -15.8278 0.0000 13.9114 0.0000
# 6 0.0000 0.0000 0.0000 -2.6139 0.0000 26.7615
#
#
#
# Elastic Compliance Matrix: (Units=1/GPa)
#
#
# Indices 1 2 3 4 5 6 
#
# 1 0.014408 -0.005686 -0.000524 0.000000 0.001536 0.000000
# 2 -0.005686 0.013864 -0.004311 0.000000 0.000584 0.000000
# 3 -0.000524 -0.004311 0.016563 0.000000 0.016306 0.000000
# 4 0.000000 0.000000 0.000000 0.059914 0.000000 0.005852
# 5 0.001536 0.000584 0.016306 0.000000 0.091312 0.000000
# 6 0.000000 0.000000 0.000000 0.005852 0.000000 0.037939
#
#
# Mechanical properties :
#
#
# Convention : Reuss Voigt Hill
#
# Bulk Modulus (GPa) = 42.03002 51.50393 46.76697
# Shear Modulus (GPa) = 19.01332 23.38503 21.19918
#
# Velocity S-wave (km/s) = 3.12396 3.46454 3.29865
# Velocity P-wave (km/s) = 5.88093 6.51459 6.20585
#
# Compressibility (1/GPa) = 0.02379252
#
# Stress axis : x y z
#
# Youngs Moduli (GPa) = 69.40611 72.12861 60.37496
#
# Poissons Ratio (x) = 0.41014 0.03163
# Poissons Ratio (y) = 0.39466 0.26029
# Poissons Ratio (z) = 0.03636 0.31096
#
# Static dielectric constant tensor:
#      x y z
#    x 3.510830 0.000000 -0.095560 
#    y 0.000000 3.881460 0.000000 
#    z -0.095560 0.000000 3.134300 
# 
# 
# High freq. dielectric constant tensor:
#      x y z
#    x 1.750710 0.000000 -0.003540 
#    y 0.000000 1.774580 0.000000 
#    z -0.003540 0.000000 1.707060 
# 
# From -- ./inp_files/156186.got.cif
#   From: 2010.06.25/outbox.cif.g09.slc.cpg/sg12_79_cif.got.tgz:156186.got - 2010.06.28 00:19:55.
