data_PCOD8086964
_publ_section_title
;
Structure prediction by ZEFSAII (Michael W. Deem and Ramdas Pophale) SiO2 
 PCOD8086964
Probable space group: C 2/M
;
_chemical_formula_sum "Si O2"
_cell_formula_units_Z 56
_cell_length_a 18.626369
_cell_length_b 8.894178
_cell_length_c 22.821021
_cell_angle_alpha 90.000000
_cell_angle_beta 128.004402
_cell_angle_gamma 90.000000
_cell_volume 2979.031963
_symmetry_space_group_name_H-M "C 2/M"
_symmetry_group_IT_number 12
_symmetry_cell_setting 'monoclinic'
loop_
_space_group_symop_operation_xyz
x,y,z
-x,y,-z
-x,-y,-z
x,-y,z
1/2+x,1/2+y,z
1/2-x,1/2+y,-z
1/2-x,1/2-y,-z
1/2+x,1/2-y,z
loop_
_atom_site_type_symbol
_atom_site_label
_atom_site_fract_x
_atom_site_fract_y
_atom_site_fract_z
Si Si1 0.553183 0.177720 0.792621
Si Si2 0.398223 0.825342 0.800189
Si Si3 0.603538 0.174079 0.070758
Si Si4 0.434885 0.321999 0.640053
Si Si5 0.221931 0.324221 0.366641
Si Si6 0.250855 0.822820 0.063686
Si Si7 0.579523 0.321375 0.499528
O O1 0.487660 0.239231 0.811945
O O2 0.522823 0.253542 0.716614
O O3 0.656312 0.225253 0.857082
O O4 0.540472 0.000000 0.779609
O O5 0.384876 0.755277 0.858046
O O6 0.308663 0.794317 0.715887
O O7 0.415900 0.000000 0.819530
O O8 0.665804 0.267739 0.058354
O O9 0.633389 0.000000 0.082515
O O10 0.500000 0.195075 0.000000
O O11 0.440270 0.500000 0.646353
O O12 0.341095 0.267641 0.621125
O O13 0.435856 0.263397 0.573949
O O14 0.211885 0.500000 0.376969
O O15 0.324198 0.264728 0.426359
O O16 0.245756 0.000000 0.053136
O O17 0.250000 0.750000 0.000000
O O18 0.500000 0.252822 0.500000
O O19 0.577152 0.500000 0.500146
#
# Coordination Sequence:
#
# PCOD8086964 Si02
#       7
#     8   8   8   8   8   8   8
#     4   9  19  37  57  76 103 139 174 209 258 317
#     4   8  15  30  53  75  95 132 180 213 248 307
#     4  10  20  35  55  79 109 143 178 217 261 311
#     4  10  19  31  52  79 102 129 171 220 262 305
#     4   9  17  32  53  73 100 139 176 212 258 314
#     4  11  23  38  57  81 109 141 177 217 262 313
#     4   9  18  31  48  73 103 135 174 218 259 303
#
# _framework density 18.798051999999998
#
# number of rings (size 3 to 8) (size 9 to 14) (size 15 to 20)
#    0.000    2.571    0.000    3.000    0.000    4.857 
#    0.000    6.429    0.000    3.857    0.000    0.000 
#    0.000    0.000    0.000    0.000    0.000    0.000 
#
# Total GULP energy -347181.309557 kJ/mol
# GULP energy per Si atom -12399.332484 kJ/mol
# Density = 1.875527 g / cm^3
# Si number density = 18.798052 Si / 1000 Ang^3
#
#
#
# Elastic Constant Matrix: (Units=GPa)
#
#
# Indices 1 2 3 4 5 6 
#
# 1 118.7033 30.0273 83.5976 0.0000 -5.6779 0.0000
# 2 30.0273 40.2513 42.6962 0.0000 2.3389 0.0000
# 3 83.5976 42.6962 155.7930 0.0000 -4.8767 0.0000
# 4 0.0000 0.0000 0.0000 23.8962 0.0000 -1.7343
# 5 -5.6779 2.3389 -4.8767 0.0000 39.9599 0.0000
# 6 0.0000 0.0000 0.0000 -1.7343 0.0000 24.3532
#
#
#
# Elastic Compliance Matrix: (Units=1/GPa)
#
#
# Indices 1 2 3 4 5 6 
#
# 1 0.013953 -0.003660 -0.006440 0.000000 0.001411 0.000000
# 2 -0.003660 0.036407 -0.008128 0.000000 -0.003643 0.000000
# 3 -0.006440 -0.008128 0.012135 0.000000 0.001042 0.000000
# 4 0.000000 0.000000 0.000000 0.042065 0.000000 0.002996
# 5 0.001411 -0.003643 0.001042 0.000000 0.025566 0.000000
# 6 0.000000 0.000000 0.000000 0.002996 0.000000 0.041276
#
#
# Mechanical properties :
#
#
# Convention : Reuss Voigt Hill
#
# Bulk Modulus (GPa) = 38.40295 69.70997 54.05646
# Shear Modulus (GPa) = 23.09075 28.20361 25.64718
#
# Velocity S-wave (km/s) = 3.50860 3.87763 3.69772
# Velocity P-wave (km/s) = 6.07349 7.56387 6.85928
#
# Compressibility (1/GPa) = 0.02603967
#
# Stress axis : x y z
#
# Youngs Moduli (GPa) = 71.66910 27.46691 82.40935
#
# Poissons Ratio (x) = 0.10052 0.53071
# Poissons Ratio (y) = 0.26229 0.66982
# Poissons Ratio (z) = 0.46155 0.22325
#
# Static dielectric constant tensor:
#      x y z
#    x 3.567060 0.000000 -0.045760 
#    y 0.000000 3.139580 0.000000 
#    z -0.045760 0.000000 3.732210 
# 
# 
# High freq. dielectric constant tensor:
#      x y z
#    x 1.729030 0.000000 -0.001770 
#    y 0.000000 1.697640 0.000000 
#    z -0.001770 0.000000 1.748430 
# 
# From -- ./inp_files/342482.got.cif
#   From: 2010.06.25/outbox.cif.g09.slc.cpg/sg12_172_cif.got.tgz:342482.got - 2010.06.28 00:19:55.
