data_PCOD8086325
_publ_section_title
;
Structure prediction by ZEFSAII (Michael W. Deem and Ramdas Pophale) SiO2 
 PCOD8086325
Probable space group: C 2/M
;
_chemical_formula_sum "Si O2"
_cell_formula_units_Z 64
_cell_length_a 18.111462
_cell_length_b 9.110522
_cell_length_c 22.994718
_cell_angle_alpha 90.000000
_cell_angle_beta 64.431468
_cell_angle_gamma 90.000000
_cell_volume 3422.669413
_symmetry_space_group_name_H-M "C 2/M"
_symmetry_group_IT_number 12
_symmetry_cell_setting 'monoclinic'
loop_
_space_group_symop_operation_xyz
x,y,z
-x,y,-z
-x,-y,-z
x,-y,z
1/2+x,1/2+y,z
1/2-x,1/2+y,-z
1/2-x,1/2-y,-z
1/2+x,1/2-y,z
loop_
_atom_site_type_symbol
_atom_site_label
_atom_site_fract_x
_atom_site_fract_y
_atom_site_fract_z
Si Si1 0.412162 0.831916 0.501874
Si Si2 0.786697 0.834016 0.254356
Si Si3 0.533465 0.334566 0.753293
Si Si4 0.348102 0.833929 0.129276
Si Si5 0.274379 0.671519 0.618341
Si Si6 0.599108 0.170083 0.627085
Si Si7 0.028105 0.665880 0.121908
Si Si8 0.089927 0.834022 0.996350
O O1 0.500000 0.811220 0.500000
O O2 0.350132 0.725582 0.555117
O O3 0.417774 0.783166 0.433073
O O4 0.381347 0.000000 0.517327
O O5 0.877370 0.831851 0.248943
O O6 0.785288 0.748550 0.193595
O O7 0.725714 0.754150 0.319783
O O8 0.756119 0.000000 0.254820
O O9 0.500760 0.500000 0.758151
O O10 0.536915 0.260874 0.688683
O O11 0.471523 0.245085 0.815603
O O12 0.437957 0.833441 0.125889
O O13 0.348235 0.750229 0.067648
O O14 0.317543 0.000000 0.130101
O O15 0.282961 0.500000 0.627936
O O16 0.192760 0.708237 0.610047
O O17 0.580602 0.000000 0.644604
O O18 0.059807 0.500000 0.118854
O O19 0.089657 0.751919 0.058355
O O20 0.121171 0.000000 0.994580
O O21 0.000000 0.834182 0.000000
#
# Coordination Sequence:
#
# PCOD8086325 Si02
#       8
#     8   8   8   8   8   8   8   8
#     4  10  21  36  52  70  94 123 152 184 226 276
#     4   9  16  26  40  58  81 109 143 183 225 268
#     4   9  16  25  39  59  81 107 142 184 226 267
#     4   9  15  22  32  48  72 103 141 182 223 266
#     4  10  19  31  49  71  93 118 151 191 231 272
#     4   9  18  32  49  69  92 119 152 189 229 273
#     4   9  15  22  32  47  71 104 141 181 223 266
#     4   9  15  21  29  43  67 102 143 182 220 265
#
# _framework density 18.698855999999999
#
# number of rings (size 3 to 8) (size 9 to 14) (size 15 to 20)
#    0.000    2.750    0.000    2.625    0.000    8.750 
#    0.000    0.000    0.000    0.000    0.000    0.000 
#    0.000    0.000    0.000    1.125    0.000   15.500 
#
# Total GULP energy -396814.153617 kJ/mol
# GULP energy per Si atom -12400.442301 kJ/mol
# Density = 1.865630 g / cm^3
# Si number density = 18.698856 Si / 1000 Ang^3
#
#
#
# Elastic Constant Matrix: (Units=GPa)
#
#
# Indices 1 2 3 4 5 6 
#
# 1 19.8624 23.5943 33.9928 0.0000 3.7286 0.0001
# 2 23.5943 165.5914 100.6731 0.0000 15.8320 0.0002
# 3 33.9928 100.6731 178.6701 0.0000 32.7125 0.0000
# 4 0.0000 0.0000 0.0000 45.6144 0.0000 3.1515
# 5 3.7286 15.8320 32.7125 0.0000 4.7205 0.0000
# 6 0.0001 0.0002 0.0000 3.1515 0.0000 8.6716
#
#
#
# Elastic Compliance Matrix: (Units=1/GPa)
#
#
# Indices 1 2 3 4 5 6 
#
# 1 0.057135 -0.004780 0.010601 0.000000 -0.102562 -0.000001
# 2 -0.004780 0.009157 -0.002535 0.000000 -0.009365 0.000000
# 3 0.010601 -0.002535 -0.018546 0.000000 0.128653 0.000000
# 4 0.000000 0.000000 0.000000 0.022488 0.000000 -0.008173
# 5 -0.102562 -0.009365 0.128653 0.000000 -0.567284 0.000002
# 6 -0.000001 0.000000 0.000000 -0.008173 0.000002 0.118290
#
#
# Mechanical properties :
#
#
# Convention : Reuss Voigt Hill
#
# Bulk Modulus (GPa) = 18.41061 75.62713 47.01887
# Shear Modulus (GPa) = -13.61555 25.52556 5.95501
#
# Velocity S-wave (km/s) = -2.70135 3.69872 1.78651
# Velocity P-wave (km/s) = 0.37081 7.66637 5.42728
#
# Compressibility (1/GPa) = 0.05431650
#
# Stress axis : x y z
#
# Youngs Moduli (GPa) = 17.50247 109.20758 -53.91859
#
# Poissons Ratio (x) = 0.52203 0.57160
# Poissons Ratio (y) = 0.08367 -0.13670
# Poissons Ratio (z) = -0.18555 0.27688
#
# Static dielectric constant tensor:
#      x y z
#    x 2.715700 0.000000 0.239160 
#    y 0.000000 3.620130 0.000000 
#    z 0.239160 0.000000 3.603230 
# 
# 
# High freq. dielectric constant tensor:
#      x y z
#    x 1.645290 0.000000 0.020040 
#    y 0.000000 1.740620 0.000000 
#    z 0.020040 0.000000 1.742020 
# 
# From -- ./inp_files/365159.got.cif
#   From: 2010.06.25/outbox.cif.g09.slc.cpg/sg12_183_cif.got.tgz:365159.got - 2010.06.28 00:19:55.
