data_PCOD8086990
_publ_section_title
;
Structure prediction by ZEFSAII (Michael W. Deem and Ramdas Pophale) SiO2 
 PCOD8086990
Probable space group: C 2/M
;
_chemical_formula_sum "Si O2"
_cell_formula_units_Z 56
_cell_length_a 14.164474
_cell_length_b 19.800066
_cell_length_c 14.199457
_cell_angle_alpha 90.000000
_cell_angle_beta 130.555200
_cell_angle_gamma 90.000000
_cell_volume 3025.705385
_symmetry_space_group_name_H-M "C 2/M"
_symmetry_group_IT_number 12
_symmetry_cell_setting 'monoclinic'
loop_
_space_group_symop_operation_xyz
x,y,z
-x,y,-z
-x,-y,-z
x,-y,z
1/2+x,1/2+y,z
1/2-x,1/2+y,-z
1/2-x,1/2-y,-z
1/2+x,1/2-y,z
loop_
_atom_site_type_symbol
_atom_site_label
_atom_site_fract_x
_atom_site_fract_y
_atom_site_fract_z
Si Si1 0.314454 0.575733 0.942575
Si Si2 0.080578 0.422125 0.916323
Si Si3 0.115905 0.803084 0.136468
Si Si4 0.731130 0.829964 0.146913
Si Si5 0.568805 0.422651 0.452002
Si Si6 0.799753 0.576511 0.710740
Si Si7 0.531229 0.642431 0.800546
O O1 0.334164 0.500000 0.917037
O O2 0.176090 0.584650 0.892712
O O3 0.326447 0.626607 0.862882
O O4 0.419883 0.588121 0.090833
O O5 0.083747 0.500000 0.957275
O O6 0.943587 0.402170 0.789195
O O7 0.115859 0.367325 0.019373
O O8 0.208534 0.741176 0.183017
O O9 0.071296 0.809881 0.215897
O O10 0.000000 0.781409 0.000000
O O11 0.770362 0.881209 0.254180
O O12 0.845837 0.816359 0.150716
O O13 0.500000 0.392312 0.500000
O O14 0.528723 0.500000 0.415354
O O15 0.718466 0.414137 0.562981
O O16 0.534089 0.387584 0.332554
O O17 0.792689 0.500000 0.741227
#
# Coordination Sequence:
#
# PCOD8086990 Si02
#       7
#     8   8   8   8   8   8   8
#     4   9  19  35  55  80 109 137 172 218 263 314
#     4   9  18  31  52  80 107 139 174 214 266 311
#     4  10  22  35  52  80 107 142 177 211 266 318
#     4  11  20  33  53  76 110 138 173 219 264 314
#     4  10  19  33  55  80 107 138 174 217 263 309
#     4  10  19  31  52  80 108 139 174 215 264 311
#     4  10  21  35  54  78 106 138 177 216 265 313
#
# _framework density 18.508081000000001
#
# number of rings (size 3 to 8) (size 9 to 14) (size 15 to 20)
#    0.000    2.143    1.429    2.143    0.000   11.714 
#    0.000    0.714    0.000    0.857    0.000    4.000 
#    0.000    0.000    0.000    0.000    0.000    0.000 
#
# Total GULP energy -346988.331834 kJ/mol
# GULP energy per Si atom -12392.440423 kJ/mol
# Density = 1.846596 g / cm^3
# Si number density = 18.508081 Si / 1000 Ang^3
#
#
#
# Elastic Constant Matrix: (Units=GPa)
#
#
# Indices 1 2 3 4 5 6 
#
# 1 114.9160 58.9859 47.2830 0.0000 -5.7782 0.0000
# 2 58.9859 105.1598 35.1019 0.0000 -3.4390 0.0000
# 3 47.2830 35.1019 93.4099 0.0000 -0.1737 0.0000
# 4 0.0000 0.0000 0.0000 5.3263 0.0000 -1.1190
# 5 -5.7782 -3.4390 -0.1737 0.0000 23.1406 0.0000
# 6 0.0000 0.0000 0.0000 -1.1190 0.0000 24.3441
#
#
#
# Elastic Compliance Matrix: (Units=1/GPa)
#
#
# Indices 1 2 3 4 5 6 
#
# 1 0.013937 -0.006153 -0.004738 0.000000 0.002530 0.000000
# 2 -0.006153 0.013648 -0.002013 0.000000 0.000477 0.000000
# 3 -0.004738 -0.002013 0.013858 0.000000 -0.001378 0.000000
# 4 0.000000 0.000000 0.000000 0.189577 0.000000 0.008714
# 5 0.002530 0.000477 -0.001378 0.000000 0.043906 0.000000
# 6 0.000000 0.000000 0.000000 0.008714 0.000000 0.041478
#
#
# Mechanical properties :
#
#
# Convention : Reuss Voigt Hill
#
# Bulk Modulus (GPa) = 63.96091 66.24747 65.10419
# Shear Modulus (GPa) = 14.39161 22.03655 18.21408
#
# Velocity S-wave (km/s) = 2.79155 3.45432 3.14046
# Velocity P-wave (km/s) = 6.70997 7.19592 6.95719
#
# Compressibility (1/GPa) = 0.01563455
#
# Stress axis : x y z
#
# Youngs Moduli (GPa) = 71.75090 73.26838 72.16219
#
# Poissons Ratio (x) = 0.45085 0.34189
# Poissons Ratio (y) = 0.44151 0.14528
# Poissons Ratio (z) = 0.33994 0.14750
#
# Static dielectric constant tensor:
#      x y z
#    x 3.681360 0.000000 0.127750 
#    y 0.000000 3.283300 0.000000 
#    z 0.127750 0.000000 3.238930 
# 
# 
# High freq. dielectric constant tensor:
#      x y z
#    x 1.724810 0.000000 0.011220 
#    y 0.000000 1.705830 0.000000 
#    z 0.011220 0.000000 1.689670 
# 
# From -- ./inp_files/146212.got.cif
#   From: 2010.06.25/outbox.cif.g09.slc.cpg/sg12_74_cif.got.tgz:146212.got - 2010.06.28 00:19:55.
