data_PCOD8086435
_publ_section_title
;
Structure prediction by ZEFSAII (Michael W. Deem and Ramdas Pophale) SiO2 
 PCOD8086435
Probable space group: C 2/M
;
_chemical_formula_sum "Si O2"
_cell_formula_units_Z 64
_cell_length_a 25.242720
_cell_length_b 9.165499
_cell_length_c 16.622769
_cell_angle_alpha 90.000000
_cell_angle_beta 76.673707
_cell_angle_gamma 90.000000
_cell_volume 3742.321941
_symmetry_space_group_name_H-M "C 2/M"
_symmetry_group_IT_number 12
_symmetry_cell_setting 'monoclinic'
loop_
_space_group_symop_operation_xyz
x,y,z
-x,y,-z
-x,-y,-z
x,-y,z
1/2+x,1/2+y,z
1/2-x,1/2+y,-z
1/2-x,1/2-y,-z
1/2+x,1/2-y,z
loop_
_atom_site_type_symbol
_atom_site_label
_atom_site_fract_x
_atom_site_fract_y
_atom_site_fract_z
Si Si1 0.195781 0.334706 0.008950
Si Si2 0.099618 0.331861 0.489863
Si Si3 0.694682 0.332872 0.530238
Si Si4 0.923512 0.327761 0.679739
Si Si5 0.795651 0.328072 0.168631
Si Si6 0.137314 0.831374 0.718573
Si Si7 0.819996 0.671655 0.811988
Si Si8 0.958861 0.669669 0.325099
O O1 0.214368 0.500000 0.002975
O O2 0.172416 0.298933 0.928034
O O3 0.250000 0.250000 0.000000
O O4 0.159987 0.302614 0.101609
O O5 0.118270 0.500000 0.480476
O O6 0.152541 0.233770 0.482258
O O7 0.073211 0.282533 0.414916
O O8 0.057178 0.304895 0.576276
O O9 0.703495 0.500000 0.504729
O O10 0.750000 0.250000 0.500000
O O11 0.674651 0.311615 0.627818
O O12 0.921711 0.500000 0.688559
O O13 0.869211 0.264014 0.740829
O O14 0.978793 0.274157 0.704471
O O15 0.789800 0.500000 0.188975
O O16 0.833883 0.254465 0.220410
O O17 0.735378 0.257352 0.189883
O O18 0.077884 0.763574 0.722584
O O19 0.130085 0.000000 0.744729
O O20 0.809581 0.500000 0.798685
O O21 0.952313 0.500000 0.304236
#
# Coordination Sequence:
#
# PCOD8086435 Si02
#       8
#     8   8   8   8   8   8   8   8
#     4   8  15  28  46  68  96 127 155 189 234 285
#     4   9  17  30  48  70  95 125 161 196 232 276
#     4  10  21  34  47  65  94 128 159 194 238 283
#     4   9  17  29  50  75  97 124 159 198 237 282
#     4  10  19  31  49  73  98 125 161 198 235 286
#     4  10  21  35  50  69  93 125 163 200 239 283
#     4   9  17  30  48  73 103 129 154 190 241 290
#     4   9  17  32  51  70  94 126 164 201 235 274
#
# _framework density 17.101683000000001
#
# number of rings (size 3 to 8) (size 9 to 14) (size 15 to 20)
#    0.000    2.750    0.000    1.500    1.750    3.500 
#    0.000    1.250    0.000    3.750    0.000    5.250 
#    0.000    0.000    0.000    0.000    0.000    0.000 
#
# Total GULP energy -396508.273011 kJ/mol
# GULP energy per Si atom -12390.883532 kJ/mol
# Density = 1.706276 g / cm^3
# Si number density = 17.101683 Si / 1000 Ang^3
#
#
#
# Elastic Constant Matrix: (Units=GPa)
#
#
# Indices 1 2 3 4 5 6 
#
# 1 115.0807 50.5558 62.7120 0.0000 17.9609 0.0000
# 2 50.5558 74.2932 40.8542 0.0000 12.5589 0.0000
# 3 62.7120 40.8542 83.5320 0.0000 12.5318 0.0000
# 4 0.0000 0.0000 0.0000 20.3152 0.0000 3.0214
# 5 17.9609 12.5589 12.5318 0.0000 19.2821 0.0000
# 6 0.0000 0.0000 0.0000 3.0214 0.0000 23.7719
#
#
#
# Elastic Compliance Matrix: (Units=1/GPa)
#
#
# Indices 1 2 3 4 5 6 
#
# 1 0.017120 -0.005513 -0.009200 0.000000 -0.006377 0.000000
# 2 -0.005513 0.021030 -0.005387 0.000000 -0.005061 0.000000
# 3 -0.009200 -0.005387 0.021830 0.000000 -0.002109 0.000000
# 4 0.000000 0.000000 0.000000 0.050173 0.000000 -0.006377
# 5 -0.006377 -0.005061 -0.002109 0.000000 0.062469 0.000000
# 6 0.000000 0.000000 0.000000 -0.006377 0.000000 0.042877
#
#
# Mechanical properties :
#
#
# Convention : Reuss Voigt Hill
#
# Bulk Modulus (GPa) = 50.55836 64.57222 57.56529
# Shear Modulus (GPa) = 19.06280 20.59277 19.82778
#
# Velocity S-wave (km/s) = 3.34230 3.47383 3.40870
# Velocity P-wave (km/s) = 6.67249 7.34369 7.01612
#
# Compressibility (1/GPa) = 0.01977912
#
# Stress axis : x y z
#
# Youngs Moduli (GPa) = 58.41059 47.55201 45.80939
#
# Poissons Ratio (x) = 0.26215 0.42145
# Poissons Ratio (y) = 0.32201 0.24678
# Poissons Ratio (z) = 0.53738 0.25617
#
# Static dielectric constant tensor:
#      x y z
#    x 2.999320 0.000000 -0.487910 
#    y 0.000000 3.192980 0.000000 
#    z -0.487910 0.000000 10.335890 
# 
# 
# High freq. dielectric constant tensor:
#      x y z
#    x 1.644100 0.000000 0.007890 
#    y 0.000000 1.653290 0.000000 
#    z 0.007890 0.000000 1.658860 
# 
# From -- ./inp_files/243908.got.cif
#   From: 2010.06.25/outbox.cif.g09.slc.cpg/sg12_122_cif.got.tgz:243908.got - 2010.06.28 00:19:55.
