data_PCOD8086972
_publ_section_title
;
Structure prediction by ZEFSAII (Michael W. Deem and Ramdas Pophale) SiO2 
 PCOD8086972
Probable space group: C 2/M
;
_chemical_formula_sum "Si O2"
_cell_formula_units_Z 64
_cell_length_a 23.740860
_cell_length_b 13.766314
_cell_length_c 14.478110
_cell_angle_alpha 90.000000
_cell_angle_beta 128.540018
_cell_angle_gamma 90.000000
_cell_volume 3701.083700
_symmetry_space_group_name_H-M "C 2/M"
_symmetry_group_IT_number 12
_symmetry_cell_setting 'monoclinic'
loop_
_space_group_symop_operation_xyz
x,y,z
-x,y,-z
-x,-y,-z
x,-y,z
1/2+x,1/2+y,z
1/2-x,1/2+y,-z
1/2-x,1/2-y,-z
1/2+x,1/2-y,z
loop_
_atom_site_type_symbol
_atom_site_label
_atom_site_fract_x
_atom_site_fract_y
_atom_site_fract_z
Si Si1 0.173401 0.229733 0.468200
Si Si2 0.054851 0.188672 0.682225
Si Si3 0.086886 0.885923 0.903020
Si Si4 0.075451 0.888575 0.234550
Si Si5 0.402986 0.613885 0.469876
Si Si6 0.315980 0.889826 0.384535
Si Si7 0.669039 0.610413 0.157747
Si Si8 0.062819 0.394925 0.637376
O O1 0.250000 0.250000 0.500000
O O2 0.119931 0.192566 0.335187
O O3 0.167610 0.148548 0.544894
O O4 0.149802 0.329842 0.494775
O O5 0.102967 0.146820 0.814740
O O6 0.094567 0.166767 0.626401
O O7 0.051876 0.305098 0.695605
O O8 0.974860 0.141817 0.601939
O O9 0.006515 0.853665 0.847380
O O10 0.094022 0.000000 0.918805
O O11 0.144049 0.840241 0.034906
O O12 0.100512 0.885216 0.154677
O O13 0.085490 0.000000 0.284101
O O14 0.400564 0.500000 0.450077
O O15 0.238980 0.841135 0.277201
O O16 0.362891 0.884002 0.340860
O O17 0.307817 0.000000 0.412660
O O18 0.692868 0.500000 0.162806
O O19 0.061015 0.500000 0.687757
O O20 0.000000 0.390630 0.500000
#
# Coordination Sequence:
#
# PCOD8086972 Si02
#       8
#     8   8   8   8   8   8   8   8
#     4  12  21  31  51  76 106 143 176 212 262 327
#     4  11  18  32  53  81 108 139 173 216 271 328
#     4  10  19  31  52  79 106 139 179 217 264 328
#     4  10  19  32  50  76 110 139 172 219 268 319
#     4  11  21  33  50  77 113 142 166 212 278 332
#     4  10  20  35  51  71 103 139 178 224 267 309
#     4   9  18  33  51  73 104 142 180 220 266 313
#     4  10  19  33  52  73 101 137 178 223 259 302
#
# _framework density 17.292231999999998
#
# number of rings (size 3 to 8) (size 9 to 14) (size 15 to 20)
#    0.000    1.625    5.000    2.250    0.000    2.000 
#    0.000    0.625    0.000    0.000    0.000    1.750 
#    0.000    2.000    0.000    0.000    0.000    0.000 
#
# Total GULP energy -396494.969373 kJ/mol
# GULP energy per Si atom -12390.467793 kJ/mol
# Density = 1.725287 g / cm^3
# Si number density = 17.292232 Si / 1000 Ang^3
#
#
#
# Elastic Constant Matrix: (Units=GPa)
#
#
# Indices 1 2 3 4 5 6 
#
# 1 58.0618 10.3382 15.2888 0.0000 1.6090 0.0000
# 2 10.3382 80.6582 32.7673 0.0000 2.1874 0.0000
# 3 15.2888 32.7673 82.1957 0.0000 -13.3913 0.0000
# 4 0.0000 0.0000 0.0000 17.2425 0.0000 -3.0423
# 5 1.6090 2.1874 -13.3913 0.0000 22.0131 0.0000
# 6 0.0000 0.0000 0.0000 -3.0423 0.0000 27.8228
#
#
#
# Elastic Compliance Matrix: (Units=1/GPa)
#
#
# Indices 1 2 3 4 5 6 
#
# 1 0.018430 -0.000765 -0.003697 0.000000 -0.003520 0.000000
# 2 -0.000765 0.015478 -0.006959 0.000000 -0.005716 0.000000
# 3 -0.003697 -0.006959 0.017521 0.000000 0.011620 0.000000
# 4 0.000000 0.000000 0.000000 0.059137 0.000000 0.006466
# 5 -0.003520 -0.005716 0.011620 0.000000 0.053322 0.000000
# 6 0.000000 0.000000 0.000000 0.006466 0.000000 0.036649
#
#
# Mechanical properties :
#
#
# Convention : Reuss Voigt Hill
#
# Bulk Modulus (GPa) = 34.98000 37.52271 36.25136
# Shear Modulus (GPa) = 21.46764 24.25043 22.85904
#
# Velocity S-wave (km/s) = 3.52726 3.74891 3.63977
# Velocity P-wave (km/s) = 6.07136 6.36281 6.21879
#
# Compressibility (1/GPa) = 0.02858776
#
# Stress axis : x y z
#
# Youngs Moduli (GPa) = 54.25883 64.60668 57.07367
#
# Poissons Ratio (x) = 0.04943 0.21098
# Poissons Ratio (y) = 0.04151 0.39719
# Poissons Ratio (z) = 0.20057 0.44962
#
# Static dielectric constant tensor:
#      x y z
#    x 3.123490 0.000000 0.034360 
#    y 0.000000 3.382910 0.000000 
#    z 0.034360 0.000000 3.240020 
# 
# 
# High freq. dielectric constant tensor:
#      x y z
#    x 1.669750 0.000000 -0.001680 
#    y 0.000000 1.652260 0.000000 
#    z -0.001680 0.000000 1.642450 
# 
# From -- ./inp_files/240714.got.cif
#   From: 2010.06.25/outbox.cif.g09.slc.cpg/sg12_121_cif.got.tgz:240714.got - 2010.06.28 00:19:55.
