data_PCOD8086365
_publ_section_title
;
Structure prediction by ZEFSAII (Michael W. Deem and Ramdas Pophale) SiO2 
 PCOD8086365
Probable space group: C 2/M
;
_chemical_formula_sum "Si O2"
_cell_formula_units_Z 64
_cell_length_a 29.277016
_cell_length_b 9.217397
_cell_length_c 14.556188
_cell_angle_alpha 90.000000
_cell_angle_beta 122.194852
_cell_angle_gamma 90.000000
_cell_volume 3324.121150
_symmetry_space_group_name_H-M "C 2/M"
_symmetry_group_IT_number 12
_symmetry_cell_setting 'monoclinic'
loop_
_space_group_symop_operation_xyz
x,y,z
-x,y,-z
-x,-y,-z
x,-y,z
1/2+x,1/2+y,z
1/2-x,1/2+y,-z
1/2-x,1/2-y,-z
1/2+x,1/2-y,z
loop_
_atom_site_type_symbol
_atom_site_label
_atom_site_fract_x
_atom_site_fract_y
_atom_site_fract_z
Si Si1 0.051992 0.173637 0.611268
Si Si2 0.798149 0.167863 0.003277
Si Si3 0.727440 0.833685 0.196405
Si Si4 0.554617 0.672799 0.012707
Si Si5 0.843947 0.167035 0.379179
Si Si6 0.843742 0.834702 0.760351
Si Si7 0.303083 0.333568 0.526204
Si Si8 0.080886 0.831294 0.839192
O O1 0.104507 0.239471 0.615240
O O2 0.050414 0.231323 0.715747
O O3 0.000000 0.229852 0.500000
O O4 0.054753 0.000000 0.616438
O O5 0.803722 0.230705 0.907620
O O6 0.782853 0.000000 0.984194
O O7 0.750000 0.250000 0.000000
O O8 0.855602 0.193989 0.112868
O O9 0.791948 0.816291 0.257353
O O10 0.706267 0.773027 0.270754
O O11 0.710596 0.000000 0.163258
O O12 0.553410 0.500000 0.006638
O O13 0.602656 0.723450 0.131659
O O14 0.500000 0.733937 0.000000
O O15 0.561871 0.738104 0.916529
O O16 0.830342 0.236795 0.464230
O O17 0.858177 0.000000 0.411150
O O18 0.848639 0.827344 0.655098
O O19 0.830952 0.000000 0.777669
O O20 0.286153 0.500000 0.486772
O O21 0.250000 0.250000 0.500000
O O22 0.068416 0.000000 0.834364
#
# Coordination Sequence:
#
# PCOD8086365 Si02
#       8
#     8   8   8   8   8   8   8   8
#     4   9  17  29  46  68  99 135 171 210 258 311
#     4  11  21  34  52  77 110 142 178 217 263 315
#     4  11  20  32  52  75 106 142 172 211 268 321
#     4   9  17  30  49  74 104 136 171 214 267 317
#     4   9  18  31  46  71 104 137 173 217 265 314
#     4  10  19  32  50  75 104 137 175 220 263 313
#     4  10  19  31  49  72 104 140 176 216 263 313
#     4   9  17  30  48  71 101 136 170 214 261 306
#
# _framework density 19.253208999999998
#
# number of rings (size 3 to 8) (size 9 to 14) (size 15 to 20)
#    0.000    2.250    2.500    1.500    0.000    3.000 
#    0.000    5.000    0.000    0.375    0.000    0.000 
#    0.000   20.750    0.000    0.000    0.000    0.000 
#
# Total GULP energy -396566.665289 kJ/mol
# GULP energy per Si atom -12392.708290 kJ/mol
# Density = 1.920939 g / cm^3
# Si number density = 19.253209 Si / 1000 Ang^3
#
#
#
# Elastic Constant Matrix: (Units=GPa)
#
#
# Indices 1 2 3 4 5 6 
#
# 1 110.3720 22.2245 47.0142 0.0000 -4.1395 0.0000
# 2 22.2245 43.6561 22.3797 0.0000 4.6058 0.0000
# 3 47.0142 22.3797 134.6483 0.0000 -7.1636 0.0000
# 4 0.0000 0.0000 0.0000 14.5937 0.0000 -1.2783
# 5 -4.1395 4.6058 -7.1636 0.0000 28.0414 0.0000
# 6 0.0000 0.0000 0.0000 -1.2783 0.0000 19.5572
#
#
#
# Elastic Compliance Matrix: (Units=1/GPa)
#
#
# Indices 1 2 3 4 5 6 
#
# 1 0.011333 -0.004318 -0.003156 0.000000 0.001576 0.000000
# 2 -0.004318 0.027471 -0.003378 0.000000 -0.006012 0.000000
# 3 -0.003156 -0.003378 0.009220 0.000000 0.002444 0.000000
# 4 0.000000 0.000000 0.000000 0.068917 0.000000 0.004504
# 5 0.001576 -0.006012 0.002444 0.000000 0.037506 0.000000
# 6 0.000000 0.000000 0.000000 0.004504 0.000000 0.051427
#
#
# Mechanical properties :
#
#
# Convention : Reuss Voigt Hill
#
# Bulk Modulus (GPa) = 37.99328 52.43478 45.21403
# Shear Modulus (GPa) = 21.15505 25.57565 23.36535
#
# Velocity S-wave (km/s) = 3.31838 3.64865 3.48743
# Velocity P-wave (km/s) = 5.87014 6.71146 6.30485
#
# Compressibility (1/GPa) = 0.02632045
#
# Stress axis : x y z
#
# Youngs Moduli (GPa) = 88.23795 36.40257 108.45928
#
# Poissons Ratio (x) = 0.15719 0.34224
# Poissons Ratio (y) = 0.38102 0.36638
# Poissons Ratio (z) = 0.27844 0.12297
#
# Static dielectric constant tensor:
#      x y z
#    x 3.682270 0.000000 -0.300230 
#    y 0.000000 2.997060 0.000000 
#    z -0.300230 0.000000 3.988840 
# 
# 
# High freq. dielectric constant tensor:
#      x y z
#    x 1.746140 0.000000 -0.012720 
#    y 0.000000 1.684910 0.000000 
#    z -0.012720 0.000000 1.766300 
# 
# From -- ./inp_files/249207.got.cif
#   From: 2010.06.25/outbox.cif.g09.slc.cpg/sg12_125_cif.got.tgz:249207.got - 2010.06.28 00:19:55.
