data_PCOD8086924
_publ_section_title
;
Structure prediction by ZEFSAII (Michael W. Deem and Ramdas Pophale) SiO2 
 PCOD8086924
Probable space group: C 2/M
;
_chemical_formula_sum "Si O2"
_cell_formula_units_Z 64
_cell_length_a 16.383704
_cell_length_b 17.130205
_cell_length_c 14.797403
_cell_angle_alpha 90.000000
_cell_angle_beta 50.665619
_cell_angle_gamma 90.000000
_cell_volume 3212.166256
_symmetry_space_group_name_H-M "C 2/M"
_symmetry_group_IT_number 12
_symmetry_cell_setting 'monoclinic'
loop_
_space_group_symop_operation_xyz
x,y,z
-x,y,-z
-x,-y,-z
x,-y,z
1/2+x,1/2+y,z
1/2-x,1/2+y,-z
1/2-x,1/2-y,-z
1/2+x,1/2-y,z
loop_
_atom_site_type_symbol
_atom_site_label
_atom_site_fract_x
_atom_site_fract_y
_atom_site_fract_z
Si Si1 0.200085 0.335077 0.022754
Si Si2 0.754457 0.590637 0.630713
Si Si3 0.352890 0.699515 0.414116
Si Si4 0.523403 0.909770 0.844388
Si Si5 0.378747 0.587539 0.561523
Si Si6 0.277733 0.908570 0.177504
Si Si7 0.941434 0.643308 0.369216
Si Si8 0.329437 0.089931 0.773735
O O1 0.229507 0.377703 0.095951
O O2 0.073855 0.348060 0.092822
O O3 0.250000 0.250000 0.000000
O O4 0.253271 0.370502 0.896234
O O5 0.731461 0.500000 0.627265
O O6 0.656512 0.644983 0.668278
O O7 0.859578 0.616762 0.503420
O O8 0.761294 0.606221 0.732660
O O9 0.250000 0.750000 0.500000
O O10 0.362247 0.641071 0.488823
O O11 0.445435 0.763204 0.345362
O O12 0.603787 0.887965 0.869471
O O13 0.584895 0.902868 0.705425
O O14 0.483565 0.000000 0.884458
O O15 0.500000 0.587400 0.500000
O O16 0.339400 0.500000 0.566587
O O17 0.309784 0.622774 0.691636
O O18 0.266776 0.000000 0.172639
O O19 0.057513 0.627628 0.324105
O O20 0.349482 0.000000 0.777019
#
# Coordination Sequence:
#
# PCOD8086924 Si02
#       8
#     8   8   8   8   8   8   8   8
#     4  11  23  35  53  84 119 149 180 230 294 351
#     4  10  19  33  53  76 108 151 191 226 272 334
#     4  10  21  32  49  80 114 147 182 226 280 338
#     4  10  20  37  62  88 114 146 192 244 286 336
#     4  10  22  39  59  84 114 151 195 240 287 347
#     4  10  20  38  63  83 107 149 197 245 292 337
#     4  10  19  31  51  82 113 142 178 231 291 335
#     4  10  21  37  56  78 107 145 191 235 272 326
#
# _framework density 19.924249
#
# number of rings (size 3 to 8) (size 9 to 14) (size 15 to 20)
#    0.000    1.875    0.000    5.625    0.000   10.000 
#    0.000    0.000    0.000    0.000    0.000    0.000 
#    0.000   27.000    0.000    0.000    0.000    0.000 
#
# Total GULP energy -396542.696444 kJ/mol
# GULP energy per Si atom -12391.959264 kJ/mol
# Density = 1.987890 g / cm^3
# Si number density = 19.924249 Si / 1000 Ang^3
#
#
#
# Elastic Constant Matrix: (Units=GPa)
#
#
# Indices 1 2 3 4 5 6 
#
# 1 81.5374 79.7880 48.3826 0.0000 24.0237 0.0000
# 2 79.7880 132.3655 46.4057 0.0000 13.2690 0.0000
# 3 48.3826 46.4057 63.8557 0.0000 15.3715 0.0000
# 4 0.0000 0.0000 0.0000 4.6570 0.0000 -24.4886
# 5 24.0237 13.2690 15.3715 0.0000 33.5978 0.0000
# 6 0.0000 0.0000 0.0000 -24.4886 0.0000 28.1990
#
#
#
# Elastic Compliance Matrix: (Units=1/GPa)
#
#
# Indices 1 2 3 4 5 6 
#
# 1 0.049227 -0.021870 -0.016869 0.000000 -0.018844 0.000000
# 2 -0.021870 0.019869 0.000287 0.000000 0.007659 0.000000
# 3 -0.016869 0.000287 0.028495 0.000000 -0.001089 0.000000
# 4 0.000000 0.000000 0.000000 -0.060207 0.000000 -0.052285
# 5 -0.018844 0.007659 -0.001089 0.000000 0.040711 0.000000
# 6 0.000000 0.000000 0.000000 -0.052285 0.000000 -0.009943
#
#
# Mechanical properties :
#
#
# Convention : Reuss Voigt Hill
#
# Bulk Modulus (GPa) = 48.33750 69.65680 58.99715
# Shear Modulus (GPa) = 32.90522 20.16957 26.53740
#
# Velocity S-wave (km/s) = 4.06829 3.18514 3.65350
# Velocity P-wave (km/s) = 6.81038 6.96875 6.89002
#
# Compressibility (1/GPa) = 0.02068787
#
# Stress axis : x y z
#
# Youngs Moduli (GPa) = 20.31398 50.32868 35.09427
#
# Poissons Ratio (x) = 1.10071 0.59200
# Poissons Ratio (y) = 0.44427 -0.01009
# Poissons Ratio (z) = 0.34267 -0.01447
#
# Static dielectric constant tensor:
#      x y z
#    x 3.724590 0.000000 0.171440 
#    y 0.000000 6.231620 0.000000 
#    z 0.171440 0.000000 3.825940 
# 
# 
# High freq. dielectric constant tensor:
#      x y z
#    x 1.771700 0.000000 0.024490 
#    y 0.000000 1.779570 0.000000 
#    z 0.024490 0.000000 1.769530 
# 
# From -- ./inp_files/225682.got.cif
#   From: 2010.06.25/outbox.cif.g09.slc.cpg/sg12_113_cif.got.tgz:225682.got - 2010.06.28 00:19:55.
