data_PCOD8086806
_publ_section_title
;
Structure prediction by ZEFSAII (Michael W. Deem and Ramdas Pophale) SiO2 
 PCOD8086806
Probable space group: C 2/M
;
_chemical_formula_sum "Si O2"
_cell_formula_units_Z 64
_cell_length_a 25.820034
_cell_length_b 9.183484
_cell_length_c 14.724433
_cell_angle_alpha 90.000000
_cell_angle_beta 99.535137
_cell_angle_gamma 90.000000
_cell_volume 3443.189330
_symmetry_space_group_name_H-M "C 2/M"
_symmetry_group_IT_number 12
_symmetry_cell_setting 'monoclinic'
loop_
_space_group_symop_operation_xyz
x,y,z
-x,y,-z
-x,-y,-z
x,-y,z
1/2+x,1/2+y,z
1/2-x,1/2+y,-z
1/2-x,1/2-y,-z
1/2+x,1/2-y,z
loop_
_atom_site_type_symbol
_atom_site_label
_atom_site_fract_x
_atom_site_fract_y
_atom_site_fract_z
Si Si1 0.310735 0.672350 0.645809
Si Si2 0.791855 0.673452 0.288231
Si Si3 0.898241 0.329078 0.576592
Si Si4 0.022063 0.173216 0.103052
Si Si5 0.761079 0.830374 0.911201
Si Si6 0.501300 0.173375 0.278215
Si Si7 0.137236 0.830219 0.157495
Si Si8 0.094255 0.328317 0.625837
O O1 0.315203 0.500000 0.632652
O O2 0.249746 0.719571 0.644013
O O3 0.341331 0.752472 0.573288
O O4 0.341336 0.733182 0.742537
O O5 0.791300 0.500000 0.284843
O O6 0.773369 0.730179 0.183551
O O7 0.849372 0.738152 0.326666
O O8 0.888715 0.500000 0.581960
O O9 0.943618 0.276927 0.659690
O O10 0.917683 0.286255 0.481569
O O11 0.992882 0.251198 0.178233
O O12 0.081045 0.236353 0.117880
O O13 0.017366 0.000000 0.114657
O O14 0.000000 0.223301 0.000000
O O15 0.822306 0.797713 0.911285
O O16 0.749805 0.000000 0.921180
O O17 0.750000 0.750000 0.000000
O O18 0.453189 0.231115 0.326241
O O19 0.499663 0.000000 0.267025
O O20 0.130688 0.000000 0.170135
O O21 0.097728 0.500000 0.638000
#
# Coordination Sequence:
#
# PCOD8086806 Si02
#       8
#     8   8   8   8   8   8   8   8
#     4   9  16  30  53  73  93 127 167 204 244 295
#     4   8  16  31  50  71  96 131 170 201 242 304
#     4  10  19  31  51  77 101 131 170 207 249 298
#     4  10  20  34  53  75  98 130 169 206 252 303
#     4   9  17  30  49  71  93 123 163 200 242 295
#     4  10  20  34  52  74 102 135 170 208 248 294
#     4   8  15  30  48  65  92 127 157 192 239 294
#     4   9  18  33  51  72 103 138 168 203 249 302
#
# _framework density 18.587416999999999
#
# number of rings (size 3 to 8) (size 9 to 14) (size 15 to 20)
#    0.000    2.875    1.250    1.875    0.000    3.250 
#    0.000    3.750    0.000    3.000    0.000    0.000 
#    0.000    0.000    0.000    0.000    0.000    0.000 
#
# Total GULP energy -396541.500656 kJ/mol
# GULP energy per Si atom -12391.921895 kJ/mol
# Density = 1.854511 g / cm^3
# Si number density = 18.587417 Si / 1000 Ang^3
#
#
#
# Elastic Constant Matrix: (Units=GPa)
#
#
# Indices 1 2 3 4 5 6 
#
# 1 113.0512 24.2003 46.8997 0.0000 -9.2321 0.0000
# 2 24.2003 27.0372 29.4559 0.0000 -7.6724 0.0000
# 3 46.8997 29.4559 111.9279 0.0000 -14.1255 0.0000
# 4 0.0000 0.0000 0.0000 24.2340 0.0000 -8.4039
# 5 -9.2321 -7.6724 -14.1255 0.0000 31.8856 0.0000
# 6 0.0000 0.0000 0.0000 -8.4039 0.0000 21.1147
#
#
#
# Elastic Compliance Matrix: (Units=1/GPa)
#
#
# Indices 1 2 3 4 5 6 
#
# 1 0.011617 -0.007071 -0.002963 0.000000 0.000350 0.000000
# 2 -0.007071 0.057593 -0.011337 0.000000 0.006788 0.000000
# 3 -0.002963 -0.011337 0.013459 0.000000 0.002377 0.000000
# 4 0.000000 0.000000 0.000000 0.047872 0.000000 0.019054
# 5 0.000350 0.006788 0.002377 0.000000 0.034150 0.000000
# 6 0.000000 0.000000 0.000000 0.019054 0.000000 0.054944
#
#
# Mechanical properties :
#
#
# Convention : Reuss Voigt Hill
#
# Bulk Modulus (GPa) = 25.04547 50.34759 37.69653
# Shear Modulus (GPa) = 18.13666 25.54422 21.84044
#
# Velocity S-wave (km/s) = 3.12709 3.71114 3.43156
# Velocity P-wave (km/s) = 5.15188 6.74605 6.00213
#
# Compressibility (1/GPa) = 0.03992738
#
# Stress axis : x y z
#
# Youngs Moduli (GPa) = 86.08200 17.36331 74.29850
#
# Poissons Ratio (x) = 0.12278 0.22012
# Poissons Ratio (y) = 0.60869 0.84232
# Poissons Ratio (z) = 0.25503 0.19685
#
# Static dielectric constant tensor:
#      x y z
#    x 3.554960 0.000000 -0.140370 
#    y 0.000000 2.918750 0.000000 
#    z -0.140370 0.000000 3.307860 
# 
# 
# High freq. dielectric constant tensor:
#      x y z
#    x 1.733780 0.000000 -0.006410 
#    y 0.000000 1.670120 0.000000 
#    z -0.006410 0.000000 1.721900 
# 
# From -- ./inp_files/174651.got.cif
#   From: 2010.06.25/outbox.cif.g09.slc.cpg/sg12_88_cif.got.tgz:174651.got - 2010.06.28 00:19:55.
