data_PCOD8086442
_publ_section_title
;
Structure prediction by ZEFSAII (Michael W. Deem and Ramdas Pophale) SiO2 
 PCOD8086442
Probable space group: C 2/M
;
_chemical_formula_sum "Si O2"
_cell_formula_units_Z 48
_cell_length_a 33.361766
_cell_length_b 8.829759
_cell_length_c 18.490638
_cell_angle_alpha 90.000000
_cell_angle_beta 150.030933
_cell_angle_gamma 90.000000
_cell_volume 2720.905250
_symmetry_space_group_name_H-M "C 2/M"
_symmetry_group_IT_number 12
_symmetry_cell_setting 'monoclinic'
loop_
_space_group_symop_operation_xyz
x,y,z
-x,y,-z
-x,-y,-z
x,-y,z
1/2+x,1/2+y,z
1/2-x,1/2+y,-z
1/2-x,1/2-y,-z
1/2+x,1/2-y,z
loop_
_atom_site_type_symbol
_atom_site_label
_atom_site_fract_x
_atom_site_fract_y
_atom_site_fract_z
Si Si1 0.666491 0.319311 0.103398
Si Si2 0.414329 0.665113 0.159441
Si Si3 0.424259 0.332408 0.678827
Si Si4 0.156070 0.321021 0.574732
Si Si5 0.484920 0.681459 0.557782
Si Si6 0.017676 0.676412 0.944734
O O1 0.654702 0.500000 0.084426
O O2 0.754663 0.270142 0.264396
O O3 0.649389 0.254304 0.994307
O O4 0.603203 0.250390 0.060283
O O5 0.379700 0.500000 0.124917
O O6 0.495774 0.651417 0.242027
O O7 0.439995 0.744796 0.275425
O O8 0.390044 0.500000 0.643015
O O9 0.359525 0.240280 0.530381
O O10 0.443907 0.245884 0.783802
O O11 0.145150 0.500000 0.557929
O O12 0.098112 0.250368 0.544438
O O13 0.500000 0.736031 0.500000
O O14 0.479894 0.500000 0.556625
O O15 0.022586 0.500000 0.934749
O O16 0.000000 0.710664 0.000000
#
# Coordination Sequence:
#
# PCOD8086442 Si02
#       6
#     8   8   8   8   8   8
#     4   9  18  32  50  71  96 130 167 202 243 292
#     4   7  12  26  46  65  87 119 159 196 231 279
#     4   9  17  31  51  71  94 128 165 197 238 295
#     4  10  19  31  49  73  99 126 163 209 249 286
#     4   9  17  30  49  71  95 128 169 207 245 294
#     4  10  20  33  51  76 102 126 158 202 244 284
#
# _framework density 17.641186999999999
#
# number of rings (size 3 to 8) (size 9 to 14) (size 15 to 20)
#    0.000    3.000    0.000    3.500    0.000    3.000 
#    0.000    1.667    0.000    0.000    0.000    0.000 
#    0.000    0.000    0.000    0.000    0.000    0.000 
#
# Total GULP energy -297345.177049 kJ/mol
# GULP energy per Si atom -12389.382377 kJ/mol
# Density = 1.760103 g / cm^3
# Si number density = 17.641187 Si / 1000 Ang^3
#
#
#
# Elastic Constant Matrix: (Units=GPa)
#
#
# Indices 1 2 3 4 5 6 
#
# 1 97.9544 39.6680 71.8143 0.0000 -25.3734 0.0000
# 2 39.6680 62.2394 47.6190 0.0000 -8.4715 0.0000
# 3 71.8143 47.6190 166.6950 0.0000 -25.0622 0.0000
# 4 0.0000 0.0000 0.0000 24.4656 0.0000 -1.3028
# 5 -25.3734 -8.4715 -25.0622 0.0000 28.1080 0.0000
# 6 0.0000 0.0000 0.0000 -1.3028 0.0000 22.5981
#
#
#
# Elastic Compliance Matrix: (Units=1/GPa)
#
#
# Indices 1 2 3 4 5 6 
#
# 1 0.019478 -0.007367 -0.004593 0.000000 0.011268 0.000000
# 2 -0.007367 0.023377 -0.003978 0.000000 -0.003151 0.000000
# 3 -0.004593 -0.003978 0.009597 0.000000 0.003212 0.000000
# 4 0.000000 0.000000 0.000000 0.041000 0.000000 0.002364
# 5 0.011268 -0.003151 0.003212 0.000000 0.047663 0.000000
# 6 0.000000 0.000000 0.000000 0.002364 0.000000 0.044388
#
#
# Mechanical properties :
#
#
# Convention : Reuss Voigt Hill
#
# Bulk Modulus (GPa) = 48.59919 71.67682 60.13801
# Shear Modulus (GPa) = 22.29799 26.22018 24.25908
#
# Velocity S-wave (km/s) = 3.55910 3.85944 3.71231
# Velocity P-wave (km/s) = 6.67069 7.78325 7.24835
#
# Compressibility (1/GPa) = 0.02057647
#
# Stress axis : x y z
#
# Youngs Moduli (GPa) = 51.34016 42.77764 104.19922
#
# Poissons Ratio (x) = 0.31512 0.47858
# Poissons Ratio (y) = 0.37820 0.41452
# Poissons Ratio (z) = 0.23580 0.17017
#
# Static dielectric constant tensor:
#      x y z
#    x 3.151360 0.000000 -0.483580 
#    y 0.000000 3.204990 0.000000 
#    z -0.483580 0.000000 3.666600 
# 
# 
# High freq. dielectric constant tensor:
#      x y z
#    x 1.656470 0.000000 -0.032430 
#    y 0.000000 1.670780 0.000000 
#    z -0.032430 0.000000 1.688670 
# 
# From -- ./inp_files/274596.got.cif
#   From: 2010.06.25/outbox.cif.g09.slc.cpg/sg12_138_cif.got.tgz:274596.got - 2010.06.28 00:19:55.
