data_PCOD8086653
_publ_section_title
;
Structure prediction by ZEFSAII (Michael W. Deem and Ramdas Pophale) SiO2 
 PCOD8086653
Probable space group: C 2/M
;
_chemical_formula_sum "Si O2"
_cell_formula_units_Z 56
_cell_length_a 28.763854
_cell_length_b 9.145531
_cell_length_c 19.055762
_cell_angle_alpha 90.000000
_cell_angle_beta 41.035818
_cell_angle_gamma 90.000000
_cell_volume 3291.071834
_symmetry_space_group_name_H-M "C 2/M"
_symmetry_group_IT_number 12
_symmetry_cell_setting 'monoclinic'
loop_
_space_group_symop_operation_xyz
x,y,z
-x,y,-z
-x,-y,-z
x,-y,z
1/2+x,1/2+y,z
1/2-x,1/2+y,-z
1/2-x,1/2-y,-z
1/2+x,1/2-y,z
loop_
_atom_site_type_symbol
_atom_site_label
_atom_site_fract_x
_atom_site_fract_y
_atom_site_fract_z
Si Si1 0.250901 0.168704 0.394255
Si Si2 0.643973 0.830554 0.610630
Si Si3 0.999859 0.330559 0.288939
Si Si4 0.204226 0.171181 0.297323
Si Si5 0.141774 0.830262 0.123793
Si Si6 0.941449 0.330782 0.508503
Si Si7 0.736039 0.169991 0.123657
O O1 0.324519 0.215573 0.348949
O O2 0.184766 0.252354 0.501666
O O3 0.254184 0.201881 0.307888
O O4 0.235405 0.000000 0.425810
O O5 0.560980 0.793380 0.699032
O O6 0.655729 0.000000 0.582629
O O7 0.022692 0.500000 0.259529
O O8 0.064729 0.229220 0.192526
O O9 0.973121 0.289540 0.396915
O O10 0.125732 0.230978 0.398977
O O11 0.243857 0.253973 0.189674
O O12 0.198929 0.000000 0.286248
O O13 0.170328 0.741842 0.157990
O O14 0.138561 0.000000 0.147646
O O15 0.191177 0.803153 0.000351
O O16 0.917978 0.500000 0.537689
O O17 0.000000 0.295911 0.500000
O O18 0.718638 0.000000 0.152974
#
# Coordination Sequence:
#
# PCOD8086653 Si02
#       7
#     8   8   8   8   8   8   8
#     4   9  18  31  48  73 103 132 167 211 251 292
#     4   9  17  31  50  72 100 135 172 204 245 302
#     4  10  19  31  50  75 103 137 170 204 249 303
#     4  11  21  32  50  76 103 132 166 210 256 294
#     4  10  21  36  55  77 100 129 168 213 254 294
#     4  10  20  32  46  69 102 137 168 200 245 304
#     4  10  21  37  55  74  99 133 171 208 249 302
#
# _framework density 17.015733000000001
#
# number of rings (size 3 to 8) (size 9 to 14) (size 15 to 20)
#    0.000    2.143    1.429    2.143    0.000    4.857 
#    0.000    0.000    0.000    0.857    0.000    6.000 
#    0.000    0.000    0.000    0.000    0.000    0.000 
#
# Total GULP energy -347220.095614 kJ/mol
# GULP energy per Si atom -12400.717700 kJ/mol
# Density = 1.697700 g / cm^3
# Si number density = 17.015733 Si / 1000 Ang^3
#
#
#
# Elastic Constant Matrix: (Units=GPa)
#
#
# Indices 1 2 3 4 5 6 
#
# 1 122.8174 57.6938 59.4693 -0.0032 4.2432 -0.0017
# 2 57.6938 86.8609 51.9921 -0.0225 4.0457 0.0142
# 3 59.4693 51.9921 79.5914 0.0012 1.5531 0.0032
# 4 -0.0032 -0.0225 0.0012 30.5665 0.0009 -3.1151
# 5 4.2432 4.0457 1.5531 0.0009 16.6712 0.0034
# 6 -0.0017 0.0142 0.0032 -3.1151 0.0034 22.0150
#
#
#
# Elastic Compliance Matrix: (Units=1/GPa)
#
#
# Indices 1 2 3 4 5 6 
#
# 1 0.014001 -0.004891 -0.007233 -0.000001 -0.001703 0.000005
# 2 -0.004891 0.020812 -0.009885 0.000014 -0.002885 -0.000010
# 3 -0.007233 -0.009885 0.024387 -0.000009 0.001968 0.000001
# 4 -0.000001 0.000014 -0.000009 0.033194 -0.000005 0.004697
# 5 -0.001703 -0.002885 0.001968 -0.000005 0.060934 -0.000009
# 6 0.000005 -0.000010 0.000001 0.004697 -0.000009 0.046088
#
#
# Mechanical properties :
#
#
# Convention : Reuss Voigt Hill
#
# Bulk Modulus (GPa) = 65.86251 69.73113 67.79682
# Shear Modulus (GPa) = 20.12115 21.85817 20.98966
#
# Velocity S-wave (km/s) = 3.44248 3.58800 3.51600
# Velocity P-wave (km/s) = 7.38863 7.63114 7.51086
#
# Compressibility (1/GPa) = 0.01518314
#
# Stress axis : x y z
#
# Youngs Moduli (GPa) = 71.42486 48.04892 41.00477
#
# Poissons Ratio (x) = 0.23499 0.29659
# Poissons Ratio (y) = 0.34931 0.40533
# Poissons Ratio (z) = 0.51663 0.47496
#
# Static dielectric constant tensor:
#      x y z
#    x 3.499850 -0.000020 0.073950 
#    y -0.000020 3.242680 0.000030 
#    z 0.073950 0.000030 3.000160 
# 
# 
# High freq. dielectric constant tensor:
#      x y z
#    x 1.663660 0.000000 0.002940 
#    y 0.000000 1.664240 0.000000 
#    z 0.002940 0.000000 1.633430 
# 
# From -- ./inp_files/295084.got.cif
#   From: 2010.06.25/outbox.cif.g09.slc.cpg/sg12_148_cif.got.tgz:295084.got - 2010.06.28 00:19:55.
