data_PCOD8086882
_publ_section_title
;
Structure prediction by ZEFSAII (Michael W. Deem and Ramdas Pophale) SiO2 
 PCOD8086882
Probable space group: C 2/M
;
_chemical_formula_sum "Si O2"
_cell_formula_units_Z 64
_cell_length_a 24.019381
_cell_length_b 8.939946
_cell_length_c 16.183676
_cell_angle_alpha 90.000000
_cell_angle_beta 91.283167
_cell_angle_gamma 90.000000
_cell_volume 3474.281156
_symmetry_space_group_name_H-M "C 2/M"
_symmetry_group_IT_number 12
_symmetry_cell_setting 'monoclinic'
loop_
_space_group_symop_operation_xyz
x,y,z
-x,y,-z
-x,-y,-z
x,-y,z
1/2+x,1/2+y,z
1/2-x,1/2+y,-z
1/2-x,1/2-y,-z
1/2+x,1/2-y,z
loop_
_atom_site_type_symbol
_atom_site_label
_atom_site_fract_x
_atom_site_fract_y
_atom_site_fract_z
Si Si1 0.707198 0.173411 0.114173
Si Si2 0.825995 0.829166 0.043579
Si Si3 0.598319 0.673432 0.546587
Si Si4 0.888598 0.828121 0.203294
Si Si5 0.694368 0.325031 0.286140
Si Si6 0.406204 0.176187 0.625770
Si Si7 0.489319 0.670141 0.312133
Si Si8 0.319017 0.826029 0.336520
O O1 0.771034 0.210081 0.094647
O O2 0.689203 0.265186 0.193279
O O3 0.697157 0.000000 0.131794
O O4 0.668561 0.223613 0.035882
O O5 0.878921 0.801210 0.105305
O O6 0.823139 0.000000 0.012700
O O7 0.605851 0.500000 0.525071
O O8 0.581197 0.761718 0.464528
O O9 0.549435 0.700938 0.610286
O O10 0.656306 0.734565 0.585397
O O11 0.953028 0.796271 0.228382
O O12 0.847967 0.720472 0.252182
O O13 0.873769 0.000000 0.227038
O O14 0.681866 0.500000 0.283982
O O15 0.650569 0.244237 0.342865
O O16 0.754069 0.288799 0.327561
O O17 0.457737 0.221310 0.686405
O O18 0.400550 0.000000 0.623015
O O19 0.511063 0.500000 0.313571
O O20 0.330085 0.000000 0.352296
#
# Coordination Sequence:
#
# PCOD8086882 Si02
#       8
#     8   8   8   8   8   8   8   8
#     4  10  19  31  51  79 112 144 178 219 260 309
#     4   9  17  30  51  80 113 144 177 212 258 316
#     4  10  21  38  60  81 106 139 175 219 269 320
#     4   9  17  32  55  81 110 144 176 215 264 318
#     4  11  23  38  55  75 108 148 182 217 264 324
#     4  12  25  38  55  78 105 140 182 225 269 314
#     4   9  19  36  58  81 106 138 178 220 266 315
#     4  10  20  33  53  81 109 138 175 220 269 315
#
# _framework density 18.421077
#
# number of rings (size 3 to 8) (size 9 to 14) (size 15 to 20)
#    0.000    2.000    1.250    3.750    0.000    7.000 
#    0.000    0.000    0.000    0.750    0.000    5.250 
#    0.000    0.000    0.000    0.000    0.000    0.000 
#
# Total GULP energy -396881.612153 kJ/mol
# GULP energy per Si atom -12402.550380 kJ/mol
# Density = 1.837915 g / cm^3
# Si number density = 18.421077 Si / 1000 Ang^3
#
#
#
# Elastic Constant Matrix: (Units=GPa)
#
#
# Indices 1 2 3 4 5 6 
#
# 1 83.4542 44.3544 20.9912 0.0000 19.3365 0.0000
# 2 44.3544 87.0146 20.3567 0.0000 9.3483 0.0000
# 3 20.9912 20.3567 50.2921 0.0000 23.6013 0.0000
# 4 0.0000 0.0000 0.0000 33.4236 0.0000 2.1802
# 5 19.3365 9.3483 23.6013 0.0000 25.9091 0.0000
# 6 0.0000 0.0000 0.0000 2.1802 0.0000 28.8971
#
#
#
# Elastic Compliance Matrix: (Units=1/GPa)
#
#
# Indices 1 2 3 4 5 6 
#
# 1 0.019163 -0.008755 0.001353 0.000000 -0.012375 0.000000
# 2 -0.008755 0.016695 -0.005839 0.000000 0.005829 0.000000
# 3 0.001353 -0.005839 0.036973 0.000000 -0.032583 0.000000
# 4 0.000000 0.000000 0.000000 0.030067 0.000000 -0.002268
# 5 -0.012375 0.005829 -0.032583 0.000000 0.075410 0.000000
# 6 0.000000 0.000000 0.000000 -0.002268 0.000000 0.034777
#
#
# Mechanical properties :
#
#
# Convention : Reuss Voigt Hill
#
# Bulk Modulus (GPa) = 21.57547 43.57394 32.57470
# Shear Modulus (GPa) = 19.60665 26.64986 23.12825
#
# Velocity S-wave (km/s) = 3.26599 3.80768 3.54719
# Velocity P-wave (km/s) = 5.09510 6.56026 5.87355
#
# Compressibility (1/GPa) = 0.04634893
#
# Stress axis : x y z
#
# Youngs Moduli (GPa) = 52.18457 59.89898 27.04660
#
# Poissons Ratio (x) = 0.52441 -0.03659
# Poissons Ratio (y) = 0.45687 0.15792
# Poissons Ratio (z) = -0.07060 0.34974
#
# Static dielectric constant tensor:
#      x y z
#    x 3.315090 0.000000 0.301760 
#    y 0.000000 3.447060 0.000000 
#    z 0.301760 0.000000 3.377490 
# 
# 
# High freq. dielectric constant tensor:
#      x y z
#    x 1.696860 0.000000 0.026890 
#    y 0.000000 1.721940 0.000000 
#    z 0.026890 0.000000 1.707880 
# 
# From -- ./inp_files/238702.got.cif
#   From: 2010.06.25/outbox.cif.g09.slc.cpg/sg12_120_cif.got.tgz:238702.got - 2010.06.28 00:19:55.
