data_PCOD8086821
_publ_section_title
;
Structure prediction by ZEFSAII (Michael W. Deem and Ramdas Pophale) SiO2 
 PCOD8086821
Probable space group: C 2/M
;
_chemical_formula_sum "Si O2"
_cell_formula_units_Z 64
_cell_length_a 30.832549
_cell_length_b 8.903075
_cell_length_c 14.550031
_cell_angle_alpha 90.000000
_cell_angle_beta 61.412996
_cell_angle_gamma 90.000000
_cell_volume 3507.140540
_symmetry_space_group_name_H-M "C 2/M"
_symmetry_group_IT_number 12
_symmetry_cell_setting 'monoclinic'
loop_
_space_group_symop_operation_xyz
x,y,z
-x,y,-z
-x,-y,-z
x,-y,z
1/2+x,1/2+y,z
1/2-x,1/2+y,-z
1/2-x,1/2-y,-z
1/2+x,1/2-y,z
loop_
_atom_site_type_symbol
_atom_site_label
_atom_site_fract_x
_atom_site_fract_y
_atom_site_fract_z
Si Si1 0.390689 0.322594 0.638083
Si Si2 0.085496 0.325490 0.566265
Si Si3 0.880976 0.173897 0.085878
Si Si4 0.970323 0.325504 0.674957
Si Si5 0.532374 0.326718 0.137398
Si Si6 0.204260 0.674535 0.936391
Si Si7 0.080202 0.173912 0.757233
Si Si8 0.193963 0.675023 0.157841
O O1 0.390603 0.500000 0.636502
O O2 0.383014 0.261240 0.542632
O O3 0.443047 0.263489 0.622127
O O4 0.347117 0.266258 0.746781
O O5 0.097445 0.500000 0.546348
O O6 0.101590 0.269043 0.650640
O O7 0.027989 0.289593 0.608811
O O8 0.838276 0.278979 0.090607
O O9 0.887668 0.213518 0.186037
O O10 0.866548 0.000000 0.086260
O O11 0.932493 0.210177 0.983508
O O12 0.958360 0.500000 0.674422
O O13 0.950082 0.272952 0.794334
O O14 0.536249 0.500000 0.163365
O O15 0.476784 0.284690 0.164220
O O16 0.216931 0.500000 0.911375
O O17 0.252568 0.770267 0.863028
O O18 0.186551 0.709784 0.057656
O O19 0.084848 0.000000 0.726609
O O20 0.188306 0.500000 0.185726
#
# Coordination Sequence:
#
# PCOD8086821 Si02
#       8
#     8   8   8   8   8   8   8   8
#     4  12  23  34  53  78 103 134 173 213 255 308
#     4  10  21  36  52  72 102 139 177 217 259 301
#     4  10  19  31  51  77 105 139 176 213 256 305
#     4  10  20  33  49  73 106 140 174 213 256 303
#     4   9  17  30  49  74 105 140 177 215 254 300
#     4  10  21  36  55  80 108 136 168 207 252 305
#     4   9  18  33  51  73 103 139 179 219 256 297
#     4  10  21  38  58  79 106 136 166 206 256 307
#
# _framework density 18.248484999999999
#
# number of rings (size 3 to 8) (size 9 to 14) (size 15 to 20)
#    0.000    2.000    0.000    4.125    0.000    9.000 
#    0.000    0.000    0.000    4.500    0.000    0.000 
#    0.000    0.000    0.000    0.000    0.000    0.000 
#
# Total GULP energy -396940.478072 kJ/mol
# GULP energy per Si atom -12404.389940 kJ/mol
# Density = 1.820695 g / cm^3
# Si number density = 18.248485 Si / 1000 Ang^3
#
#
#
# Elastic Constant Matrix: (Units=GPa)
#
#
# Indices 1 2 3 4 5 6 
#
# 1 79.8352 33.6816 32.5299 0.0000 14.7785 0.0000
# 2 33.6816 95.3467 49.2728 0.0000 8.6692 0.0000
# 3 32.5299 49.2728 88.1995 0.0000 15.1131 0.0000
# 4 0.0000 0.0000 0.0000 28.0472 0.0000 1.5298
# 5 14.7785 8.6692 15.1131 0.0000 20.0639 0.0000
# 6 0.0000 0.0000 0.0000 1.5298 0.0000 30.5475
#
#
#
# Elastic Compliance Matrix: (Units=1/GPa)
#
#
# Indices 1 2 3 4 5 6 
#
# 1 0.016808 -0.003814 -0.002560 0.000000 -0.008804 0.000000
# 2 -0.003814 0.015611 -0.007624 0.000000 0.001807 0.000000
# 3 -0.002560 -0.007624 0.017973 0.000000 -0.008359 0.000000
# 4 0.000000 0.000000 0.000000 0.035752 0.000000 -0.001790
# 5 -0.008804 0.001807 -0.008359 0.000000 0.061841 0.000000
# 6 0.000000 0.000000 0.000000 -0.001790 0.000000 0.032826
#
#
# Mechanical properties :
#
#
# Convention : Reuss Voigt Hill
#
# Bulk Modulus (GPa) = 44.64983 54.92778 49.78880
# Shear Modulus (GPa) = 23.11907 25.59152 24.35529
#
# Velocity S-wave (km/s) = 3.56322 3.74891 3.65725
# Velocity P-wave (km/s) = 6.43813 6.99317 6.72138
#
# Compressibility (1/GPa) = 0.02239650
#
# Stress axis : x y z
#
# Youngs Moduli (GPa) = 59.49670 64.05746 55.63765
#
# Poissons Ratio (x) = 0.24432 0.14242
# Poissons Ratio (y) = 0.22693 0.42418
# Poissons Ratio (z) = 0.15229 0.48837
#
# Static dielectric constant tensor:
#      x y z
#    x 3.230140 0.000000 0.106190 
#    y 0.000000 3.394900 0.000000 
#    z 0.106190 0.000000 3.357540 
# 
# 
# High freq. dielectric constant tensor:
#      x y z
#    x 1.687950 0.000000 0.009640 
#    y 0.000000 1.713800 0.000000 
#    z 0.009640 0.000000 1.704050 
# 
# From -- ./inp_files/248984.got.cif
#   From: 2010.06.25/outbox.cif.g09.slc.cpg/sg12_125_cif.got.tgz:248984.got - 2010.06.28 00:19:55.
