data_PCOD8086983
_publ_section_title
;
Structure prediction by ZEFSAII (Michael W. Deem and Ramdas Pophale) SiO2 
 PCOD8086983
Probable space group: C 2/M
;
_chemical_formula_sum "Si O2"
_cell_formula_units_Z 56
_cell_length_a 29.765496
_cell_length_b 9.137469
_cell_length_c 12.368886
_cell_angle_alpha 90.000000
_cell_angle_beta 74.388326
_cell_angle_gamma 90.000000
_cell_volume 3239.996244
_symmetry_space_group_name_H-M "C 2/M"
_symmetry_group_IT_number 12
_symmetry_cell_setting 'monoclinic'
loop_
_space_group_symop_operation_xyz
x,y,z
-x,y,-z
-x,-y,-z
x,-y,z
1/2+x,1/2+y,z
1/2-x,1/2+y,-z
1/2-x,1/2-y,-z
1/2+x,1/2-y,z
loop_
_atom_site_type_symbol
_atom_site_label
_atom_site_fract_x
_atom_site_fract_y
_atom_site_fract_z
Si Si1 0.795159 0.329252 0.339085
Si Si2 0.703587 0.168796 0.412194
Si Si3 0.602226 0.166960 0.410415
Si Si4 0.616612 0.668771 0.786119
Si Si5 0.051673 0.826741 0.631480
Si Si6 0.547902 0.330833 0.024001
Si Si7 0.458267 0.831338 0.753931
O O1 0.794173 0.500000 0.317309
O O2 0.745429 0.263727 0.335209
O O3 0.805176 0.289423 0.457228
O O4 0.835890 0.260090 0.240513
O O5 0.656903 0.207102 0.376604
O O6 0.717818 0.000000 0.392472
O O7 0.573908 0.275573 0.505228
O O8 0.585044 0.186203 0.299357
O O9 0.594839 0.000000 0.456243
O O10 0.629367 0.500000 0.760138
O O11 0.583887 0.724325 0.710029
O O12 0.590508 0.694721 0.915508
O O13 0.001696 0.753617 0.676110
O O14 0.044954 0.000000 0.634658
O O15 0.542927 0.500000 0.061464
O O16 0.558150 0.235220 0.122313
O O17 0.500000 0.277705 0.000000
O O18 0.472164 0.000000 0.760720
#
# Coordination Sequence:
#
# PCOD8086983 Si02
#       7
#     8   8   8   8   8   8   8
#     4  10  19  31  52  80 106 134 171 216 261 312
#     4   9  18  33  52  74 106 141 170 207 261 317
#     4  10  21  37  53  76 110 145 176 213 263 316
#     4  10  20  34  54  77 106 140 172 215 265 311
#     4  11  21  34  53  78 108 143 180 215 257 312
#     4  10  20  38  57  75 103 139 180 223 263 307
#     4  11  23  36  53  77 108 143 180 219 261 311
#
# _framework density 17.28397
#
# number of rings (size 3 to 8) (size 9 to 14) (size 15 to 20)
#    0.000    1.857    2.857    1.714    0.000    5.429 
#    0.000    0.000    0.000    0.857    0.000    0.000 
#    0.000    0.000    0.000    0.000    0.000    0.000 
#
# Total GULP energy -347333.188732 kJ/mol
# GULP energy per Si atom -12404.756740 kJ/mol
# Density = 1.724463 g / cm^3
# Si number density = 17.283970 Si / 1000 Ang^3
#
#
#
# Elastic Constant Matrix: (Units=GPa)
#
#
# Indices 1 2 3 4 5 6 
#
# 1 125.5157 57.5899 58.7395 0.0000 -12.4830 0.0000
# 2 57.5899 83.3655 49.3374 0.0000 -6.0254 0.0000
# 3 58.7395 49.3374 76.3138 0.0000 4.7310 0.0000
# 4 0.0000 0.0000 0.0000 31.0839 0.0000 -3.5336
# 5 -12.4830 -6.0254 4.7310 0.0000 25.5223 0.0000
# 6 0.0000 0.0000 0.0000 -3.5336 0.0000 26.3400
#
#
#
# Elastic Compliance Matrix: (Units=1/GPa)
#
#
# Indices 1 2 3 4 5 6 
#
# 1 0.015142 -0.004338 -0.009353 0.000000 0.008116 0.000000
# 2 -0.004338 0.021991 -0.011197 0.000000 0.005145 0.000000
# 3 -0.009353 -0.011197 0.028315 0.000000 -0.012467 0.000000
# 4 0.000000 0.000000 0.000000 0.032669 0.000000 0.004383
# 5 0.008116 0.005145 -0.012467 0.000000 0.046676 0.000000
# 6 0.000000 0.000000 0.000000 0.004383 0.000000 0.038553
#
#
# Mechanical properties :
#
#
# Convention : Reuss Voigt Hill
#
# Bulk Modulus (GPa) = 63.81389 68.50318 66.15854
# Shear Modulus (GPa) = 20.97785 24.55782 22.76783
#
# Velocity S-wave (km/s) = 3.48762 3.77350 3.63337
# Velocity P-wave (km/s) = 7.29514 7.66196 7.48080
#
# Compressibility (1/GPa) = 0.01567057
#
# Stress axis : x y z
#
# Youngs Moduli (GPa) = 66.04170 45.47376 35.31705
#
# Poissons Ratio (x) = 0.19727 0.33033
# Poissons Ratio (y) = 0.28650 0.39544
# Poissons Ratio (z) = 0.61771 0.50917
#
# Static dielectric constant tensor:
#      x y z
#    x 3.259830 0.000000 -0.015360 
#    y 0.000000 3.264190 0.000000 
#    z -0.015360 0.000000 3.042790 
# 
# 
# High freq. dielectric constant tensor:
#      x y z
#    x 1.667550 0.000000 -0.008200 
#    y 0.000000 1.674000 0.000000 
#    z -0.008200 0.000000 1.647340 
# 
# From -- ./inp_files/186385.got.cif
#   From: 2010.06.25/outbox.cif.g09.slc.cpg/sg12_94_cif.got.tgz:186385.got - 2010.06.28 00:19:55.
