data_PCOD8086517
_publ_section_title
;
Structure prediction by ZEFSAII (Michael W. Deem and Ramdas Pophale) SiO2 
 PCOD8086517
Probable space group: C 2/M
;
_chemical_formula_sum "Si O2"
_cell_formula_units_Z 56
_cell_length_a 28.266107
_cell_length_b 9.254534
_cell_length_c 14.207635
_cell_angle_alpha 90.000000
_cell_angle_beta 59.776622
_cell_angle_gamma 90.000000
_cell_volume 3211.374940
_symmetry_space_group_name_H-M "C 2/M"
_symmetry_group_IT_number 12
_symmetry_cell_setting 'monoclinic'
loop_
_space_group_symop_operation_xyz
x,y,z
-x,y,-z
-x,-y,-z
x,-y,z
1/2+x,1/2+y,z
1/2-x,1/2+y,-z
1/2-x,1/2-y,-z
1/2+x,1/2-y,z
loop_
_atom_site_type_symbol
_atom_site_label
_atom_site_fract_x
_atom_site_fract_y
_atom_site_fract_z
Si Si1 0.924155 0.660375 0.829683
Si Si2 0.847921 0.664436 0.074394
Si Si3 0.368630 0.831499 0.697136
Si Si4 0.748273 0.828029 0.102593
Si Si5 0.439121 0.665747 0.093610
Si Si6 0.946892 0.829311 0.492869
Si Si7 0.025865 0.164267 0.740519
O O1 0.948871 0.500000 0.801048
O O2 0.908181 0.714478 0.742673
O O3 0.969608 0.761965 0.828955
O O4 0.869630 0.663428 0.946277
O O5 0.834053 0.500000 0.120261
O O6 0.794600 0.765545 0.126177
O O7 0.893763 0.728902 0.097100
O O8 0.307090 0.790037 0.786380
O O9 0.390831 0.742223 0.586169
O O10 0.373027 0.000000 0.669768
O O11 0.755300 0.000000 0.080440
O O12 0.750000 0.750000 0.000000
O O13 0.428229 0.500000 0.073364
O O14 0.432780 0.681688 0.213443
O O15 0.500000 0.712522 0.000000
O O16 0.951688 0.771943 0.380321
O O17 0.000000 0.779786 0.500000
O O18 0.939249 0.000000 0.505704
O O19 0.010292 0.000000 0.737723
#
# Coordination Sequence:
#
# PCOD8086517 Si02
#       7
#     8   8   8   8   8   8   8
#     4  10  19  31  49  76 110 141 175 214 259 314
#     4  11  22  36  53  79 112 144 180 221 267 320
#     4  10  21  36  52  76 109 143 177 215 261 318
#     4  11  22  37  56  80 110 143 180 221 269 321
#     4  10  20  34  54  79 107 144 182 218 269 323
#     4  10  20  33  52  79 108 140 177 219 265 313
#     4  10  20  34  51  77 111 142 179 219 262 318
#
# _framework density 17.438013000000002
#
# number of rings (size 3 to 8) (size 9 to 14) (size 15 to 20)
#    0.000    1.714    4.286    0.857    0.000    3.429 
#    0.000    0.000    0.000    0.857    0.000    0.000 
#    0.000    0.000    0.000    0.000    0.000    0.000 
#
# Total GULP energy -347152.672786 kJ/mol
# GULP energy per Si atom -12398.309742 kJ/mol
# Density = 1.739832 g / cm^3
# Si number density = 17.438013 Si / 1000 Ang^3
#
#
#
# Elastic Constant Matrix: (Units=GPa)
#
#
# Indices 1 2 3 4 5 6 
#
# 1 85.7879 51.3214 41.1104 0.0000 -7.2821 0.0000
# 2 51.3214 76.7735 36.8349 0.0000 -7.7402 0.0000
# 3 41.1104 36.8349 91.2360 0.0000 -0.2023 0.0000
# 4 0.0000 0.0000 0.0000 27.5969 0.0000 -3.6635
# 5 -7.2821 -7.7402 -0.2023 0.0000 26.9589 0.0000
# 6 0.0000 0.0000 0.0000 -3.6635 0.0000 29.8965
#
#
#
# Elastic Compliance Matrix: (Units=1/GPa)
#
#
# Indices 1 2 3 4 5 6 
#
# 1 0.021069 -0.011528 -0.004834 0.000000 0.002345 0.000000
# 2 -0.011528 0.023051 -0.004104 0.000000 0.003473 0.000000
# 3 -0.004834 -0.004104 0.014790 0.000000 -0.002373 0.000000
# 4 0.000000 0.000000 0.000000 0.036835 0.000000 0.004514
# 5 0.002345 0.003473 -0.002373 0.000000 0.038706 0.000000
# 6 0.000000 0.000000 0.000000 0.004514 0.000000 0.034002
#
#
# Mechanical properties :
#
#
# Convention : Reuss Voigt Hill
#
# Bulk Modulus (GPa) = 55.62517 56.92564 56.27540
# Shear Modulus (GPa) = 23.21488 25.19251 24.20369
#
# Velocity S-wave (km/s) = 3.65263 3.80503 3.72961
# Velocity P-wave (km/s) = 7.05386 7.21247 7.13361
#
# Compressibility (1/GPa) = 0.01797747
#
# Stress axis : x y z
#
# Youngs Moduli (GPa) = 47.46340 43.38189 67.61125
#
# Poissons Ratio (x) = 0.50012 0.32683
# Poissons Ratio (y) = 0.54718 0.27749
# Poissons Ratio (z) = 0.22944 0.17804
#
# Static dielectric constant tensor:
#      x y z
#    x 3.109110 0.000000 0.065420 
#    y 0.000000 3.237610 0.000000 
#    z 0.065420 0.000000 3.253660 
# 
# 
# High freq. dielectric constant tensor:
#      x y z
#    x 1.659840 0.000000 0.005000 
#    y 0.000000 1.677200 0.000000 
#    z 0.005000 0.000000 1.663430 
# 
# From -- ./inp_files/238902.got.cif
#   From: 2010.06.25/outbox.cif.g09.slc.cpg/sg12_120_cif.got.tgz:238902.got - 2010.06.28 00:19:55.
