data_PCOD8086011
_publ_section_title
;
Structure prediction by ZEFSAII (Michael W. Deem and Ramdas Pophale) SiO2 
 PCOD8086011
Probable space group: C 2/M
;
_chemical_formula_sum "Si O2"
_cell_formula_units_Z 48
_cell_length_a 18.446783
_cell_length_b 9.080150
_cell_length_c 16.244371
_cell_angle_alpha 90.000000
_cell_angle_beta 105.757006
_cell_angle_gamma 90.000000
_cell_volume 2618.678127
_symmetry_space_group_name_H-M "C 2/M"
_symmetry_group_IT_number 12
_symmetry_cell_setting 'monoclinic'
loop_
_space_group_symop_operation_xyz
x,y,z
-x,y,-z
-x,-y,-z
x,-y,z
1/2+x,1/2+y,z
1/2-x,1/2+y,-z
1/2-x,1/2-y,-z
1/2+x,1/2-y,z
loop_
_atom_site_type_symbol
_atom_site_label
_atom_site_fract_x
_atom_site_fract_y
_atom_site_fract_z
Si Si1 0.101635 0.334279 0.751331
Si Si2 0.773503 0.166700 0.748264
Si Si3 0.269317 0.328685 0.421826
Si Si4 0.184655 0.333403 0.084890
Si Si5 0.143003 0.166326 0.917549
Si Si6 0.438018 0.329877 0.416900
O O1 0.072709 0.500000 0.756150
O O2 0.188166 0.332869 0.752116
O O3 0.091411 0.244773 0.832921
O O4 0.052126 0.259664 0.664616
O O5 0.780687 0.255303 0.665311
O O6 0.825098 0.246859 0.832247
O O7 0.802451 0.000000 0.744544
O O8 0.248484 0.500000 0.420475
O O9 0.250000 0.250000 0.500000
O O10 0.357032 0.303725 0.431920
O O11 0.155593 0.500000 0.087045
O O12 0.270952 0.333117 0.084167
O O13 0.134070 0.253244 0.000478
O O14 0.114139 0.000000 0.920792
O O15 0.500000 0.271203 0.500000
O O16 0.451303 0.500000 0.399399
#
# Coordination Sequence:
#
# PCOD8086011 Si02
#       6
#     8   8   8   8   8   8
#     4   9  16  25  38  57  81 109 141 178 219 261
#     4   9  16  26  39  56  80 110 143 177 216 262
#     4  10  19  31  47  66  89 117 149 185 224 265
#     4   9  15  22  33  51  76 106 140 176 214 257
#     4   9  15  22  33  50  75 108 142 174 211 258
#     4   9  18  32  48  65  87 117 151 185 222 265
#
# _framework density 18.329858999999999
#
# number of rings (size 3 to 8) (size 9 to 14) (size 15 to 20)
#    0.000    2.833    0.000    2.500    0.000    9.000 
#    0.000    0.000    0.000    0.000    0.000    0.000 
#    0.000    1.333    0.000   14.333    0.000   20.667 
#
# Total GULP energy -297587.946399 kJ/mol
# GULP energy per Si atom -12399.497767 kJ/mol
# Density = 1.828814 g / cm^3
# Si number density = 18.329859 Si / 1000 Ang^3
#
#
#
# Elastic Constant Matrix: (Units=GPa)
#
#
# Indices 1 2 3 4 5 6 
#
# 1 7.4183 18.0314 21.6841 0.0000 2.3084 0.0000
# 2 18.0314 182.1998 116.5632 0.0000 2.1001 0.0000
# 3 21.6841 116.5632 213.7557 0.0000 7.2079 0.0000
# 4 0.0000 0.0000 0.0000 46.2319 0.0000 -1.3959
# 5 2.3084 2.1001 7.2079 0.0000 18.5690 0.0000
# 6 0.0000 0.0000 0.0000 -1.3959 0.0000 10.1221
#
#
#
# Elastic Compliance Matrix: (Units=1/GPa)
#
#
# Indices 1 2 3 4 5 6 
#
# 1 0.210931 -0.011333 -0.014567 0.000000 -0.019285 0.000000
# 2 -0.011333 0.009051 -0.003849 0.000000 0.001879 0.000000
# 3 -0.014567 -0.003849 0.008288 0.000000 -0.000971 0.000000
# 4 0.000000 0.000000 0.000000 0.021721 0.000000 0.002995
# 5 -0.019285 0.001879 -0.000971 0.000000 0.056415 0.000000
# 6 0.000000 0.000000 0.000000 0.002995 0.000000 0.099207
#
#
# Mechanical properties :
#
#
# Convention : Reuss Voigt Hill
#
# Bulk Modulus (GPa) = 5.92521 79.54790 42.73656
# Shear Modulus (GPa) = 9.59016 31.45760 20.52388
#
# Velocity S-wave (km/s) = 2.28984 4.14719 3.34982
# Velocity P-wave (km/s) = 3.19854 8.15012 6.19093
#
# Compressibility (1/GPa) = 0.16877036
#
# Stress axis : x y z
#
# Youngs Moduli (GPa) = 4.74090 110.48495 120.65927
#
# Poissons Ratio (x) = 1.25212 1.75767
# Poissons Ratio (y) = 0.05373 0.46446
# Poissons Ratio (z) = 0.06906 0.42529
#
# Static dielectric constant tensor:
#      x y z
#    x 2.652080 0.000000 0.100830 
#    y 0.000000 3.613600 0.000000 
#    z 0.100830 0.000000 3.660700 
# 
# 
# High freq. dielectric constant tensor:
#      x y z
#    x 1.620330 0.000000 0.003400 
#    y 0.000000 1.728680 0.000000 
#    z 0.003400 0.000000 1.732170 
# 
# From -- ./inp_files/236613.got.cif
#   From: 2010.06.25/outbox.cif.g09.slc.cpg/sg12_119_cif.got.tgz:236613.got - 2010.06.28 00:19:55.
