data_PCOD8086118
_publ_section_title
;
Structure prediction by ZEFSAII (Michael W. Deem and Ramdas Pophale) SiO2 
 PCOD8086118
Probable space group: C 2/M
;
_chemical_formula_sum "Si O2"
_cell_formula_units_Z 56
_cell_length_a 36.777305
_cell_length_b 16.540782
_cell_length_c 6.842429
_cell_angle_alpha 90.000000
_cell_angle_beta 131.017572
_cell_angle_gamma 90.000000
_cell_volume 3140.583052
_symmetry_space_group_name_H-M "C 2/M"
_symmetry_group_IT_number 12
_symmetry_cell_setting 'monoclinic'
loop_
_space_group_symop_operation_xyz
x,y,z
-x,y,-z
-x,-y,-z
x,-y,z
1/2+x,1/2+y,z
1/2-x,1/2+y,-z
1/2-x,1/2-y,-z
1/2+x,1/2-y,z
loop_
_atom_site_type_symbol
_atom_site_label
_atom_site_fract_x
_atom_site_fract_y
_atom_site_fract_z
Si Si1 0.702035 0.283853 0.233934
Si Si2 0.151321 0.202831 0.450658
Si Si3 0.809494 0.336122 0.146815
Si Si4 0.289826 0.404597 0.079332
Si Si5 0.052973 0.285043 0.156316
Si Si6 0.452713 0.910301 0.207527
Si Si7 0.905108 0.588345 0.421237
O O1 0.750000 0.250000 0.500000
O O2 0.662872 0.306581 0.261827
O O3 0.682059 0.214603 0.020929
O O4 0.710527 0.364884 0.136904
O O5 0.183710 0.277375 0.643332
O O6 0.165406 0.123676 0.627002
O O7 0.094028 0.216750 0.280295
O O8 0.850045 0.404665 0.296651
O O9 0.757868 0.377989 0.971561
O O10 0.292185 0.500000 0.059558
O O11 0.061722 0.341424 0.374193
O O12 0.055247 0.342223 0.978327
O O13 0.000000 0.244876 0.000000
O O14 0.500000 0.892844 0.500000
O O15 0.407403 0.905339 0.194701
O O16 0.455360 0.000000 0.120463
O O17 0.924056 0.500000 0.555965
#
# Coordination Sequence:
#
# PCOD8086118 Si02
#       7
#     8   8   8   8   8   8   8
#     4  11  18  36  58  78 108 148 177 211 263 319
#     4  10  21  37  56  78 108 141 177 218 263 311
#     4  10  19  34  55  78 107 145 179 212 254 310
#     4  11  22  36  56  83 110 137 176 221 267 318
#     4  11  21  34  54  75  97 137 185 219 259 314
#     4  10  19  31  47  72 107 143 177 215 258 301
#     4  10  20  32  47  72 108 143 175 215 256 298
#
# _framework density 17.831084000000001
#
# number of rings (size 3 to 8) (size 9 to 14) (size 15 to 20)
#    0.000    1.571    4.286    2.571    0.000    1.143 
#    0.000    0.000    0.000    0.429    0.000    1.000 
#    0.000    0.000    0.000    0.000    0.000    0.000 
#
# Total GULP energy -347131.208054 kJ/mol
# GULP energy per Si atom -12397.543145 kJ/mol
# Density = 1.779050 g / cm^3
# Si number density = 17.831084 Si / 1000 Ang^3
#
#
#
# Elastic Constant Matrix: (Units=GPa)
#
#
# Indices 1 2 3 4 5 6 
#
# 1 102.7630 46.7882 44.8484 0.0000 3.1375 0.0000
# 2 46.7882 92.9061 35.6685 0.0000 1.0594 0.0000
# 3 44.8484 35.6685 77.9103 0.0000 -1.5889 0.0000
# 4 0.0000 0.0000 0.0000 26.8193 0.0000 6.6565
# 5 3.1375 1.0594 -1.5889 0.0000 36.9600 0.0000
# 6 0.0000 0.0000 0.0000 6.6565 0.0000 26.6487
#
#
#
# Elastic Compliance Matrix: (Units=1/GPa)
#
#
# Indices 1 2 3 4 5 6 
#
# 1 0.014788 -0.005038 -0.006234 0.000000 -0.001379 0.000000
# 2 -0.005038 0.014790 -0.003874 0.000000 -0.000163 0.000000
# 3 -0.006234 -0.003874 0.018227 0.000000 0.001424 0.000000
# 4 0.000000 0.000000 0.000000 0.039751 0.000000 -0.009929
# 5 -0.001379 -0.000163 0.001424 0.000000 0.027239 0.000000
# 6 0.000000 0.000000 0.000000 -0.009929 0.000000 0.040006
#
#
# Mechanical properties :
#
#
# Convention : Reuss Voigt Hill
#
# Bulk Modulus (GPa) = 57.10528 58.68775 57.89652
# Shear Modulus (GPa) = 26.18756 27.83721 27.01239
#
# Velocity S-wave (km/s) = 3.83645 3.95544 3.89640
# Velocity P-wave (km/s) = 7.19164 7.33794 7.26516
#
# Compressibility (1/GPa) = 0.01751151
#
# Stress axis : x y z
#
# Youngs Moduli (GPa) = 67.62327 67.61297 54.86488
#
# Poissons Ratio (x) = 0.34064 0.34203
# Poissons Ratio (y) = 0.34070 0.21256
# Poissons Ratio (z) = 0.42157 0.26195
#
# Static dielectric constant tensor:
#      x y z
#    x 3.471860 0.000000 -0.084290 
#    y 0.000000 3.268660 0.000000 
#    z -0.084290 0.000000 3.453080 
# 
# 
# High freq. dielectric constant tensor:
#      x y z
#    x 1.698730 0.000000 -0.008930 
#    y 0.000000 1.653720 0.000000 
#    z -0.008930 0.000000 1.689480 
# 
# From -- ./inp_files/32102.got.cif
#   From: 2010.06.25/outbox.cif.g09.slc.cpg/sg12_17_cif.got.tgz:32102.got - 2010.06.28 00:19:55.
