data_PCOD8086266
_publ_section_title
;
Structure prediction by ZEFSAII (Michael W. Deem and Ramdas Pophale) SiO2 
 PCOD8086266
Probable space group: C 2/M
;
_chemical_formula_sum "Si O2"
_cell_formula_units_Z 48
_cell_length_a 19.454224
_cell_length_b 8.948475
_cell_length_c 25.550097
_cell_angle_alpha 90.000000
_cell_angle_beta 36.560934
_cell_angle_gamma 90.000000
_cell_volume 2649.516217
_symmetry_space_group_name_H-M "C 2/M"
_symmetry_group_IT_number 12
_symmetry_cell_setting 'monoclinic'
loop_
_space_group_symop_operation_xyz
x,y,z
-x,y,-z
-x,-y,-z
x,-y,z
1/2+x,1/2+y,z
1/2-x,1/2+y,-z
1/2-x,1/2-y,-z
1/2+x,1/2-y,z
loop_
_atom_site_type_symbol
_atom_site_label
_atom_site_fract_x
_atom_site_fract_y
_atom_site_fract_z
Si Si1 0.424785 0.326607 0.416291
Si Si2 0.486747 0.331178 0.922694
Si Si3 0.179898 0.833474 0.892786
Si Si4 0.182139 0.327712 0.613125
Si Si5 0.340823 0.821202 0.709010
Si Si6 0.844562 0.674692 0.250206
O O1 0.456420 0.500000 0.395707
O O2 0.315738 0.292000 0.519810
O O3 0.400312 0.272377 0.372388
O O4 0.530363 0.237201 0.377232
O O5 0.462399 0.500000 0.917230
O O6 0.585202 0.337533 0.905622
O O7 0.530975 0.228037 0.848242
O O8 0.372688 0.258883 0.021749
O O9 0.292320 0.761280 0.795730
O O10 0.211612 0.000000 0.891012
O O11 0.154937 0.500000 0.617187
O O12 0.155087 0.286385 0.689044
O O13 0.262639 0.760067 0.709880
O O14 0.336835 0.000000 0.709481
O O15 0.829303 0.500000 0.248828
#
# Coordination Sequence:
#
# PCOD8086266 Si02
#       6
#     8   8   8   8   8   8
#     4  10  20  35  54  73  93 122 163 204 239 283
#     4   8  13  25  44  66  93 125 160 193 231 279
#     4   7  12  24  43  65  92 127 159 188 229 282
#     4   9  20  37  53  69  95 130 160 192 242 296
#     4  10  19  32  50  73 101 130 160 195 239 285
#     4  10  19  31  48  73 102 128 158 197 240 282
#
# _framework density 18.116515
#
# number of rings (size 3 to 8) (size 9 to 14) (size 15 to 20)
#    0.000    3.000    0.000    3.500    0.000    2.667 
#    0.000   10.833    0.000    1.000    0.000    0.000 
#    0.000    0.000    0.000    0.000    0.000    0.000 
#
# Total GULP energy -297330.927321 kJ/mol
# GULP energy per Si atom -12388.788638 kJ/mol
# Density = 1.807528 g / cm^3
# Si number density = 18.116515 Si / 1000 Ang^3
#
#
#
# Elastic Constant Matrix: (Units=GPa)
#
#
# Indices 1 2 3 4 5 6 
#
# 1 25.5629 17.9783 12.7741 0.0001 16.5685 -0.0006
# 2 17.9783 62.5667 20.8864 0.0003 11.7052 -0.0008
# 3 12.7741 20.8864 70.4383 0.0001 29.5611 -0.0004
# 4 0.0001 0.0003 0.0001 28.9661 0.0000 1.6204
# 5 16.5685 11.7052 29.5611 0.0000 23.4380 0.0001
# 6 -0.0006 -0.0008 -0.0004 1.6204 0.0001 23.4559
#
#
#
# Elastic Compliance Matrix: (Units=1/GPa)
#
#
# Indices 1 2 3 4 5 6 
#
# 1 0.104143 -0.020990 0.029392 -0.000001 -0.100208 0.000003
# 2 -0.020990 0.022219 -0.009246 0.000000 0.015403 0.000000
# 3 0.029392 -0.009246 0.039071 0.000000 -0.065438 0.000002
# 4 -0.000001 0.000000 0.000000 0.034657 0.000001 -0.002394
# 5 -0.100208 0.015403 -0.065438 0.000001 0.188345 -0.000004
# 6 0.000003 0.000000 0.000002 -0.002394 -0.000004 0.042799
#
#
# Mechanical properties :
#
#
# Convention : Reuss Voigt Hill
#
# Bulk Modulus (GPa) = 6.10702 29.09395 17.60049
# Shear Modulus (GPa) = 10.25634 22.30061 16.27847
#
# Velocity S-wave (km/s) = 2.38193 3.51230 3.00082
# Velocity P-wave (km/s) = 3.30804 5.70461 4.66292
#
# Compressibility (1/GPa) = 0.16374587
#
# Stress axis : x y z
#
# Youngs Moduli (GPa) = 9.60215 45.00613 25.59461
#
# Poissons Ratio (x) = 0.94466 -0.75228
# Poissons Ratio (y) = 0.20155 0.23665
# Poissons Ratio (z) = -0.28223 0.41613
#
# Static dielectric constant tensor:
#      x y z
#    x 2.892520 0.000000 0.023710 
#    y 0.000000 3.254620 0.000000 
#    z 0.023710 0.000000 4.019960 
# 
# 
# High freq. dielectric constant tensor:
#      x y z
#    x 1.655930 0.000000 0.005940 
#    y 0.000000 1.687540 0.000000 
#    z 0.005940 0.000000 1.722310 
# 
# From -- ./inp_files/273650.got.cif
#   From: 2010.06.25/outbox.cif.g09.slc.cpg/sg12_137_cif.got.tgz:273650.got - 2010.06.28 00:19:55.
