data_PCOD8086026
_publ_section_title
;
Structure prediction by ZEFSAII (Michael W. Deem and Ramdas Pophale) SiO2 
 PCOD8086026
Probable space group: C 2/M
;
_chemical_formula_sum "Si O2"
_cell_formula_units_Z 56
_cell_length_a 29.995455
_cell_length_b 13.996566
_cell_length_c 25.208441
_cell_angle_alpha 90.000000
_cell_angle_beta 161.447747
_cell_angle_gamma 90.000000
_cell_volume 3367.296231
_symmetry_space_group_name_H-M "C 2/M"
_symmetry_group_IT_number 12
_symmetry_cell_setting 'monoclinic'
loop_
_space_group_symop_operation_xyz
x,y,z
-x,y,-z
-x,-y,-z
x,-y,z
1/2+x,1/2+y,z
1/2-x,1/2+y,-z
1/2-x,1/2-y,-z
1/2+x,1/2-y,z
loop_
_atom_site_type_symbol
_atom_site_label
_atom_site_fract_x
_atom_site_fract_y
_atom_site_fract_z
Si Si1 0.742309 0.888394 0.531801
Si Si2 0.035992 0.109089 0.303343
Si Si3 0.666344 0.890843 0.603307
Si Si4 0.929464 0.891440 0.835794
Si Si5 0.247256 0.610299 0.921646
Si Si6 0.986105 0.293504 0.664548
Si Si7 0.734016 0.386700 0.176550
O O1 0.844886 0.843541 0.691940
O O2 0.592209 0.837683 0.371887
O O3 0.813882 0.869756 0.555558
O O4 0.717131 0.000000 0.513530
O O5 0.019649 0.178611 0.335454
O O6 0.031346 0.000000 0.318658
O O7 0.909705 0.127929 0.119270
O O8 0.833199 0.886967 0.779473
O O9 0.580744 0.823555 0.467108
O O10 0.657386 0.853516 0.654418
O O11 0.610143 0.000000 0.533312
O O12 0.960008 0.000000 0.852735
O O13 0.079721 0.840878 0.013083
O O14 0.207974 0.500000 0.884866
O O15 0.215706 0.643095 0.825349
O O16 0.147091 0.671893 0.846936
O O17 0.725320 0.500000 0.171908
#
# Coordination Sequence:
#
# PCOD8086026 Si02
#       7
#     8   8   8   8   8   8   8
#     4   9  16  29  48  68  91 119 147 181 224 267
#     4  10  20  34  49  63  85 122 161 189 217 259
#     4   9  17  26  41  67  96 121 144 174 218 267
#     4   8  12  22  40  62  90 120 146 169 201 257
#     4  10  19  31  47  67  93 122 147 177 224 275
#     4  11  20  30  44  68  96 119 147 187 226 260
#     4   9  15  25  42  64  93 124 145 167 211 277
#
# _framework density 16.630552999999999
#
# number of rings (size 3 to 8) (size 9 to 14) (size 15 to 20)
#    0.000    2.571    1.429    3.429    0.000    2.286 
#    0.000    2.143    0.000    0.000    0.000    2.000 
#    0.000    9.143    0.000    0.000    0.000    0.000 
#
# Total GULP energy -346911.210734 kJ/mol
# GULP energy per Si atom -12389.686098 kJ/mol
# Density = 1.659270 g / cm^3
# Si number density = 16.630553 Si / 1000 Ang^3
#
#
#
# Elastic Constant Matrix: (Units=GPa)
#
#
# Indices 1 2 3 4 5 6 
#
# 1 64.7610 40.2317 27.9453 0.0022 -1.8430 -0.0001
# 2 40.2317 58.4899 22.8160 0.0017 -1.3837 0.0016
# 3 27.9453 22.8160 48.1154 0.0003 13.0041 -0.0005
# 4 0.0022 0.0017 0.0003 12.3670 0.0040 1.8295
# 5 -1.8430 -1.3837 13.0041 0.0040 27.2905 0.0027
# 6 -0.0001 0.0016 -0.0005 1.8295 0.0027 17.7954
#
#
#
# Elastic Compliance Matrix: (Units=1/GPa)
#
#
# Indices 1 2 3 4 5 6 
#
# 1 0.031154 -0.016513 -0.012174 -0.000005 0.007068 0.000001
# 2 -0.016513 0.030841 -0.005917 -0.000002 0.003268 -0.000003
# 3 -0.012174 -0.005917 0.035540 0.000007 -0.018057 0.000003
# 4 -0.000005 -0.000002 0.000007 0.082109 -0.000015 -0.008441
# 5 0.007068 0.003268 -0.018057 -0.000015 0.045890 -0.000006
# 6 0.000001 -0.000003 0.000003 -0.008441 -0.000006 0.057062
#
#
# Mechanical properties :
#
#
# Convention : Reuss Voigt Hill
#
# Bulk Modulus (GPa) = 35.30214 39.26134 37.28174
# Shear Modulus (GPa) = 13.84095 16.84880 15.34487
#
# Velocity S-wave (km/s) = 2.88802 3.18641 3.04088
# Velocity P-wave (km/s) = 5.69159 6.09892 5.89878
#
# Compressibility (1/GPa) = 0.02832690
#
# Stress axis : x y z
#
# Youngs Moduli (GPa) = 32.09832 32.42469 28.13719
#
# Poissons Ratio (x) = 0.53543 0.34255
# Poissons Ratio (y) = 0.53004 0.16649
# Poissons Ratio (z) = 0.39077 0.19186
#
# Static dielectric constant tensor:
#      x y z
#    x 3.151780 0.000000 0.132740 
#    y 0.000000 2.709830 -0.000010 
#    z 0.132740 -0.000010 3.217590 
# 
# 
# High freq. dielectric constant tensor:
#      x y z
#    x 1.635280 0.000000 0.017910 
#    y 0.000000 1.574740 0.000000 
#    z 0.017910 0.000000 1.645370 
# 
# From -- ./inp_files/370799.got.cif
#   From: 2010.06.25/outbox.cif.g09.slc.cpg/sg12_186_cif.got.tgz:370799.got - 2010.06.28 00:19:55.
