data_PCOD8086932
_publ_section_title
;
Structure prediction by ZEFSAII (Michael W. Deem and Ramdas Pophale) SiO2 
 PCOD8086932
Probable space group: C 2/M
;
_chemical_formula_sum "Si O2"
_cell_formula_units_Z 64
_cell_length_a 19.118514
_cell_length_b 18.586786
_cell_length_c 14.990028
_cell_angle_alpha 90.000000
_cell_angle_beta 142.502057
_cell_angle_gamma 90.000000
_cell_volume 3242.557481
_symmetry_space_group_name_H-M "C 2/M"
_symmetry_group_IT_number 12
_symmetry_cell_setting 'monoclinic'
loop_
_space_group_symop_operation_xyz
x,y,z
-x,y,-z
-x,-y,-z
x,-y,z
1/2+x,1/2+y,z
1/2-x,1/2+y,-z
1/2-x,1/2-y,-z
1/2+x,1/2-y,z
loop_
_atom_site_type_symbol
_atom_site_label
_atom_site_fract_x
_atom_site_fract_y
_atom_site_fract_z
Si Si1 0.300252 0.278023 0.250311
Si Si2 0.406573 0.701284 0.724079
Si Si3 0.558744 0.819151 0.967068
Si Si4 0.072939 0.919871 0.844499
Si Si5 0.333760 0.917613 0.077686
Si Si6 0.585991 0.579431 0.663695
Si Si7 0.666764 0.768687 0.527149
Si Si8 0.041693 0.351293 0.640425
O O1 0.317761 0.359079 0.231406
O O2 0.347813 0.277634 0.398505
O O3 0.371030 0.216846 0.269697
O O4 0.163643 0.266311 0.101907
O O5 0.466494 0.772555 0.820695
O O6 0.492884 0.633810 0.820610
O O7 0.354725 0.712104 0.572925
O O8 0.289216 0.690187 0.660209
O O9 0.602811 0.878314 0.940630
O O10 0.500000 0.850238 0.000000
O O11 0.019778 0.923285 0.691164
O O12 0.070220 0.000000 0.885695
O O13 0.203695 0.890402 0.966634
O O14 0.400820 0.912168 0.240253
O O15 0.327087 0.000000 0.041495
O O16 0.500000 0.602254 0.500000
O O17 0.640687 0.500000 0.699754
O O18 0.572355 0.830157 0.422464
O O19 0.000000 0.378123 0.500000
#
# Coordination Sequence:
#
# PCOD8086932 Si02
#       8
#     8   8   8   8   8   8   8   8
#     4  11  20  35  60  91 121 149 204 251 295 360
#     4  11  21  37  60  82 124 160 201 248 298 358
#     4  12  24  38  61  91 118 161 204 242 307 362
#     4  10  21  37  59  87 116 156 203 250 302 356
#     4  11  24  42  62  87 123 161 205 254 302 359
#     4  10  19  31  51  84 122 155 191 241 296 354
#     4  10  21  35  57  89 122 156 195 255 297 352
#     4  10  21  38  64  95 116 154 205 251 307 351
#
# _framework density 19.737506
#
# number of rings (size 3 to 8) (size 9 to 14) (size 15 to 20)
#    0.000    1.375    3.750    3.375    0.000    1.500 
#    0.000    0.625    0.000    1.125    0.000    0.000 
#    0.000    0.000    0.000    0.000    0.000    0.000 
#
# Total GULP energy -396419.713737 kJ/mol
# GULP energy per Si atom -12388.116054 kJ/mol
# Density = 1.969258 g / cm^3
# Si number density = 19.737506 Si / 1000 Ang^3
#
#
#
# Elastic Constant Matrix: (Units=GPa)
#
#
# Indices 1 2 3 4 5 6 
#
# 1 82.2669 43.8790 26.8270 0.0000 18.7150 0.0000
# 2 43.8790 63.7971 25.3213 0.0000 10.3198 0.0000
# 3 26.8270 25.3213 95.7902 0.0000 8.8227 0.0000
# 4 0.0000 0.0000 0.0000 25.0757 0.0000 2.4981
# 5 18.7150 10.3198 8.8227 0.0000 37.0701 0.0000
# 6 0.0000 0.0000 0.0000 2.4981 0.0000 18.1620
#
#
#
# Elastic Compliance Matrix: (Units=1/GPa)
#
#
# Indices 1 2 3 4 5 6 
#
# 1 0.021031 -0.012619 -0.001942 0.000000 -0.006642 0.000000
# 2 -0.012619 0.025641 -0.003244 0.000000 0.000005 0.000000
# 3 -0.001942 -0.003244 0.011929 0.000000 -0.000955 0.000000
# 4 0.000000 0.000000 0.000000 0.040433 0.000000 -0.005561
# 5 -0.006642 0.000005 -0.000955 0.000000 0.030555 0.000000
# 6 0.000000 0.000000 0.000000 -0.005561 0.000000 0.055825
#
#
# Mechanical properties :
#
#
# Convention : Reuss Voigt Hill
#
# Bulk Modulus (GPa) = 43.49916 48.21211 45.85564
# Shear Modulus (GPa) = 21.86371 25.78335 23.82353
#
# Velocity S-wave (km/s) = 3.33186 3.61822 3.47799
# Velocity P-wave (km/s) = 6.07358 6.47572 6.27787
#
# Compressibility (1/GPa) = 0.02298895
#
# Stress axis : x y z
#
# Youngs Moduli (GPa) = 47.54914 38.99988 83.82918
#
# Poissons Ratio (x) = 0.49216 0.16282
# Poissons Ratio (y) = 0.60005 0.27196
# Poissons Ratio (z) = 0.09235 0.12653
#
# Static dielectric constant tensor:
#      x y z
#    x 3.694730 0.000000 0.038900 
#    y 0.000000 3.301720 0.000000 
#    z 0.038900 0.000000 3.833860 
# 
# 
# High freq. dielectric constant tensor:
#      x y z
#    x 1.759380 0.000000 -0.002550 
#    y 0.000000 1.738610 0.000000 
#    z -0.002550 0.000000 1.792110 
# 
# From -- ./inp_files/226893.got.cif
#   From: 2010.06.25/outbox.cif.g09.slc.cpg/sg12_114_cif.got.tgz:226893.got - 2010.06.28 00:19:55.
