data_PCOD8086627
_publ_section_title
;
Structure prediction by ZEFSAII (Michael W. Deem and Ramdas Pophale) SiO2 
 PCOD8086627
Probable space group: C 2/M
;
_chemical_formula_sum "Si O2"
_cell_formula_units_Z 64
_cell_length_a 20.644800
_cell_length_b 9.160415
_cell_length_c 18.661423
_cell_angle_alpha 90.000000
_cell_angle_beta 106.024928
_cell_angle_gamma 90.000000
_cell_volume 3392.016827
_symmetry_space_group_name_H-M "C 2/M"
_symmetry_group_IT_number 12
_symmetry_cell_setting 'monoclinic'
loop_
_space_group_symop_operation_xyz
x,y,z
-x,y,-z
-x,-y,-z
x,-y,z
1/2+x,1/2+y,z
1/2-x,1/2+y,-z
1/2-x,1/2-y,-z
1/2+x,1/2-y,z
loop_
_atom_site_type_symbol
_atom_site_label
_atom_site_fract_x
_atom_site_fract_y
_atom_site_fract_z
Si Si1 0.413103 0.670686 0.161756
Si Si2 0.639939 0.672990 0.584143
Si Si3 0.462688 0.673439 0.329998
Si Si4 0.510529 0.171331 0.085438
Si Si5 0.888376 0.826586 0.584547
Si Si6 0.659175 0.173344 0.167135
Si Si7 0.709615 0.826681 0.336317
Si Si8 0.239018 0.829028 0.922138
O O1 0.428041 0.500000 0.159310
O O2 0.438737 0.732364 0.245674
O O3 0.451854 0.751113 0.110666
O O4 0.334364 0.705456 0.131574
O O5 0.635380 0.500000 0.584106
O O6 0.585930 0.739197 0.623481
O O7 0.622478 0.729515 0.499602
O O8 0.713763 0.724884 0.630227
O O9 0.458093 0.500000 0.330415
O O10 0.538389 0.726560 0.367392
O O11 0.583397 0.231010 0.132291
O O12 0.504509 0.000000 0.097279
O O13 0.500000 0.211743 0.000000
O O14 0.833232 0.749857 0.615914
O O15 0.880156 0.000000 0.588271
O O16 0.685242 0.230402 0.251546
O O17 0.707149 0.233322 0.118657
O O18 0.661597 0.000000 0.165894
O O19 0.701727 0.000000 0.341290
O O20 0.249530 0.000000 0.938269
O O21 0.250000 0.750000 0.000000
#
# Coordination Sequence:
#
# PCOD8086627 Si02
#       8
#     8   8   8   8   8   8   8   8
#     4  10  20  33  52  77 101 126 159 204 250 286
#     4   9  17  30  50  74  97 127 167 203 237 284
#     4   9  17  31  51  74  99 128 164 202 240 286
#     4  10  20  34  52  72  97 131 166 199 239 292
#     4  10  19  31  50  75 101 128 160 202 246 286
#     4   9  18  33  52  72  95 129 169 201 235 288
#     4  10  19  32  51  72  97 130 165 201 240 287
#     4  10  20  35  54  75  99 127 163 204 244 288
#
# _framework density 18.867832
#
# number of rings (size 3 to 8) (size 9 to 14) (size 15 to 20)
#    0.000    2.375    0.000    3.000    0.000    6.250 
#    0.000    1.250    0.000    5.250    0.000    0.000 
#    0.000    0.000    0.000    0.000    0.000    0.000 
#
# Total GULP energy -396861.757917 kJ/mol
# GULP energy per Si atom -12401.929935 kJ/mol
# Density = 1.882489 g / cm^3
# Si number density = 18.867832 Si / 1000 Ang^3
#
#
#
# Elastic Constant Matrix: (Units=GPa)
#
#
# Indices 1 2 3 4 5 6 
#
# 1 72.1278 18.5815 12.2928 0.0000 -5.2841 0.0000
# 2 18.5815 18.2169 21.9854 0.0000 -3.3595 0.0000
# 3 12.2928 21.9854 102.8195 0.0000 2.4509 0.0000
# 4 0.0000 0.0000 0.0000 18.1502 0.0000 -6.7083
# 5 -5.2841 -3.3595 2.4509 0.0000 46.4366 0.0000
# 6 0.0000 0.0000 0.0000 -6.7083 0.0000 24.6713
#
#
#
# Elastic Compliance Matrix: (Units=1/GPa)
#
#
# Indices 1 2 3 4 5 6 
#
# 1 0.019302 -0.022661 0.002528 0.000000 0.000424 0.000000
# 2 -0.022661 0.102416 -0.019329 0.000000 0.005851 0.000000
# 3 0.002528 -0.019329 0.013600 0.000000 -0.001829 0.000000
# 4 0.000000 0.000000 0.000000 0.061251 0.000000 0.016655
# 5 0.000424 0.005851 -0.001829 0.000000 0.022103 0.000000
# 6 0.000000 0.000000 0.000000 0.016655 0.000000 0.045062
#
#
# Mechanical properties :
#
#
# Convention : Reuss Voigt Hill
#
# Bulk Modulus (GPa) = 17.73271 33.20927 25.47099
# Shear Modulus (GPa) = 13.83289 27.20525 20.51907
#
# Velocity S-wave (km/s) = 2.71061 3.80134 3.30133
# Velocity P-wave (km/s) = 4.38353 6.07504 5.29723
#
# Compressibility (1/GPa) = 0.05639297
#
# Stress axis : x y z
#
# Youngs Moduli (GPa) = 51.80682 9.76412 73.52815
#
# Poissons Ratio (x) = 0.22127 -0.18586
# Poissons Ratio (y) = 1.17401 1.42124
# Poissons Ratio (z) = -0.13095 0.18873
#
# Static dielectric constant tensor:
#      x y z
#    x 3.708450 0.000000 0.098180 
#    y 0.000000 2.976440 0.000000 
#    z 0.098180 0.000000 3.756230 
# 
# 
# High freq. dielectric constant tensor:
#      x y z
#    x 1.753220 0.000000 0.001960 
#    y 0.000000 1.680540 0.000000 
#    z 0.001960 0.000000 1.753850 
# 
# From -- ./inp_files/223831.got.cif
#   From: 2010.06.25/outbox.cif.g09.slc.cpg/sg12_112_cif.got.tgz:223831.got - 2010.06.28 00:19:55.
