data_PCOD8086732
_publ_section_title
;
Structure prediction by ZEFSAII (Michael W. Deem and Ramdas Pophale) SiO2 
 PCOD8086732
Probable space group: C 2/M
;
_chemical_formula_sum "Si O2"
_cell_formula_units_Z 56
_cell_length_a 25.119971
_cell_length_b 9.013918
_cell_length_c 14.768432
_cell_angle_alpha 90.000000
_cell_angle_beta 75.273586
_cell_angle_gamma 90.000000
_cell_volume 3234.158194
_symmetry_space_group_name_H-M "C 2/M"
_symmetry_group_IT_number 12
_symmetry_cell_setting 'monoclinic'
loop_
_space_group_symop_operation_xyz
x,y,z
-x,y,-z
-x,-y,-z
x,-y,z
1/2+x,1/2+y,z
1/2-x,1/2+y,-z
1/2-x,1/2-y,-z
1/2+x,1/2-y,z
loop_
_atom_site_type_symbol
_atom_site_label
_atom_site_fract_x
_atom_site_fract_y
_atom_site_fract_z
Si Si1 0.221893 0.330381 0.389155
Si Si2 0.616478 0.826926 0.090635
Si Si3 0.107515 0.175207 0.764146
Si Si4 0.993934 0.175162 0.900304
Si Si5 0.707904 0.828670 0.191107
Si Si6 0.319958 0.824948 0.117246
Si Si7 0.828965 0.328615 0.404965
O O1 0.243267 0.500000 0.389219
O O2 0.195517 0.301482 0.302487
O O3 0.175305 0.298998 0.485350
O O4 0.272714 0.220812 0.380741
O O5 0.559035 0.742691 0.125164
O O6 0.653249 0.782138 0.160891
O O7 0.603682 0.000000 0.094131
O O8 0.647395 0.776400 0.986356
O O9 0.153539 0.243557 0.809107
O O10 0.119730 0.235842 0.657771
O O11 0.047017 0.226493 0.820475
O O12 0.113588 0.000000 0.764410
O O13 0.987416 0.000000 0.904232
O O14 0.000000 0.236375 0.000000
O O15 0.757388 0.727760 0.133688
O O16 0.722942 0.000000 0.164918
O O17 0.321665 0.000000 0.131881
O O18 0.838773 0.500000 0.378562
#
# Coordination Sequence:
#
# PCOD8086732 Si02
#       7
#     8   8   8   8   8   8   8
#     4   9  18  32  51  74 105 139 168 205 255 310
#     4  10  22  36  52  76 106 138 174 214 254 301
#     4  11  21  34  53  75 103 137 171 212 261 310
#     4  10  21  37  55  74  98 135 179 216 256 306
#     4  10  20  35  53  75 106 143 173 202 253 312
#     4  11  21  32  49  78 108 137 171 209 253 303
#     4  10  19  31  50  78 105 131 170 214 257 306
#
# _framework density 17.315172
#
# number of rings (size 3 to 8) (size 9 to 14) (size 15 to 20)
#    0.000    1.857    2.857    1.714    0.000    3.143 
#    0.000    0.000    0.000    0.857    0.000    6.000 
#    0.000    0.000    0.000    0.000    0.000    0.000 
#
# Total GULP energy -347272.403123 kJ/mol
# GULP energy per Si atom -12402.585826 kJ/mol
# Density = 1.727576 g / cm^3
# Si number density = 17.315172 Si / 1000 Ang^3
#
#
#
# Elastic Constant Matrix: (Units=GPa)
#
#
# Indices 1 2 3 4 5 6 
#
# 1 102.2293 33.0007 47.6770 0.0000 -13.2385 0.0000
# 2 33.0007 55.5893 34.9434 0.0000 -11.4910 0.0000
# 3 47.6770 34.9434 106.9438 0.0000 -19.1970 0.0000
# 4 0.0000 0.0000 0.0000 25.8919 0.0000 -4.2897
# 5 -13.2385 -11.4910 -19.1970 0.0000 25.5158 0.0000
# 6 0.0000 0.0000 0.0000 -4.2897 0.0000 29.7030
#
#
#
# Elastic Compliance Matrix: (Units=1/GPa)
#
#
# Indices 1 2 3 4 5 6 
#
# 1 0.013553 -0.005150 -0.004062 0.000000 0.001656 0.000000
# 2 -0.005150 0.025247 -0.005078 0.000000 0.004877 0.000000
# 3 -0.004062 -0.005078 0.013911 0.000000 0.006071 0.000000
# 4 0.000000 0.000000 0.000000 0.039569 0.000000 0.005715
# 5 0.001656 0.004877 0.006071 0.000000 0.046815 0.000000
# 6 0.000000 0.000000 0.000000 0.005715 0.000000 0.034492
#
#
# Mechanical properties :
#
#
# Convention : Reuss Voigt Hill
#
# Bulk Modulus (GPa) = 41.44112 55.11164 48.27638
# Shear Modulus (GPa) = 23.78572 26.16489 24.97530
#
# Velocity S-wave (km/s) = 3.71036 3.89150 3.80201
# Velocity P-wave (km/s) = 6.50700 7.21729 6.87133
#
# Compressibility (1/GPa) = 0.02413062
#
# Stress axis : x y z
#
# Youngs Moduli (GPa) = 73.78197 39.60942 71.88739
#
# Poissons Ratio (x) = 0.20399 0.29202
# Poissons Ratio (y) = 0.37999 0.36502
# Poissons Ratio (z) = 0.29972 0.20112
#
# Static dielectric constant tensor:
#      x y z
#    x 3.033280 0.000000 -0.083450 
#    y 0.000000 3.227360 0.000000 
#    z -0.083450 0.000000 3.519320 
# 
# 
# High freq. dielectric constant tensor:
#      x y z
#    x 1.642120 0.000000 -0.007280 
#    y 0.000000 1.673070 0.000000 
#    z -0.007280 0.000000 1.676880 
# 
# From -- ./inp_files/237827.got.cif
#   From: 2010.06.25/outbox.cif.g09.slc.cpg/sg12_119_cif.got.tgz:237827.got - 2010.06.28 00:19:55.
