data_PCOD8086393
_publ_section_title
;
Structure prediction by ZEFSAII (Michael W. Deem and Ramdas Pophale) SiO2 
 PCOD8086393
Probable space group: C 2/M
;
_chemical_formula_sum "Si O2"
_cell_formula_units_Z 48
_cell_length_a 20.554375
_cell_length_b 8.917597
_cell_length_c 23.146797
_cell_angle_alpha 90.000000
_cell_angle_beta 39.831994
_cell_angle_gamma 90.000000
_cell_volume 2717.617518
_symmetry_space_group_name_H-M "C 2/M"
_symmetry_group_IT_number 12
_symmetry_cell_setting 'monoclinic'
loop_
_space_group_symop_operation_xyz
x,y,z
-x,y,-z
-x,-y,-z
x,-y,z
1/2+x,1/2+y,z
1/2-x,1/2+y,-z
1/2-x,1/2-y,-z
1/2+x,1/2-y,z
loop_
_atom_site_type_symbol
_atom_site_label
_atom_site_fract_x
_atom_site_fract_y
_atom_site_fract_z
Si Si1 0.753983 0.324364 0.059614
Si Si2 0.245985 0.665783 0.415259
Si Si3 0.478011 0.826291 0.949927
Si Si4 0.903556 0.166508 0.412136
Si Si5 0.941304 0.322134 0.769712
Si Si6 0.929825 0.822838 0.218422
O O1 0.731609 0.500000 0.068510
O O2 0.861454 0.292148 0.015625
O O3 0.670640 0.248356 0.157954
O O4 0.750000 0.250000 0.000000
O O5 0.202176 0.500000 0.434108
O O6 0.149736 0.772499 0.493020
O O7 0.320871 0.663601 0.418463
O O8 0.313341 0.720065 0.314629
O O9 0.504748 0.000000 0.921617
O O10 0.500000 0.776326 0.000000
O O11 0.551373 0.726773 0.859829
O O12 0.996614 0.271664 0.329391
O O13 0.945074 0.000000 0.396334
O O14 0.934963 0.500000 0.775956
O O15 0.991949 0.264950 0.794226
O O16 0.947460 0.000000 0.215114
#
# Coordination Sequence:
#
# PCOD8086393 Si02
#       6
#     8   8   8   8   8   8
#     4  11  21  34  53  76 102 133 171 212 254 305
#     4   8  15  26  40  63  95 129 162 200 248 300
#     4  10  22  38  54  74 102 136 172 211 256 305
#     4   9  16  26  41  65  96 129 164 204 248 299
#     4  11  20  30  47  71 101 135 168 208 254 302
#     4  10  19  31  49  72  99 132 171 211 252 301
#
# _framework density 17.66253
#
# number of rings (size 3 to 8) (size 9 to 14) (size 15 to 20)
#    0.000    2.167    1.667    4.000    0.000    5.667 
#    0.000    0.000    0.000    0.000    0.000    1.167 
#    0.000    9.333    0.000    0.000    0.000    0.000 
#
# Total GULP energy -297573.034827 kJ/mol
# GULP energy per Si atom -12398.876451 kJ/mol
# Density = 1.762233 g / cm^3
# Si number density = 17.662530 Si / 1000 Ang^3
#
#
#
# Elastic Constant Matrix: (Units=GPa)
#
#
# Indices 1 2 3 4 5 6 
#
# 1 57.4739 34.9826 43.9981 -0.0004 2.4505 0.0038
# 2 34.9826 124.2731 77.4003 -0.0008 -1.9842 0.0055
# 3 43.9981 77.4003 168.6867 0.0001 -3.8884 0.0012
# 4 -0.0004 -0.0008 0.0001 38.1400 -0.0001 -1.9101
# 5 2.4505 -1.9842 -3.8884 -0.0001 12.7784 -0.0018
# 6 0.0038 0.0055 0.0012 -1.9101 -0.0018 14.8818
#
#
#
# Elastic Compliance Matrix: (Units=1/GPa)
#
#
# Indices 1 2 3 4 5 6 
#
# 1 0.023492 -0.003930 -0.004473 0.000000 -0.006477 -0.000005
# 2 -0.003930 0.011924 -0.004417 0.000000 0.001261 -0.000003
# 3 -0.004473 -0.004417 0.009190 0.000000 0.002968 0.000002
# 4 0.000000 0.000000 0.000000 0.026389 0.000001 0.003387
# 5 -0.006477 0.001261 0.002968 0.000001 0.080598 0.000011
# 6 -0.000005 -0.000003 0.000002 0.003387 0.000011 0.067631
#
#
# Mechanical properties :
#
#
# Convention : Reuss Voigt Hill
#
# Bulk Modulus (GPa) = 52.72863 73.68842 63.20853
# Shear Modulus (GPa) = 19.90540 26.09688 23.00114
#
# Velocity S-wave (km/s) = 3.36070 3.84803 3.61259
# Velocity P-wave (km/s) = 6.70651 7.84563 7.29833
#
# Compressibility (1/GPa) = 0.01896503
#
# Stress axis : x y z
#
# Youngs Moduli (GPa) = 42.56761 83.86133 108.81238
#
# Poissons Ratio (x) = 0.32960 0.48675
# Poissons Ratio (y) = 0.16730 0.48065
# Poissons Ratio (z) = 0.19042 0.37043
#
# Static dielectric constant tensor:
#      x y z
#    x 2.808210 0.000000 -0.145160 
#    y 0.000000 3.420960 0.000000 
#    z -0.145160 0.000000 3.710160 
# 
# 
# High freq. dielectric constant tensor:
#      x y z
#    x 1.611280 0.000000 -0.011850 
#    y 0.000000 1.695090 0.000000 
#    z -0.011850 0.000000 1.704900 
# 
# From -- ./inp_files/319574.got.cif
#   From: 2010.06.25/outbox.cif.g09.slc.cpg/sg12_160_cif.got.tgz:319574.got - 2010.06.28 00:19:55.
