data_PCOD8086536
_publ_section_title
;
Structure prediction by ZEFSAII (Michael W. Deem and Ramdas Pophale) SiO2 
 PCOD8086536
Probable space group: C 2/M
;
_chemical_formula_sum "Si O2"
_cell_formula_units_Z 56
_cell_length_a 16.977092
_cell_length_b 17.744644
_cell_length_c 19.171765
_cell_angle_alpha 90.000000
_cell_angle_beta 148.908790
_cell_angle_gamma 90.000000
_cell_volume 2982.500815
_symmetry_space_group_name_H-M "C 2/M"
_symmetry_group_IT_number 12
_symmetry_cell_setting 'monoclinic'
loop_
_space_group_symop_operation_xyz
x,y,z
-x,y,-z
-x,-y,-z
x,-y,z
1/2+x,1/2+y,z
1/2-x,1/2+y,-z
1/2-x,1/2-y,-z
1/2+x,1/2-y,z
loop_
_atom_site_type_symbol
_atom_site_label
_atom_site_fract_x
_atom_site_fract_y
_atom_site_fract_z
Si Si1 0.829610 0.777796 0.227389
Si Si2 0.661402 0.274855 0.228564
Si Si3 0.179714 0.213728 0.514967
Si Si4 0.207431 0.916972 0.446415
Si Si5 0.829377 0.586136 0.395827
Si Si6 0.684663 0.307184 0.004815
Si Si7 0.139902 0.085799 0.852710
O O1 0.712004 0.777578 0.202562
O O2 0.801087 0.855216 0.161620
O O3 0.000061 0.770487 0.386638
O O4 0.795455 0.701937 0.155735
O O5 0.728331 0.236063 0.347834
O O6 0.727561 0.359574 0.270389
O O7 0.480926 0.280021 0.095643
O O8 0.250000 0.250000 0.500000
O O9 0.209746 0.125626 0.521899
O O10 0.318854 0.886057 0.469093
O O11 0.041838 0.912707 0.285512
O O12 0.258133 0.000000 0.505489
O O13 0.769445 0.500000 0.344116
O O14 0.000000 0.593650 0.500000
O O15 0.686568 0.388323 0.967168
O O16 0.750000 0.250000 0.000000
O O17 0.200696 0.000000 0.885342
#
# Coordination Sequence:
#
# PCOD8086536 Si02
#       7
#     8   8   8   8   8   8   8
#     4  10  22  35  54  84 113 143 181 231 285 328
#     4  12  21  35  56  82 115 147 182 231 281 338
#     4  11  19  33  54  82 107 145 189 228 269 331
#     4   9  17  31  51  77 109 143 184 228 273 327
#     4  10  19  31  49  79 114 148 181 223 283 337
#     4  10  20  37  57  80 105 144 187 232 275 328
#     4   9  17  35  60  81 104 146 193 226 269 334
#
# _framework density 18.77619
#
# number of rings (size 3 to 8) (size 9 to 14) (size 15 to 20)
#    0.000    1.857    2.857    3.429    0.000    0.000 
#    0.000    1.429    0.000   20.571    0.000    0.000 
#    0.000    0.000    0.000    0.000    0.000    0.000 
#
# Total GULP energy -346933.040172 kJ/mol
# GULP energy per Si atom -12390.465720 kJ/mol
# Density = 1.873345 g / cm^3
# Si number density = 18.776190 Si / 1000 Ang^3
#
#
#
# Elastic Constant Matrix: (Units=GPa)
#
#
# Indices 1 2 3 4 5 6 
#
# 1 113.8409 35.8604 15.1220 -0.0011 8.1583 0.0000
# 2 35.8604 81.0919 15.2453 -0.0124 -0.9274 -0.0017
# 3 15.1220 15.2453 27.9778 -0.0168 3.2025 -0.0013
# 4 -0.0011 -0.0124 -0.0168 21.2862 0.0028 0.6152
# 5 8.1583 -0.9274 3.2025 0.0028 35.4585 0.0023
# 6 0.0000 -0.0017 -0.0013 0.6152 0.0023 27.5331
#
#
#
# Elastic Compliance Matrix: (Units=1/GPa)
#
#
# Indices 1 2 3 4 5 6 
#
# 1 0.010683 -0.004138 -0.003260 -0.000004 -0.002272 0.000000
# 2 -0.004138 0.015380 -0.006365 0.000003 0.001929 0.000000
# 3 -0.003260 -0.006365 0.041334 0.000029 -0.003150 0.000001
# 4 -0.000004 0.000003 0.000029 0.047009 -0.000005 -0.001050
# 5 -0.002272 0.001929 -0.003150 -0.000005 0.029060 -0.000002
# 6 0.000000 0.000000 0.000001 -0.001050 -0.000002 0.036343
#
#
# Mechanical properties :
#
#
# Convention : Reuss Voigt Hill
#
# Bulk Modulus (GPa) = 25.08022 39.48510 32.28266
# Shear Modulus (GPa) = 22.66292 27.30110 24.98201
#
# Velocity S-wave (km/s) = 3.47796 3.81731 3.65158
# Velocity P-wave (km/s) = 5.43275 6.36428 5.91688
#
# Compressibility (1/GPa) = 0.03987206
#
# Stress axis : x y z
#
# Youngs Moduli (GPa) = 93.60368 65.01907 24.19341
#
# Poissons Ratio (x) = 0.26902 0.07886
# Poissons Ratio (y) = 0.38729 0.15400
# Poissons Ratio (z) = 0.30512 0.41386
#
# Static dielectric constant tensor:
#      x y z
#    x 5.401590 0.000730 -1.264030 
#    y 0.000730 3.953550 -0.000620 
#    z -1.264030 -0.000620 4.272830 
# 
# 
# High freq. dielectric constant tensor:
#      x y z
#    x 1.737980 0.000000 0.009080 
#    y 0.000000 1.725950 0.000000 
#    z 0.009080 0.000000 1.707210 
# 
# From -- ./inp_files/317152.got.cif
#   From: 2010.06.25/outbox.cif.g09.slc.cpg/sg12_159_cif.got.tgz:317152.got - 2010.06.28 00:19:55.
