data_PCOD8086297
_publ_section_title
;
Structure prediction by ZEFSAII (Michael W. Deem and Ramdas Pophale) SiO2 
 PCOD8086297
Probable space group: C 2/M
;
_chemical_formula_sum "Si O2"
_cell_formula_units_Z 52
_cell_length_a 19.598852
_cell_length_b 18.718748
_cell_length_c 10.611456
_cell_angle_alpha 90.000000
_cell_angle_beta 135.629100
_cell_angle_gamma 90.000000
_cell_volume 2722.363858
_symmetry_space_group_name_H-M "C 2/M"
_symmetry_group_IT_number 12
_symmetry_cell_setting 'monoclinic'
loop_
_space_group_symop_operation_xyz
x,y,z
-x,y,-z
-x,-y,-z
x,-y,z
1/2+x,1/2+y,z
1/2-x,1/2+y,-z
1/2-x,1/2-y,-z
1/2+x,1/2-y,z
loop_
_atom_site_type_symbol
_atom_site_label
_atom_site_fract_x
_atom_site_fract_y
_atom_site_fract_z
Si Si1 0.774726 0.721054 0.895583
Si Si2 0.680666 0.219312 0.515722
Si Si3 0.534344 0.577071 0.182715
Si Si4 0.000000 0.850970 0.500000
Si Si5 0.252471 0.919480 0.494299
Si Si6 0.300941 0.419054 0.293872
Si Si7 0.530792 0.716172 0.785055
O O1 0.715899 0.758267 0.702437
O O2 0.754447 0.635954 0.871278
O O3 0.750000 0.750000 0.000000
O O4 0.890840 0.735969 0.036323
O O5 0.750000 0.250000 0.500000
O O6 0.676949 0.133526 0.490271
O O7 0.573180 0.246584 0.344975
O O8 0.530817 0.500000 0.252759
O O9 0.644196 0.604334 0.315350
O O10 0.466591 0.636711 0.154197
O O11 0.500000 0.560880 0.000000
O O12 0.083540 0.898066 0.539568
O O13 0.943498 0.798678 0.327910
O O14 0.256779 0.911839 0.651062
O O15 0.278695 0.000000 0.486916
O O16 0.293643 0.500000 0.231690
#
# Coordination Sequence:
#
# PCOD8086297 Si02
#       7
#     8   8   8   4   8   8   8
#     4  12  24  41  60  89 128 162 206 259 305 372
#     4  12  21  40  61  88 121 162 208 250 308 366
#     4  10  19  31  48  80 116 144 183 244 306 356
#     4  12  19  40  60  92 117 162 200 258 319 368
#     4  10  20  37  58  84 120 158 200 256 310 363
#     4  11  22  39  62  89 124 162 206 260 316 367
#     4  12  23  35  62  87 120 156 208 244 307 370
#
# _framework density 19.101047999999999
#
# number of rings (size 3 to 8) (size 9 to 14) (size 15 to 20)
#    0.000    0.769    7.692    1.154    0.000    0.615 
#    0.000    1.538    0.000    1.846    0.000    3.231 
#    0.000    0.000    0.000    0.000    0.000    0.000 
#
# Total GULP energy -322204.099739 kJ/mol
# GULP energy per Si atom -12392.465375 kJ/mol
# Density = 1.905757 g / cm^3
# Si number density = 19.101048 Si / 1000 Ang^3
#
#
#
# Elastic Constant Matrix: (Units=GPa)
#
#
# Indices 1 2 3 4 5 6 
#
# 1 63.1436 39.5114 24.8489 0.0000 -2.2609 0.0000
# 2 39.5114 153.2413 48.7222 0.0000 5.8332 0.0000
# 3 24.8489 48.7222 99.5278 0.0000 9.1938 0.0000
# 4 0.0000 0.0000 0.0000 32.9845 0.0000 0.3407
# 5 -2.2609 5.8332 9.1938 0.0000 29.9389 0.0000
# 6 0.0000 0.0000 0.0000 0.3407 0.0000 25.5785
#
#
#
# Elastic Compliance Matrix: (Units=1/GPa)
#
#
# Indices 1 2 3 4 5 6 
#
# 1 0.019859 -0.004231 -0.003192 0.000000 0.003304 0.000000
# 2 -0.004231 0.008634 -0.003072 0.000000 -0.001058 0.000000
# 3 -0.003192 -0.003072 0.012675 0.000000 -0.003535 0.000000
# 4 0.000000 0.000000 0.000000 0.030321 0.000000 -0.000404
# 5 0.003304 -0.001058 -0.003535 0.000000 0.034943 0.000000
# 6 0.000000 0.000000 0.000000 -0.000404 0.000000 0.039101
#
#
# Mechanical properties :
#
#
# Convention : Reuss Voigt Hill
#
# Bulk Modulus (GPa) = 49.56289 60.23087 54.89688
# Shear Modulus (GPa) = 28.86015 31.22240 30.04127
#
# Velocity S-wave (km/s) = 3.89127 4.04739 3.97010
# Velocity P-wave (km/s) = 6.79657 7.31048 7.05820
#
# Compressibility (1/GPa) = 0.02017639
#
# Stress axis : x y z
#
# Youngs Moduli (GPa) = 50.35477 115.82440 78.89595
#
# Poissons Ratio (x) = 0.49009 0.25184
# Poissons Ratio (y) = 0.21307 0.24240
# Poissons Ratio (z) = 0.16073 0.35585
#
# Static dielectric constant tensor:
#      x y z
#    x 3.451470 0.000000 -0.026310 
#    y 0.000000 3.899780 0.000000 
#    z -0.026310 0.000000 3.636180 
# 
# 
# High freq. dielectric constant tensor:
#      x y z
#    x 1.727840 0.000000 -0.011290 
#    y 0.000000 1.750740 0.000000 
#    z -0.011290 0.000000 1.736670 
# 
# From -- ./inp_files/168838.got.cif
#   From: 2010.06.25/outbox.cif.g09.slc.cpg/sg12_85_cif.got.tgz:168838.got - 2010.06.28 00:19:55.
