data_PCOD8086978
_publ_section_title
;
Structure prediction by ZEFSAII (Michael W. Deem and Ramdas Pophale) SiO2 
 PCOD8086978
Probable space group: C 2/M
;
_chemical_formula_sum "Si O2"
_cell_formula_units_Z 56
_cell_length_a 17.993552
_cell_length_b 22.315623
_cell_length_c 11.513927
_cell_angle_alpha 90.000000
_cell_angle_beta 141.836753
_cell_angle_gamma 90.000000
_cell_volume 2856.738699
_symmetry_space_group_name_H-M "C 2/M"
_symmetry_group_IT_number 12
_symmetry_cell_setting 'monoclinic'
loop_
_space_group_symop_operation_xyz
x,y,z
-x,y,-z
-x,-y,-z
x,-y,z
1/2+x,1/2+y,z
1/2-x,1/2+y,-z
1/2-x,1/2-y,-z
1/2+x,1/2-y,z
loop_
_atom_site_type_symbol
_atom_site_label
_atom_site_fract_x
_atom_site_fract_y
_atom_site_fract_z
Si Si1 0.180534 0.882831 0.664868
Si Si2 0.403679 0.186746 0.660324
Si Si3 0.789121 0.430602 0.585013
Si Si4 0.569083 0.383115 0.754877
Si Si5 0.630401 0.259184 0.925891
Si Si6 0.038688 0.931430 0.168529
Si Si7 0.728062 0.244339 0.288941
O O1 0.276370 0.922629 0.709817
O O2 0.182559 0.895532 0.807494
O O3 0.200743 0.812745 0.671539
O O4 0.049620 0.900454 0.460292
O O5 0.391884 0.114737 0.665317
O O6 0.543834 0.200925 0.808772
O O7 0.365191 0.224451 0.726459
O O8 0.322100 0.206728 0.451604
O O9 0.820721 0.500000 0.595355
O O10 0.665175 0.406136 0.373696
O O11 0.559273 0.314782 0.784668
O O12 0.570124 0.423668 0.872387
O O13 0.750000 0.250000 0.000000
O O14 0.658305 0.273413 0.094829
O O15 0.063192 0.000000 0.172843
O O16 0.000000 0.899533 0.000000
#
# Coordination Sequence:
#
# PCOD8086978 Si02
#       7
#     8   8   8   8   8   8   8
#     4   9  17  34  53  77 114 144 183 239 281 346
#     4  10  22  37  56  86 118 151 194 237 285 348
#     4   9  19  36  58  82 110 154 199 239 289 340
#     4  10  19  31  52  79 113 146 186 232 291 345
#     4  12  23  34  56  85 118 152 187 233 292 350
#     4   9  19  33  51  80 115 148 194 247 289 340
#     4  10  20  36  56  81 117 152 182 236 292 346
#
# _framework density 19.602772999999999
#
# number of rings (size 3 to 8) (size 9 to 14) (size 15 to 20)
#    0.000    2.143    2.857    0.429    4.000    1.143 
#    0.000    2.857    0.000    7.714    0.000    1.000 
#    0.000    0.000    0.000    0.000    0.000    0.000 
#
# Total GULP energy -346965.930999 kJ/mol
# GULP energy per Si atom -12391.640393 kJ/mol
# Density = 1.955816 g / cm^3
# Si number density = 19.602773 Si / 1000 Ang^3
#
#
#
# Elastic Constant Matrix: (Units=GPa)
#
#
# Indices 1 2 3 4 5 6 
#
# 1 107.3584 35.2852 50.7425 0.0000 -7.3673 0.0000
# 2 35.2852 71.9603 27.7038 0.0000 4.8830 0.0000
# 3 50.7425 27.7038 67.8577 0.0000 -10.2137 0.0000
# 4 0.0000 0.0000 0.0000 15.6012 0.0000 -1.6899
# 5 -7.3673 4.8830 -10.2137 0.0000 33.5435 0.0000
# 6 0.0000 0.0000 0.0000 -1.6899 0.0000 25.0861
#
#
#
# Elastic Compliance Matrix: (Units=1/GPa)
#
#
# Indices 1 2 3 4 5 6 
#
# 1 0.015198 -0.003792 -0.009675 0.000000 0.000944 0.000000
# 2 -0.003792 0.018161 -0.005347 0.000000 -0.005105 0.000000
# 3 -0.009675 -0.005347 0.025102 0.000000 0.006297 0.000000
# 4 0.000000 0.000000 0.000000 0.064569 0.000000 0.004349
# 5 0.000944 -0.005105 0.006297 0.000000 0.032680 0.000000
# 6 0.000000 0.000000 0.000000 0.004349 0.000000 0.040156
#
#
# Mechanical properties :
#
#
# Convention : Reuss Voigt Hill
#
# Bulk Modulus (GPa) = 47.99952 52.73774 50.36863
# Shear Modulus (GPa) = 20.79532 23.74248 22.26890
#
# Velocity S-wave (km/s) = 3.26058 3.48398 3.37413
# Velocity P-wave (km/s) = 6.22209 6.56854 6.39766
#
# Compressibility (1/GPa) = 0.02083354
#
# Stress axis : x y z
#
# Youngs Moduli (GPa) = 65.79627 55.06334 39.83692
#
# Poissons Ratio (x) = 0.20879 0.38542
# Poissons Ratio (y) = 0.24949 0.21302
# Poissons Ratio (z) = 0.63657 0.29444
#
# Static dielectric constant tensor:
#      x y z
#    x 3.993270 0.000000 -0.466700 
#    y 0.000000 3.348590 0.000000 
#    z -0.466700 0.000000 3.660410 
# 
# 
# High freq. dielectric constant tensor:
#      x y z
#    x 1.763760 0.000000 -0.022240 
#    y 0.000000 1.742150 0.000000 
#    z -0.022240 0.000000 1.742050 
# 
# From -- ./inp_files/160354.got.cif
#   From: 2010.06.25/outbox.cif.g09.slc.cpg/sg12_81_cif.got.tgz:160354.got - 2010.06.28 00:19:55.
