data_PCOD8086556
_publ_section_title
;
Structure prediction by ZEFSAII (Michael W. Deem and Ramdas Pophale) SiO2 
 PCOD8086556
Probable space group: C 2/M
;
_chemical_formula_sum "Si O2"
_cell_formula_units_Z 56
_cell_length_a 19.273526
_cell_length_b 28.699155
_cell_length_c 8.872671
_cell_angle_alpha 90.000000
_cell_angle_beta 37.907585
_cell_angle_gamma 90.000000
_cell_volume 3015.286320
_symmetry_space_group_name_H-M "C 2/M"
_symmetry_group_IT_number 12
_symmetry_cell_setting 'monoclinic'
loop_
_space_group_symop_operation_xyz
x,y,z
-x,y,-z
-x,-y,-z
x,-y,z
1/2+x,1/2+y,z
1/2-x,1/2+y,-z
1/2-x,1/2-y,-z
1/2+x,1/2-y,z
loop_
_atom_site_type_symbol
_atom_site_label
_atom_site_fract_x
_atom_site_fract_y
_atom_site_fract_z
Si Si1 0.892662 0.551764 0.387587
Si Si2 0.155413 0.550672 0.862529
Si Si3 0.072436 0.353297 0.563778
Si Si4 0.841576 0.687803 0.301433
Si Si5 0.242475 0.202100 0.921986
Si Si6 0.179263 0.640393 0.976302
Si Si7 0.879031 0.792751 0.167400
O O1 0.863364 0.500000 0.505576
O O2 0.822609 0.559626 0.352784
O O3 0.868432 0.594665 0.545567
O O4 0.023554 0.553628 0.121866
O O5 0.203376 0.500000 0.825514
O O6 0.217680 0.589005 0.859036
O O7 0.067196 0.340004 0.752621
O O8 0.142023 0.311643 0.364717
O O9 0.942832 0.357757 0.726217
O O10 0.876126 0.741570 0.244186
O O11 0.719235 0.677717 0.585444
O O12 0.835776 0.672688 0.140761
O O13 0.225535 0.160961 0.074744
O O14 0.138891 0.205924 0.983345
O O15 0.250000 0.250000 0.000000
O O16 0.000000 0.815413 0.000000
#
# Coordination Sequence:
#
# PCOD8086556 Si02
#       7
#     8   8   8   8   8   8   8
#     4   8  13  24  44  73 101 133 174 203 230 293
#     4   8  14  24  44  72 104 136 165 198 243 298
#     4  10  19  31  50  73 104 145 168 204 250 301
#     4  10  19  31  53  75  94 131 181 203 242 307
#     4  11  23  35  45  71 102 131 176 213 251 301
#     4  11  18  32  49  75 108 136 167 208 251 300
#     4  10  21  38  52  68  95 133 171 220 255 290
#
# _framework density 18.572033999999999
#
# number of rings (size 3 to 8) (size 9 to 14) (size 15 to 20)
#    0.000    2.286    2.857    2.571    0.000    0.000 
#    2.571    1.429    0.000    3.429    0.000    0.000 
#    0.000   21.714    0.000    0.000    0.000    0.000 
#
# Total GULP energy -346889.723354 kJ/mol
# GULP energy per Si atom -12388.918691 kJ/mol
# Density = 1.852976 g / cm^3
# Si number density = 18.572034 Si / 1000 Ang^3
#
#
#
# Elastic Constant Matrix: (Units=GPa)
#
#
# Indices 1 2 3 4 5 6 
#
# 1 96.2131 36.5555 16.4033 0.0000 -7.8323 0.0000
# 2 36.5555 113.8757 14.0797 0.0000 3.5753 0.0000
# 3 16.4033 14.0797 40.4974 0.0000 0.0488 0.0000
# 4 0.0000 0.0000 0.0000 18.8376 0.0000 6.4891
# 5 -7.8323 3.5753 0.0488 0.0000 18.2884 0.0000
# 6 0.0000 0.0000 0.0000 6.4891 0.0000 25.7192
#
#
#
# Elastic Compliance Matrix: (Units=1/GPa)
#
#
# Indices 1 2 3 4 5 6 
#
# 1 0.013069 -0.003908 -0.003943 0.000000 0.006372 0.000000
# 2 -0.003908 0.010403 -0.002029 0.000000 -0.003702 0.000000
# 3 -0.003943 -0.002029 0.026997 0.000000 -0.001364 0.000000
# 4 0.000000 0.000000 0.000000 0.058138 0.000000 -0.014669
# 5 0.006372 -0.003702 -0.001364 0.000000 0.058136 0.000000
# 6 0.000000 0.000000 0.000000 -0.014669 0.000000 0.042583
#
#
# Mechanical properties :
#
#
# Convention : Reuss Voigt Hill
#
# Bulk Modulus (GPa) = 32.56336 42.74036 37.65186
# Shear Modulus (GPa) = 20.89228 24.80554 22.84891
#
# Velocity S-wave (km/s) = 3.35764 3.65860 3.51135
# Velocity P-wave (km/s) = 5.70993 6.39613 6.06274
#
# Compressibility (1/GPa) = 0.03070936
#
# Stress axis : x y z
#
# Youngs Moduli (GPa) = 76.51529 96.12455 37.04094
#
# Poissons Ratio (x) = 0.37565 0.14604
# Poissons Ratio (y) = 0.29902 0.07517
# Poissons Ratio (z) = 0.30167 0.19508
#
# Static dielectric constant tensor:
#      x y z
#    x 3.547320 0.000000 0.214280 
#    y 0.000000 3.843540 0.000000 
#    z 0.214280 0.000000 3.140360 
# 
# 
# High freq. dielectric constant tensor:
#      x y z
#    x 1.712880 0.000000 0.035700 
#    y 0.000000 1.722810 0.000000 
#    z 0.035700 0.000000 1.667370 
# 
# From -- ./inp_files/80405.got.cif
#   From: 2010.06.25/outbox.cif.g09.slc.cpg/sg12_41_cif.got.tgz:80405.got - 2010.06.28 00:19:55.
