data_PCOD8086184
_publ_section_title
;
Structure prediction by ZEFSAII (Michael W. Deem and Ramdas Pophale) SiO2 
 PCOD8086184
Probable space group: C 2/M
;
_chemical_formula_sum "Si O2"
_cell_formula_units_Z 48
_cell_length_a 20.193872
_cell_length_b 8.646634
_cell_length_c 16.039224
_cell_angle_alpha 90.000000
_cell_angle_beta 71.586904
_cell_angle_gamma 90.000000
_cell_volume 2657.213569
_symmetry_space_group_name_H-M "C 2/M"
_symmetry_group_IT_number 12
_symmetry_cell_setting 'monoclinic'
loop_
_space_group_symop_operation_xyz
x,y,z
-x,y,-z
-x,-y,-z
x,-y,z
1/2+x,1/2+y,z
1/2-x,1/2+y,-z
1/2-x,1/2-y,-z
1/2+x,1/2-y,z
loop_
_atom_site_type_symbol
_atom_site_label
_atom_site_fract_x
_atom_site_fract_y
_atom_site_fract_z
Si Si1 0.598108 0.683756 0.401548
Si Si2 0.377233 0.683328 0.265666
Si Si3 0.549747 0.316187 0.597616
Si Si4 0.237166 0.183439 0.258676
Si Si5 0.069331 0.182434 0.931867
Si Si6 0.781561 0.816663 0.070952
O O1 0.598838 0.500000 0.400505
O O2 0.530179 0.743017 0.377544
O O3 0.593108 0.741219 0.499516
O O4 0.667928 0.748837 0.331464
O O5 0.365171 0.500000 0.273799
O O6 0.414867 0.750334 0.332880
O O7 0.302396 0.763638 0.288078
O O8 0.425419 0.728531 0.167460
O O9 0.550081 0.500000 0.601858
O O10 0.237601 0.255099 0.166494
O O11 0.236280 0.000000 0.251396
O O12 0.138352 0.241510 0.952602
O O13 0.064890 0.000000 0.943227
O O14 0.000000 0.259136 0.000000
O O15 0.777398 0.000000 0.071973
O O16 0.750000 0.750000 0.000000
#
# Coordination Sequence:
#
# PCOD8086184 Si02
#       6
#     8   8   8   8   8   8
#     4   8  15  27  45  70  95 122 160 204 240 273
#     4   9  17  29  47  69  93 123 156 195 242 284
#     4   8  14  27  46  68  94 122 161 208 242 271
#     4  10  19  31  48  70  97 126 156 192 236 286
#     4   8  15  28  46  68  91 117 155 196 228 268
#     4  10  20  34  52  73  97 124 155 193 236 280
#
# _framework density 18.064035000000001
#
# number of rings (size 3 to 8) (size 9 to 14) (size 15 to 20)
#    0.000    3.167    0.000    3.000    0.000    2.000 
#    0.000    5.000    0.000   19.500    0.000    5.833 
#    0.000    0.000    0.000    0.000    0.000    0.000 
#
# Total GULP energy -297479.790744 kJ/mol
# GULP energy per Si atom -12394.991281 kJ/mol
# Density = 1.802292 g / cm^3
# Si number density = 18.064035 Si / 1000 Ang^3
#
#
#
# Elastic Constant Matrix: (Units=GPa)
#
#
# Indices 1 2 3 4 5 6 
#
# 1 138.1128 21.5484 123.4592 0.0000 0.8583 0.0000
# 2 21.5484 33.0299 24.3723 0.0000 -0.1956 0.0000
# 3 123.4592 24.3723 166.0782 0.0000 1.3664 0.0000
# 4 0.0000 0.0000 0.0000 18.7028 0.0000 0.7528
# 5 0.8583 -0.1956 1.3664 0.0000 48.0472 0.0000
# 6 0.0000 0.0000 0.0000 0.7528 0.0000 23.2123
#
#
#
# Elastic Compliance Matrix: (Units=1/GPa)
#
#
# Indices 1 2 3 4 5 6 
#
# 1 0.021769 -0.002535 -0.015811 0.000000 0.000050 0.000000
# 2 -0.002535 0.034251 -0.003144 0.000000 0.000274 0.000000
# 3 -0.015811 -0.003144 0.018239 0.000000 -0.000249 0.000000
# 4 0.000000 0.000000 0.000000 0.053538 0.000000 -0.001736
# 5 0.000050 0.000274 -0.000249 0.000000 0.020820 0.000000
# 6 0.000000 0.000000 0.000000 -0.001736 0.000000 0.043137
#
#
# Mechanical properties :
#
#
# Convention : Reuss Voigt Hill
#
# Bulk Modulus (GPa) = 31.97132 75.10896 53.54014
# Shear Modulus (GPa) = 20.39475 29.18186 24.78831
#
# Velocity S-wave (km/s) = 3.36374 4.02365 3.70840
# Velocity P-wave (km/s) = 5.72919 7.95336 6.93107
#
# Compressibility (1/GPa) = 0.03127803
#
# Stress axis : x y z
#
# Youngs Moduli (GPa) = 45.93593 29.19614 54.82875
#
# Poissons Ratio (x) = 0.07401 0.86692
# Poissons Ratio (y) = 0.11644 0.17240
# Poissons Ratio (z) = 0.72631 0.09180
#
# Static dielectric constant tensor:
#      x y z
#    x 3.618910 0.000000 -0.093770 
#    y 0.000000 2.901040 0.000000 
#    z -0.093770 0.000000 3.625040 
# 
# 
# High freq. dielectric constant tensor:
#      x y z
#    x 1.704810 0.000000 0.000090 
#    y 0.000000 1.655790 0.000000 
#    z 0.000090 0.000000 1.707040 
# 
# From -- ./inp_files/229864.got.cif
#   From: 2010.06.25/outbox.cif.g09.slc.cpg/sg12_115_cif.got.tgz:229864.got - 2010.06.28 00:19:55.
