data_PCOD8086473
_publ_section_title
;
Structure prediction by ZEFSAII (Michael W. Deem and Ramdas Pophale) SiO2 
 PCOD8086473
Probable space group: C 2/M
;
_chemical_formula_sum "Si O2"
_cell_formula_units_Z 56
_cell_length_a 28.130256
_cell_length_b 13.509864
_cell_length_c 13.459129
_cell_angle_alpha 90.000000
_cell_angle_beta 39.713241
_cell_angle_gamma 90.000000
_cell_volume 3268.176527
_symmetry_space_group_name_H-M "C 2/M"
_symmetry_group_IT_number 12
_symmetry_cell_setting 'monoclinic'
loop_
_space_group_symop_operation_xyz
x,y,z
-x,y,-z
-x,-y,-z
x,-y,z
1/2+x,1/2+y,z
1/2-x,1/2+y,-z
1/2-x,1/2-y,-z
1/2+x,1/2-y,z
loop_
_atom_site_type_symbol
_atom_site_label
_atom_site_fract_x
_atom_site_fract_y
_atom_site_fract_z
Si Si1 0.682852 0.883567 0.762856
Si Si2 0.051009 0.615764 0.113093
Si Si3 0.613471 0.114783 0.663458
Si Si4 0.684320 0.231899 0.178670
Si Si5 0.917888 0.886108 0.589868
Si Si6 0.327424 0.269368 0.590057
Si Si7 0.446121 0.114910 0.671007
O O1 0.654429 0.858479 0.698893
O O2 0.763771 0.835453 0.642380
O O3 0.691992 0.000000 0.764050
O O4 0.621775 0.839747 0.939253
O O5 0.066360 0.500000 0.098814
O O6 0.041878 0.661847 0.238671
O O7 0.974173 0.636203 0.178533
O O8 0.646048 0.183224 0.524931
O O9 0.625564 0.000000 0.613395
O O10 0.710191 0.219672 0.251520
O O11 0.639007 0.133427 0.222434
O O12 0.750000 0.250000 0.000000
O O13 0.867030 0.170255 0.752229
O O14 0.898931 0.835632 0.512041
O O15 0.000000 0.873143 0.500000
O O16 0.894690 0.000000 0.620080
O O17 0.500000 0.164645 0.500000
O O18 0.464484 0.000000 0.645492
#
# Coordination Sequence:
#
# PCOD8086473 Si02
#       7
#     8   8   8   8   8   8   8
#     4  10  19  34  53  75 103 132 171 216 255 300
#     4   9  18  31  51  76 104 135 166 204 254 306
#     4  10  20  33  52  78 104 132 167 211 260 306
#     4  10  21  32  49  76 103 134 166 207 249 299
#     4   9  20  37  54  72  99 135 176 212 241 291
#     4  10  21  33  52  75 102 136 170 207 256 301
#     4  10  19  31  49  74 106 139 165 195 246 309
#
# _framework density 17.134936
#
# number of rings (size 3 to 8) (size 9 to 14) (size 15 to 20)
#    0.857    1.429    0.000    3.429    2.000    4.000 
#    0.000    0.000    0.000    0.429    0.000    0.000 
#    0.000    5.714    0.000    0.000    0.000    0.000 
#
# Total GULP energy -346879.870587 kJ/mol
# GULP energy per Si atom -12388.566807 kJ/mol
# Density = 1.709594 g / cm^3
# Si number density = 17.134936 Si / 1000 Ang^3
#
#
#
# Elastic Constant Matrix: (Units=GPa)
#
#
# Indices 1 2 3 4 5 6 
#
# 1 115.4097 35.0594 39.2597 0.0000 -1.1631 0.0000
# 2 35.0594 48.9782 37.0387 0.0000 3.7778 0.0000
# 3 39.2597 37.0387 113.5966 0.0000 1.5835 0.0000
# 4 0.0000 0.0000 0.0000 17.1214 0.0000 -2.8480
# 5 -1.1631 3.7778 1.5835 0.0000 25.7301 0.0000
# 6 0.0000 0.0000 0.0000 -2.8480 0.0000 29.6519
#
#
#
# Elastic Compliance Matrix: (Units=1/GPa)
#
#
# Indices 1 2 3 4 5 6 
#
# 1 0.011379 -0.007009 -0.001670 0.000000 0.001646 0.000000
# 2 -0.007009 0.031724 -0.007859 0.000000 -0.004491 0.000000
# 3 -0.001670 -0.007859 0.011938 0.000000 0.000344 0.000000
# 4 0.000000 0.000000 0.000000 0.059355 0.000000 0.005701
# 5 0.001646 -0.004491 0.000344 0.000000 0.039578 0.000000
# 6 0.000000 0.000000 0.000000 0.005701 0.000000 0.034272
#
#
# Mechanical properties :
#
#
# Convention : Reuss Voigt Hill
#
# Bulk Modulus (GPa) = 45.52786 55.63336 50.58061
# Shear Modulus (GPa) = 21.86818 25.60911 23.73865
#
# Velocity S-wave (km/s) = 3.57632 3.87014 3.72613
# Velocity P-wave (km/s) = 6.60918 7.24631 6.93506
#
# Compressibility (1/GPa) = 0.02196457
#
# Stress axis : x y z
#
# Youngs Moduli (GPa) = 87.88300 31.52199 83.76682
#
# Poissons Ratio (x) = 0.22094 0.13991
# Poissons Ratio (y) = 0.61598 0.65830
# Poissons Ratio (z) = 0.14678 0.24772
#
# Static dielectric constant tensor:
#      x y z
#    x 3.288710 0.000000 0.107150 
#    y 0.000000 3.017120 0.000000 
#    z 0.107150 0.000000 3.161130 
# 
# 
# High freq. dielectric constant tensor:
#      x y z
#    x 1.674130 0.000000 0.000490 
#    y 0.000000 1.635340 0.000000 
#    z 0.000490 0.000000 1.654050 
# 
# From -- ./inp_files/183461.got.cif
#   From: 2010.06.25/outbox.cif.g09.slc.cpg/sg12_92_cif.got.tgz:183461.got - 2010.06.28 00:19:55.
