data_PCOD8086436
_publ_section_title
;
Structure prediction by ZEFSAII (Michael W. Deem and Ramdas Pophale) SiO2 
 PCOD8086436
Probable space group: C 2/M
;
_chemical_formula_sum "Si O2"
_cell_formula_units_Z 40
_cell_length_a 20.476837
_cell_length_b 8.605744
_cell_length_c 16.771009
_cell_angle_alpha 90.000000
_cell_angle_beta 55.228384
_cell_angle_gamma 90.000000
_cell_volume 2427.627335
_symmetry_space_group_name_H-M "C 2/M"
_symmetry_group_IT_number 12
_symmetry_cell_setting 'monoclinic'
loop_
_space_group_symop_operation_xyz
x,y,z
-x,y,-z
-x,-y,-z
x,-y,z
1/2+x,1/2+y,z
1/2-x,1/2+y,-z
1/2-x,1/2-y,-z
1/2+x,1/2-y,z
loop_
_atom_site_type_symbol
_atom_site_label
_atom_site_fract_x
_atom_site_fract_y
_atom_site_fract_z
Si Si1 0.720442 0.180017 0.238989
Si Si2 0.532666 0.683569 0.093364
Si Si3 0.070850 0.176384 0.398427
Si Si4 0.890335 0.176020 0.798629
Si Si5 0.386879 0.818455 0.112762
O O1 0.653273 0.227259 0.351535
O O2 0.687664 0.224468 0.172952
O O3 0.799224 0.276865 0.203818
O O4 0.740550 0.000000 0.229982
O O5 0.517549 0.500000 0.106336
O O6 0.567872 0.746267 0.152477
O O7 0.449256 0.770006 0.137604
O O8 0.594765 0.723673 0.980574
O O9 0.048227 0.179411 0.319582
O O10 0.000000 0.252496 0.500000
O O11 0.085633 0.000000 0.417442
O O12 0.862099 0.000000 0.835585
O O13 0.394764 0.000000 0.089651
#
# Coordination Sequence:
#
# PCOD8086436 Si02
#       5
#     8   8   8   8   8
#     4  10  19  31  49  73  98 125 162 200 236 276
#     4  10  19  33  51  70  97 128 163 197 236 283
#     4   8  15  31  52  73  97 124 154 191 242 290
#     4   8  17  32  49  73  97 125 157 194 240 285
#     4  11  21  33  48  68  98 131 166 195 236 286
#
# _framework density 16.476994000000001
#
# number of rings (size 3 to 8) (size 9 to 14) (size 15 to 20)
#    1.200    1.400    0.000    4.800    0.000    2.800 
#    0.000    0.000    0.000    1.200    0.000    0.000 
#    0.000    0.000    0.000    0.000    0.000    0.000 
#
# Total GULP energy -247809.028468 kJ/mol
# GULP energy per Si atom -12390.451423 kJ/mol
# Density = 1.643949 g / cm^3
# Si number density = 16.476994 Si / 1000 Ang^3
#
#
#
# Elastic Constant Matrix: (Units=GPa)
#
#
# Indices 1 2 3 4 5 6 
#
# 1 66.3293 22.5946 27.6720 -0.0001 -21.7410 0.0004
# 2 22.5946 62.2137 9.7461 0.0001 -5.2947 0.0002
# 3 27.6720 9.7461 52.5090 0.0000 -23.2281 0.0002
# 4 -0.0001 0.0001 0.0000 20.7170 0.0000 -4.4572
# 5 -21.7410 -5.2947 -23.2281 0.0000 22.8084 0.0001
# 6 0.0004 0.0002 0.0002 -4.4572 0.0001 26.1194
#
#
#
# Elastic Compliance Matrix: (Units=1/GPa)
#
#
# Indices 1 2 3 4 5 6 
#
# 1 0.025053 -0.006941 -0.003755 0.000000 0.018445 0.000000
# 2 -0.006941 0.018499 -0.001461 0.000000 -0.003809 0.000000
# 3 -0.003755 -0.001461 0.035598 0.000000 0.032335 0.000000
# 4 0.000000 0.000000 0.000000 0.050109 0.000000 0.008551
# 5 0.018445 -0.003809 0.032335 0.000000 0.093471 -0.000001
# 6 0.000000 0.000000 0.000000 0.008551 -0.000001 0.039745
#
#
# Mechanical properties :
#
#
# Convention : Reuss Voigt Hill
#
# Bulk Modulus (GPa) = 18.23596 33.45302 25.84449
# Shear Modulus (GPa) = 16.38980 21.99825 19.19403
#
# Velocity S-wave (km/s) = 3.15732 3.65785 3.41676
# Velocity P-wave (km/s) = 4.93793 6.17954 5.59329
#
# Compressibility (1/GPa) = 0.05483671
#
# Stress axis : x y z
#
# Youngs Moduli (GPa) = 39.91534 54.05698 28.09138
#
# Poissons Ratio (x) = 0.37519 0.10548
# Poissons Ratio (y) = 0.27704 0.04104
# Poissons Ratio (z) = 0.14988 0.07898
#
# Static dielectric constant tensor:
#      x y z
#    x 3.024280 0.000000 -0.018060 
#    y 0.000000 3.016220 0.000000 
#    z -0.018060 0.000000 2.964360 
# 
# 
# High freq. dielectric constant tensor:
#      x y z
#    x 1.618640 0.000000 -0.010370 
#    y 0.000000 1.638930 0.000000 
#    z -0.010370 0.000000 1.609790 
# 
# From -- ./inp_files/273534.got.cif
#   From: 2010.06.25/outbox.cif.g09.slc.cpg/sg12_137_cif.got.tgz:273534.got - 2010.06.28 00:19:55.
