data_PCOD8086437
_publ_section_title
;
Structure prediction by ZEFSAII (Michael W. Deem and Ramdas Pophale) SiO2 
 PCOD8086437
Probable space group: C 2/M
;
_chemical_formula_sum "Si O2"
_cell_formula_units_Z 56
_cell_length_a 18.842255
_cell_length_b 9.673209
_cell_length_c 25.652374
_cell_angle_alpha 90.000000
_cell_angle_beta 43.580373
_cell_angle_gamma 90.000000
_cell_volume 3223.178034
_symmetry_space_group_name_H-M "C 2/M"
_symmetry_group_IT_number 12
_symmetry_cell_setting 'monoclinic'
loop_
_space_group_symop_operation_xyz
x,y,z
-x,y,-z
-x,-y,-z
x,-y,z
1/2+x,1/2+y,z
1/2-x,1/2+y,-z
1/2-x,1/2-y,-z
1/2+x,1/2-y,z
loop_
_atom_site_type_symbol
_atom_site_label
_atom_site_fract_x
_atom_site_fract_y
_atom_site_fract_z
Si Si1 0.853377 0.663492 0.934628
Si Si2 0.412344 0.156802 0.691033
Si Si3 0.979681 0.659548 0.765457
Si Si4 0.811316 0.343067 0.296633
Si Si5 0.477076 0.850397 0.071586
Si Si6 0.421057 0.660749 0.586061
Si Si7 0.325735 0.345844 0.193289
O O1 0.827532 0.500000 0.945011
O O2 0.912509 0.716484 0.850244
O O3 0.925957 0.696713 0.945292
O O4 0.750000 0.750000 0.000000
O O5 0.452575 0.225700 0.723570
O O6 0.445104 0.251779 0.625036
O O7 0.290899 0.154224 0.762025
O O8 0.453968 0.000000 0.659567
O O9 0.950736 0.500000 0.776756
O O10 0.103478 0.680597 0.704110
O O11 0.817932 0.500000 0.272127
O O12 0.693642 0.310960 0.376074
O O13 0.846678 0.238381 0.234133
O O14 0.390577 0.732622 0.115293
O O15 0.438477 0.000000 0.114445
O O16 0.500000 0.873130 0.000000
O O17 0.500000 0.710290 0.500000
O O18 0.436726 0.500000 0.591643
O O19 0.367765 0.500000 0.178975
#
# Coordination Sequence:
#
# PCOD8086437 Si02
#       7
#     8   8   8   8   8   8   8
#     4  10  21  36  52  72 100 134 171 213 257 302
#     4   9  19  33  51  76 102 131 168 206 249 301
#     4   9  17  33  54  72  97 134 174 207 245 304
#     4   9  16  32  56  73  95 134 170 201 243 298
#     4  10  21  36  52  70  96 131 173 212 250 305
#     4   9  18  33  54  80 106 132 165 205 248 297
#     4  10  19  31  49  73  98 125 163 212 255 293
#
# _framework density 17.374155999999999
#
# number of rings (size 3 to 8) (size 9 to 14) (size 15 to 20)
#    0.000    2.571    1.429    0.429    2.000    1.714 
#    0.000    2.143    0.000    0.000    0.000    0.000 
#    0.000    0.000    0.000    0.000    0.000    0.000 
#
# Total GULP energy -346929.133917 kJ/mol
# GULP energy per Si atom -12390.326211 kJ/mol
# Density = 1.733461 g / cm^3
# Si number density = 17.374156 Si / 1000 Ang^3
#
#
#
# Elastic Constant Matrix: (Units=GPa)
#
#
# Indices 1 2 3 4 5 6 
#
# 1 106.6970 37.1932 59.6974 0.0000 19.4801 0.0000
# 2 37.1932 79.9772 46.2878 0.0000 1.5963 0.0000
# 3 59.6974 46.2878 115.2014 0.0000 3.9237 0.0000
# 4 0.0000 0.0000 0.0000 26.2216 0.0000 -2.1988
# 5 19.4801 1.5963 3.9237 0.0000 21.3908 0.0000
# 6 0.0000 0.0000 0.0000 -2.1988 0.0000 18.7498
#
#
#
# Elastic Compliance Matrix: (Units=1/GPa)
#
#
# Indices 1 2 3 4 5 6 
#
# 1 0.017063 -0.003667 -0.006892 0.000000 -0.014001 0.000000
# 2 -0.003667 0.017080 -0.005065 0.000000 0.002994 0.000000
# 3 -0.006892 -0.005065 0.014148 0.000000 0.004059 0.000000
# 4 0.000000 0.000000 0.000000 0.038515 0.000000 0.004517
# 5 -0.014001 0.002994 0.004059 0.000000 0.058531 0.000000
# 6 0.000000 0.000000 0.000000 0.004517 0.000000 0.053864
#
#
# Mechanical properties :
#
#
# Convention : Reuss Voigt Hill
#
# Bulk Modulus (GPa) = 58.66808 65.35916 62.01362
# Shear Modulus (GPa) = 21.17480 23.85226 22.51353
#
# Velocity S-wave (km/s) = 3.49485 3.70923 3.60364
# Velocity P-wave (km/s) = 7.07998 7.48631 7.28597
#
# Compressibility (1/GPa) = 0.01704504
#
# Stress axis : x y z
#
# Youngs Moduli (GPa) = 58.60752 58.54702 70.67916
#
# Poissons Ratio (x) = 0.21468 0.48710
# Poissons Ratio (y) = 0.21491 0.35796
# Poissons Ratio (z) = 0.40390 0.29652
#
# Static dielectric constant tensor:
#      x y z
#    x 3.279080 0.000000 -0.025110 
#    y 0.000000 3.467770 0.000000 
#    z -0.025110 0.000000 3.267410 
# 
# 
# High freq. dielectric constant tensor:
#      x y z
#    x 1.672680 0.000000 -0.002990 
#    y 0.000000 1.661090 0.000000 
#    z -0.002990 0.000000 1.657960 
# 
# From -- ./inp_files/342287.got.cif
#   From: 2010.06.25/outbox.cif.g09.slc.cpg/sg12_172_cif.got.tgz:342287.got - 2010.06.28 00:19:55.
