data_PCOD8086097
_publ_section_title
;
Structure prediction by ZEFSAII (Michael W. Deem and Ramdas Pophale) SiO2 
 PCOD8086097
Probable space group: C 2/M
;
_chemical_formula_sum "Si O2"
_cell_formula_units_Z 64
_cell_length_a 25.379612
_cell_length_b 8.652551
_cell_length_c 16.929779
_cell_angle_alpha 90.000000
_cell_angle_beta 89.960941
_cell_angle_gamma 90.000000
_cell_volume 3717.751300
_symmetry_space_group_name_H-M "C 2/M"
_symmetry_group_IT_number 12
_symmetry_cell_setting 'monoclinic'
loop_
_space_group_symop_operation_xyz
x,y,z
-x,y,-z
-x,-y,-z
x,-y,z
1/2+x,1/2+y,z
1/2-x,1/2+y,-z
1/2-x,1/2-y,-z
1/2+x,1/2-y,z
loop_
_atom_site_type_symbol
_atom_site_label
_atom_site_fract_x
_atom_site_fract_y
_atom_site_fract_z
Si Si1 0.401438 0.818533 0.686355
Si Si2 0.937494 0.326300 0.003791
Si Si3 0.698414 0.320086 0.590977
Si Si4 0.499255 0.183644 0.411636
Si Si5 0.440585 0.319227 0.164695
Si Si6 0.103013 0.318156 0.682029
Si Si7 0.561839 0.681226 0.157357
Si Si8 0.190562 0.821045 0.410651
O O1 0.449921 0.752423 0.634624
O O2 0.401624 0.735609 0.770934
O O3 0.347447 0.782634 0.642184
O O4 0.407057 0.000000 0.700141
O O5 0.916342 0.500000 0.014677
O O6 0.918688 0.223382 0.077905
O O7 0.915065 0.257563 0.922288
O O8 0.000000 0.321409 0.000000
O O9 0.712229 0.500000 0.599253
O O10 0.653714 0.273145 0.652319
O O11 0.749855 0.221259 0.611852
O O12 0.679321 0.281495 0.502257
O O13 0.500000 0.252568 0.500000
O O14 0.446797 0.241772 0.368287
O O15 0.501089 0.000000 0.414077
O O16 0.433254 0.500000 0.180210
O O17 0.406362 0.222556 0.226828
O O18 0.501519 0.267484 0.173368
O O19 0.112016 0.500000 0.671610
O O20 0.565361 0.500000 0.145821
O O21 0.180428 0.000000 0.392056
#
# Coordination Sequence:
#
# PCOD8086097 Si02
#       8
#     8   8   8   8   8   8   8   8
#     4  11  20  32  51  74 103 136 172 211 254 303
#     4   9  17  29  47  69  96 131 172 209 249 300
#     4  10  21  37  55  75  99 130 171 218 264 307
#     4   9  18  30  45  68  99 134 169 203 246 301
#     4  10  19  31  47  70 103 137 170 208 253 302
#     4  11  20  32  51  74 103 136 172 211 254 303
#     4  10  19  31  47  70 103 137 170 208 253 302
#     4  10  21  37  55  75  99 130 171 218 264 307
#
# _framework density 17.214706
#
# number of rings (size 3 to 8) (size 9 to 14) (size 15 to 20)
#    0.000    2.000    1.250    3.375    0.000    5.000 
#    0.000    0.000    0.000    3.000    0.000    0.875 
#    0.000    0.000    0.000    0.000    0.000    0.000 
#
# Total GULP energy -396921.934206 kJ/mol
# GULP energy per Si atom -12403.810444 kJ/mol
# Density = 1.717553 g / cm^3
# Si number density = 17.214706 Si / 1000 Ang^3
#
#
#
# Elastic Constant Matrix: (Units=GPa)
#
#
# Indices 1 2 3 4 5 6 
#
# 1 58.3021 8.9666 33.7600 0.0000 -3.2388 0.0000
# 2 8.9666 45.1889 16.9014 0.0000 -0.1746 0.0000
# 3 33.7600 16.9014 114.3934 0.0000 -1.0523 0.0000
# 4 0.0000 0.0000 0.0000 29.6507 0.0000 -0.1251
# 5 -3.2388 -0.1746 -1.0523 0.0000 16.6373 0.0000
# 6 0.0000 0.0000 0.0000 -0.1251 0.0000 23.5520
#
#
#
# Elastic Compliance Matrix: (Units=1/GPa)
#
#
# Indices 1 2 3 4 5 6 
#
# 1 0.021073 -0.001962 -0.005895 0.000000 0.003709 0.000000
# 2 -0.001962 0.023606 -0.002912 0.000000 -0.000318 0.000000
# 3 -0.005895 -0.002912 0.010907 0.000000 -0.000488 0.000000
# 4 0.000000 0.000000 0.000000 0.033727 0.000000 0.000179
# 5 0.003709 -0.000318 -0.000488 0.000000 0.060794 0.000000
# 6 0.000000 0.000000 0.000000 0.000179 0.000000 0.042460
#
#
# Mechanical properties :
#
#
# Convention : Reuss Voigt Hill
#
# Bulk Modulus (GPa) = 29.36942 37.46003 33.41472
# Shear Modulus (GPa) = 22.17728 24.51842 23.34785
#
# Velocity S-wave (km/s) = 3.59315 3.77805 3.68676
# Velocity P-wave (km/s) = 5.85764 6.39056 6.12989
#
# Compressibility (1/GPa) = 0.03404902
#
# Stress axis : x y z
#
# Youngs Moduli (GPa) = 47.45297 42.36126 91.68208
#
# Poissons Ratio (x) = 0.08312 0.54048
# Poissons Ratio (y) = 0.09312 0.26694
# Poissons Ratio (z) = 0.27974 0.12334
#
# Static dielectric constant tensor:
#      x y z
#    x 2.903740 0.000000 -0.010800 
#    y 0.000000 3.146130 0.000000 
#    z -0.010800 0.000000 3.321380 
# 
# 
# High freq. dielectric constant tensor:
#      x y z
#    x 1.625440 0.000000 -0.000540 
#    y 0.000000 1.669910 0.000000 
#    z -0.000540 0.000000 1.670600 
# 
# From -- ./inp_files/281265.got.cif
#   From: 2010.06.25/outbox.cif.g09.slc.cpg/sg12_141_cif.got.tgz:281265.got - 2010.06.28 00:19:55.
