data_PCOD8086066
_publ_section_title
;
Structure prediction by ZEFSAII (Michael W. Deem and Ramdas Pophale) SiO2 
 PCOD8086066
Probable space group: C 2/M
;
_chemical_formula_sum "Si O2"
_cell_formula_units_Z 64
_cell_length_a 28.678944
_cell_length_b 9.205067
_cell_length_c 14.105034
_cell_angle_alpha 90.000000
_cell_angle_beta 87.843532
_cell_angle_gamma 90.000000
_cell_volume 3720.973425
_symmetry_space_group_name_H-M "C 2/M"
_symmetry_group_IT_number 12
_symmetry_cell_setting 'monoclinic'
loop_
_space_group_symop_operation_xyz
x,y,z
-x,y,-z
-x,-y,-z
x,-y,z
1/2+x,1/2+y,z
1/2-x,1/2+y,-z
1/2-x,1/2-y,-z
1/2+x,1/2-y,z
loop_
_atom_site_type_symbol
_atom_site_label
_atom_site_fract_x
_atom_site_fract_y
_atom_site_fract_z
Si Si1 0.942021 0.668610 0.015086
Si Si2 0.086077 0.662620 0.293773
Si Si3 0.797088 0.165456 0.011076
Si Si4 0.991029 0.340397 0.192799
Si Si5 0.445517 0.330888 0.519963
Si Si6 0.421133 0.334384 0.320980
Si Si7 0.870627 0.832942 0.148282
Si Si8 0.383592 0.670805 0.873971
O O1 0.934539 0.500000 0.987059
O O2 0.990976 0.689637 0.075840
O O3 0.905571 0.716101 0.100458
O O4 0.929682 0.769875 0.925923
O O5 0.104975 0.500000 0.311948
O O6 0.074705 0.737025 0.393631
O O7 0.122780 0.757209 0.229778
O O8 0.042525 0.657398 0.227482
O O9 0.837031 0.213758 0.934396
O O10 0.783714 0.000000 0.995946
O O11 0.750000 0.250000 0.000000
O O12 0.817915 0.193968 0.115303
O O13 0.967947 0.500000 0.207617
O O14 0.963486 0.224957 0.256032
O O15 0.500000 0.299567 0.500000
O O16 0.436143 0.500000 0.542587
O O17 0.418393 0.271115 0.427720
O O18 0.435073 0.500000 0.335775
O O19 0.373447 0.315072 0.263189
O O20 0.885113 0.000000 0.118635
O O21 0.390071 0.500000 0.861309
#
# Coordination Sequence:
#
# PCOD8086066 Si02
#       8
#     8   8   8   8   8   8   8   8
#     4   9  16  28  45  64  89 122 158 194 231 273
#     4  11  22  33  46  65  92 128 165 202 242 279
#     4   9  18  32  52  76  99 121 147 182 229 286
#     4   9  18  29  42  63  91 123 160 200 238 272
#     4  10  19  31  47  69  93 124 168 210 243 274
#     4   9  16  28  47  66  91 126 163 201 236 272
#     4   8  15  28  45  69  97 124 154 188 228 277
#     4  10  21  36  49  66  94 124 155 193 233 282
#
# _framework density 17.199801000000001
#
# number of rings (size 3 to 8) (size 9 to 14) (size 15 to 20)
#    0.000    2.625    1.250    1.875    0.000    4.750 
#    0.000    2.500    0.000    0.000    0.000    0.875 
#    0.000    0.000    0.000    0.000    0.000    0.000 
#
# Total GULP energy -396441.666751 kJ/mol
# GULP energy per Si atom -12388.802086 kJ/mol
# Density = 1.716065 g / cm^3
# Si number density = 17.199801 Si / 1000 Ang^3
#
#
#
# Elastic Constant Matrix: (Units=GPa)
#
#
# Indices 1 2 3 4 5 6 
#
# 1 47.1732 26.6425 34.6838 0.0000 5.7101 0.0000
# 2 26.6425 77.2184 58.5142 0.0000 -1.2831 0.0000
# 3 34.6838 58.5142 152.2290 0.0000 5.7361 0.0000
# 4 0.0000 0.0000 0.0000 26.1111 0.0000 -0.0399
# 5 5.7101 -1.2831 5.7361 0.0000 14.4036 0.0000
# 6 0.0000 0.0000 0.0000 -0.0399 0.0000 22.2102
#
#
#
# Elastic Compliance Matrix: (Units=1/GPa)
#
#
# Indices 1 2 3 4 5 6 
#
# 1 0.029361 -0.007845 -0.003258 0.000000 -0.011041 0.000000
# 2 -0.007845 0.020660 -0.006437 0.000000 0.007514 0.000000
# 3 -0.003258 -0.006437 0.009907 0.000000 -0.003227 0.000000
# 4 0.000000 0.000000 0.000000 0.038298 0.000000 0.000069
# 5 -0.011041 0.007514 -0.003227 0.000000 0.075759 0.000000
# 6 0.000000 0.000000 0.000000 0.000069 0.000000 0.045025
#
#
# Mechanical properties :
#
#
# Convention : Reuss Voigt Hill
#
# Bulk Modulus (GPa) = 40.24476 57.36685 48.80581
# Shear Modulus (GPa) = 19.05692 22.99698 21.02695
#
# Velocity S-wave (km/s) = 3.33223 3.66054 3.50024
# Velocity P-wave (km/s) = 6.18500 7.16182 6.69126
#
# Compressibility (1/GPa) = 0.02484795
#
# Stress axis : x y z
#
# Youngs Moduli (GPa) = 34.05866 48.40368 100.93636
#
# Poissons Ratio (x) = 0.37972 0.32886
# Poissons Ratio (y) = 0.26719 0.64972
# Poissons Ratio (z) = 0.11097 0.31157
#
# Static dielectric constant tensor:
#      x y z
#    x 2.914010 0.000000 0.208430 
#    y 0.000000 3.379180 0.000000 
#    z 0.208430 0.000000 3.547440 
# 
# 
# High freq. dielectric constant tensor:
#      x y z
#    x 1.613230 0.000000 0.014570 
#    y 0.000000 1.670040 0.000000 
#    z 0.014570 0.000000 1.677690 
# 
# From -- ./inp_files/248386.got.cif
#   From: 2010.06.25/outbox.cif.g09.slc.cpg/sg12_125_cif.got.tgz:248386.got - 2010.06.28 00:19:55.
