data_PCOD8086733
_publ_section_title
;
Structure prediction by ZEFSAII (Michael W. Deem and Ramdas Pophale) SiO2 
 PCOD8086733
Probable space group: C 2/M
;
_chemical_formula_sum "Si O2"
_cell_formula_units_Z 56
_cell_length_a 24.967622
_cell_length_b 9.021256
_cell_length_c 25.465968
_cell_angle_alpha 90.000000
_cell_angle_beta 145.425250
_cell_angle_gamma 90.000000
_cell_volume 3255.034936
_symmetry_space_group_name_H-M "C 2/M"
_symmetry_group_IT_number 12
_symmetry_cell_setting 'monoclinic'
loop_
_space_group_symop_operation_xyz
x,y,z
-x,y,-z
-x,-y,-z
x,-y,z
1/2+x,1/2+y,z
1/2-x,1/2+y,-z
1/2-x,1/2-y,-z
1/2+x,1/2-y,z
loop_
_atom_site_type_symbol
_atom_site_label
_atom_site_fract_x
_atom_site_fract_y
_atom_site_fract_z
Si Si1 0.215176 0.826473 0.089211
Si Si2 0.219488 0.669260 0.401814
Si Si3 0.398824 0.672440 0.608105
Si Si4 0.109888 0.331124 0.213387
Si Si5 0.919757 0.324737 0.218203
Si Si6 0.566153 0.325939 0.882506
Si Si7 0.393675 0.828240 0.907755
O O1 0.322216 0.774851 0.166045
O O2 0.178359 0.751699 0.112118
O O3 0.207621 0.000000 0.092098
O O4 0.154777 0.779027 0.989756
O O5 0.198082 0.500000 0.402020
O O6 0.328617 0.707161 0.502713
O O7 0.149738 0.776381 0.377028
O O8 0.200230 0.691992 0.324407
O O9 0.422658 0.500000 0.632209
O O10 0.495877 0.760922 0.677678
O O11 0.071564 0.500000 0.186903
O O12 0.142686 0.298138 0.180655
O O13 0.027697 0.218958 0.162396
O O14 0.928662 0.500000 0.221678
O O15 0.926651 0.261096 0.165612
O O16 0.564236 0.500000 0.869186
O O17 0.393068 0.000000 0.922314
O O18 0.500000 0.765182 0.000000
#
# Coordination Sequence:
#
# PCOD8086733 Si02
#       7
#     8   8   8   8   8   8   8
#     4  10  23  38  52  73 104 141 178 213 257 308
#     4   9  18  32  51  75 106 139 167 207 261 310
#     4  10  19  31  50  78 105 132 173 214 254 309
#     4  10  19  33  53  77 107 139 168 205 258 311
#     4  11  22  36  52  73 105 143 174 209 262 315
#     4  11  21  33  51  78 105 135 173 213 254 306
#     4  10  20  34  54  79 103 134 176 215 253 303
#
# _framework density 17.204115999999999
#
# number of rings (size 3 to 8) (size 9 to 14) (size 15 to 20)
#    0.000    1.857    2.857    1.714    0.000    3.143 
#    0.000    0.000    0.000    0.857    0.000    6.000 
#    0.000    0.000    0.000    0.000    0.000    0.000 
#
# Total GULP energy -347239.609056 kJ/mol
# GULP energy per Si atom -12401.414609 kJ/mol
# Density = 1.716496 g / cm^3
# Si number density = 17.204116 Si / 1000 Ang^3
#
#
#
# Elastic Constant Matrix: (Units=GPa)
#
#
# Indices 1 2 3 4 5 6 
#
# 1 75.9800 30.2124 50.1315 0.0000 14.0270 0.0000
# 2 30.2124 53.6485 40.8890 0.0000 7.9194 0.0000
# 3 50.1315 40.8890 138.3019 0.0000 8.9561 0.0000
# 4 0.0000 0.0000 0.0000 26.1912 0.0000 1.1826
# 5 14.0270 7.9194 8.9561 0.0000 24.5186 0.0000
# 6 0.0000 0.0000 0.0000 1.1826 0.0000 28.3652
#
#
#
# Elastic Compliance Matrix: (Units=1/GPa)
#
#
# Indices 1 2 3 4 5 6 
#
# 1 0.020509 -0.006608 -0.004976 0.000000 -0.007781 0.000000
# 2 -0.006608 0.026882 -0.005362 0.000000 -0.002944 0.000000
# 3 -0.004976 -0.005362 0.010573 0.000000 0.000717 0.000000
# 4 0.000000 0.000000 0.000000 0.038253 0.000000 -0.001595
# 5 -0.007781 -0.002944 0.000717 0.000000 0.045926 0.000000
# 6 0.000000 0.000000 0.000000 -0.001595 0.000000 0.035321
#
#
# Mechanical properties :
#
#
# Convention : Reuss Voigt Hill
#
# Bulk Modulus (GPa) = 41.54272 56.71068 49.12670
# Shear Modulus (GPa) = 22.79140 25.59484 24.19312
#
# Velocity S-wave (km/s) = 3.64368 3.86128 3.75405
# Velocity P-wave (km/s) = 6.47312 7.27422 6.88533
#
# Compressibility (1/GPa) = 0.02407161
#
# Stress axis : x y z
#
# Youngs Moduli (GPa) = 48.75924 37.19894 94.57834
#
# Poissons Ratio (x) = 0.24582 0.47067
# Poissons Ratio (y) = 0.32221 0.50711
# Poissons Ratio (z) = 0.24265 0.19946
#
# Static dielectric constant tensor:
#      x y z
#    x 3.027390 0.000000 0.039760 
#    y 0.000000 3.256640 0.000000 
#    z 0.039760 0.000000 3.544640 
# 
# 
# High freq. dielectric constant tensor:
#      x y z
#    x 1.635160 0.000000 -0.002630 
#    y 0.000000 1.669880 0.000000 
#    z -0.002630 0.000000 1.674840 
# 
# From -- ./inp_files/348635.got.cif
#   From: 2010.06.25/outbox.cif.g09.slc.cpg/sg12_175_cif.got.tgz:348635.got - 2010.06.28 00:19:55.
