data_PCOD8086917
_publ_section_title
;
Structure prediction by ZEFSAII (Michael W. Deem and Ramdas Pophale) SiO2 
 PCOD8086917
Probable space group: C 2/M
;
_chemical_formula_sum "Si O2"
_cell_formula_units_Z 56
_cell_length_a 23.806725
_cell_length_b 8.837200
_cell_length_c 15.131512
_cell_angle_alpha 90.000000
_cell_angle_beta 118.826064
_cell_angle_gamma 90.000000
_cell_volume 2788.971775
_symmetry_space_group_name_H-M "C 2/M"
_symmetry_group_IT_number 12
_symmetry_cell_setting 'monoclinic'
loop_
_space_group_symop_operation_xyz
x,y,z
-x,y,-z
-x,-y,-z
x,-y,z
1/2+x,1/2+y,z
1/2-x,1/2+y,-z
1/2-x,1/2-y,-z
1/2+x,1/2-y,z
loop_
_atom_site_type_symbol
_atom_site_label
_atom_site_fract_x
_atom_site_fract_y
_atom_site_fract_z
Si Si1 0.191106 0.177991 0.509420
Si Si2 0.938013 0.832494 0.012867
Si Si3 0.933188 0.323975 0.187024
Si Si4 0.208250 0.680083 0.888630
Si Si5 0.269220 0.171136 0.292021
Si Si6 0.927961 0.322607 0.674027
Si Si7 0.874447 0.169644 0.794277
O O1 0.250000 0.250000 0.500000
O O2 0.188676 0.225368 0.610969
O O3 0.121637 0.226299 0.420658
O O4 0.198702 0.000000 0.506586
O O5 0.941329 0.707847 0.090007
O O6 0.929227 0.000000 0.048515
O O7 0.879523 0.794016 0.902555
O O8 0.000000 0.825692 0.000000
O O9 0.929462 0.500000 0.198989
O O10 0.865079 0.255144 0.166173
O O11 0.997895 0.269000 0.287901
O O12 0.211201 0.500000 0.903155
O O13 0.233552 0.730794 0.811151
O O14 0.250000 0.750000 0.000000
O O15 0.199959 0.176776 0.285421
O O16 0.296671 0.000000 0.313102
O O17 0.918707 0.500000 0.647821
O O18 0.913586 0.290110 0.766288
O O19 0.901687 0.000000 0.796168
#
# Coordination Sequence:
#
# PCOD8086917 Si02
#       7
#     8   8   8   8   8   8   8
#     4  12  24  39  61  90 122 155 196 247 303 361
#     4  10  19  31  51  81 115 153 194 236 291 354
#     4  10  22  38  57  84 119 157 199 246 297 352
#     4  10  22  42  65  90 121 160 204 249 293 349
#     4  10  21  38  61  86 117 158 203 248 296 348
#     4  11  22  36  56  84 118 156 194 239 297 354
#     4  10  19  32  52  81 115 151 193 242 293 351
#
# _framework density 20.079084999999999
#
# number of rings (size 3 to 8) (size 9 to 14) (size 15 to 20)
#    0.000    1.571    2.857    2.571    0.000    3.714 
#    0.000    0.714    0.000    4.286    0.000    0.000 
#    0.000    0.000    0.000    0.000    0.000    0.000 
#
# Total GULP energy -346980.134637 kJ/mol
# GULP energy per Si atom -12392.147666 kJ/mol
# Density = 2.003338 g / cm^3
# Si number density = 20.079085 Si / 1000 Ang^3
#
#
#
# Elastic Constant Matrix: (Units=GPa)
#
#
# Indices 1 2 3 4 5 6 
#
# 1 102.9533 36.5484 50.4511 0.0000 19.1161 0.0000
# 2 36.5484 69.3335 43.0645 0.0000 6.7325 0.0000
# 3 50.4511 43.0645 122.3124 0.0000 13.1090 0.0000
# 4 0.0000 0.0000 0.0000 34.9434 0.0000 2.2235
# 5 19.1161 6.7325 13.1090 0.0000 33.8752 0.0000
# 6 0.0000 0.0000 0.0000 2.2235 0.0000 21.1763
#
#
#
# Elastic Compliance Matrix: (Units=1/GPa)
#
#
# Indices 1 2 3 4 5 6 
#
# 1 0.014198 -0.004701 -0.003592 0.000000 -0.005688 0.000000
# 2 -0.004701 0.020064 -0.005198 0.000000 0.000677 0.000000
# 3 -0.003592 -0.005198 0.011642 0.000000 -0.001446 0.000000
# 4 0.000000 0.000000 0.000000 0.028810 0.000000 -0.003025
# 5 -0.005688 0.000677 -0.001446 0.000000 0.033155 0.000000
# 6 0.000000 0.000000 0.000000 -0.003025 0.000000 0.047540
#
#
# Mechanical properties :
#
#
# Convention : Reuss Voigt Hill
#
# Bulk Modulus (GPa) = 52.84470 61.63635 57.24053
# Shear Modulus (GPa) = 26.49732 28.96798 27.73265
#
# Velocity S-wave (km/s) = 3.63664 3.80240 3.72044
# Velocity P-wave (km/s) = 6.63392 7.07397 6.85748
#
# Compressibility (1/GPa) = 0.01892337
#
# Stress axis : x y z
#
# Youngs Moduli (GPa) = 70.43124 49.84075 85.89483
#
# Poissons Ratio (x) = 0.23432 0.30850
# Poissons Ratio (y) = 0.33112 0.44644
# Poissons Ratio (z) = 0.25296 0.25905
#
# Static dielectric constant tensor:
#      x y z
#    x 3.911150 0.000000 0.360560 
#    y 0.000000 3.561060 0.000000 
#    z 0.360560 0.000000 4.055030 
# 
# 
# High freq. dielectric constant tensor:
#      x y z
#    x 1.776100 0.000000 0.021890 
#    y 0.000000 1.765990 0.000000 
#    z 0.021890 0.000000 1.788660 
# 
# From -- ./inp_files/237879.got.cif
#   From: 2010.06.25/outbox.cif.g09.slc.cpg/sg12_119_cif.got.tgz:237879.got - 2010.06.28 00:19:55.
