data_PCOD8086032
_publ_section_title
;
Structure prediction by ZEFSAII (Michael W. Deem and Ramdas Pophale) SiO2 
 PCOD8086032
Probable space group: C 2/M
;
_chemical_formula_sum "Si O2"
_cell_formula_units_Z 56
_cell_length_a 27.683129
_cell_length_b 8.888196
_cell_length_c 18.135011
_cell_angle_alpha 90.000000
_cell_angle_beta 49.139292
_cell_angle_gamma 90.000000
_cell_volume 3374.753386
_symmetry_space_group_name_H-M "C 2/M"
_symmetry_group_IT_number 12
_symmetry_cell_setting 'monoclinic'
loop_
_space_group_symop_operation_xyz
x,y,z
-x,y,-z
-x,-y,-z
x,-y,z
1/2+x,1/2+y,z
1/2-x,1/2+y,-z
1/2-x,1/2-y,-z
1/2+x,1/2-y,z
loop_
_atom_site_type_symbol
_atom_site_label
_atom_site_fract_x
_atom_site_fract_y
_atom_site_fract_z
Si Si1 0.063463 0.834380 0.888892
Si Si2 0.007061 0.175616 0.664564
Si Si3 0.876904 0.176751 0.025491
Si Si4 0.374064 0.324569 0.718266
Si Si5 0.255178 0.177243 0.915520
Si Si6 0.432573 0.169428 0.527269
Si Si7 0.496886 0.176885 0.830615
O O1 0.053164 0.718521 0.832368
O O2 0.079858 0.000000 0.840155
O O3 0.117972 0.780363 0.892419
O O4 0.000000 0.845251 0.000000
O O5 0.060171 0.249006 0.558433
O O6 0.015335 0.248871 0.735475
O O7 0.936215 0.207379 0.705398
O O8 0.021255 0.000000 0.655272
O O9 0.928069 0.265484 0.925486
O O10 0.890863 0.000000 0.000140
O O11 0.806812 0.222960 0.069566
O O12 0.358260 0.500000 0.729726
O O13 0.316489 0.237507 0.812727
O O14 0.382793 0.261860 0.626907
O O15 0.260973 0.000000 0.919316
O O16 0.250000 0.250000 0.000000
O O17 0.500000 0.167906 0.500000
O O18 0.407035 0.000000 0.541028
O O19 0.493919 0.000000 0.823843
#
# Coordination Sequence:
#
# PCOD8086032 Si02
#       7
#     8   8   8   8   8   8   8
#     4   8  15  30  48  63  85 119 154 187 228 278
#     4  10  19  31  47  67  94 126 156 187 227 276
#     4   9  19  34  48  63  89 126 161 190 226 275
#     4  10  20  33  48  67  93 126 160 190 225 272
#     4  11  22  34  48  68  94 125 161 196 228 265
#     4   9  17  30  48  69  92 118 151 192 234 272
#     4  11  20  28  44  71  97 119 149 192 237 276
#
# _framework density 16.593806000000001
#
# number of rings (size 3 to 8) (size 9 to 14) (size 15 to 20)
#    0.000    2.286    0.000    4.714    0.000   10.571 
#    0.000    0.000    0.000    0.000    0.000    1.000 
#    0.000    0.000    0.000    0.000    0.000    0.000 
#
# Total GULP energy -347174.682968 kJ/mol
# GULP energy per Si atom -12399.095820 kJ/mol
# Density = 1.655604 g / cm^3
# Si number density = 16.593806 Si / 1000 Ang^3
#
#
#
# Elastic Constant Matrix: (Units=GPa)
#
#
# Indices 1 2 3 4 5 6 
#
# 1 99.1661 51.3800 50.0196 -0.0066 15.5397 0.0013
# 2 51.3800 84.4757 40.4893 -0.0087 11.6303 0.0015
# 3 50.0196 40.4893 98.7484 0.0235 18.7155 -0.0102
# 4 -0.0066 -0.0087 0.0235 31.9458 -0.0019 5.1728
# 5 15.5397 11.6303 18.7155 -0.0019 23.9147 0.0002
# 6 0.0013 0.0015 -0.0102 5.1728 0.0002 20.8675
#
#
#
# Elastic Compliance Matrix: (Units=1/GPa)
#
#
# Indices 1 2 3 4 5 6 
#
# 1 0.016982 -0.007514 -0.004840 0.000006 -0.003593 -0.000004
# 2 -0.007514 0.018227 -0.003420 0.000006 -0.001305 -0.000004
# 3 -0.004840 -0.003420 0.015345 -0.000016 -0.007201 0.000012
# 4 0.000006 0.000006 -0.000016 0.032612 0.000008 -0.008084
# 5 -0.003593 -0.001305 -0.007201 0.000008 0.050420 -0.000006
# 6 -0.000004 -0.000004 0.000012 -0.008084 -0.000006 0.049925
#
#
# Mechanical properties :
#
#
# Convention : Reuss Voigt Hill
#
# Bulk Modulus (GPa) = 52.61542 62.90755 57.76148
# Shear Modulus (GPa) = 22.58413 24.71235 23.64824
#
# Velocity S-wave (km/s) = 3.69317 3.86327 3.77918
# Velocity P-wave (km/s) = 7.06843 7.60870 7.34354
#
# Compressibility (1/GPa) = 0.01900583
#
# Stress axis : x y z
#
# Youngs Moduli (GPa) = 58.88734 54.86406 65.16631
#
# Poissons Ratio (x) = 0.41226 0.31540
# Poissons Ratio (y) = 0.44249 0.22286
# Poissons Ratio (z) = 0.28501 0.18763
#
# Static dielectric constant tensor:
#      x y z
#    x 3.353250 0.000000 0.146080 
#    y 0.000000 3.243560 0.000010 
#    z 0.146080 0.000010 2.979870 
# 
# 
# High freq. dielectric constant tensor:
#      x y z
#    x 1.623750 0.000000 0.022280 
#    y 0.000000 1.651750 0.000000 
#    z 0.022280 0.000000 1.619530 
# 
# From -- ./inp_files/244331.got.cif
#   From: 2010.06.25/outbox.cif.g09.slc.cpg/sg12_123_cif.got.tgz:244331.got - 2010.06.28 00:19:55.
