data_PCOD8086977
_publ_section_title
;
Structure prediction by ZEFSAII (Michael W. Deem and Ramdas Pophale) SiO2 
 PCOD8086977
Probable space group: C 2/M
;
_chemical_formula_sum "Si O2"
_cell_formula_units_Z 64
_cell_length_a 17.177000
_cell_length_b 19.825465
_cell_length_c 12.180368
_cell_angle_alpha 90.000000
_cell_angle_beta 132.665835
_cell_angle_gamma 90.000000
_cell_volume 3050.048914
_symmetry_space_group_name_H-M "C 2/M"
_symmetry_group_IT_number 12
_symmetry_cell_setting 'monoclinic'
loop_
_space_group_symop_operation_xyz
x,y,z
-x,y,-z
-x,-y,-z
x,-y,z
1/2+x,1/2+y,z
1/2-x,1/2+y,-z
1/2-x,1/2-y,-z
1/2+x,1/2-y,z
loop_
_atom_site_type_symbol
_atom_site_label
_atom_site_fract_x
_atom_site_fract_y
_atom_site_fract_z
Si Si1 0.315700 0.425086 0.134640
Si Si2 0.941491 0.404686 0.834396
Si Si3 0.664769 0.793450 0.776920
Si Si4 0.611828 0.696254 0.921570
Si Si5 0.201962 0.925977 0.627531
Si Si6 0.895862 0.573724 0.190393
Si Si7 0.404157 0.243063 0.739265
Si Si8 0.167169 0.225744 0.556704
O O1 0.350700 0.500000 0.134223
O O2 0.393323 0.374371 0.147107
O O3 0.324926 0.413427 0.272012
O O4 0.195479 0.409575 0.985388
O O5 0.825470 0.435617 0.724904
O O6 0.939414 0.324802 0.830706
O O7 0.996272 0.429941 0.775351
O O8 0.000000 0.430090 0.000000
O O9 0.628850 0.758081 0.854313
O O10 0.609434 0.867754 0.722118
O O11 0.625114 0.749468 0.635332
O O12 0.793487 0.801313 0.898575
O O13 0.495380 0.704300 0.865581
O O14 0.162674 0.856263 0.532787
O O15 0.151626 0.000000 0.542558
O O16 0.878926 0.500000 0.230290
O O17 0.284447 0.258995 0.660568
O O18 0.405924 0.241214 0.606918
#
# Coordination Sequence:
#
# PCOD8086977 Si02
#       8
#     8   8   8   8   8   8   8   8
#     4   9  17  30  48  76 114 142 172 225 281 330
#     4  11  20  30  53  85 117 145 180 229 289 346
#     4  10  20  33  56  79 111 145 183 226 274 331
#     4  10  19  33  53  84 104 141 186 227 269 329
#     4  10  19  31  52  79 112 151 181 221 283 344
#     4  10  19  32  50  82 117 146 180 224 281 342
#     4  10  23  36  56  79 111 142 192 231 277 334
#     4  10  22  40  54  78 113 151 186 232 284 331
#
# _framework density 20.983270000000001
#
# number of rings (size 3 to 8) (size 9 to 14) (size 15 to 20)
#    0.000    2.000    3.750    0.375    3.500    1.000 
#    0.000    0.625    0.000   10.500    0.000    3.500 
#    0.000    0.000    0.000    0.000    0.000    0.000 
#
# Total GULP energy -396498.556809 kJ/mol
# GULP energy per Si atom -12390.579900 kJ/mol
# Density = 2.093551 g / cm^3
# Si number density = 20.983270 Si / 1000 Ang^3
#
#
#
# Elastic Constant Matrix: (Units=GPa)
#
#
# Indices 1 2 3 4 5 6 
#
# 1 34.2097 25.1508 3.9170 0.0000 4.3418 0.0000
# 2 25.1508 116.2740 15.3751 0.0000 -0.1909 0.0000
# 3 3.9170 15.3751 38.3946 0.0000 -8.1953 0.0000
# 4 0.0000 0.0000 0.0000 8.1680 0.0000 -7.4035
# 5 4.3418 -0.1909 -8.1953 0.0000 22.2695 0.0000
# 6 0.0000 0.0000 0.0000 -7.4035 0.0000 16.6235
#
#
#
# Elastic Compliance Matrix: (Units=1/GPa)
#
#
# Indices 1 2 3 4 5 6 
#
# 1 0.036021 -0.007491 -0.002374 0.000000 -0.007961 0.000000
# 2 -0.007491 0.010677 -0.003451 0.000000 0.000282 0.000000
# 3 -0.002374 -0.003451 0.030129 0.000000 0.011521 0.000000
# 4 0.000000 0.000000 0.000000 0.205305 0.000000 0.091435
# 5 -0.007961 0.000282 0.011521 0.000000 0.050699 0.000000
# 6 0.000000 0.000000 0.000000 0.091435 0.000000 0.100877
#
#
# Mechanical properties :
#
#
# Convention : Reuss Voigt Hill
#
# Bulk Modulus (GPa) = 19.92265 30.86266 25.39265
# Shear Modulus (GPa) = 10.48059 19.04123 14.76091
#
# Velocity S-wave (km/s) = 2.23732 3.01566 2.65516
# Velocity P-wave (km/s) = 4.02359 5.18322 4.63977
#
# Compressibility (1/GPa) = 0.05019414
#
# Stress axis : x y z
#
# Youngs Moduli (GPa) = 27.76173 93.65492 33.19077
#
# Poissons Ratio (x) = 0.70153 0.07881
# Poissons Ratio (y) = 0.20795 0.11456
# Poissons Ratio (z) = 0.06592 0.32325
#
# Static dielectric constant tensor:
#      x y z
#    x 3.756870 0.000000 0.136400 
#    y 0.000000 4.052480 0.000000 
#    z 0.136400 0.000000 3.514860 
# 
# 
# High freq. dielectric constant tensor:
#      x y z
#    x 1.810070 0.000000 0.011430 
#    y 0.000000 1.828810 0.000000 
#    z 0.011430 0.000000 1.783410 
# 
# From -- ./inp_files/159265.got.cif
#   From: 2010.06.25/outbox.cif.g09.slc.cpg/sg12_80_cif.got.tgz:159265.got - 2010.06.28 00:19:55.
