data_PCOD8086462
_publ_section_title
;
Structure prediction by ZEFSAII (Michael W. Deem and Ramdas Pophale) SiO2 
 PCOD8086462
Probable space group: C 2/M
;
_chemical_formula_sum "Si O2"
_cell_formula_units_Z 48
_cell_length_a 22.608494
_cell_length_b 9.002015
_cell_length_c 13.796740
_cell_angle_alpha 90.000000
_cell_angle_beta 102.607004
_cell_angle_gamma 90.000000
_cell_volume 2740.240958
_symmetry_space_group_name_H-M "C 2/M"
_symmetry_group_IT_number 12
_symmetry_cell_setting 'monoclinic'
loop_
_space_group_symop_operation_xyz
x,y,z
-x,y,-z
-x,-y,-z
x,-y,z
1/2+x,1/2+y,z
1/2-x,1/2+y,-z
1/2-x,1/2-y,-z
1/2+x,1/2-y,z
loop_
_atom_site_type_symbol
_atom_site_label
_atom_site_fract_x
_atom_site_fract_y
_atom_site_fract_z
Si Si1 0.479465 0.325789 0.212174
Si Si2 0.067118 0.667614 0.982176
Si Si3 0.047859 0.328123 0.599157
Si Si4 0.609816 0.674738 0.178151
Si Si5 0.297112 0.172734 0.650540
Si Si6 0.821828 0.328928 0.440440
O O1 0.469509 0.500000 0.198451
O O2 0.432622 0.246877 0.122108
O O3 0.464916 0.274783 0.314505
O O4 0.548420 0.280768 0.212318
O O5 0.090860 0.500000 0.978153
O O6 0.111123 0.753901 0.071563
O O7 0.000000 0.671969 0.000000
O O8 0.041247 0.500000 0.627043
O O9 0.114118 0.291028 0.583364
O O10 0.000000 0.285477 0.500000
O O11 0.616136 0.500000 0.168425
O O12 0.666476 0.736190 0.256971
O O13 0.227580 0.225395 0.628732
O O14 0.325882 0.207017 0.555977
O O15 0.300417 0.000000 0.677843
O O16 0.803195 0.500000 0.418237
#
# Coordination Sequence:
#
# PCOD8086462 Si02
#       6
#     8   8   8   8   8   8
#     4  10  20  32  48  73 104 134 163 201 248 293
#     4   9  17  30  49  72  98 129 165 203 243 290
#     4  10  20  34  52  73 100 134 168 201 240 291
#     4  10  19  31  49  74 103 131 162 203 249 293
#     4  10  19  32  52  74  97 128 167 208 246 290
#     4   9  19  34  50  71 100 132 165 203 247 290
#
# _framework density 17.516707
#
# number of rings (size 3 to 8) (size 9 to 14) (size 15 to 20)
#    0.000    2.333    0.000    3.000    0.000    7.000 
#    0.000    0.000    0.000    1.000    0.000    0.000 
#    0.000    0.000    0.000    0.000    0.000    0.000 
#
# Total GULP energy -297679.390248 kJ/mol
# GULP energy per Si atom -12403.307927 kJ/mol
# Density = 1.747684 g / cm^3
# Si number density = 17.516707 Si / 1000 Ang^3
#
#
#
# Elastic Constant Matrix: (Units=GPa)
#
#
# Indices 1 2 3 4 5 6 
#
# 1 64.0079 36.0319 45.7643 0.0000 4.5676 0.0000
# 2 36.0319 88.7479 58.0103 0.0000 8.9317 0.0000
# 3 45.7643 58.0103 125.8759 0.0000 15.3129 0.0000
# 4 0.0000 0.0000 0.0000 37.1257 0.0000 1.5686
# 5 4.5676 8.9317 15.3129 0.0000 22.5867 0.0000
# 6 0.0000 0.0000 0.0000 1.5686 0.0000 24.2348
#
#
#
# Elastic Compliance Matrix: (Units=1/GPa)
#
#
# Indices 1 2 3 4 5 6 
#
# 1 0.022900 -0.005566 -0.005956 0.000000 0.001608 0.000000
# 2 -0.005566 0.017523 -0.005826 0.000000 -0.001854 0.000000
# 3 -0.005956 -0.005826 0.013480 0.000000 -0.005630 0.000000
# 4 0.000000 0.000000 0.000000 0.027009 0.000000 -0.001748
# 5 0.001608 -0.001854 -0.005630 0.000000 0.048499 0.000000
# 6 0.000000 0.000000 0.000000 -0.001748 0.000000 0.041376
#
#
# Mechanical properties :
#
#
# Convention : Reuss Voigt Hill
#
# Bulk Modulus (GPa) = 52.06836 62.02721 57.04778
# Shear Modulus (GPa) = 23.59763 26.04446 24.82104
#
# Velocity S-wave (km/s) = 3.67434 3.86013 3.76838
# Velocity P-wave (km/s) = 6.91307 7.44007 7.18141
#
# Compressibility (1/GPa) = 0.01920552
#
# Stress axis : x y z
#
# Youngs Moduli (GPa) = 43.66771 57.06923 74.18514
#
# Poissons Ratio (x) = 0.31765 0.44186
# Poissons Ratio (y) = 0.24306 0.43222
# Poissons Ratio (z) = 0.26010 0.33250
#
# Static dielectric constant tensor:
#      x y z
#    x 3.023380 0.000000 0.075010 
#    y 0.000000 3.330990 0.000000 
#    z 0.075010 0.000000 3.295330 
# 
# 
# High freq. dielectric constant tensor:
#      x y z
#    x 1.646320 0.000000 0.010780 
#    y 0.000000 1.688360 0.000000 
#    z 0.010780 0.000000 1.683300 
# 
# From -- ./inp_files/172174.got.cif
#   From: 2010.06.25/outbox.cif.g09.slc.cpg/sg12_87_cif.got.tgz:172174.got - 2010.06.28 00:19:55.
