data_PCOD8086509
_publ_section_title
;
Structure prediction by ZEFSAII (Michael W. Deem and Ramdas Pophale) SiO2 
 PCOD8086509
Probable space group: C 2/M
;
_chemical_formula_sum "Si O2"
_cell_formula_units_Z 64
_cell_length_a 11.848564
_cell_length_b 17.497646
_cell_length_c 30.485658
_cell_angle_alpha 90.000000
_cell_angle_beta 148.621383
_cell_angle_gamma 90.000000
_cell_volume 3290.948063
_symmetry_space_group_name_H-M "C 2/M"
_symmetry_group_IT_number 12
_symmetry_cell_setting 'monoclinic'
loop_
_space_group_symop_operation_xyz
x,y,z
-x,y,-z
-x,-y,-z
x,-y,z
1/2+x,1/2+y,z
1/2-x,1/2+y,-z
1/2-x,1/2-y,-z
1/2+x,1/2-y,z
loop_
_atom_site_type_symbol
_atom_site_label
_atom_site_fract_x
_atom_site_fract_y
_atom_site_fract_z
Si Si1 0.597661 0.409015 0.599089
Si Si2 0.178805 0.087571 0.805396
Si Si3 0.192214 0.910742 0.254897
Si Si4 0.500434 0.338650 0.892900
Si Si5 0.327107 0.091234 0.761088
Si Si6 0.489260 0.193394 0.045981
Si Si7 0.178894 0.590410 0.414082
Si Si8 0.308379 0.587893 0.907832
O O1 0.602021 0.500000 0.602783
O O2 0.686739 0.374585 0.674250
O O3 0.754080 0.379735 0.611923
O O4 0.351769 0.379812 0.507859
O O5 0.211674 0.120348 0.767193
O O6 0.335248 0.126940 0.892313
O O7 0.932621 0.098633 0.740256
O O8 0.248294 0.000000 0.828253
O O9 0.086956 0.852206 0.185047
O O10 0.436759 0.882605 0.345064
O O11 0.181084 0.000000 0.235531
O O12 0.443246 0.257011 0.895753
O O13 0.377778 0.403426 0.880387
O O14 0.759450 0.345707 0.980361
O O15 0.572915 0.125080 0.840062
O O16 0.333628 0.000000 0.759834
O O17 0.500000 0.226727 0.000000
O O18 0.191133 0.500000 0.417753
O O19 0.290721 0.500000 0.914814
O O20 0.500000 0.627562 0.000000
#
# Coordination Sequence:
#
# PCOD8086509 Si02
#       8
#     8   8   8   8   8   8   8   8
#     4   8  13  24  44  72 108 141 167 207 264 316
#     4  10  21  36  53  74 105 141 178 218 260 319
#     4  10  19  33  53  79 108 137 174 218 263 314
#     4  11  22  35  54  73 100 135 173 221 261 310
#     4   9  17  30  48  73 106 140 174 212 260 314
#     4  11  23  39  52  73 103 138 180 218 264 317
#     4   8  14  25  45  75 109 138 167 212 263 311
#     4  10  19  31  49  76 105 133 170 217 263 304
#
# _framework density 19.447282999999999
#
# number of rings (size 3 to 8) (size 9 to 14) (size 15 to 20)
#    0.000    2.375    1.250    3.000    0.000    5.250 
#    0.000    0.625    0.000    3.750    0.000    0.875 
#    3.750    0.000    0.000    0.000    0.000    0.000 
#
# Total GULP energy -396587.780206 kJ/mol
# GULP energy per Si atom -12393.368131 kJ/mol
# Density = 1.940302 g / cm^3
# Si number density = 19.447283 Si / 1000 Ang^3
#
#
#
# Elastic Constant Matrix: (Units=GPa)
#
#
# Indices 1 2 3 4 5 6 
#
# 1 144.0214 25.0894 82.8436 -0.0001 8.5637 -0.0001
# 2 25.0894 24.6957 30.1403 -0.0005 2.6034 -0.0001
# 3 82.8436 30.1403 158.4410 -0.0016 7.5602 -0.0003
# 4 -0.0001 -0.0005 -0.0016 12.9824 -0.0005 -3.8185
# 5 8.5637 2.6034 7.5602 -0.0005 36.0671 -0.0002
# 6 -0.0001 -0.0001 -0.0003 -3.8185 -0.0002 17.7054
#
#
#
# Elastic Compliance Matrix: (Units=1/GPa)
#
#
# Indices 1 2 3 4 5 6 
#
# 1 0.010454 -0.005071 -0.004445 -0.000001 -0.001184 0.000000
# 2 -0.005071 0.055303 -0.007814 0.000001 -0.001150 0.000000
# 3 -0.004445 -0.007814 0.010146 0.000001 -0.000507 0.000000
# 4 -0.000001 0.000001 0.000001 0.082245 0.000001 0.017738
# 5 -0.001184 -0.001150 -0.000507 0.000001 0.028197 0.000001
# 6 0.000000 0.000000 0.000000 0.017738 0.000001 0.060305
#
#
# Mechanical properties :
#
#
# Convention : Reuss Voigt Hill
#
# Bulk Modulus (GPa) = 24.24638 67.03386 45.64012
# Shear Modulus (GPa) = 16.94589 25.95662 21.45125
#
# Velocity S-wave (km/s) = 2.95511 3.65734 3.32482
# Velocity P-wave (km/s) = 4.91308 7.23735 6.18537
#
# Compressibility (1/GPa) = 0.04124327
#
# Stress axis : x y z
#
# Youngs Moduli (GPa) = 95.65704 18.08234 98.55866
#
# Poissons Ratio (x) = 0.09170 0.43808
# Poissons Ratio (y) = 0.48507 0.77013
# Poissons Ratio (z) = 0.42519 0.14129
#
# Static dielectric constant tensor:
#      x y z
#    x 3.739630 0.000000 0.093460 
#    y 0.000000 3.014920 0.000000 
#    z 0.093460 0.000000 3.826130 
# 
# 
# High freq. dielectric constant tensor:
#      x y z
#    x 1.766030 0.000000 0.006860 
#    y 0.000000 1.705470 0.000000 
#    z 0.006860 0.000000 1.752710 
# 
# From -- ./inp_files/374512.got.cif
#   From: 2010.06.25/outbox.cif.g09.slc.cpg/sg12_188_cif.got.tgz:374512.got - 2010.06.28 00:19:55.
