data_PCOD8086494
_publ_section_title
;
Structure prediction by ZEFSAII (Michael W. Deem and Ramdas Pophale) SiO2 
 PCOD8086494
Probable space group: C 2/M
;
_chemical_formula_sum "Si O2"
_cell_formula_units_Z 64
_cell_length_a 24.545197
_cell_length_b 8.872798
_cell_length_c 23.750497
_cell_angle_alpha 90.000000
_cell_angle_beta 45.716664
_cell_angle_gamma 90.000000
_cell_volume 3702.965385
_symmetry_space_group_name_H-M "C 2/M"
_symmetry_group_IT_number 12
_symmetry_cell_setting 'monoclinic'
loop_
_space_group_symop_operation_xyz
x,y,z
-x,y,-z
-x,-y,-z
x,-y,z
1/2+x,1/2+y,z
1/2-x,1/2+y,-z
1/2-x,1/2-y,-z
1/2+x,1/2-y,z
loop_
_atom_site_type_symbol
_atom_site_label
_atom_site_fract_x
_atom_site_fract_y
_atom_site_fract_z
Si Si1 0.786021 0.175830 0.342211
Si Si2 0.194661 0.175122 0.495780
Si Si3 0.578067 0.328335 0.669227
Si Si4 0.862687 0.673407 0.187016
Si Si5 0.524107 0.322067 0.087294
Si Si6 0.771695 0.673385 0.926190
Si Si7 0.657057 0.173279 0.927653
Si Si8 0.056994 0.672012 0.179506
O O1 0.708377 0.242349 0.426137
O O2 0.857547 0.209671 0.331086
O O3 0.798462 0.260200 0.274402
O O4 0.774547 0.000000 0.339625
O O5 0.250000 0.250000 0.500000
O O6 0.109720 0.196097 0.582672
O O7 0.215042 0.000000 0.475053
O O8 0.551282 0.500000 0.696899
O O9 0.506437 0.219839 0.729465
O O10 0.879526 0.500000 0.189771
O O11 0.830368 0.690772 0.147740
O O12 0.939052 0.767347 0.139473
O O13 0.526225 0.500000 0.079999
O O14 0.554150 0.276652 0.126880
O O15 0.577909 0.251515 0.001035
O O16 0.746463 0.500000 0.947470
O O17 0.728740 0.751188 0.905802
O O18 0.861379 0.690669 0.849960
O O19 0.750000 0.750000 0.000000
O O20 0.652193 0.000000 0.950009
O O21 0.042943 0.500000 0.171013
#
# Coordination Sequence:
#
# PCOD8086494 Si02
#       8
#     8   8   8   8   8   8   8   8
#     4  10  19  31  49  75 106 139 175 210 255 314
#     4   9  17  29  46  70 103 139 174 210 253 309
#     4   9  18  31  48  74 105 137 174 212 254 308
#     4  11  23  37  54  76 106 141 177 219 262 313
#     4  12  23  35  54  77 105 140 176 216 263 315
#     4  11  23  38  57  78 102 136 177 222 268 313
#     4  11  24  40  56  76 102 137 181 223 266 313
#     4  11  22  34  53  78 105 138 176 216 263 313
#
# _framework density 17.283445
#
# number of rings (size 3 to 8) (size 9 to 14) (size 15 to 20)
#    0.000    1.500    2.500    4.500    0.000    7.500 
#    0.000    0.000    0.000    0.000    0.000    0.875 
#    0.000    7.000    0.000    0.000    0.000    0.000 
#
# Total GULP energy -396854.443382 kJ/mol
# GULP energy per Si atom -12401.701356 kJ/mol
# Density = 1.724411 g / cm^3
# Si number density = 17.283445 Si / 1000 Ang^3
#
#
#
# Elastic Constant Matrix: (Units=GPa)
#
#
# Indices 1 2 3 4 5 6 
#
# 1 49.4368 34.9530 27.9920 -0.0018 10.4536 -0.0015
# 2 34.9530 132.6562 60.3987 -0.0054 5.6976 0.0083
# 3 27.9920 60.3987 128.0943 -0.0002 6.1595 0.0011
# 4 -0.0018 -0.0054 -0.0002 34.1966 0.0012 -1.7229
# 5 10.4536 5.6976 6.1595 0.0012 15.4448 -0.0009
# 6 -0.0015 0.0083 0.0011 -1.7229 -0.0009 24.1410
#
#
#
# Elastic Compliance Matrix: (Units=1/GPa)
#
#
# Indices 1 2 3 4 5 6 
#
# 1 0.029449 -0.005703 -0.002946 0.000001 -0.016654 0.000003
# 2 -0.005703 0.010751 -0.003893 0.000001 0.001446 -0.000004
# 3 -0.002946 -0.003893 0.010319 -0.000001 -0.000686 0.000001
# 4 0.000001 0.000001 -0.000001 0.029348 -0.000003 0.002095
# 5 -0.016654 0.001446 -0.000686 -0.000003 0.075758 0.000001
# 6 0.000003 -0.000004 0.000001 0.002095 0.000001 0.041573
#
#
# Mechanical properties :
#
#
# Convention : Reuss Voigt Hill
#
# Bulk Modulus (GPa) = 39.31302 61.87497 50.59399
# Shear Modulus (GPa) = 21.66748 27.21272 24.44010
#
# Velocity S-wave (km/s) = 3.54454 3.97230 3.76450
# Velocity P-wave (km/s) = 6.28865 7.54432 6.94492
#
# Compressibility (1/GPa) = 0.02543687
#
# Stress axis : x y z
#
# Youngs Moduli (GPa) = 33.95649 93.01307 96.91006
#
# Poissons Ratio (x) = 0.53046 0.28545
# Poissons Ratio (y) = 0.19366 0.37724
# Poissons Ratio (z) = 0.10002 0.36207
#
# Static dielectric constant tensor:
#      x y z
#    x 2.946360 -0.000010 -0.023290 
#    y -0.000010 3.494410 0.000000 
#    z -0.023290 0.000000 3.596460 
# 
# 
# High freq. dielectric constant tensor:
#      x y z
#    x 1.621800 0.000000 -0.002420 
#    y 0.000000 1.689220 0.000000 
#    z -0.002420 0.000000 1.676570 
# 
# From -- ./inp_files/324150.got.cif
#   From: 2010.06.25/outbox.cif.g09.slc.cpg/sg12_163_cif.got.tgz:324150.got - 2010.06.28 00:19:55.
