data_PCOD8086835
_publ_section_title
;
Structure prediction by ZEFSAII (Michael W. Deem and Ramdas Pophale) SiO2 
 PCOD8086835
Probable space group: C 2/M
;
_chemical_formula_sum "Si O2"
_cell_formula_units_Z 56
_cell_length_a 24.463397
_cell_length_b 8.943917
_cell_length_c 14.201358
_cell_angle_alpha 90.000000
_cell_angle_beta 83.029971
_cell_angle_gamma 90.000000
_cell_volume 3084.273926
_symmetry_space_group_name_H-M "C 2/M"
_symmetry_group_IT_number 12
_symmetry_cell_setting 'monoclinic'
loop_
_space_group_symop_operation_xyz
x,y,z
-x,y,-z
-x,-y,-z
x,-y,z
1/2+x,1/2+y,z
1/2-x,1/2+y,-z
1/2-x,1/2-y,-z
1/2+x,1/2-y,z
loop_
_atom_site_type_symbol
_atom_site_label
_atom_site_fract_x
_atom_site_fract_y
_atom_site_fract_z
Si Si1 0.789758 0.324408 0.307115
Si Si2 0.441484 0.323400 0.976079
Si Si3 0.135158 0.177739 0.557102
Si Si4 0.457734 0.176360 0.310584
Si Si5 0.166233 0.176683 0.343572
Si Si6 0.931948 0.822377 0.764935
Si Si7 0.883839 0.671939 0.149865
O O1 0.793428 0.500000 0.331854
O O2 0.815258 0.232964 0.387783
O O3 0.727541 0.267253 0.304988
O O4 0.823408 0.292283 0.204119
O O5 0.441621 0.500000 0.979794
O O6 0.430217 0.266247 0.872967
O O7 0.500000 0.258971 0.000000
O O8 0.392711 0.266360 0.053544
O O9 0.077200 0.250138 0.598333
O O10 0.148044 0.235533 0.449467
O O11 0.130528 0.000000 0.564705
O O12 0.518257 0.245170 0.300752
O O13 0.429458 0.217782 0.217327
O O14 0.459696 0.000000 0.326433
O O15 0.124079 0.233751 0.272754
O O16 0.166038 0.000000 0.345082
O O17 0.939748 0.000000 0.756927
O O18 0.889696 0.500000 0.121153
#
# Coordination Sequence:
#
# PCOD8086835 Si02
#       7
#     8   8   8   8   8   8   8
#     4   9  18  35  55  77 103 134 173 210 251 301
#     4  10  19  31  51  78 102 128 165 212 257 295
#     4  10  19  32  54  80 101 131 174 215 253 297
#     4  10  20  34  51  76 106 137 168 209 261 306
#     4   9  19  35  54  74 102 140 175 207 250 306
#     4  10  20  35  53  74 103 138 173 210 253 305
#     4   9  18  31  51  75 100 131 165 206 253 304
#
# _framework density 18.156623
#
# number of rings (size 3 to 8) (size 9 to 14) (size 15 to 20)
#    0.000    2.429    1.429    2.143    0.000    3.714 
#    0.000    6.429    0.000    0.000    0.000    0.000 
#    0.000    0.000    0.000    0.000    0.000    0.000 
#
# Total GULP energy -347224.455285 kJ/mol
# GULP energy per Si atom -12400.873403 kJ/mol
# Density = 1.811530 g / cm^3
# Si number density = 18.156623 Si / 1000 Ang^3
#
#
#
# Elastic Constant Matrix: (Units=GPa)
#
#
# Indices 1 2 3 4 5 6 
#
# 1 137.9386 30.1232 81.9942 0.0000 -5.9912 0.0000
# 2 30.1232 38.7773 28.8369 0.0000 -3.0063 0.0000
# 3 81.9942 28.8369 129.0101 0.0000 -10.9424 0.0000
# 4 0.0000 0.0000 0.0000 25.3335 0.0000 -5.5796
# 5 -5.9912 -3.0063 -10.9424 0.0000 23.8168 0.0000
# 6 0.0000 0.0000 0.0000 -5.5796 0.0000 22.4047
#
#
#
# Elastic Compliance Matrix: (Units=1/GPa)
#
#
# Indices 1 2 3 4 5 6 
#
# 1 0.012275 -0.004489 -0.006852 0.000000 -0.000627 0.000000
# 2 -0.004489 0.032584 -0.004346 0.000000 0.000987 0.000000
# 3 -0.006852 -0.004346 0.013407 0.000000 0.003888 0.000000
# 4 0.000000 0.000000 0.000000 0.041764 0.000000 0.010401
# 5 -0.000627 0.000987 0.003888 0.000000 0.043740 0.000000
# 6 0.000000 0.000000 0.000000 0.010401 0.000000 0.047224
#
#
# Mechanical properties :
#
#
# Convention : Reuss Voigt Hill
#
# Bulk Modulus (GPa) = 37.18512 65.29274 51.23893
# Shear Modulus (GPa) = 21.61376 25.29579 23.45478
#
# Velocity S-wave (km/s) = 3.45397 3.73661 3.59806
# Velocity P-wave (km/s) = 6.03583 7.39292 6.74857
#
# Compressibility (1/GPa) = 0.02689248
#
# Stress axis : x y z
#
# Youngs Moduli (GPa) = 81.46313 30.68949 74.58674
#
# Poissons Ratio (x) = 0.13777 0.51103
# Poissons Ratio (y) = 0.36571 0.32419
# Poissons Ratio (z) = 0.55815 0.13339
#
# Static dielectric constant tensor:
#      x y z
#    x 3.490280 0.000000 -0.077420 
#    y 0.000000 3.134250 0.000000 
#    z -0.077420 0.000000 3.414860 
# 
# 
# High freq. dielectric constant tensor:
#      x y z
#    x 1.696730 0.000000 -0.014170 
#    y 0.000000 1.687740 0.000000 
#    z -0.014170 0.000000 1.705540 
# 
# From -- ./inp_files/237404.got.cif
#   From: 2010.06.25/outbox.cif.g09.slc.cpg/sg12_119_cif.got.tgz:237404.got - 2010.06.28 00:19:55.
