data_PCOD8086859
_publ_section_title
;
Structure prediction by ZEFSAII (Michael W. Deem and Ramdas Pophale) SiO2 
 PCOD8086859
Probable space group: C 2/M
;
_chemical_formula_sum "Si O2"
_cell_formula_units_Z 40
_cell_length_a 25.174125
_cell_length_b 8.799282
_cell_length_c 10.314962
_cell_angle_alpha 90.000000
_cell_angle_beta 105.111350
_cell_angle_gamma 90.000000
_cell_volume 2205.900899
_symmetry_space_group_name_H-M "C 2/M"
_symmetry_group_IT_number 12
_symmetry_cell_setting 'monoclinic'
loop_
_space_group_symop_operation_xyz
x,y,z
-x,y,-z
-x,-y,-z
x,-y,z
1/2+x,1/2+y,z
1/2-x,1/2+y,-z
1/2-x,1/2-y,-z
1/2+x,1/2-y,z
loop_
_atom_site_type_symbol
_atom_site_label
_atom_site_fract_x
_atom_site_fract_y
_atom_site_fract_z
Si Si1 0.388684 0.320763 0.599705
Si Si2 0.114550 0.672870 0.676195
Si Si3 0.767862 0.675497 0.144179
Si Si4 0.715543 0.820332 0.361338
Si Si5 0.009295 0.167939 0.658576
O O1 0.378949 0.500000 0.606689
O O2 0.376609 0.277498 0.443240
O O3 0.347860 0.230951 0.668155
O O4 0.451144 0.276088 0.682111
O O5 0.107907 0.500000 0.624363
O O6 0.166395 0.692021 0.803239
O O7 0.060040 0.720678 0.722954
O O8 0.749856 0.500000 0.137369
O O9 0.738253 0.764197 0.239966
O O10 0.750000 0.750000 0.000000
O O11 0.750000 0.750000 0.500000
O O12 0.719973 0.000000 0.373195
O O13 0.000000 0.161315 0.500000
O O14 0.024072 0.000000 0.720451
#
# Coordination Sequence:
#
# PCOD8086859 Si02
#       5
#     8   8   8   8   8
#     4  10  19  32  52  79 111 144 180 224 274 327
#     4  10  19  31  51  78 109 143 182 226 273 325
#     4  11  24  40  57  81 112 149 189 228 276 333
#     4  12  23  36  57  83 112 147 184 230 280 328
#     4   8  16  29  47  74 107 142 178 219 271 326
#
# _framework density 18.133179999999999
#
# number of rings (size 3 to 8) (size 9 to 14) (size 15 to 20)
#    0.000    1.800    2.000    4.800    0.000    6.800 
#    0.000    0.000    0.000    1.200    0.000    8.400 
#    0.000    0.000    0.000    0.000    0.000    0.000 
#
# Total GULP energy -247978.711963 kJ/mol
# GULP energy per Si atom -12398.935598 kJ/mol
# Density = 1.809191 g / cm^3
# Si number density = 18.133180 Si / 1000 Ang^3
#
#
#
# Elastic Constant Matrix: (Units=GPa)
#
#
# Indices 1 2 3 4 5 6 
#
# 1 155.8168 74.4837 48.9119 0.0000 -4.0819 0.0000
# 2 74.4837 138.8419 47.8811 0.0000 -1.1248 0.0000
# 3 48.9119 47.8811 81.6470 0.0000 -5.1624 0.0000
# 4 0.0000 0.0000 0.0000 25.4574 0.0000 -0.9005
# 5 -4.0819 -1.1248 -5.1624 0.0000 17.9666 0.0000
# 6 0.0000 0.0000 0.0000 -0.9005 0.0000 37.4479
#
#
#
# Elastic Compliance Matrix: (Units=1/GPa)
#
#
# Indices 1 2 3 4 5 6 
#
# 1 0.009311 -0.003866 -0.003251 0.000000 0.000939 0.000000
# 2 -0.003866 0.010650 -0.004016 0.000000 -0.001366 0.000000
# 3 -0.003251 -0.004016 0.016793 0.000000 0.003835 0.000000
# 4 0.000000 0.000000 0.000000 0.039315 0.000000 0.000945
# 5 0.000939 -0.001366 0.003835 0.000000 0.056889 0.000000
# 6 0.000000 0.000000 0.000000 0.000945 0.000000 0.026727
#
#
# Mechanical properties :
#
#
# Convention : Reuss Voigt Hill
#
# Bulk Modulus (GPa) = 69.02419 79.87322 74.44870
# Shear Modulus (GPa) = 26.76931 29.84299 28.30615
#
# Velocity S-wave (km/s) = 3.84638 4.06121 3.95525
# Velocity P-wave (km/s) = 7.60750 8.13234 7.87429
#
# Compressibility (1/GPa) = 0.01448767
#
# Stress axis : x y z
#
# Youngs Moduli (GPa) = 107.39830 93.89272 59.54774
#
# Poissons Ratio (x) = 0.36301 0.19361
# Poissons Ratio (y) = 0.41523 0.23915
# Poissons Ratio (z) = 0.34918 0.37708
#
# Static dielectric constant tensor:
#      x y z
#    x 4.163650 0.000000 -0.178530 
#    y 0.000000 3.526900 0.000000 
#    z -0.178530 0.000000 3.141220 
# 
# 
# High freq. dielectric constant tensor:
#      x y z
#    x 1.726430 0.000000 0.002330 
#    y 0.000000 1.717520 0.000000 
#    z 0.002330 0.000000 1.643400 
# 
# From -- ./inp_files/101084.got.cif
#   From: 2010.06.25/outbox.cif.g09.slc.cpg/sg12_51_cif.got.tgz:101084.got - 2010.06.28 00:19:55.
