data_PCOD8086935
_publ_section_title
;
Structure prediction by ZEFSAII (Michael W. Deem and Ramdas Pophale) SiO2 
 PCOD8086935
Probable space group: C 2/M
;
_chemical_formula_sum "Si O2"
_cell_formula_units_Z 56
_cell_length_a 24.059324
_cell_length_b 9.045643
_cell_length_c 16.585934
_cell_angle_alpha 90.000000
_cell_angle_beta 66.067279
_cell_angle_gamma 90.000000
_cell_volume 3299.283633
_symmetry_space_group_name_H-M "C 2/M"
_symmetry_group_IT_number 12
_symmetry_cell_setting 'monoclinic'
loop_
_space_group_symop_operation_xyz
x,y,z
-x,y,-z
-x,-y,-z
x,-y,z
1/2+x,1/2+y,z
1/2-x,1/2+y,-z
1/2-x,1/2-y,-z
1/2+x,1/2-y,z
loop_
_atom_site_type_symbol
_atom_site_label
_atom_site_fract_x
_atom_site_fract_y
_atom_site_fract_z
Si Si1 0.881631 0.667556 0.209723
Si Si2 0.134421 0.825541 0.935012
Si Si3 0.737622 0.167517 0.800309
Si Si4 0.857697 0.672621 0.747392
Si Si5 0.485995 0.827614 0.598688
Si Si6 0.039352 0.171873 0.714630
Si Si7 0.089770 0.829109 0.136220
O O1 0.906591 0.500000 0.193511
O O2 0.904936 0.754082 0.115347
O O3 0.807416 0.669368 0.251329
O O4 0.903635 0.748662 0.277265
O O5 0.202685 0.755509 0.893161
O O6 0.138385 0.000000 0.919830
O O7 0.102014 0.783103 0.037290
O O8 0.800290 0.247191 0.740501
O O9 0.750584 0.000000 0.820936
O O10 0.844661 0.500000 0.758809
O O11 0.916014 0.710863 0.658581
O O12 0.867041 0.731991 0.832352
O O13 0.500000 0.776903 0.500000
O O14 0.530512 0.737199 0.630779
O O15 0.499279 0.000000 0.604147
O O16 0.980425 0.204478 0.803897
O O17 0.053764 0.000000 0.698289
O O18 0.105451 0.000000 0.142858
#
# Coordination Sequence:
#
# PCOD8086935 Si02
#       7
#     8   8   8   8   8   8   8
#     4   9  19  33  48  69  97 134 170 203 245 285
#     4   9  17  31  48  68  95 131 173 209 240 283
#     4   9  19  33  48  68  97 133 168 205 245 284
#     4  10  19  31  52  75  96 128 164 200 243 293
#     4   9  19  36  56  79 104 126 152 193 246 298
#     4  10  19  32  52  75 100 130 163 203 244 290
#     4   9  19  32  46  69 100 132 166 206 252 287
#
# _framework density 16.973382000000001
#
# number of rings (size 3 to 8) (size 9 to 14) (size 15 to 20)
#    0.857    1.857    0.000    1.714    0.000    3.714 
#    0.000    2.857    0.000    0.857    0.000    0.000 
#    0.000    0.000    0.000    0.000    0.000    0.000 
#
# Total GULP energy -347078.850015 kJ/mol
# GULP energy per Si atom -12395.673215 kJ/mol
# Density = 1.693475 g / cm^3
# Si number density = 16.973382 Si / 1000 Ang^3
#
#
#
# Elastic Constant Matrix: (Units=GPa)
#
#
# Indices 1 2 3 4 5 6 
#
# 1 97.9636 58.5831 45.6967 0.0000 15.9913 0.0000
# 2 58.5831 110.1170 49.0121 0.0000 14.0216 -0.0001
# 3 45.6967 49.0121 89.2432 0.0000 22.0571 0.0000
# 4 0.0000 0.0000 0.0000 22.0292 0.0000 3.3168
# 5 15.9913 14.0216 22.0571 0.0000 15.2901 0.0000
# 6 0.0000 -0.0001 0.0000 3.3168 0.0000 33.6300
#
#
#
# Elastic Compliance Matrix: (Units=1/GPa)
#
#
# Indices 1 2 3 4 5 6 
#
# 1 0.016804 -0.006609 -0.003309 0.000000 -0.006741 0.000000
# 2 -0.006609 0.014672 -0.004750 0.000000 0.000310 0.000000
# 3 -0.003309 -0.004750 0.021099 0.000000 -0.022620 0.000000
# 4 0.000000 0.000000 0.000000 0.046078 0.000000 -0.004545
# 5 -0.006741 0.000310 -0.022620 0.000000 0.104799 0.000000
# 6 0.000000 0.000000 0.000000 -0.004545 0.000000 0.030184
#
#
# Mechanical properties :
#
#
# Convention : Reuss Voigt Hill
#
# Bulk Modulus (GPa) = 43.03075 67.10085 55.06580
# Shear Modulus (GPa) = 18.46938 23.79200 21.13069
#
# Velocity S-wave (km/s) = 3.30227 3.74802 3.53219
# Velocity P-wave (km/s) = 6.32036 7.63865 7.01056
#
# Compressibility (1/GPa) = 0.02323920
#
# Stress axis : x y z
#
# Youngs Moduli (GPa) = 59.51075 68.15685 47.39489
#
# Poissons Ratio (x) = 0.45042 0.15682
# Poissons Ratio (y) = 0.39329 0.22515
# Poissons Ratio (z) = 0.19691 0.32378
#
# Static dielectric constant tensor:
#      x y z
#    x 3.070020 0.000000 0.004750 
#    y 0.000000 3.247910 0.000000 
#    z 0.004750 0.000000 2.917320 
# 
# 
# High freq. dielectric constant tensor:
#      x y z
#    x 1.647890 0.000000 0.003320 
#    y 0.000000 1.670590 0.000000 
#    z 0.003320 0.000000 1.620180 
# 
# From -- ./inp_files/287402.got.cif
#   From: 2010.06.25/outbox.cif.g09.slc.cpg/sg12_144_cif.got.tgz:287402.got - 2010.06.28 00:19:55.
