data_PCOD8086805
_publ_section_title
;
Structure prediction by ZEFSAII (Michael W. Deem and Ramdas Pophale) SiO2 
 PCOD8086805
Probable space group: C 2/M
;
_chemical_formula_sum "Si O2"
_cell_formula_units_Z 64
_cell_length_a 20.766786
_cell_length_b 8.738153
_cell_length_c 21.984827
_cell_angle_alpha 90.000000
_cell_angle_beta 121.828995
_cell_angle_gamma 90.000000
_cell_volume 3389.531972
_symmetry_space_group_name_H-M "C 2/M"
_symmetry_group_IT_number 12
_symmetry_cell_setting 'monoclinic'
loop_
_space_group_symop_operation_xyz
x,y,z
-x,y,-z
-x,-y,-z
x,-y,z
1/2+x,1/2+y,z
1/2-x,1/2+y,-z
1/2-x,1/2-y,-z
1/2+x,1/2-y,z
loop_
_atom_site_type_symbol
_atom_site_label
_atom_site_fract_x
_atom_site_fract_y
_atom_site_fract_z
Si Si1 0.954485 0.182010 0.659084
Si Si2 0.279105 0.819456 0.076475
Si Si3 0.476663 0.180635 0.421842
Si Si4 0.053078 0.323638 0.813335
Si Si5 0.694117 0.182732 0.685787
Si Si6 0.821255 0.175015 0.667893
Si Si7 0.212695 0.676140 0.158656
Si Si8 0.910629 0.326770 0.812711
O O1 0.870305 0.247206 0.636822
O O2 0.967234 0.242139 0.597977
O O3 0.018252 0.239457 0.737624
O O4 0.956016 0.000000 0.661132
O O5 0.363910 0.756082 0.131656
O O6 0.222484 0.771376 0.102095
O O7 0.279974 0.000000 0.070488
O O8 0.250000 0.750000 0.000000
O O9 0.500000 0.239056 0.500000
O O10 0.391846 0.234780 0.364906
O O11 0.485264 0.000000 0.420994
O O12 0.059925 0.500000 0.797680
O O13 0.001356 0.304633 0.849111
O O14 0.738377 0.239600 0.645847
O O15 0.728128 0.264725 0.761537
O O16 0.702304 0.000000 0.697969
O O17 0.872303 0.196918 0.753051
O O18 0.810751 0.000000 0.646703
O O19 0.231250 0.500000 0.154333
O O20 0.124563 0.695591 0.137153
O O21 0.889100 0.500000 0.779911
#
# Coordination Sequence:
#
# PCOD8086805 Si02
#       8
#     8   8   8   8   8   8   8   8
#     4  10  19  31  51  77 101 125 156 200 250 294
#     4  11  23  37  52  71  99 134 168 202 240 284
#     4  10  21  35  49  67  95 133 172 205 239 284
#     4   9  18  34  55  76  98 128 165 200 237 286
#     4   9  17  32  53  73  96 128 165 202 239 286
#     4   8  15  28  47  72  98 123 154 195 244 291
#     4  10  19  32  53  79 103 126 157 200 247 293
#     4   8  15  29  50  75  99 123 156 198 239 282
#
# _framework density 18.881661999999999
#
# number of rings (size 3 to 8) (size 9 to 14) (size 15 to 20)
#    0.000    2.625    0.000    1.875    0.000    5.750 
#    0.000    1.250    0.000    3.750    0.000    0.000 
#    0.000    0.000    0.000    0.000    0.000    0.000 
#
# Total GULP energy -396422.743041 kJ/mol
# GULP energy per Si atom -12388.210720 kJ/mol
# Density = 1.883869 g / cm^3
# Si number density = 18.881662 Si / 1000 Ang^3
#
#
#
# Elastic Constant Matrix: (Units=GPa)
#
#
# Indices 1 2 3 4 5 6 
#
# 1 131.4067 21.9943 44.4810 0.0000 -34.7530 0.0000
# 2 21.9943 35.1076 20.7068 0.0000 -7.3185 0.0000
# 3 44.4810 20.7068 77.6725 0.0000 -27.0297 0.0000
# 4 0.0000 0.0000 0.0000 23.5713 0.0000 -6.1199
# 5 -34.7530 -7.3185 -27.0297 0.0000 20.8659 0.0000
# 6 0.0000 0.0000 0.0000 -6.1199 0.0000 26.6290
#
#
#
# Elastic Compliance Matrix: (Units=1/GPa)
#
#
# Indices 1 2 3 4 5 6 
#
# 1 0.014250 -0.004791 0.001441 0.000000 0.023920 0.000000
# 2 -0.004791 0.035410 -0.009379 0.000000 -0.007710 0.000000
# 3 0.001441 -0.009379 0.025929 0.000000 0.032698 0.000000
# 4 0.000000 0.000000 0.000000 0.045117 0.000000 0.010369
# 5 0.023920 -0.007710 0.032698 0.000000 0.127418 0.000000
# 6 0.000000 0.000000 0.000000 0.010369 0.000000 0.039936
#
#
# Mechanical properties :
#
#
# Convention : Reuss Voigt Hill
#
# Bulk Modulus (GPa) = 19.94819 46.50566 33.22692
# Shear Modulus (GPa) = 15.14101 24.68023 19.91062
#
# Velocity S-wave (km/s) = 2.83484 3.61931 3.25082
# Velocity P-wave (km/s) = 4.61550 6.49225 5.63259
#
# Compressibility (1/GPa) = 0.05012986
#
# Stress axis : x y z
#
# Youngs Moduli (GPa) = 70.17339 28.24053 38.56736
#
# Poissons Ratio (x) = 0.13530 -0.05556
# Poissons Ratio (y) = 0.33619 0.36174
# Poissons Ratio (z) = -0.10109 0.26488
#
# Static dielectric constant tensor:
#      x y z
#    x 4.224470 0.000000 -0.074350 
#    y 0.000000 3.391690 0.000000 
#    z -0.074350 0.000000 3.089530 
# 
# 
# High freq. dielectric constant tensor:
#      x y z
#    x 1.764960 0.000000 -0.012350 
#    y 0.000000 1.726240 0.000000 
#    z -0.012350 0.000000 1.683620 
# 
# From -- ./inp_files/319789.got.cif
#   From: 2010.06.25/outbox.cif.g09.slc.cpg/sg12_160_cif.got.tgz:319789.got - 2010.06.28 00:19:55.
