data_PCOD8086017
_publ_section_title
;
Structure prediction by ZEFSAII (Michael W. Deem and Ramdas Pophale) SiO2 
 PCOD8086017
Probable space group: C 2/M
;
_chemical_formula_sum "Si O2"
_cell_formula_units_Z 56
_cell_length_a 20.060597
_cell_length_b 8.664965
_cell_length_c 30.960219
_cell_angle_alpha 90.000000
_cell_angle_beta 35.810462
_cell_angle_gamma 90.000000
_cell_volume 3148.828921
_symmetry_space_group_name_H-M "C 2/M"
_symmetry_group_IT_number 12
_symmetry_cell_setting 'monoclinic'
loop_
_space_group_symop_operation_xyz
x,y,z
-x,y,-z
-x,-y,-z
x,-y,z
1/2+x,1/2+y,z
1/2-x,1/2+y,-z
1/2-x,1/2-y,-z
1/2+x,1/2-y,z
loop_
_atom_site_type_symbol
_atom_site_label
_atom_site_fract_x
_atom_site_fract_y
_atom_site_fract_z
Si Si1 0.579564 0.668325 0.999449
Si Si2 0.875627 0.317953 0.557970
Si Si3 0.122324 0.815213 0.841921
Si Si4 0.029328 0.317199 0.717484
Si Si5 0.223318 0.817100 0.560298
Si Si6 0.164267 0.817291 0.723614
Si Si7 0.773022 0.684651 0.841027
O O1 0.613984 0.500000 0.999477
O O2 0.695566 0.752439 0.921769
O O3 0.500000 0.647091 0.000000
O O4 0.501961 0.751822 0.077104
O O5 0.889218 0.500000 0.548394
O O6 0.821888 0.258812 0.541219
O O7 0.791629 0.272094 0.641318
O O8 0.000000 0.241177 0.500000
O O9 0.148898 0.753694 0.780106
O O10 0.222036 0.757899 0.821875
O O11 0.117650 0.000000 0.844936
O O12 0.035919 0.500000 0.710178
O O13 0.102319 0.243901 0.640547
O O14 0.071734 0.264362 0.742063
O O15 0.901024 0.254889 0.778795
O O16 0.250000 0.750000 0.500000
O O17 0.218471 0.000000 0.560855
O O18 0.145485 0.000000 0.729938
O O19 0.767351 0.500000 0.845954
#
# Coordination Sequence:
#
# PCOD8086017 Si02
#       7
#     8   8   8   8   8   8   8
#     4   7  10  19  36  60  89 114 143 192 241 266
#     4   8  15  28  46  66  86 112 148 187 220 254
#     4   8  13  23  42  65  87 115 154 198 235 266
#     4  10  19  31  47  66  93 125 151 180 221 271
#     4  10  20  34  52  72  94 119 148 184 225 269
#     4   9  17  29  45  65  90 118 148 185 229 275
#     4   8  14  24  41  66  90 116 154 194 228 264
#
# _framework density 17.784389999999998
#
# number of rings (size 3 to 8) (size 9 to 14) (size 15 to 20)
#    0.000    3.429    0.000    3.429    0.000    1.143 
#    0.000    5.000    0.000   15.857    0.000    1.000 
#    0.000    8.571    0.000    0.000    0.000    0.000 
#
# Total GULP energy -346871.439565 kJ/mol
# GULP energy per Si atom -12388.265699 kJ/mol
# Density = 1.774391 g / cm^3
# Si number density = 17.784390 Si / 1000 Ang^3
#
#
#
# Elastic Constant Matrix: (Units=GPa)
#
#
# Indices 1 2 3 4 5 6 
#
# 1 102.0187 15.0937 108.0643 0.0016 -0.1173 0.0197
# 2 15.0937 27.3712 22.5888 0.0168 -1.7956 -0.0124
# 3 108.0643 22.5888 189.0284 -0.0064 -0.3922 -0.0020
# 4 0.0016 0.0168 -0.0064 13.4952 -0.0014 0.0503
# 5 -0.1173 -1.7956 -0.3922 -0.0014 37.6807 0.0058
# 6 0.0197 -0.0124 -0.0020 0.0503 0.0058 19.6849
#
#
#
# Elastic Compliance Matrix: (Units=1/GPa)
#
#
# Indices 1 2 3 4 5 6 
#
# 1 0.024971 -0.002219 -0.014011 -0.000007 -0.000174 -0.000028
# 2 -0.002219 0.040863 -0.003611 -0.000052 0.001903 0.000027
# 3 -0.014011 -0.003611 0.013731 0.000013 -0.000073 0.000013
# 4 -0.000007 -0.000052 0.000013 0.074101 0.000000 -0.000189
# 5 -0.000174 0.001903 -0.000073 0.000000 0.026628 -0.000006
# 6 -0.000028 0.000027 0.000013 -0.000189 -0.000006 0.050801
#
#
# Mechanical properties :
#
#
# Convention : Reuss Voigt Hill
#
# Bulk Modulus (GPa) = 25.07218 67.76798 46.42008
# Shear Modulus (GPa) = 17.60117 25.68359 21.64238
#
# Velocity S-wave (km/s) = 3.14936 3.80434 3.49224
# Velocity P-wave (km/s) = 5.23002 7.58191 6.51300
#
# Compressibility (1/GPa) = 0.03988484
#
# Stress axis : x y z
#
# Youngs Moduli (GPa) = 40.04571 24.47200 72.82597
#
# Poissons Ratio (x) = 0.05430 1.02036
# Poissons Ratio (y) = 0.08886 0.26295
# Poissons Ratio (z) = 0.56108 0.08836
#
# Static dielectric constant tensor:
#      x y z
#    x 3.307520 -0.000010 -0.067940 
#    y -0.000010 2.782570 0.000000 
#    z -0.067940 0.000000 3.812450 
# 
# 
# High freq. dielectric constant tensor:
#      x y z
#    x 1.671880 0.000000 0.000640 
#    y 0.000000 1.633570 0.000000 
#    z 0.000640 0.000000 1.707330 
# 
# From -- ./inp_files/318825.got.cif
#   From: 2010.06.25/outbox.cif.g09.slc.cpg/sg12_160_cif.got.tgz:318825.got - 2010.06.28 00:19:55.
