data_PCOD8086815
_publ_section_title
;
Structure prediction by ZEFSAII (Michael W. Deem and Ramdas Pophale) SiO2 
 PCOD8086815
Probable space group: C 2/M
;
_chemical_formula_sum "Si O2"
_cell_formula_units_Z 48
_cell_length_a 16.420236
_cell_length_b 14.287394
_cell_length_c 10.871570
_cell_angle_alpha 90.000000
_cell_angle_beta 102.141692
_cell_angle_gamma 90.000000
_cell_volume 2493.442749
_symmetry_space_group_name_H-M "C 2/M"
_symmetry_group_IT_number 12
_symmetry_cell_setting 'monoclinic'
loop_
_space_group_symop_operation_xyz
x,y,z
-x,y,-z
-x,-y,-z
x,-y,z
1/2+x,1/2+y,z
1/2-x,1/2+y,-z
1/2-x,1/2-y,-z
1/2+x,1/2-y,z
loop_
_atom_site_type_symbol
_atom_site_label
_atom_site_fract_x
_atom_site_fract_y
_atom_site_fract_z
Si Si1 0.606351 0.691440 0.760428
Si Si2 0.095115 0.108337 0.015946
Si Si3 0.352799 0.605253 0.471507
Si Si4 0.451904 0.767928 0.610959
Si Si5 0.726469 0.744667 0.134292
Si Si6 0.824210 0.607089 0.694011
O O1 0.600769 0.620897 0.643675
O O2 0.519650 0.746947 0.738831
O O3 0.683626 0.765766 0.768444
O O4 0.622238 0.628464 0.885050
O O5 0.158834 0.161471 0.129562
O O6 0.103637 0.000000 0.050917
O O7 0.000000 0.143049 0.000000
O O8 0.372441 0.500000 0.524098
O O9 0.388368 0.679977 0.580341
O O10 0.254641 0.619958 0.420956
O O11 0.500000 0.790842 0.500000
O O12 0.402433 0.858515 0.639493
O O13 0.684846 0.837667 0.179591
O O14 0.750000 0.750000 0.000000
O O15 0.837784 0.500000 0.735761
#
# Coordination Sequence:
#
# PCOD8086815 Si02
#       6
#     8   8   8   8   8   8
#     4   9  18  32  51  74 106 140 171 212 260 310
#     4  10  19  31  51  77 104 133 165 209 265 317
#     4   9  18  32  53  79 105 137 176 218 264 312
#     4  10  20  33  53  80 111 143 178 219 259 307
#     4   9  19  35  54  75 101 132 172 218 261 310
#     4  10  20  36  56  76 104 144 183 217 260 313
#
# _framework density 19.250492000000001
#
# number of rings (size 3 to 8) (size 9 to 14) (size 15 to 20)
#    0.000    2.500    0.000    2.000    0.000    8.000 
#    0.000    1.667    0.000   15.500    0.000    0.000 
#    0.000    0.000    0.000    0.000    0.000    0.000 
#
# Total GULP energy -297407.386372 kJ/mol
# GULP energy per Si atom -12391.974432 kJ/mol
# Density = 1.920668 g / cm^3
# Si number density = 19.250492 Si / 1000 Ang^3
#
#
#
# Elastic Constant Matrix: (Units=GPa)
#
#
# Indices 1 2 3 4 5 6 
#
# 1 121.9490 74.6654 25.8405 0.0000 9.6507 0.0000
# 2 74.6654 120.1026 43.2720 0.0000 13.1155 0.0000
# 3 25.8405 43.2720 53.2889 0.0000 4.9286 0.0000
# 4 0.0000 0.0000 0.0000 27.2484 0.0000 0.2241
# 5 9.6507 13.1155 4.9286 0.0000 29.4647 0.0000
# 6 0.0000 0.0000 0.0000 0.2241 0.0000 29.1251
#
#
#
# Elastic Compliance Matrix: (Units=1/GPa)
#
#
# Indices 1 2 3 4 5 6 
#
# 1 0.013259 -0.008301 0.000377 0.000000 -0.000711 0.000000
# 2 -0.008301 0.017377 -0.009773 0.000000 -0.003381 0.000000
# 3 0.000377 -0.009773 0.026538 0.000000 -0.000212 0.000000
# 4 0.000000 0.000000 0.000000 0.036702 0.000000 -0.000282
# 5 -0.000711 -0.003381 -0.000212 0.000000 0.035712 0.000000
# 6 0.000000 0.000000 0.000000 -0.000282 0.000000 0.034337
#
#
# Mechanical properties :
#
#
# Convention : Reuss Voigt Hill
#
# Bulk Modulus (GPa) = 45.91206 64.76623 55.33914
# Shear Modulus (GPa) = 24.20384 27.27181 25.73782
#
# Velocity S-wave (km/s) = 3.54970 3.76797 3.66046
# Velocity P-wave (km/s) = 6.37982 7.25583 6.83188
#
# Compressibility (1/GPa) = 0.02178077
#
# Stress axis : x y z
#
# Youngs Moduli (GPa) = 75.42055 57.54715 37.68168
#
# Poissons Ratio (x) = 0.47770 -0.01420
# Poissons Ratio (y) = 0.62607 0.36825
# Poissons Ratio (z) = -0.02843 0.56239
#
# Static dielectric constant tensor:
#      x y z
#    x 3.946270 0.000000 0.262730 
#    y 0.000000 3.405990 0.000000 
#    z 0.262730 0.000000 3.437900 
# 
# 
# High freq. dielectric constant tensor:
#      x y z
#    x 1.768930 0.000000 0.003560 
#    y 0.000000 1.722070 0.000000 
#    z 0.003560 0.000000 1.734900 
# 
# From -- ./inp_files/142834.got.cif
#   From: 2010.06.25/outbox.cif.g09.slc.cpg/sg12_72_cif.got.tgz:142834.got - 2010.06.28 00:19:55.
