data_PCOD8086349
_publ_section_title
;
Structure prediction by ZEFSAII (Michael W. Deem and Ramdas Pophale) SiO2 
 PCOD8086349
Probable space group: C 2/M
;
_chemical_formula_sum "Si O2"
_cell_formula_units_Z 64
_cell_length_a 30.236358
_cell_length_b 8.992203
_cell_length_c 30.734688
_cell_angle_alpha 90.000000
_cell_angle_beta 28.427473
_cell_angle_gamma 90.000000
_cell_volume 3978.077654
_symmetry_space_group_name_H-M "C 2/M"
_symmetry_group_IT_number 12
_symmetry_cell_setting 'monoclinic'
loop_
_space_group_symop_operation_xyz
x,y,z
-x,y,-z
-x,-y,-z
x,-y,z
1/2+x,1/2+y,z
1/2-x,1/2+y,-z
1/2-x,1/2-y,-z
1/2+x,1/2-y,z
loop_
_atom_site_type_symbol
_atom_site_label
_atom_site_fract_x
_atom_site_fract_y
_atom_site_fract_z
Si Si1 0.588666 0.675876 0.866407
Si Si2 0.264298 0.325835 0.086557
Si Si3 0.430288 0.325095 0.879183
Si Si4 0.886771 0.323757 0.241979
Si Si5 0.413410 0.326570 0.795506
Si Si6 0.881763 0.175393 0.063816
Si Si7 0.881495 0.829477 0.405043
Si Si8 0.727976 0.672069 0.587203
O O1 0.593807 0.500000 0.852541
O O2 0.637135 0.765938 0.785717
O O3 0.641012 0.717227 0.866431
O O4 0.482808 0.733830 0.962007
O O5 0.246807 0.500000 0.104435
O O6 0.166476 0.250415 0.162758
O O7 0.303816 0.262265 0.098277
O O8 0.336309 0.287015 0.986033
O O9 0.454114 0.500000 0.859740
O O10 0.514930 0.240739 0.828091
O O11 0.416793 0.265781 0.841885
O O12 0.890370 0.500000 0.239823
O O13 0.803646 0.267531 0.344331
O O14 0.392398 0.500000 0.815121
O O15 0.509783 0.291228 0.687791
O O16 0.887166 0.000000 0.054271
O O17 0.830108 0.724652 0.484076
O O18 0.845543 0.798249 0.387516
O O19 0.861843 0.000000 0.434681
O O20 0.732194 0.500000 0.596632
#
# Coordination Sequence:
#
# PCOD8086349 Si02
#       8
#     8   8   8   8   8   8   8   8
#     4   9  16  31  52  69  92 126 163 198 243 293
#     4  10  19  31  49  71  96 128 170 208 235 273
#     4  10  19  34  49  64  95 136 173 203 231 276
#     4  12  22  30  46  74 102 128 160 199 244 292
#     4  10  20  33  48  68  98 134 166 197 240 283
#     4   8  15  29  51  72  90 123 166 204 238 283
#     4   9  18  33  50  70  95 124 160 202 240 282
#     4  10  19  33  52  70  94 126 159 198 243 290
#
# _framework density 16.088173000000001
#
# number of rings (size 3 to 8) (size 9 to 14) (size 15 to 20)
#    0.000    2.250    2.500    2.625    0.000    2.000 
#    0.000    1.875    0.000    0.000    0.000    0.875 
#    0.000    7.000    0.000    0.000    0.000    0.000 
#
# Total GULP energy -396786.881606 kJ/mol
# GULP energy per Si atom -12399.590050 kJ/mol
# Density = 1.605156 g / cm^3
# Si number density = 16.088173 Si / 1000 Ang^3
#
#
#
# Elastic Constant Matrix: (Units=GPa)
#
#
# Indices 1 2 3 4 5 6 
#
# 1 100.0425 35.3935 49.9553 0.0067 5.1974 0.0024
# 2 35.3935 60.5083 42.9307 -0.0307 5.7520 0.0225
# 3 49.9553 42.9307 88.0918 0.0039 5.9145 -0.0095
# 4 0.0067 -0.0307 0.0039 25.0291 -0.0035 -2.3035
# 5 5.1974 5.7520 5.9145 -0.0035 21.1933 0.0047
# 6 0.0024 0.0225 -0.0095 -2.3035 0.0047 21.7336
#
#
#
# Elastic Compliance Matrix: (Units=1/GPa)
#
#
# Indices 1 2 3 4 5 6 
#
# 1 0.014582 -0.004016 -0.006262 -0.000008 -0.000738 -0.000001
# 2 -0.004016 0.026623 -0.010474 0.000032 -0.003318 -0.000028
# 3 -0.006262 -0.010474 0.020090 -0.000013 -0.001228 0.000019
# 4 -0.000008 0.000032 -0.000013 0.040347 0.000002 0.004276
# 5 -0.000738 -0.003318 -0.001228 0.000002 0.048609 -0.000007
# 6 -0.000001 -0.000028 0.000019 0.004276 -0.000007 0.046465
#
#
# Mechanical properties :
#
#
# Convention : Reuss Voigt Hill
#
# Bulk Modulus (GPa) = 50.53211 56.13350 53.33280
# Shear Modulus (GPa) = 20.42339 21.61540 21.01940
#
# Velocity S-wave (km/s) = 3.56682 3.66944 3.61849
# Velocity P-wave (km/s) = 6.95993 7.27461 7.11901
#
# Compressibility (1/GPa) = 0.01978940
#
# Stress axis : x y z
#
# Youngs Moduli (GPa) = 68.57745 37.56208 49.77616
#
# Poissons Ratio (x) = 0.15086 0.31172
# Poissons Ratio (y) = 0.27542 0.52136
# Poissons Ratio (z) = 0.42946 0.39343
#
# Static dielectric constant tensor:
#      x y z
#    x 3.204150 -0.000080 0.127480 
#    y -0.000080 2.889320 0.000110 
#    z 0.127480 0.000110 2.996560 
# 
# 
# High freq. dielectric constant tensor:
#      x y z
#    x 1.604730 -0.000010 0.011830 
#    y -0.000010 1.605880 0.000010 
#    z 0.011830 0.000010 1.607350 
# 
# From -- ./inp_files/384510.got.cif
#   From: 2010.06.25/outbox.cif.g09.slc.cpg/sg12_193_cif.got.tgz:384510.got - 2010.06.28 00:19:55.
