data_PCOD8086791
_publ_section_title
;
Structure prediction by ZEFSAII (Michael W. Deem and Ramdas Pophale) SiO2 
 PCOD8086791
Probable space group: C 2/M
;
_chemical_formula_sum "Si O2"
_cell_formula_units_Z 56
_cell_length_a 24.774545
_cell_length_b 9.417380
_cell_length_c 25.436020
_cell_angle_alpha 90.000000
_cell_angle_beta 34.549167
_cell_angle_gamma 90.000000
_cell_volume 3365.539722
_symmetry_space_group_name_H-M "C 2/M"
_symmetry_group_IT_number 12
_symmetry_cell_setting 'monoclinic'
loop_
_space_group_symop_operation_xyz
x,y,z
-x,y,-z
-x,-y,-z
x,-y,z
1/2+x,1/2+y,z
1/2-x,1/2+y,-z
1/2-x,1/2-y,-z
1/2+x,1/2-y,z
loop_
_atom_site_type_symbol
_atom_site_label
_atom_site_fract_x
_atom_site_fract_y
_atom_site_fract_z
Si Si1 0.778661 0.834277 0.096653
Si Si2 0.888685 0.336784 0.095184
Si Si3 0.609538 0.336790 0.604537
Si Si4 0.400428 0.335208 0.793638
Si Si5 0.109786 0.336287 0.787851
Si Si6 0.218828 0.336403 0.600704
Si Si7 0.433064 0.664044 0.886813
O O1 0.832087 0.767940 0.103228
O O2 0.677071 0.760413 0.172556
O O3 0.763623 0.000000 0.119660
O O4 0.837646 0.807274 0.996264
O O5 0.864490 0.500000 0.100393
O O6 0.857499 0.298443 0.179599
O O7 0.000000 0.307275 0.000000
O O8 0.625085 0.500000 0.607410
O O9 0.498446 0.308168 0.682928
O O10 0.672754 0.295026 0.502492
O O11 0.642347 0.249407 0.628591
O O12 0.369526 0.500000 0.816203
O O13 0.413851 0.284857 0.842971
O O14 0.078453 0.500000 0.810107
O O15 0.199595 0.303738 0.677529
O O16 0.018184 0.248862 0.844658
O O17 0.199712 0.500000 0.603286
O O18 0.462747 0.500000 0.863869
#
# Coordination Sequence:
#
# PCOD8086791 Si02
#       7
#     8   8   8   8   8   8   8
#     4  11  23  35  50  73 100 132 170 211 247 287
#     4  10  20  35  53  72  97 132 170 206 246 293
#     4   9  17  30  49  73 102 132 161 196 244 297
#     4  10  20  34  51  71 101 138 167 196 242 302
#     4  10  19  31  51  76 102 131 163 203 246 290
#     4   9  17  29  48  76 103 127 160 202 245 290
#     4  10  20  33  49  73 103 133 163 199 247 296
#
# _framework density 16.639233999999998
#
# number of rings (size 3 to 8) (size 9 to 14) (size 15 to 20)
#    0.000    2.143    2.857    0.857    0.000    2.571 
#    0.000    0.000    0.000    0.857    0.000    6.000 
#    0.000    0.000    0.000    0.000    0.000    0.000 
#
# Total GULP energy -347184.557321 kJ/mol
# GULP energy per Si atom -12399.448476 kJ/mol
# Density = 1.660136 g / cm^3
# Si number density = 16.639234 Si / 1000 Ang^3
#
#
#
# Elastic Constant Matrix: (Units=GPa)
#
#
# Indices 1 2 3 4 5 6 
#
# 1 84.1263 50.0762 46.8303 0.0008 -4.8438 0.0001
# 2 50.0762 67.3891 43.2211 -0.0025 -6.2773 0.0017
# 3 46.8303 43.2211 109.5760 0.0014 2.3997 0.0010
# 4 0.0008 -0.0025 0.0014 16.1809 -0.0001 -2.4395
# 5 -4.8438 -6.2773 2.3997 -0.0001 23.5518 -0.0007
# 6 0.0001 0.0017 0.0010 -2.4395 -0.0007 30.4585
#
#
#
# Elastic Compliance Matrix: (Units=1/GPa)
#
#
# Indices 1 2 3 4 5 6 
#
# 1 0.022629 -0.014014 -0.004173 -0.000003 0.001344 0.000001
# 2 -0.014014 0.029460 -0.005753 0.000006 0.005556 -0.000001
# 3 -0.004173 -0.005753 0.013261 -0.000002 -0.003743 0.000000
# 4 -0.000003 0.000006 -0.000002 0.062557 0.000001 0.005010
# 5 0.001344 0.005556 -0.003743 0.000001 0.044598 0.000001
# 6 0.000001 -0.000001 0.000000 0.005010 0.000001 0.033233
#
#
# Mechanical properties :
#
#
# Convention : Reuss Voigt Hill
#
# Bulk Modulus (GPa) = 57.23905 60.14961 58.69433
# Shear Modulus (GPa) = 19.27234 22.10248 20.68741
#
# Velocity S-wave (km/s) = 3.40699 3.64859 3.52986
# Velocity P-wave (km/s) = 7.06764 7.34693 7.20864
#
# Compressibility (1/GPa) = 0.01747059
#
# Stress axis : x y z
#
# Youngs Moduli (GPa) = 44.19126 33.94466 75.41181
#
# Poissons Ratio (x) = 0.47569 0.31469
# Poissons Ratio (y) = 0.61928 0.43381
# Poissons Ratio (z) = 0.18441 0.19527
#
# Static dielectric constant tensor:
#      x y z
#    x 2.914540 0.000000 0.135270 
#    y 0.000000 3.169560 0.000000 
#    z 0.135270 0.000000 3.512810 
# 
# 
# High freq. dielectric constant tensor:
#      x y z
#    x 1.613700 0.000000 0.005150 
#    y 0.000000 1.643970 0.000000 
#    z 0.005150 0.000000 1.651670 
# 
# From -- ./inp_files/243008.got.cif
#   From: 2010.06.25/outbox.cif.g09.slc.cpg/sg12_122_cif.got.tgz:243008.got - 2010.06.28 00:19:55.
