data_PCOD8086874
_publ_section_title
;
Structure prediction by ZEFSAII (Michael W. Deem and Ramdas Pophale) SiO2 
 PCOD8086874
Probable space group: C 2/M
;
_chemical_formula_sum "Si O2"
_cell_formula_units_Z 48
_cell_length_a 22.858904
_cell_length_b 22.551809
_cell_length_c 10.167102
_cell_angle_alpha 90.000000
_cell_angle_beta 155.428898
_cell_angle_gamma 90.000000
_cell_volume 2179.423307
_symmetry_space_group_name_H-M "C 2/M"
_symmetry_group_IT_number 12
_symmetry_cell_setting 'monoclinic'
loop_
_space_group_symop_operation_xyz
x,y,z
-x,y,-z
-x,-y,-z
x,-y,z
1/2+x,1/2+y,z
1/2-x,1/2+y,-z
1/2-x,1/2-y,-z
1/2+x,1/2-y,z
loop_
_atom_site_type_symbol
_atom_site_label
_atom_site_fract_x
_atom_site_fract_y
_atom_site_fract_z
Si Si1 0.226276 0.431158 0.038405
Si Si2 0.044132 0.931712 0.268420
Si Si3 0.732274 0.654276 0.528363
Si Si4 0.983113 0.370863 0.213068
Si Si5 0.112114 0.270964 0.345648
Si Si6 0.762913 0.930555 0.819128
O O1 0.177979 0.500000 0.936728
O O2 0.356520 0.422382 0.401844
O O3 0.092603 0.390651 0.807392
O O4 0.270025 0.407621 0.984159
O O5 0.109333 0.895556 0.277095
O O6 0.037976 0.000000 0.212452
O O7 0.892049 0.904838 0.997103
O O8 0.764392 0.683917 0.452854
O O9 0.680905 0.707694 0.522371
O O10 0.872883 0.622368 0.868694
O O11 0.040451 0.302314 0.326824
O O12 0.114563 0.413694 0.450526
O O13 0.000000 0.260793 0.000000
O O14 0.784238 0.000000 0.864030
#
# Coordination Sequence:
#
# PCOD8086874 Si02
#       6
#     8   8   8   8   8   8
#     4   9  17  32  53  76 106 143 178 209 247 303
#     4   9  18  32  53  81 109 137 171 213 257 298
#     4   9  19  36  56  77 102 134 172 213 261 313
#     4  10  19  31  52  79 103 129 172 219 256 297
#     4   9  19  36  58  77  95 131 179 217 255 310
#     4  10  19  31  51  79 109 142 176 208 250 307
#
# _framework density 22.024173999999999
#
# number of rings (size 3 to 8) (size 9 to 14) (size 15 to 20)
#    0.000    2.667    0.000    1.500    0.000    8.000 
#    0.000    1.667    0.000   30.000    0.000    0.000 
#    0.000    0.000    0.000    0.000    0.000    0.000 
#
# Total GULP energy -297399.276976 kJ/mol
# GULP energy per Si atom -12391.636541 kJ/mol
# Density = 2.197405 g / cm^3
# Si number density = 22.024174 Si / 1000 Ang^3
#
#
#
# Elastic Constant Matrix: (Units=GPa)
#
#
# Indices 1 2 3 4 5 6 
#
# 1 89.7072 44.6479 38.8903 0.0000 28.1630 0.0000
# 2 44.6479 69.1074 26.4172 0.0000 22.1412 0.0000
# 3 38.8903 26.4172 103.6366 0.0000 33.4954 0.0000
# 4 0.0000 0.0000 0.0000 34.4606 0.0000 14.0650
# 5 28.1630 22.1412 33.4954 0.0000 36.6289 0.0000
# 6 0.0000 0.0000 0.0000 14.0650 0.0000 37.5767
#
#
#
# Elastic Compliance Matrix: (Units=1/GPa)
#
#
# Indices 1 2 3 4 5 6 
#
# 1 0.018884 -0.009070 -0.002631 0.000000 -0.006631 0.000000
# 2 -0.009070 0.022472 -0.000267 0.000000 -0.006365 0.000000
# 3 -0.002631 -0.000267 0.014193 0.000000 -0.010795 0.000000
# 4 0.000000 0.000000 0.000000 0.034251 0.000000 -0.012820
# 5 -0.006631 -0.006365 -0.010795 0.000000 0.046118 0.000000
# 6 0.000000 0.000000 0.000000 -0.012820 0.000000 0.031411
#
#
# Mechanical properties :
#
#
# Convention : Reuss Voigt Hill
#
# Bulk Modulus (GPa) = 31.63366 53.59580 42.61473
# Shear Modulus (GPa) = 24.77658 31.89961 28.33810
#
# Velocity S-wave (km/s) = 3.35770 3.80990 3.59093
# Velocity P-wave (km/s) = 5.42462 6.61374 6.04848
#
# Compressibility (1/GPa) = 0.03161190
#
# Stress axis : x y z
#
# Youngs Moduli (GPa) = 52.95486 44.50054 70.45510
#
# Poissons Ratio (x) = 0.40362 0.18539
# Poissons Ratio (y) = 0.48030 0.01882
# Poissons Ratio (z) = 0.13934 0.01189
#
# Static dielectric constant tensor:
#      x y z
#    x 4.026620 0.000000 0.477680 
#    y 0.000000 4.070840 0.000000 
#    z 0.477680 0.000000 4.087710 
# 
# 
# High freq. dielectric constant tensor:
#      x y z
#    x 1.846900 0.000000 0.030750 
#    y 0.000000 1.848880 0.000000 
#    z 0.030750 0.000000 1.877000 
# 
# From -- ./inp_files/184843.got.cif
#   From: 2010.06.25/outbox.cif.g09.slc.cpg/sg12_93_cif.got.tgz:184843.got - 2010.06.28 00:19:55.
