data_PCOD8086862
_publ_section_title
;
Structure prediction by ZEFSAII (Michael W. Deem and Ramdas Pophale) SiO2 
 PCOD8086862
Probable space group: C 2/M
;
_chemical_formula_sum "Si O2"
_cell_formula_units_Z 48
_cell_length_a 17.778469
_cell_length_b 13.827548
_cell_length_c 12.822798
_cell_angle_alpha 90.000000
_cell_angle_beta 122.578503
_cell_angle_gamma 90.000000
_cell_volume 2656.267869
_symmetry_space_group_name_H-M "C 2/M"
_symmetry_group_IT_number 12
_symmetry_cell_setting 'monoclinic'
loop_
_space_group_symop_operation_xyz
x,y,z
-x,y,-z
-x,-y,-z
x,-y,z
1/2+x,1/2+y,z
1/2-x,1/2+y,-z
1/2-x,1/2-y,-z
1/2+x,1/2-y,z
loop_
_atom_site_type_symbol
_atom_site_label
_atom_site_fract_x
_atom_site_fract_y
_atom_site_fract_z
Si Si1 0.894670 0.893534 0.405397
Si Si2 0.064320 0.885421 0.783916
Si Si3 0.082296 0.609333 0.491711
Si Si4 0.222876 0.889270 0.308406
Si Si5 0.881014 0.788720 0.598161
Si Si6 0.905190 0.885635 0.967062
O O1 0.878390 0.852880 0.275212
O O2 0.852860 0.823654 0.460620
O O3 0.000000 0.899754 0.500000
O O4 0.851708 0.000000 0.386344
O O5 0.965548 0.842016 0.710129
O O6 0.050962 0.000000 0.769137
O O7 0.113353 0.852190 0.927209
O O8 0.062134 0.500000 0.438837
O O9 0.170940 0.612823 0.629517
O O10 0.096177 0.674739 0.398198
O O11 0.000000 0.649301 0.500000
O O12 0.200569 0.814807 0.386140
O O13 0.174758 0.850544 0.167592
O O14 0.192432 0.000000 0.312578
O O15 0.910777 0.000000 0.967812
O O16 0.000000 0.841897 0.000000
#
# Coordination Sequence:
#
# PCOD8086862 Si02
#       6
#     8   8   8   8   8   8
#     4   8  14  22  37  65  99 130 151 178 234 303
#     4   9  15  24  42  73 107 131 150 180 244 317
#     4  10  22  37  49  65  95 137 179 208 231 270
#     4  10  19  31  51  79 104 125 156 200 249 299
#     4  11  17  28  49  72  98 124 159 202 251 290
#     4   9  15  25  43  72 106 130 148 186 247 308
#
# _framework density 18.070466
#
# number of rings (size 3 to 8) (size 9 to 14) (size 15 to 20)
#    0.000    2.500    1.667    4.500    0.000    0.000 
#    0.000    0.000    0.000    4.000    0.000    2.333 
#    0.000    0.000    0.000    2.333    0.000    0.000 
#
# Total GULP energy -297405.640050 kJ/mol
# GULP energy per Si atom -12391.901669 kJ/mol
# Density = 1.802934 g / cm^3
# Si number density = 18.070466 Si / 1000 Ang^3
#
#
#
# Elastic Constant Matrix: (Units=GPa)
#
#
# Indices 1 2 3 4 5 6 
#
# 1 79.6178 23.6119 49.9604 0.0000 -4.1016 0.0000
# 2 23.6119 56.0266 24.4410 0.0000 -9.3730 0.0000
# 3 49.9604 24.4410 130.9021 0.0000 -21.4680 0.0000
# 4 0.0000 0.0000 0.0000 9.1746 0.0000 -6.0493
# 5 -4.1016 -9.3730 -21.4680 0.0000 25.4236 0.0000
# 6 0.0000 0.0000 0.0000 -6.0493 0.0000 14.4615
#
#
#
# Elastic Compliance Matrix: (Units=1/GPa)
#
#
# Indices 1 2 3 4 5 6 
#
# 1 0.018140 -0.005529 -0.006669 0.000000 -0.004743 0.000000
# 2 -0.005529 0.021626 -0.000889 0.000000 0.006330 0.000000
# 3 -0.006669 -0.000889 0.011747 0.000000 0.008516 0.000000
# 4 0.000000 0.000000 0.000000 0.150509 0.000000 0.062959
# 5 -0.004743 0.006330 0.008516 0.000000 0.048093 0.000000
# 6 0.000000 0.000000 0.000000 0.062959 0.000000 0.095485
#
#
# Mechanical properties :
#
#
# Convention : Reuss Voigt Hill
#
# Bulk Modulus (GPa) = 39.46634 51.39700 45.43167
# Shear Modulus (GPa) = 13.15021 21.04748 17.09884
#
# Velocity S-wave (km/s) = 2.70055 3.41654 3.07942
# Velocity P-wave (km/s) = 5.62242 6.63837 6.15141
#
# Compressibility (1/GPa) = 0.02533805
#
# Stress axis : x y z
#
# Youngs Moduli (GPa) = 55.12600 46.24091 85.12643
#
# Poissons Ratio (x) = 0.25568 0.56771
# Poissons Ratio (y) = 0.30481 0.07571
# Poissons Ratio (z) = 0.36763 0.04113
#
# Static dielectric constant tensor:
#      x y z
#    x 3.173700 0.000000 -0.266610 
#    y 0.000000 3.214500 0.000000 
#    z -0.266610 0.000000 3.758890 
# 
# 
# High freq. dielectric constant tensor:
#      x y z
#    x 1.676640 0.000000 -0.012900 
#    y 0.000000 1.676620 0.000000 
#    z -0.012900 0.000000 1.688120 
# 
# From -- ./inp_files/155478.got.cif
#   From: 2010.06.25/outbox.cif.g09.slc.cpg/sg12_78_cif.got.tgz:155478.got - 2010.06.28 00:19:55.
