data_PCOD8086514
_publ_section_title
;
Structure prediction by ZEFSAII (Michael W. Deem and Ramdas Pophale) SiO2 
 PCOD8086514
Probable space group: C 2/M
;
_chemical_formula_sum "Si O2"
_cell_formula_units_Z 48
_cell_length_a 12.831297
_cell_length_b 13.754814
_cell_length_c 30.236022
_cell_angle_alpha 90.000000
_cell_angle_beta 152.837046
_cell_angle_gamma 90.000000
_cell_volume 2436.196775
_symmetry_space_group_name_H-M "C 2/M"
_symmetry_group_IT_number 12
_symmetry_cell_setting 'monoclinic'
loop_
_space_group_symop_operation_xyz
x,y,z
-x,y,-z
-x,-y,-z
x,-y,z
1/2+x,1/2+y,z
1/2-x,1/2+y,-z
1/2-x,1/2-y,-z
1/2+x,1/2-y,z
loop_
_atom_site_type_symbol
_atom_site_label
_atom_site_fract_x
_atom_site_fract_y
_atom_site_fract_z
Si Si1 0.146211 0.889286 0.941732
Si Si2 0.716500 0.781567 0.272571
Si Si3 0.163175 0.385662 0.737861
Si Si4 0.256846 0.200646 0.894701
Si Si5 0.691877 0.386609 0.606761
Si Si6 0.883730 0.384556 0.851442
O O1 0.206323 0.881746 0.912461
O O2 0.886859 0.847798 0.850960
O O3 0.136235 0.000000 0.952344
O O4 0.352545 0.840987 0.048366
O O5 0.829052 0.675692 0.304997
O O6 0.446635 0.779162 0.181728
O O7 0.850450 0.828330 0.364089
O O8 0.751035 0.847943 0.242266
O O9 0.180246 0.500000 0.732603
O O10 0.939066 0.361275 0.680627
O O11 0.253110 0.149479 0.845813
O O12 0.500000 0.250414 0.000000
O O13 0.500000 0.352385 0.500000
O O14 0.668845 0.500000 0.608707
O O15 0.891549 0.500000 0.853994
#
# Coordination Sequence:
#
# PCOD8086514 Si02
#       6
#     8   8   8   8   8   8
#     4   8  15  29  49  73 104 142 174 200 241 297
#     4  11  21  33  54  80 103 132 172 216 254 293
#     4   9  19  36  55  75 103 137 170 204 250 309
#     4   9  18  30  48  73 107 143 172 199 243 298
#     4  10  22  40  58  75  99 132 168 210 265 320
#     4  10  19  31  49  76 108 139 174 212 244 284
#
# _framework density 19.702842
#
# number of rings (size 3 to 8) (size 9 to 14) (size 15 to 20)
#    0.000    2.500    0.000    2.000    0.000   10.667 
#    0.000    0.000    0.000    5.500    0.000    0.000 
#    0.000    0.000    0.000    0.000    0.000    0.000 
#
# Total GULP energy -297425.608838 kJ/mol
# GULP energy per Si atom -12392.733702 kJ/mol
# Density = 1.965800 g / cm^3
# Si number density = 19.702842 Si / 1000 Ang^3
#
#
#
# Elastic Constant Matrix: (Units=GPa)
#
#
# Indices 1 2 3 4 5 6 
#
# 1 82.3254 27.4772 51.4113 0.0000 -15.3441 0.0000
# 2 27.4772 42.8515 27.9025 0.0001 -15.9193 0.0000
# 3 51.4113 27.9025 89.7313 0.0001 -24.9515 0.0000
# 4 0.0000 0.0001 0.0001 22.9057 -0.0001 -1.8017
# 5 -15.3441 -15.9193 -24.9515 -0.0001 30.9450 -0.0001
# 6 0.0000 0.0000 0.0000 -1.8017 -0.0001 25.3942
#
#
#
# Elastic Compliance Matrix: (Units=1/GPa)
#
#
# Indices 1 2 3 4 5 6 
#
# 1 0.020460 -0.007255 -0.009904 0.000000 -0.001573 0.000000
# 2 -0.007255 0.034418 -0.003381 0.000000 0.011383 0.000000
# 3 -0.009904 -0.003381 0.020651 0.000000 0.010001 0.000000
# 4 0.000000 0.000000 0.000000 0.043902 0.000000 0.003115
# 5 -0.001573 0.011383 0.010001 0.000000 0.045456 0.000000
# 6 0.000000 0.000000 0.000000 0.003115 0.000000 0.039600
#
#
# Mechanical properties :
#
#
# Convention : Reuss Voigt Hill
#
# Bulk Modulus (GPa) = 29.02706 47.61005 38.31855
# Shear Modulus (GPa) = 19.45144 23.05677 21.25410
#
# Velocity S-wave (km/s) = 3.14545 3.42457 3.28797
# Velocity P-wave (km/s) = 5.28736 6.31295 5.82278
#
# Compressibility (1/GPa) = 0.03445062
#
# Stress axis : x y z
#
# Youngs Moduli (GPa) = 48.87567 29.05418 48.42335
#
# Poissons Ratio (x) = 0.21078 0.47958
# Poissons Ratio (y) = 0.35458 0.16371
# Poissons Ratio (z) = 0.48406 0.09823
#
# Static dielectric constant tensor:
#      x y z
#    x 3.517220 0.000000 0.134910 
#    y 0.000000 3.468040 0.000000 
#    z 0.134910 0.000000 3.582990 
# 
# 
# High freq. dielectric constant tensor:
#      x y z
#    x 1.762690 0.000000 0.005230 
#    y 0.000000 1.762320 0.000000 
#    z 0.005230 0.000000 1.746770 
# 
# From -- ./inp_files/183689.got.cif
#   From: 2010.06.25/outbox.cif.g09.slc.cpg/sg12_92_cif.got.tgz:183689.got - 2010.06.28 00:19:55.
