data_PCOD8086277
_publ_section_title
;
Structure prediction by ZEFSAII (Michael W. Deem and Ramdas Pophale) SiO2 
 PCOD8086277
Probable space group: C 2/M
;
_chemical_formula_sum "Si O2"
_cell_formula_units_Z 56
_cell_length_a 27.632193
_cell_length_b 9.134997
_cell_length_c 13.756629
_cell_angle_alpha 90.000000
_cell_angle_beta 60.439902
_cell_angle_gamma 90.000000
_cell_volume 3020.469946
_symmetry_space_group_name_H-M "C 2/M"
_symmetry_group_IT_number 12
_symmetry_cell_setting 'monoclinic'
loop_
_space_group_symop_operation_xyz
x,y,z
-x,y,-z
-x,-y,-z
x,-y,z
1/2+x,1/2+y,z
1/2-x,1/2+y,-z
1/2-x,1/2-y,-z
1/2+x,1/2-y,z
loop_
_atom_site_type_symbol
_atom_site_label
_atom_site_fract_x
_atom_site_fract_y
_atom_site_fract_z
Si Si1 0.115769 0.171011 0.617552
Si Si2 0.185097 0.168725 0.968805
Si Si3 0.174212 0.328591 0.379520
Si Si4 0.722372 0.334749 0.611919
Si Si5 0.200469 0.831633 0.172251
Si Si6 0.416690 0.168927 0.020282
Si Si7 0.033396 0.668112 0.821405
O O1 0.137968 0.254145 0.500117
O O2 0.156387 0.199696 0.672057
O O3 0.056417 0.234066 0.709674
O O4 0.110268 0.000000 0.597860
O O5 0.170914 0.184245 0.097115
O O6 0.196714 0.000000 0.929177
O O7 0.238566 0.263156 0.890673
O O8 0.133576 0.225581 0.957465
O O9 0.159232 0.500000 0.390663
O O10 0.241733 0.301629 0.326629
O O11 0.161460 0.252829 0.288889
O O12 0.732099 0.500000 0.572527
O O13 0.750000 0.250000 0.500000
O O14 0.206078 0.000000 0.198053
O O15 0.436625 0.210530 0.107968
O O16 0.397560 0.000000 0.033609
O O17 0.467587 0.196455 0.895472
O O18 0.045595 0.500000 0.784244
#
# Coordination Sequence:
#
# PCOD8086277 Si02
#       7
#     8   8   8   8   8   8   8
#     4  10  19  31  48  73 105 139 173 211 256 307
#     4  10  21  36  55  78 105 135 173 217 260 307
#     4  10  19  32  50  73 103 138 174 213 255 306
#     4   8  16  28  41  63  95 129 165 200 239 289
#     4  10  21  36  53  77 106 138 174 212 258 310
#     4   9  19  36  56  77 104 137 174 215 260 307
#     4   9  19  35  53  77 106 138 175 212 255 310
#
# _framework density 18.540161999999999
#
# number of rings (size 3 to 8) (size 9 to 14) (size 15 to 20)
#    0.000    2.571    0.000    2.571    2.000    4.000 
#    0.000    1.429    0.000    0.857    0.000    6.000 
#    0.000    0.000    0.000    0.000    0.000    0.000 
#
# Total GULP energy -346957.273782 kJ/mol
# GULP energy per Si atom -12391.331206 kJ/mol
# Density = 1.849796 g / cm^3
# Si number density = 18.540162 Si / 1000 Ang^3
#
#
#
# Elastic Constant Matrix: (Units=GPa)
#
#
# Indices 1 2 3 4 5 6 
#
# 1 37.6920 14.6051 -1.6682 0.0000 -0.0978 0.0000
# 2 14.6051 96.2606 38.7701 0.0000 2.1356 0.0000
# 3 -1.6682 38.7701 77.1134 0.0000 1.2612 0.0000
# 4 0.0000 0.0000 0.0000 35.3012 0.0000 1.5283
# 5 -0.0978 2.1356 1.2612 0.0000 19.0944 0.0000
# 6 0.0000 0.0000 0.0000 1.5283 0.0000 24.0527
#
#
#
# Elastic Compliance Matrix: (Units=1/GPa)
#
#
# Indices 1 2 3 4 5 6 
#
# 1 0.028951 -0.005835 0.003551 0.000000 0.000566 0.000000
# 2 -0.005835 0.014222 -0.007258 0.000000 -0.001141 0.000000
# 3 0.003551 -0.007258 0.016698 0.000000 -0.000273 0.000000
# 4 0.000000 0.000000 0.000000 0.028406 0.000000 -0.001805
# 5 0.000566 -0.001141 -0.000273 0.000000 0.052520 0.000000
# 6 0.000000 0.000000 0.000000 -0.001805 0.000000 0.041690
#
#
# Mechanical properties :
#
#
# Convention : Reuss Voigt Hill
#
# Bulk Modulus (GPa) = 24.51811 34.94222 29.73016
# Shear Modulus (GPa) = 23.23769 26.31359 24.77564
#
# Velocity S-wave (km/s) = 3.54414 3.77141 3.65954
# Velocity P-wave (km/s) = 5.47731 6.15243 5.82466
#
# Compressibility (1/GPa) = 0.04078618
#
# Stress axis : x y z
#
# Youngs Moduli (GPa) = 34.54169 70.31147 59.88618
#
# Poissons Ratio (x) = 0.41028 -0.21264
# Poissons Ratio (y) = 0.20156 0.43466
# Poissons Ratio (z) = -0.12265 0.51033
#
# Static dielectric constant tensor:
#      x y z
#    x 3.217870 0.000000 0.045320 
#    y 0.000000 3.406840 0.000000 
#    z 0.045320 0.000000 3.285370 
# 
# 
# High freq. dielectric constant tensor:
#      x y z
#    x 1.687070 0.000000 0.002940 
#    y 0.000000 1.730460 0.000000 
#    z 0.002940 0.000000 1.715930 
# 
# From -- ./inp_files/243635.got.cif
#   From: 2010.06.25/outbox.cif.g09.slc.cpg/sg12_122_cif.got.tgz:243635.got - 2010.06.28 00:19:55.
