data_PCOD8086534
_publ_section_title
;
Structure prediction by ZEFSAII (Michael W. Deem and Ramdas Pophale) SiO2 
 PCOD8086534
Probable space group: C 2/M
;
_chemical_formula_sum "Si O2"
_cell_formula_units_Z 56
_cell_length_a 21.581326
_cell_length_b 8.722152
_cell_length_c 16.417001
_cell_angle_alpha 90.000000
_cell_angle_beta 119.921917
_cell_angle_gamma 90.000000
_cell_volume 2678.350467
_symmetry_space_group_name_H-M "C 2/M"
_symmetry_group_IT_number 12
_symmetry_cell_setting 'monoclinic'
loop_
_space_group_symop_operation_xyz
x,y,z
-x,y,-z
-x,-y,-z
x,-y,z
1/2+x,1/2+y,z
1/2-x,1/2+y,-z
1/2-x,1/2-y,-z
1/2+x,1/2-y,z
loop_
_atom_site_type_symbol
_atom_site_label
_atom_site_fract_x
_atom_site_fract_y
_atom_site_fract_z
Si Si1 0.785021 0.319121 0.602327
Si Si2 0.290624 0.319674 0.283053
Si Si3 0.673817 0.324049 0.942783
Si Si4 0.333329 0.676050 0.881066
Si Si5 0.582012 0.319833 0.736248
Si Si6 0.058974 0.820503 0.283522
Si Si7 0.961380 0.678833 0.892949
O O1 0.781362 0.500000 0.594720
O O2 0.750000 0.250000 0.500000
O O3 0.736898 0.260326 0.647178
O O4 0.867642 0.271242 0.660768
O O5 0.277471 0.500000 0.265850
O O6 0.248231 0.232028 0.183414
O O7 0.375094 0.281167 0.319909
O O8 0.686852 0.500000 0.929671
O O9 0.624499 0.246024 0.841211
O O10 0.750000 0.250000 0.000000
O O11 0.637760 0.303732 0.008057
O O12 0.340851 0.500000 0.857488
O O13 0.377385 0.787944 0.850518
O O14 0.580293 0.500000 0.750279
O O15 0.498091 0.268963 0.682819
O O16 0.017285 0.777351 0.172332
O O17 0.076772 0.000000 0.298687
O O18 0.975798 0.500000 0.886742
O O19 0.000000 0.739244 0.000000
#
# Coordination Sequence:
#
# PCOD8086534 Si02
#       7
#     8   8   8   8   8   8   8
#     4  11  24  43  69  96 121 155 202 254 316 379
#     4  10  20  38  63  86 116 156 200 245 296 363
#     4  10  19  31  49  78 117 162 209 249 292 349
#     4  11  21  32  52  83 116 155 206 255 301 350
#     4   9  19  36  58  85 121 164 203 247 302 359
#     4  11  22  39  64  92 125 159 200 257 314 369
#     4  11  23  37  54  80 119 167 212 252 301 360
#
# _framework density 20.908393
#
# number of rings (size 3 to 8) (size 9 to 14) (size 15 to 20)
#    0.000    1.571    2.857    2.571    0.000    3.429 
#    0.000    3.571    0.000    4.286    0.000    0.000 
#    0.000    0.000    0.000    0.000    0.000    0.000 
#
# Total GULP energy -346961.648351 kJ/mol
# GULP energy per Si atom -12391.487441 kJ/mol
# Density = 2.086080 g / cm^3
# Si number density = 20.908393 Si / 1000 Ang^3
#
#
#
# Elastic Constant Matrix: (Units=GPa)
#
#
# Indices 1 2 3 4 5 6 
#
# 1 170.0478 21.0055 48.0938 0.0000 -4.3827 0.0000
# 2 21.0055 40.2208 16.0051 0.0000 -4.6129 0.0000
# 3 48.0938 16.0051 90.2474 0.0000 -5.8773 0.0000
# 4 0.0000 0.0000 0.0000 28.7441 0.0000 1.5966
# 5 -4.3827 -4.6129 -5.8773 0.0000 19.5309 0.0000
# 6 0.0000 0.0000 0.0000 1.5966 0.0000 23.8704
#
#
#
# Elastic Compliance Matrix: (Units=1/GPa)
#
#
# Indices 1 2 3 4 5 6 
#
# 1 0.007130 -0.002377 -0.003377 0.000000 0.000022 0.000000
# 2 -0.002377 0.028028 -0.003374 0.000000 0.005071 0.000000
# 3 -0.003377 -0.003374 0.013644 0.000000 0.002551 0.000000
# 4 0.000000 0.000000 0.000000 0.034919 0.000000 -0.002336
# 5 0.000022 0.005071 0.002551 0.000000 0.053172 0.000000
# 6 0.000000 0.000000 0.000000 -0.002336 0.000000 0.042049
#
#
# Mechanical properties :
#
#
# Convention : Reuss Voigt Hill
#
# Bulk Modulus (GPa) = 32.73551 52.30275 42.51913
# Shear Modulus (GPa) = 24.11026 28.78986 26.45006
#
# Velocity S-wave (km/s) = 3.39947 3.71476 3.56061
# Velocity P-wave (km/s) = 5.57666 6.59308 6.10606
#
# Compressibility (1/GPa) = 0.03054787
#
# Stress axis : x y z
#
# Youngs Moduli (GPa) = 140.25402 35.67801 73.28972
#
# Poissons Ratio (x) = 0.08482 0.24746
# Poissons Ratio (y) = 0.33345 0.24725
# Poissons Ratio (z) = 0.47357 0.12036
#
# Static dielectric constant tensor:
#      x y z
#    x 4.316910 0.000000 -0.156870 
#    y 0.000000 3.535100 0.000000 
#    z -0.156870 0.000000 3.699730 
# 
# 
# High freq. dielectric constant tensor:
#      x y z
#    x 1.840880 0.000000 -0.003220 
#    y 0.000000 1.797430 0.000000 
#    z -0.003220 0.000000 1.787530 
# 
# From -- ./inp_files/281752.got.cif
#   From: 2010.06.25/outbox.cif.g09.slc.cpg/sg12_141_cif.got.tgz:281752.got - 2010.06.28 00:19:55.
