data_PCOD8086665
_publ_section_title
;
Structure prediction by ZEFSAII (Michael W. Deem and Ramdas Pophale) SiO2 
 PCOD8086665
Probable space group: C 2/M
;
_chemical_formula_sum "Si O2"
_cell_formula_units_Z 60
_cell_length_a 5.094713
_cell_length_b 17.190954
_cell_length_c 37.633688
_cell_angle_alpha 90.000000
_cell_angle_beta 74.246782
_cell_angle_gamma 90.000000
_cell_volume 3172.269984
_symmetry_space_group_name_H-M "C 2/M"
_symmetry_group_IT_number 12
_symmetry_cell_setting 'monoclinic'
loop_
_space_group_symop_operation_xyz
x,y,z
-x,y,-z
-x,-y,-z
x,-y,z
1/2+x,1/2+y,z
1/2-x,1/2+y,-z
1/2-x,1/2-y,-z
1/2+x,1/2-y,z
loop_
_atom_site_type_symbol
_atom_site_label
_atom_site_fract_x
_atom_site_fract_y
_atom_site_fract_z
Si Si1 0.500000 0.195670 0.000000
Si Si2 0.728948 0.802456 0.655290
Si Si3 0.316535 0.090575 0.071203
Si Si4 0.308448 0.407786 0.586179
Si Si5 0.472323 0.201363 0.734546
Si Si6 0.080074 0.698231 0.186796
Si Si7 0.224783 0.590021 0.118128
Si Si8 0.900376 0.407615 0.541258
O O1 0.562236 0.140815 0.964707
O O2 0.750000 0.250000 0.000000
O O3 0.526610 0.733958 0.650309
O O4 0.747226 0.870868 0.626330
O O5 0.615588 0.842638 0.696046
O O6 0.476980 0.110688 0.101284
O O7 0.003328 0.114382 0.088323
O O8 0.349409 0.000000 0.060025
O O9 0.299007 0.500000 0.591485
O O10 0.596523 0.379120 0.560310
O O11 0.089008 0.376680 0.566057
O O12 0.164049 0.222825 0.734720
O O13 0.462894 0.156422 0.772857
O O14 0.795219 0.731506 0.182839
O O15 0.195194 0.634867 0.155878
O O16 0.232371 0.500000 0.127975
O O17 0.917452 0.500000 0.538864
O O18 0.000000 0.372397 0.500000
#
# Coordination Sequence:
#
# PCOD8086665 Si02
#       8
#     4   8   8   8   8   8   8   8
#     4  12  25  38  57  84 108 130 172 228 263 288
#     4  10  19  33  52  71  98 134 167 198 241 300
#     4  10  22  40  57  74 105 145 174 200 251 317
#     4  10  19  31  50  75  97 120 161 209 245 284
#     4   8  16  30  48  71  97 130 168 199 236 294
#     4  10  19  32  53  78 103 132 168 210 250 289
#     4  10  21  36  55  79 106 138 173 207 249 305
#     4   9  17  30  49  71  95 125 160 199 244 295
#
# _framework density 18.913899000000001
#
# number of rings (size 3 to 8) (size 9 to 14) (size 15 to 20)
#    0.000    2.267    0.000    3.000    0.000    4.800 
#    0.000    3.333    0.000    8.000    0.000   16.800 
#    0.000    0.000    0.000    0.000    0.000    0.000 
#
# Total GULP energy -371908.722673 kJ/mol
# GULP energy per Si atom -12396.957422 kJ/mol
# Density = 1.887085 g / cm^3
# Si number density = 18.913899 Si / 1000 Ang^3
#
#
#
# Elastic Constant Matrix: (Units=GPa)
#
#
# Indices 1 2 3 4 5 6 
#
# 1 83.7167 17.4498 3.9547 0.0000 2.2554 0.0000
# 2 17.4498 40.9840 55.3637 0.0000 -1.6151 0.0000
# 3 3.9547 55.3637 143.6052 0.0000 -1.9117 0.0000
# 4 0.0000 0.0000 0.0000 -136.9625 0.0000 -23.2279
# 5 2.2554 -1.6151 -1.9117 0.0000 24.5096 0.0000
# 6 0.0000 0.0000 0.0000 -23.2279 0.0000 11.4497
#
#
#
# Elastic Compliance Matrix: (Units=1/GPa)
#
#
# Indices 1 2 3 4 5 6 
#
# 1 0.014220 -0.011609 0.004061 0.000000 -0.001757 0.000000
# 2 -0.011609 0.060476 -0.022952 0.000000 0.003263 0.000000
# 3 0.004061 -0.022952 0.015692 0.000000 -0.000662 0.000000
# 4 0.000000 0.000000 0.000000 -0.005432 0.000000 -0.011020
# 5 -0.001757 0.003263 -0.000662 0.000000 0.041125 0.000000
# 6 0.000000 0.000000 0.000000 -0.011020 0.000000 0.064982
#
#
# Mechanical properties :
#
#
# Convention : Reuss Voigt Hill
#
# Bulk Modulus (GPa) = 34.02880 46.87136 40.45008
# Shear Modulus (GPa) = 19.09416 -7.43146 5.83135
#
# Velocity S-wave (km/s) = 3.18076 -1.98435 1.75778
# Velocity P-wave (km/s) = 5.61428 4.42550 5.05496
#
# Compressibility (1/GPa) = 0.02938687
#
# Stress axis : x y z
#
# Youngs Moduli (GPa) = 70.32160 16.53538 63.72857
#
# Poissons Ratio (x) = 0.19196 -0.25878
# Poissons Ratio (y) = 0.81639 1.46271
# Poissons Ratio (z) = -0.28556 0.37952
#
# Static dielectric constant tensor:
#      x y z
#    x 3.775620 0.000000 -0.002270 
#    y 0.000000 2.995770 0.000000 
#    z -0.002270 0.000000 3.781210 
# 
# 
# High freq. dielectric constant tensor:
#      x y z
#    x 1.760040 0.000000 -0.000130 
#    y 0.000000 1.680530 0.000000 
#    z -0.000130 0.000000 1.757690 
# 
# From -- ./inp_files/371599.got.cif
#   From: 2010.06.25/outbox.cif.g09.slc.cpg/sg12_186_cif.got.tgz:371599.got - 2010.06.28 00:19:55.
