data_PCOD8086482
_publ_section_title
;
Structure prediction by ZEFSAII (Michael W. Deem and Ramdas Pophale) SiO2 
 PCOD8086482
Probable space group: C 2/M
;
_chemical_formula_sum "Si O2"
_cell_formula_units_Z 64
_cell_length_a 15.684390
_cell_length_b 9.293551
_cell_length_c 32.034016
_cell_angle_alpha 90.000000
_cell_angle_beta 136.107369
_cell_angle_gamma 90.000000
_cell_volume 3237.334976
_symmetry_space_group_name_H-M "C 2/M"
_symmetry_group_IT_number 12
_symmetry_cell_setting 'monoclinic'
loop_
_space_group_symop_operation_xyz
x,y,z
-x,y,-z
-x,-y,-z
x,-y,z
1/2+x,1/2+y,z
1/2-x,1/2+y,-z
1/2-x,1/2-y,-z
1/2+x,1/2-y,z
loop_
_atom_site_type_symbol
_atom_site_label
_atom_site_fract_x
_atom_site_fract_y
_atom_site_fract_z
Si Si1 0.372260 0.671747 0.140659
Si Si2 0.905465 0.837817 0.504853
Si Si3 0.270932 0.338407 0.608102
Si Si4 0.207084 0.163306 0.732922
Si Si5 0.399338 0.829025 0.931866
Si Si6 0.915771 0.339128 0.382344
Si Si7 0.465109 0.167290 0.863117
Si Si8 0.485772 0.666536 0.265194
O O1 0.376607 0.500000 0.137716
O O2 0.233963 0.726605 0.100523
O O3 0.420517 0.744097 0.115235
O O4 0.457697 0.727481 0.209204
O O5 0.778712 0.758833 0.447368
O O6 0.000000 0.837100 0.500000
O O7 0.963807 0.755799 0.565201
O O8 0.874337 0.000000 0.507545
O O9 0.297231 0.500000 0.600417
O O10 0.168680 0.345122 0.607203
O O11 0.394482 0.263355 0.670410
O O12 0.161978 0.272367 0.682325
O O13 0.349336 0.191975 0.792055
O O14 0.135238 0.192295 0.750347
O O15 0.184923 0.000000 0.709608
O O16 0.434347 0.771294 0.898233
O O17 0.396632 0.000000 0.929291
O O18 0.500000 0.771006 0.000000
O O19 0.957392 0.500000 0.384534
O O20 0.501532 0.000000 0.878268
O O21 0.517964 0.500000 0.271681
#
# Coordination Sequence:
#
# PCOD8086482 Si02
#       8
#     8   8   8   8   8   8   8   8
#     4  10  19  35  59  84 111 150 195 233 276 335
#     4   9  17  30  48  70  98 132 170 214 265 326
#     4   9  17  30  49  71  95 126 168 219 270 321
#     4  10  19  33  52  73 101 138 178 222 272 328
#     4   9  18  35  59  85 116 155 195 230 270 332
#     4  10  19  31  49  75 102 130 169 220 274 326
#     4  10  20  35  56  84 115 148 188 236 284 329
#     4   9  17  32  53  74  99 136 181 223 269 328
#
# _framework density 19.769348000000001
#
# number of rings (size 3 to 8) (size 9 to 14) (size 15 to 20)
#    0.000    2.500    1.250    1.500    0.000    4.000 
#    0.000    3.125    0.000    0.750    0.000    0.000 
#    0.000    0.000    0.000    0.000    0.000    0.000 
#
# Total GULP energy -396760.571133 kJ/mol
# GULP energy per Si atom -12398.767848 kJ/mol
# Density = 1.972435 g / cm^3
# Si number density = 19.769348 Si / 1000 Ang^3
#
#
#
# Elastic Constant Matrix: (Units=GPa)
#
#
# Indices 1 2 3 4 5 6 
#
# 1 92.0748 36.8802 44.1701 0.0000 7.1527 0.0000
# 2 36.8802 86.6566 52.9542 0.0000 -3.4231 0.0000
# 3 44.1701 52.9542 127.3108 0.0000 6.8817 0.0000
# 4 0.0000 0.0000 0.0000 18.3030 0.0000 -0.9830
# 5 7.1527 -3.4231 6.8817 0.0000 28.9719 0.0000
# 6 0.0000 0.0000 0.0000 -0.9830 0.0000 18.7010
#
#
#
# Elastic Compliance Matrix: (Units=1/GPa)
#
#
# Indices 1 2 3 4 5 6 
#
# 1 0.014304 -0.004422 -0.002942 0.000000 -0.003355 0.000000
# 2 -0.004422 0.017178 -0.005855 0.000000 0.004512 0.000000
# 3 -0.002942 -0.005855 0.011456 0.000000 -0.002687 0.000000
# 4 0.000000 0.000000 0.000000 0.054791 0.000000 0.002880
# 5 -0.003355 0.004512 -0.002687 0.000000 0.036516 0.000000
# 6 0.000000 0.000000 0.000000 0.002880 0.000000 0.053624
#
#
# Mechanical properties :
#
#
# Convention : Reuss Voigt Hill
#
# Bulk Modulus (GPa) = 60.60635 63.78344 62.19490
# Shear Modulus (GPa) = 22.74731 24.66436 23.70583
#
# Velocity S-wave (km/s) = 3.39578 3.53598 3.46659
# Velocity P-wave (km/s) = 6.78958 7.00034 6.89576
#
# Compressibility (1/GPa) = 0.01649992
#
# Stress axis : x y z
#
# Youngs Moduli (GPa) = 69.91017 58.21476 87.29171
#
# Poissons Ratio (x) = 0.25745 0.25680
# Poissons Ratio (y) = 0.30918 0.51105
# Poissons Ratio (z) = 0.20567 0.34082
#
# Static dielectric constant tensor:
#      x y z
#    x 3.466690 0.000000 0.018940 
#    y 0.000000 3.394530 0.000000 
#    z 0.018940 0.000000 3.838740 
# 
# 
# High freq. dielectric constant tensor:
#      x y z
#    x 1.760960 0.000000 0.004760 
#    y 0.000000 1.736530 0.000000 
#    z 0.004760 0.000000 1.778210 
# 
# From -- ./inp_files/375589.got.cif
#   From: 2010.06.25/outbox.cif.g09.slc.cpg/sg12_188_cif.got.tgz:375589.got - 2010.06.28 00:19:55.
