data_PCOD8086528
_publ_section_title
;
Structure prediction by ZEFSAII (Michael W. Deem and Ramdas Pophale) SiO2 
 PCOD8086528
Probable space group: C 2/M
;
_chemical_formula_sum "Si O2"
_cell_formula_units_Z 48
_cell_length_a 22.940404
_cell_length_b 8.753626
_cell_length_c 17.143239
_cell_angle_alpha 90.000000
_cell_angle_beta 48.227714
_cell_angle_gamma 90.000000
_cell_volume 2567.457875
_symmetry_space_group_name_H-M "C 2/M"
_symmetry_group_IT_number 12
_symmetry_cell_setting 'monoclinic'
loop_
_space_group_symop_operation_xyz
x,y,z
-x,y,-z
-x,-y,-z
x,-y,z
1/2+x,1/2+y,z
1/2-x,1/2+y,-z
1/2-x,1/2-y,-z
1/2+x,1/2-y,z
loop_
_atom_site_type_symbol
_atom_site_label
_atom_site_fract_x
_atom_site_fract_y
_atom_site_fract_z
Si Si1 0.126886 0.821017 0.122425
Si Si2 0.022110 0.670485 0.696734
Si Si3 0.744197 0.321893 0.884069
Si Si4 0.184825 0.817995 0.502813
Si Si5 0.064860 0.330417 0.385664
Si Si6 0.786866 0.176091 0.698442
O O1 0.177194 0.747374 0.147579
O O2 0.037841 0.757728 0.191856
O O3 0.123189 0.000000 0.142315
O O4 0.168750 0.783131 0.003083
O O5 0.042858 0.500000 0.709626
O O6 0.101373 0.761138 0.608471
O O7 0.970618 0.657922 0.666765
O O8 0.761037 0.500000 0.863004
O O9 0.726340 0.259592 0.811699
O O10 0.250000 0.750000 0.500000
O O11 0.206066 0.759026 0.396261
O O12 0.184695 0.000000 0.505462
O O13 0.093806 0.500000 0.386989
O O14 0.131966 0.205227 0.329930
O O15 0.000000 0.264095 0.500000
O O16 0.764530 0.000000 0.715450
#
# Coordination Sequence:
#
# PCOD8086528 Si02
#       6
#     8   8   8   8   8   8
#     4  10  20  33  51  79 115 151 186 223 265 321
#     4  11  21  34  56  83 113 148 183 223 274 330
#     4  10  20  33  51  78 114 153 186 219 268 326
#     4  11  25  42  59  81 108 143 187 233 281 329
#     4  10  19  31  49  77 111 145 179 214 266 332
#     4  11  22  34  54  81 111 144 181 227 274 325
#
# _framework density 18.695536000000001
#
# number of rings (size 3 to 8) (size 9 to 14) (size 15 to 20)
#    0.000    1.500    3.333    2.500    0.000    5.000 
#    0.000    0.000    0.000    1.000    0.000    7.000 
#    0.000    0.000    0.000    0.000    0.000    0.000 
#
# Total GULP energy -297373.849509 kJ/mol
# GULP energy per Si atom -12390.577063 kJ/mol
# Density = 1.865298 g / cm^3
# Si number density = 18.695536 Si / 1000 Ang^3
#
#
#
# Elastic Constant Matrix: (Units=GPa)
#
#
# Indices 1 2 3 4 5 6 
#
# 1 71.0080 39.2010 55.6199 0.0001 0.5565 0.0000
# 2 39.2010 90.8532 52.8269 -0.0014 -1.5140 0.0007
# 3 55.6199 52.8269 164.8258 -0.0004 -4.2612 0.0002
# 4 0.0001 -0.0014 -0.0004 33.6602 0.0001 -3.0674
# 5 0.5565 -1.5140 -4.2612 0.0001 10.8234 0.0000
# 6 0.0000 0.0007 0.0002 -3.0674 0.0000 25.7494
#
#
#
# Elastic Compliance Matrix: (Units=1/GPa)
#
#
# Indices 1 2 3 4 5 6 
#
# 1 0.021896 -0.006340 -0.005464 0.000000 -0.004164 0.000000
# 2 -0.006340 0.015364 -0.002749 0.000001 0.001393 0.000000
# 3 -0.005464 -0.002749 0.008880 0.000000 0.003392 0.000000
# 4 0.000000 0.000001 0.000000 0.030035 0.000000 0.003578
# 5 -0.004164 0.001393 0.003392 0.000000 0.094137 0.000000
# 6 0.000000 0.000000 0.000000 0.003578 0.000000 0.039262
#
#
# Mechanical properties :
#
#
# Convention : Reuss Voigt Hill
#
# Bulk Modulus (GPa) = 58.70814 69.10917 63.90865
# Shear Modulus (GPa) = 20.46197 25.98254 23.22226
#
# Velocity S-wave (km/s) = 3.31189 3.73201 3.52821
# Velocity P-wave (km/s) = 6.78934 7.45764 7.13132
#
# Compressibility (1/GPa) = 0.01703341
#
# Stress axis : x y z
#
# Youngs Moduli (GPa) = 45.67123 65.08873 112.61684
#
# Poissons Ratio (x) = 0.41263 0.61539
# Poissons Ratio (y) = 0.28953 0.30956
# Poissons Ratio (z) = 0.24957 0.17892
#
# Static dielectric constant tensor:
#      x y z
#    x 3.032080 0.000000 0.072220 
#    y 0.000000 3.692240 0.000000 
#    z 0.072220 0.000000 4.028150 
# 
# 
# High freq. dielectric constant tensor:
#      x y z
#    x 1.671170 0.000000 0.000190 
#    y 0.000000 1.735100 0.000000 
#    z 0.000190 0.000000 1.752460 
# 
# From -- ./inp_files/281824.got.cif
#   From: 2010.06.25/outbox.cif.g09.slc.cpg/sg12_141_cif.got.tgz:281824.got - 2010.06.28 00:19:55.
