data_PCOD8086868
_publ_section_title
;
Structure prediction by ZEFSAII (Michael W. Deem and Ramdas Pophale) SiO2 
 PCOD8086868
Probable space group: C 2/M
;
_chemical_formula_sum "Si O2"
_cell_formula_units_Z 64
_cell_length_a 23.222698
_cell_length_b 9.224768
_cell_length_c 17.498661
_cell_angle_alpha 90.000000
_cell_angle_beta 69.388204
_cell_angle_gamma 90.000000
_cell_volume 3508.672219
_symmetry_space_group_name_H-M "C 2/M"
_symmetry_group_IT_number 12
_symmetry_cell_setting 'monoclinic'
loop_
_space_group_symop_operation_xyz
x,y,z
-x,y,-z
-x,-y,-z
x,-y,z
1/2+x,1/2+y,z
1/2-x,1/2+y,-z
1/2-x,1/2-y,-z
1/2+x,1/2-y,z
loop_
_atom_site_type_symbol
_atom_site_label
_atom_site_fract_x
_atom_site_fract_y
_atom_site_fract_z
Si Si1 0.371664 0.829743 0.632802
Si Si2 0.560192 0.336590 0.523131
Si Si3 0.729197 0.330997 0.231959
Si Si4 0.009964 0.669449 0.322907
Si Si5 0.632737 0.834831 0.860010
Si Si6 0.203577 0.165408 0.074270
Si Si7 0.410485 0.666407 0.973792
Si Si8 0.491510 0.833538 0.159464
O O1 0.387578 0.754226 0.544957
O O2 0.306919 0.764655 0.689794
O O3 0.423666 0.795158 0.671913
O O4 0.365079 0.000000 0.621712
O O5 0.500000 0.339216 0.500000
O O6 0.583550 0.500000 0.528379
O O7 0.544114 0.257675 0.609948
O O8 0.713619 0.500000 0.252141
O O9 0.801584 0.298399 0.208408
O O10 0.707359 0.277261 0.158783
O O11 0.994193 0.500000 0.337667
O O12 0.009769 0.721199 0.235173
O O13 0.581274 0.810941 0.819166
O O14 0.632359 0.000000 0.890302
O O15 0.621357 0.733481 0.937481
O O16 0.134334 0.185311 0.077564
O O17 0.225410 0.000000 0.061369
O O18 0.250000 0.250000 0.000000
O O19 0.424858 0.500000 0.984920
O O20 0.474056 0.743877 0.922485
O O21 0.510946 0.000000 0.140077
#
# Coordination Sequence:
#
# PCOD8086868 Si02
#       8
#     8   8   8   8   8   8   8   8
#     4  10  19  31  51  79 107 134 162 199 250 305
#     4   9  17  30  51  78 107 136 162 195 244 302
#     4  10  20  34  51  72 100 133 170 212 252 298
#     4   9  18  33  52  77 106 132 163 205 250 298
#     4  10  21  37  54  70  95 137 180 213 253 302
#     4  10  20  33  50  72  99 131 166 206 255 304
#     4  11  22  34  51  76 102 130 169 218 264 303
#     4  10  21  36  54  74  98 134 176 213 251 302
#
# _framework density 18.240518000000002
#
# number of rings (size 3 to 8) (size 9 to 14) (size 15 to 20)
#    0.000    2.125    1.250    2.250    0.000    6.000 
#    0.000    0.000    0.000    0.750    0.000    0.000 
#    0.000    0.000    0.000    0.000    0.000    0.000 
#
# Total GULP energy -396889.897203 kJ/mol
# GULP energy per Si atom -12402.809288 kJ/mol
# Density = 1.819900 g / cm^3
# Si number density = 18.240518 Si / 1000 Ang^3
#
#
#
# Elastic Constant Matrix: (Units=GPa)
#
#
# Indices 1 2 3 4 5 6 
#
# 1 61.9745 29.3341 26.6485 0.0000 -16.0140 0.0000
# 2 29.3341 95.0769 62.5665 0.0000 -15.8803 0.0000
# 3 26.6485 62.5665 112.9170 0.0000 -26.0686 0.0000
# 4 0.0000 0.0000 0.0000 37.8680 0.0000 -5.8327
# 5 -16.0140 -15.8803 -26.0686 0.0000 23.9526 0.0000
# 6 0.0000 0.0000 0.0000 -5.8327 0.0000 19.8387
#
#
#
# Elastic Compliance Matrix: (Units=1/GPa)
#
#
# Indices 1 2 3 4 5 6 
#
# 1 0.021225 -0.004851 0.000283 0.000000 0.011283 0.000000
# 2 -0.004851 0.017694 -0.008948 0.000000 -0.001251 0.000000
# 3 0.000283 -0.008948 0.016590 0.000000 0.012312 0.000000
# 4 0.000000 0.000000 0.000000 0.027660 0.000000 0.008132
# 5 0.011283 -0.001251 0.012312 0.000000 0.061863 0.000000
# 6 0.000000 0.000000 0.000000 0.008132 0.000000 0.052797
#
#
# Mechanical properties :
#
#
# Convention : Reuss Voigt Hill
#
# Bulk Modulus (GPa) = 35.11438 56.34070 45.72754
# Shear Modulus (GPa) = 21.33536 26.42649 23.88093
#
# Velocity S-wave (km/s) = 3.42375 3.81041 3.62225
# Velocity P-wave (km/s) = 5.90948 7.09322 6.52824
#
# Compressibility (1/GPa) = 0.02847836
#
# Stress axis : x y z
#
# Youngs Moduli (GPa) = 47.11374 56.51706 60.27840
#
# Poissons Ratio (x) = 0.27414 -0.01708
# Poissons Ratio (y) = 0.22853 0.53937
# Poissons Ratio (z) = -0.01335 0.50571
#
# Static dielectric constant tensor:
#      x y z
#    x 3.310720 0.000000 -0.017560 
#    y 0.000000 3.425290 0.000000 
#    z -0.017560 0.000000 3.313710 
# 
# 
# High freq. dielectric constant tensor:
#      x y z
#    x 1.686950 0.000000 -0.008190 
#    y 0.000000 1.710110 0.000000 
#    z -0.008190 0.000000 1.702570 
# 
# From -- ./inp_files/319971.got.cif
#   From: 2010.06.25/outbox.cif.g09.slc.cpg/sg12_160_cif.got.tgz:319971.got - 2010.06.28 00:19:55.
