data_PCOD8086063
_publ_section_title
;
Structure prediction by ZEFSAII (Michael W. Deem and Ramdas Pophale) SiO2 
 PCOD8086063
Probable space group: C 2/M
;
_chemical_formula_sum "Si O2"
_cell_formula_units_Z 40
_cell_length_a 19.294804
_cell_length_b 8.916654
_cell_length_c 27.507364
_cell_angle_alpha 90.000000
_cell_angle_beta 151.897453
_cell_angle_gamma 90.000000
_cell_volume 2229.252578
_symmetry_space_group_name_H-M "C 2/M"
_symmetry_group_IT_number 12
_symmetry_cell_setting 'monoclinic'
loop_
_space_group_symop_operation_xyz
x,y,z
-x,y,-z
-x,-y,-z
x,-y,z
1/2+x,1/2+y,z
1/2-x,1/2+y,-z
1/2-x,1/2-y,-z
1/2+x,1/2-y,z
loop_
_atom_site_type_symbol
_atom_site_label
_atom_site_fract_x
_atom_site_fract_y
_atom_site_fract_z
Si Si1 0.638988 0.678525 0.116603
Si Si2 0.317496 0.173963 0.653109
Si Si3 0.046525 0.674692 0.718373
Si Si4 0.470390 0.824554 0.564130
Si Si5 0.772510 0.673042 0.733702
O O1 0.640987 0.500000 0.122410
O O2 0.787627 0.740623 0.182534
O O3 0.629805 0.743963 0.165287
O O4 0.500000 0.736286 0.000000
O O5 0.454381 0.241225 0.706670
O O6 0.173834 0.267250 0.551422
O O7 0.354869 0.193041 0.733069
O O8 0.288610 0.000000 0.621965
O O9 0.063924 0.500000 0.737768
O O10 0.959227 0.710257 0.614708
O O11 0.610625 0.742174 0.628232
O O12 0.490427 0.000000 0.566769
O O13 0.756888 0.500000 0.738413
#
# Coordination Sequence:
#
# PCOD8086063 Si02
#       5
#     8   8   8   8   8
#     4   9  18  35  57  74  90 119 159 201 242 283
#     4  10  19  31  47  69 100 132 159 192 235 281
#     4   8  16  31  49  70  95 125 161 196 233 279
#     4  10  19  31  49  71  97 131 166 197 230 273
#     4  10  20  32  48  71  98 128 160 194 235 284
#
# _framework density 17.943234
#
# number of rings (size 3 to 8) (size 9 to 14) (size 15 to 20)
#    0.000    2.600    0.000    3.600    0.000    4.400 
#    0.000    5.000    0.000    0.000    0.000    0.000 
#    0.000    0.000    0.000    0.000    0.000    0.000 
#
# Total GULP energy -247954.592563 kJ/mol
# GULP energy per Si atom -12397.729628 kJ/mol
# Density = 1.790239 g / cm^3
# Si number density = 17.943234 Si / 1000 Ang^3
#
#
#
# Elastic Constant Matrix: (Units=GPa)
#
#
# Indices 1 2 3 4 5 6 
#
# 1 118.1735 28.7118 41.0799 0.0027 -9.3147 -0.0005
# 2 28.7118 45.0130 27.7543 0.0032 -3.5670 -0.0007
# 3 41.0799 27.7543 114.5497 0.0041 -14.4663 -0.0012
# 4 0.0027 0.0032 0.0041 22.9534 -0.0002 -5.1549
# 5 -9.3147 -3.5670 -14.4663 -0.0002 12.5434 -0.0002
# 6 -0.0005 -0.0007 -0.0012 -5.1549 -0.0002 22.0279
#
#
#
# Elastic Compliance Matrix: (Units=1/GPa)
#
#
# Indices 1 2 3 4 5 6 
#
# 1 0.010789 -0.005279 -0.002069 0.000000 0.004124 0.000000
# 2 -0.005279 0.028701 -0.005296 -0.000003 -0.001867 0.000000
# 3 -0.002069 -0.005296 0.012139 -0.000001 0.010957 0.000000
# 4 0.000000 -0.000003 -0.000001 0.045983 -0.000001 0.010761
# 5 0.004124 -0.001867 0.010957 -0.000001 0.094891 0.000001
# 6 0.000000 0.000000 0.000000 0.010761 0.000001 0.047915
#
#
# Mechanical properties :
#
#
# Convention : Reuss Voigt Hill
#
# Bulk Modulus (GPa) = 37.96636 52.53647 45.25142
# Shear Modulus (GPa) = 18.21568 23.51763 20.86665
#
# Velocity S-wave (km/s) = 3.18965 3.62424 3.41387
# Velocity P-wave (km/s) = 5.89663 6.84517 6.38853
#
# Compressibility (1/GPa) = 0.02633910
#
# Stress axis : x y z
#
# Youngs Moduli (GPa) = 92.68514 34.84196 82.37950
#
# Poissons Ratio (x) = 0.18394 0.17047
# Poissons Ratio (y) = 0.48931 0.43632
# Poissons Ratio (z) = 0.19179 0.18454
#
# Static dielectric constant tensor:
#      x y z
#    x 3.662480 0.000000 0.136370 
#    y 0.000000 3.176790 0.000000 
#    z 0.136370 0.000000 3.292450 
# 
# 
# High freq. dielectric constant tensor:
#      x y z
#    x 1.702550 0.000000 -0.003060 
#    y 0.000000 1.679960 0.000000 
#    z -0.003060 0.000000 1.675740 
# 
# From -- ./inp_files/151850.got.cif
#   From: 2010.06.25/outbox.cif.g09.slc.cpg/sg12_76_cif.got.tgz:151850.got - 2010.06.28 00:19:55.
