data_PCOD8086140
_publ_section_title
;
Structure prediction by ZEFSAII (Michael W. Deem and Ramdas Pophale) SiO2 
 PCOD8086140
Probable space group: C 2/M
;
_chemical_formula_sum "Si O2"
_cell_formula_units_Z 56
_cell_length_a 23.629698
_cell_length_b 8.648223
_cell_length_c 19.091975
_cell_angle_alpha 90.000000
_cell_angle_beta 51.707702
_cell_angle_gamma 90.000000
_cell_volume 3062.160326
_symmetry_space_group_name_H-M "C 2/M"
_symmetry_group_IT_number 12
_symmetry_cell_setting 'monoclinic'
loop_
_space_group_symop_operation_xyz
x,y,z
-x,y,-z
-x,-y,-z
x,-y,z
1/2+x,1/2+y,z
1/2-x,1/2+y,-z
1/2-x,1/2-y,-z
1/2+x,1/2-y,z
loop_
_atom_site_type_symbol
_atom_site_label
_atom_site_fract_x
_atom_site_fract_y
_atom_site_fract_z
Si Si1 0.681502 0.678120 0.745252
Si Si2 0.019222 0.320993 0.202221
Si Si3 0.661212 0.182892 0.336272
Si Si4 0.467497 0.183102 0.096484
Si Si5 0.558155 0.319551 0.307099
Si Si6 0.125911 0.177918 0.642703
Si Si7 0.906571 0.318008 0.466089
O O1 0.670338 0.500000 0.772260
O O2 0.756268 0.739631 0.719423
O O3 0.614829 0.765797 0.830998
O O4 0.686038 0.699687 0.656794
O O5 0.040537 0.500000 0.191562
O O6 0.070779 0.224078 0.215099
O O7 0.019622 0.262701 0.120871
O O8 0.938187 0.295289 0.290307
O O9 0.629457 0.269557 0.293579
O O10 0.616531 0.233753 0.438858
O O11 0.656782 0.000000 0.328388
O O12 0.467080 0.000000 0.094333
O O13 0.500000 0.253563 0.000000
O O14 0.544552 0.500000 0.325381
O O15 0.489571 0.229700 0.391317
O O16 0.147825 0.231923 0.547517
O O17 0.098928 0.000000 0.661782
O O18 0.897264 0.500000 0.463924
#
# Coordination Sequence:
#
# PCOD8086140 Si02
#       7
#     8   8   8   8   8   8   8
#     4   9  19  34  50  71  99 130 161 194 239 291
#     4   9  16  29  50  72  96 127 157 188 233 285
#     4  10  21  35  48  65  95 133 169 203 240 285
#     4   9  18  33  55  82 105 123 149 189 236 288
#     4  11  21  32  48  70  96 126 166 211 243 274
#     4   9  16  28  46  68  96 125 157 201 242 278
#     4  10  19  31  48  68  92 128 170 207 243 282
#
# _framework density 18.287742999999999
#
# number of rings (size 3 to 8) (size 9 to 14) (size 15 to 20)
#    0.000    2.429    0.000    4.714    0.000    5.429 
#    0.000    0.000    0.000    0.857    0.000    0.000 
#    0.000    0.000    0.000    0.000    0.000    0.000 
#
# Total GULP energy -346981.284822 kJ/mol
# GULP energy per Si atom -12392.188744 kJ/mol
# Density = 1.824612 g / cm^3
# Si number density = 18.287743 Si / 1000 Ang^3
#
#
#
# Elastic Constant Matrix: (Units=GPa)
#
#
# Indices 1 2 3 4 5 6 
#
# 1 138.5518 30.3774 68.2738 0.0009 25.7989 -0.0005
# 2 30.3774 40.5805 27.1071 0.0045 9.3477 -0.0020
# 3 68.2738 27.1071 85.9095 0.0017 27.2069 -0.0012
# 4 0.0009 0.0045 0.0017 16.1312 -0.0015 4.6489
# 5 25.7989 9.3477 27.2069 -0.0015 25.9859 0.0008
# 6 -0.0005 -0.0020 -0.0012 4.6489 0.0008 27.7800
#
#
#
# Elastic Compliance Matrix: (Units=1/GPa)
#
#
# Indices 1 2 3 4 5 6 
#
# 1 0.012353 -0.003340 -0.007869 0.000001 -0.002824 0.000000
# 2 -0.003340 0.032159 -0.007300 -0.000009 -0.000609 0.000004
# 3 -0.007869 -0.007300 0.025270 -0.000002 -0.016019 0.000001
# 4 0.000001 -0.000009 -0.000002 0.065133 0.000009 -0.010900
# 5 -0.002824 -0.000609 -0.016019 0.000009 0.058277 -0.000004
# 6 0.000000 0.000004 0.000001 -0.010900 -0.000004 0.037821
#
#
# Mechanical properties :
#
#
# Convention : Reuss Voigt Hill
#
# Bulk Modulus (GPa) = 30.52052 57.39538 43.95795
# Shear Modulus (GPa) = 17.92409 23.26499 20.59454
#
# Velocity S-wave (km/s) = 3.13407 3.57061 3.35944
# Velocity P-wave (km/s) = 5.46094 6.96073 6.25594
#
# Compressibility (1/GPa) = 0.03276484
#
# Stress axis : x y z
#
# Youngs Moduli (GPa) = 80.94951 31.09523 39.57214
#
# Poissons Ratio (x) = 0.10387 0.31140
# Poissons Ratio (y) = 0.27041 0.28886
# Poissons Ratio (z) = 0.63700 0.22698
#
# Static dielectric constant tensor:
#      x y z
#    x 3.631330 0.000000 0.533240 
#    y 0.000000 3.279300 0.000000 
#    z 0.533240 0.000000 3.472570 
# 
# 
# High freq. dielectric constant tensor:
#      x y z
#    x 1.706980 0.000000 0.034730 
#    y 0.000000 1.708870 0.000000 
#    z 0.034730 0.000000 1.676540 
# 
# From -- ./inp_files/287365.got.cif
#   From: 2010.06.25/outbox.cif.g09.slc.cpg/sg12_144_cif.got.tgz:287365.got - 2010.06.28 00:19:55.
