data_PCOD8086980
_publ_section_title
;
Structure prediction by ZEFSAII (Michael W. Deem and Ramdas Pophale) SiO2 
 PCOD8086980
Probable space group: C 2/M
;
_chemical_formula_sum "Si O2"
_cell_formula_units_Z 48
_cell_length_a 20.846452
_cell_length_b 8.834390
_cell_length_c 15.048163
_cell_angle_alpha 90.000000
_cell_angle_beta 68.872600
_cell_angle_gamma 90.000000
_cell_volume 2585.068297
_symmetry_space_group_name_H-M "C 2/M"
_symmetry_group_IT_number 12
_symmetry_cell_setting 'monoclinic'
loop_
_space_group_symop_operation_xyz
x,y,z
-x,y,-z
-x,-y,-z
x,-y,z
1/2+x,1/2+y,z
1/2-x,1/2+y,-z
1/2-x,1/2-y,-z
1/2+x,1/2-y,z
loop_
_atom_site_type_symbol
_atom_site_label
_atom_site_fract_x
_atom_site_fract_y
_atom_site_fract_z
Si Si1 0.556726 0.176962 0.803810
Si Si2 0.597219 0.180080 0.119067
Si Si3 0.309907 0.321490 0.779648
Si Si4 0.837426 0.674122 0.392994
Si Si5 0.658160 0.820026 0.903025
Si Si6 0.202556 0.674459 0.394932
O O1 0.480379 0.246393 0.844842
O O2 0.590197 0.210019 0.690634
O O3 0.604647 0.247358 0.857502
O O4 0.550326 0.000000 0.825426
O O5 0.633779 0.246921 0.186246
O O6 0.597546 0.000000 0.125986
O O7 0.636312 0.236605 0.011300
O O8 0.314219 0.500000 0.787499
O O9 0.234402 0.258892 0.843756
O O10 0.327073 0.274528 0.670220
O O11 0.815152 0.500000 0.386236
O O12 0.844863 0.704541 0.494542
O O13 0.780496 0.781182 0.378350
O O14 0.658026 0.000000 0.897414
O O15 0.200761 0.500000 0.367315
#
# Coordination Sequence:
#
# PCOD8086980 Si02
#       6
#     8   8   8   8   8   8
#     4   9  16  31  55  80 104 132 168 210 257 306
#     4  10  20  33  53  79 105 133 172 216 253 301
#     4  11  21  35  53  73 106 143 171 208 258 307
#     4   9  17  32  54  79 105 132 165 209 261 306
#     4   9  17  31  54  79 100 133 176 213 251 299
#     4  10  19  31  52  80 104 130 171 216 252 298
#
# _framework density 18.568175
#
# number of rings (size 3 to 8) (size 9 to 14) (size 15 to 20)
#    0.000    2.333    1.667    2.000    0.000    2.667 
#    0.000    2.500    0.000    6.000    0.000    0.000 
#    0.000    0.000    0.000    0.000    0.000    0.000 
#
# Total GULP energy -297591.931012 kJ/mol
# GULP energy per Si atom -12399.663792 kJ/mol
# Density = 1.852591 g / cm^3
# Si number density = 18.568175 Si / 1000 Ang^3
#
#
#
# Elastic Constant Matrix: (Units=GPa)
#
#
# Indices 1 2 3 4 5 6 
#
# 1 102.6086 13.7360 38.0315 0.0000 15.6563 0.0000
# 2 13.7360 24.6108 18.4703 0.0000 0.5130 0.0000
# 3 38.0315 18.4703 114.6582 0.0000 16.4474 0.0000
# 4 0.0000 0.0000 0.0000 20.4968 0.0000 3.9802
# 5 15.6563 0.5130 16.4474 0.0000 22.1534 0.0000
# 6 0.0000 0.0000 0.0000 3.9802 0.0000 23.5649
#
#
#
# Elastic Compliance Matrix: (Units=1/GPa)
#
#
# Indices 1 2 3 4 5 6 
#
# 1 0.012316 -0.005012 -0.002290 0.000000 -0.006888 0.000000
# 2 -0.005012 0.048758 -0.007317 0.000000 0.007846 0.000000
# 3 -0.002290 -0.007317 0.011643 0.000000 -0.006857 0.000000
# 4 0.000000 0.000000 0.000000 0.050443 0.000000 -0.008520
# 5 -0.006888 0.007846 -0.006857 0.000000 0.054917 0.000000
# 6 0.000000 0.000000 0.000000 -0.008520 0.000000 0.043875
#
#
# Mechanical properties :
#
#
# Convention : Reuss Voigt Hill
#
# Bulk Modulus (GPa) = 22.99938 42.48367 32.74153
# Shear Modulus (GPa) = 18.81935 24.68568 21.75251
#
# Velocity S-wave (km/s) = 3.18705 3.65013 3.42642
# Velocity P-wave (km/s) = 5.09474 6.37920 5.77280
#
# Compressibility (1/GPa) = 0.04347943
#
# Stress axis : x y z
#
# Youngs Moduli (GPa) = 81.19214 20.50941 85.88535
#
# Poissons Ratio (x) = 0.10279 0.19666
# Poissons Ratio (y) = 0.40694 0.62846
# Poissons Ratio (z) = 0.18592 0.15008
#
# Static dielectric constant tensor:
#      x y z
#    x 3.383510 0.000000 -0.054320 
#    y 0.000000 3.087160 0.000000 
#    z -0.054320 0.000000 3.698640 
# 
# 
# High freq. dielectric constant tensor:
#      x y z
#    x 1.705500 0.000000 0.002760 
#    y 0.000000 1.685870 0.000000 
#    z 0.002760 0.000000 1.738060 
# 
# From -- ./inp_files/229860.got.cif
#   From: 2010.06.25/outbox.cif.g09.slc.cpg/sg12_115_cif.got.tgz:229860.got - 2010.06.28 00:19:55.
