data_PCOD8086712
_publ_section_title
;
Structure prediction by ZEFSAII (Michael W. Deem and Ramdas Pophale) SiO2 
 PCOD8086712
Probable space group: C 2/M
;
_chemical_formula_sum "Si O2"
_cell_formula_units_Z 64
_cell_length_a 25.079482
_cell_length_b 9.383962
_cell_length_c 14.482988
_cell_angle_alpha 90.000000
_cell_angle_beta 90.951894
_cell_angle_gamma 90.000000
_cell_volume 3408.027064
_symmetry_space_group_name_H-M "C 2/M"
_symmetry_group_IT_number 12
_symmetry_cell_setting 'monoclinic'
loop_
_space_group_symop_operation_xyz
x,y,z
-x,y,-z
-x,-y,-z
x,-y,z
1/2+x,1/2+y,z
1/2-x,1/2+y,-z
1/2-x,1/2-y,-z
1/2+x,1/2-y,z
loop_
_atom_site_type_symbol
_atom_site_label
_atom_site_fract_x
_atom_site_fract_y
_atom_site_fract_z
Si Si1 0.409043 0.335762 0.210252
Si Si2 0.602143 0.836135 0.159989
Si Si3 0.341450 0.830063 0.502520
Si Si4 0.809536 0.832415 0.327681
Si Si5 0.057152 0.162379 0.467657
Si Si6 0.192032 0.333473 0.296146
Si Si7 0.441665 0.164616 0.032174
Si Si8 0.523994 0.341940 0.263947
O O1 0.399457 0.500000 0.184269
O O2 0.357511 0.277391 0.263892
O O3 0.460797 0.314638 0.277398
O O4 0.418417 0.252383 0.116231
O O5 0.653845 0.768202 0.214127
O O6 0.602871 0.814749 0.049772
O O7 0.546848 0.767871 0.191391
O O8 0.597852 0.000000 0.186419
O O9 0.306077 0.756083 0.422609
O O10 0.401124 0.772301 0.488389
O O11 0.321826 0.774633 0.602100
O O12 0.339158 0.000000 0.491766
O O13 0.753673 0.800858 0.273666
O O14 0.815631 0.000000 0.351469
O O15 0.057503 0.174302 0.357742
O O16 0.000000 0.212701 0.500000
O O17 0.069642 0.000000 0.500643
O O18 0.181634 0.500000 0.299200
O O19 0.446441 0.000000 0.061770
O O20 0.500000 0.219130 0.000000
O O21 0.531688 0.500000 0.223177
#
# Coordination Sequence:
#
# PCOD8086712 Si02
#       8
#     8   8   8   8   8   8   8   8
#     4  10  21  36  56  80 109 143 181 225 270 324
#     4  10  19  35  56  79 107 138 176 221 268 324
#     4  11  21  34  55  84 111 141 186 234 275 318
#     4  10  21  39  58  77 107 150 189 225 275 327
#     4  10  20  34  51  74 110 150 185 221 268 330
#     4   9  19  36  58  80 107 145 189 229 269 323
#     4  10  20  34  56  83 110 144 178 216 275 334
#     4  10  19  31  50  77 105 138 176 219 269 316
#
# _framework density 18.779194
#
# number of rings (size 3 to 8) (size 9 to 14) (size 15 to 20)
#    0.000    2.000    2.500    1.500    0.000    3.500 
#    0.000    3.125    0.000    0.000    0.000    0.000 
#    0.000    0.000    0.000    0.000    0.000    0.000 
#
# Total GULP energy -396688.408266 kJ/mol
# GULP energy per Si atom -12396.512758 kJ/mol
# Density = 1.873645 g / cm^3
# Si number density = 18.779194 Si / 1000 Ang^3
#
#
#
# Elastic Constant Matrix: (Units=GPa)
#
#
# Indices 1 2 3 4 5 6 
#
# 1 107.6645 26.6292 39.8589 0.0000 7.3640 0.0000
# 2 26.6292 44.4483 26.7939 0.0000 3.6264 0.0000
# 3 39.8589 26.7939 79.1966 0.0000 10.0316 0.0000
# 4 0.0000 0.0000 0.0000 29.1513 0.0000 0.6154
# 5 7.3640 3.6264 10.0316 0.0000 25.5378 0.0000
# 6 0.0000 0.0000 0.0000 0.6154 0.0000 21.1848
#
#
#
# Elastic Compliance Matrix: (Units=1/GPa)
#
#
# Indices 1 2 3 4 5 6 
#
# 1 0.012119 -0.004495 -0.004438 0.000000 -0.001113 0.000000
# 2 -0.004495 0.029931 -0.007882 0.000000 0.000142 0.000000
# 3 -0.004438 -0.007882 0.018125 0.000000 -0.004721 0.000000
# 4 0.000000 0.000000 0.000000 0.034325 0.000000 -0.000997
# 5 -0.001113 0.000142 -0.004721 0.000000 0.041313 0.000000
# 6 0.000000 0.000000 0.000000 -0.000997 0.000000 0.047233
#
#
# Mechanical properties :
#
#
# Convention : Reuss Voigt Hill
#
# Bulk Modulus (GPa) = 37.67098 46.43039 42.05069
# Shear Modulus (GPa) = 22.17082 24.37661 23.27371
#
# Velocity S-wave (km/s) = 3.43972 3.60678 3.52424
# Velocity P-wave (km/s) = 5.98992 6.49024 6.24509
#
# Compressibility (1/GPa) = 0.02654563
#
# Stress axis : x y z
#
# Youngs Moduli (GPa) = 82.51642 33.41068 55.17277
#
# Poissons Ratio (x) = 0.15017 0.24484
# Poissons Ratio (y) = 0.37087 0.43488
# Poissons Ratio (z) = 0.36618 0.26335
#
# Static dielectric constant tensor:
#      x y z
#    x 3.580380 0.000000 0.228000 
#    y 0.000000 3.264100 0.000000 
#    z 0.228000 0.000000 3.481060 
# 
# 
# High freq. dielectric constant tensor:
#      x y z
#    x 1.730280 0.000000 0.012980 
#    y 0.000000 1.709200 0.000000 
#    z 0.012980 0.000000 1.723590 
# 
# From -- ./inp_files/238746.got.cif
#   From: 2010.06.25/outbox.cif.g09.slc.cpg/sg12_120_cif.got.tgz:238746.got - 2010.06.28 00:19:55.
