data_PCOD8086628
_publ_section_title
;
Structure prediction by ZEFSAII (Michael W. Deem and Ramdas Pophale) SiO2 
 PCOD8086628
Probable space group: C 2/M
;
_chemical_formula_sum "Si O2"
_cell_formula_units_Z 40
_cell_length_a 18.216474
_cell_length_b 9.148380
_cell_length_c 22.726652
_cell_angle_alpha 90.000000
_cell_angle_beta 145.490865
_cell_angle_gamma 90.000000
_cell_volume 2145.718440
_symmetry_space_group_name_H-M "C 2/M"
_symmetry_group_IT_number 12
_symmetry_cell_setting 'monoclinic'
loop_
_space_group_symop_operation_xyz
x,y,z
-x,y,-z
-x,-y,-z
x,-y,z
1/2+x,1/2+y,z
1/2-x,1/2+y,-z
1/2-x,1/2-y,-z
1/2+x,1/2-y,z
loop_
_atom_site_type_symbol
_atom_site_label
_atom_site_fract_x
_atom_site_fract_y
_atom_site_fract_z
Si Si1 0.254546 0.664761 0.593016
Si Si2 0.540863 0.169176 0.204345
Si Si3 0.057046 0.165155 0.393579
Si Si4 0.855642 0.328965 0.188853
Si Si5 0.589208 0.832241 0.002943
O O1 0.217281 0.500000 0.585956
O O2 0.329722 0.739082 0.696851
O O3 0.123086 0.753400 0.492460
O O4 0.345459 0.667138 0.596365
O O5 0.427373 0.207696 0.175246
O O6 0.579210 0.000000 0.234162
O O7 0.492896 0.213326 0.108267
O O8 0.925520 0.248184 0.289272
O O9 0.022744 0.000000 0.389552
O O10 0.856331 0.500000 0.202953
O O11 0.710472 0.273445 0.087717
O O12 0.636660 0.000000 0.029195
O O13 0.500000 0.807685 0.000000
#
# Coordination Sequence:
#
# PCOD8086628 Si02
#       5
#     8   8   8   8   8
#     4   9  16  26  44  72 102 129 159 197 241 287
#     4   9  18  32  50  73 100 130 164 201 242 289
#     4   9  16  27  45  70 101 132 160 194 239 290
#     4  10  19  31  50  75 101 128 162 204 245 287
#     4  10  21  36  52  70  96 131 168 204 244 292
#
# _framework density 18.641774000000002
#
# number of rings (size 3 to 8) (size 9 to 14) (size 15 to 20)
#    0.000    2.600    0.000    2.400    0.000    6.800 
#    0.000    0.000    0.000    1.200    0.000    8.400 
#    0.000    0.000    0.000    0.000    0.000    0.000 
#
# Total GULP energy -248039.290174 kJ/mol
# GULP energy per Si atom -12401.964509 kJ/mol
# Density = 1.859934 g / cm^3
# Si number density = 18.641774 Si / 1000 Ang^3
#
#
#
# Elastic Constant Matrix: (Units=GPa)
#
#
# Indices 1 2 3 4 5 6 
#
# 1 38.5392 32.8669 46.9298 0.0000 -4.3615 0.0000
# 2 32.8669 134.8185 93.9695 0.0000 -5.0248 0.0000
# 3 46.9298 93.9695 176.0310 0.0000 -14.9747 0.0000
# 4 0.0000 0.0000 0.0000 37.8663 0.0001 10.1829
# 5 -4.3615 -5.0248 -14.9747 0.0001 -2.2299 0.0000
# 6 0.0000 0.0000 0.0000 10.1829 0.0000 10.2360
#
#
#
# Elastic Compliance Matrix: (Units=1/GPa)
#
#
# Indices 1 2 3 4 5 6 
#
# 1 0.039337 -0.003385 -0.009277 0.000000 -0.007014 0.000000
# 2 -0.003385 0.011763 -0.004499 0.000000 0.010325 0.000000
# 3 -0.009277 -0.004499 0.008249 0.000000 -0.027114 0.000000
# 4 0.000000 0.000000 0.000000 0.036054 0.000000 -0.035867
# 5 -0.007014 0.010325 -0.027114 0.000000 -0.275922 0.000000
# 6 0.000000 0.000000 0.000000 -0.035867 0.000000 0.133376
#
#
# Mechanical properties :
#
#
# Convention : Reuss Voigt Hill
#
# Bulk Modulus (GPa) = 39.95537 77.43567 58.69552
# Shear Modulus (GPa) = -1116.34056 20.88265 -547.72896
#
# Velocity S-wave (km/s) = -24.49772 3.35058 -17.15972
# Velocity P-wave (km/s) = 27.90528 7.52313 19.00141
#
# Compressibility (1/GPa) = 0.02502793
#
# Stress axis : x y z
#
# Youngs Moduli (GPa) = 25.42106 85.01236 121.22770
#
# Poissons Ratio (x) = 0.28779 1.12462
# Poissons Ratio (y) = 0.08606 0.54535
# Poissons Ratio (z) = 0.23583 0.38243
#
# Static dielectric constant tensor:
#      x y z
#    x 2.922270 0.000000 -0.115640 
#    y 0.000000 3.548780 0.000000 
#    z -0.115640 0.000000 3.590230 
# 
# 
# High freq. dielectric constant tensor:
#      x y z
#    x 1.668180 0.000000 -0.004590 
#    y 0.000000 1.733100 0.000000 
#    z -0.004590 0.000000 1.740400 
# 
# From -- ./inp_files/151726.got.cif
#   From: 2010.06.25/outbox.cif.g09.slc.cpg/sg12_76_cif.got.tgz:151726.got - 2010.06.28 00:19:55.
