data_PCOD8086753
_publ_section_title
;
Structure prediction by ZEFSAII (Michael W. Deem and Ramdas Pophale) SiO2 
 PCOD8086753
Probable space group: C 2/M
;
_chemical_formula_sum "Si O2"
_cell_formula_units_Z 64
_cell_length_a 29.585023
_cell_length_b 9.514733
_cell_length_c 23.688041
_cell_angle_alpha 90.000000
_cell_angle_beta 152.548342
_cell_angle_gamma 90.000000
_cell_volume 3073.963024
_symmetry_space_group_name_H-M "C 2/M"
_symmetry_group_IT_number 12
_symmetry_cell_setting 'monoclinic'
loop_
_space_group_symop_operation_xyz
x,y,z
-x,y,-z
-x,-y,-z
x,-y,z
1/2+x,1/2+y,z
1/2-x,1/2+y,-z
1/2-x,1/2-y,-z
1/2+x,1/2-y,z
loop_
_atom_site_type_symbol
_atom_site_label
_atom_site_fract_x
_atom_site_fract_y
_atom_site_fract_z
Si Si1 0.559334 0.844213 0.122597
Si Si2 0.593881 0.660198 0.988619
Si Si3 0.829259 0.346141 0.018740
Si Si4 0.254416 0.339670 0.672926
Si Si5 0.317165 0.838296 0.531545
Si Si6 0.118494 0.840264 0.740960
Si Si7 0.475963 0.158135 0.276812
Si Si8 0.199152 0.658380 0.731562
O O1 0.661174 0.771441 0.223014
O O2 0.576767 0.000000 0.167396
O O3 0.500000 0.856506 0.000000
O O4 0.500507 0.750489 0.101243
O O5 0.559849 0.500000 0.946620
O O6 0.683645 0.680436 0.131386
O O7 0.626877 0.713394 0.964482
O O8 0.858528 0.500000 0.024973
O O9 0.872099 0.337224 0.129162
O O10 0.711966 0.334357 0.886296
O O11 0.294647 0.500000 0.719035
O O12 0.205653 0.305876 0.559116
O O13 0.178575 0.318797 0.641748
O O14 0.250000 0.750000 0.500000
O O15 0.433261 0.799330 0.664330
O O16 0.297505 0.000000 0.525309
O O17 0.031167 0.760174 0.676910
O O18 0.139039 0.767406 0.703222
O O19 0.086090 0.000000 0.692865
O O20 0.496765 0.000000 0.322307
O O21 0.170396 0.500000 0.718692
#
# Coordination Sequence:
#
# PCOD8086753 Si02
#       8
#     8   8   8   8   8   8   8   8
#     4  11  22  33  51  81 116 151 188 234 293 353
#     4  10  19  31  50  79 114 151 188 230 282 347
#     4   9  19  34  54  83 120 153 187 235 287 348
#     4  10  21  39  60  82 112 151 198 244 288 344
#     4  10  24  44  64  86 114 152 199 249 294 341
#     4  10  20  34  57  89 121 150 186 235 291 351
#     4  10  21  39  60  82 114 155 197 240 291 346
#     4   9  18  34  56  81 113 150 184 227 286 347
#
# _framework density 20.820028000000001
#
# number of rings (size 3 to 8) (size 9 to 14) (size 15 to 20)
#    0.000    2.125    1.250    1.500    1.750    3.500 
#    0.000    0.625    0.000    3.750    0.000    0.000 
#    0.000    0.000    0.000    0.000    0.000    0.000 
#
# Total GULP energy -396621.187778 kJ/mol
# GULP energy per Si atom -12394.412118 kJ/mol
# Density = 2.077264 g / cm^3
# Si number density = 20.820028 Si / 1000 Ang^3
#
#
#
# Elastic Constant Matrix: (Units=GPa)
#
#
# Indices 1 2 3 4 5 6 
#
# 1 125.9011 77.4478 26.5330 0.0000 3.2083 0.0000
# 2 77.4478 142.5331 22.6940 0.0000 2.6724 0.0000
# 3 26.5330 22.6940 38.1184 0.0000 -7.3138 0.0000
# 4 0.0000 0.0000 0.0000 75.0362 0.0000 9.1527
# 5 3.2083 2.6724 -7.3138 0.0000 24.7812 0.0000
# 6 0.0000 0.0000 0.0000 9.1527 0.0000 40.0029
#
#
#
# Elastic Compliance Matrix: (Units=1/GPa)
#
#
# Indices 1 2 3 4 5 6 
#
# 1 0.013002 -0.006061 -0.005978 0.000000 -0.002794 0.000000
# 2 -0.006061 0.010705 -0.002359 0.000000 -0.001066 0.000000
# 3 -0.005978 -0.002359 0.033918 0.000000 0.011039 0.000000
# 4 0.000000 0.000000 0.000000 0.013710 0.000000 -0.003137
# 5 -0.002794 -0.001066 0.011039 0.000000 0.044088 0.000000
# 6 0.000000 0.000000 0.000000 -0.003137 0.000000 0.025716
#
#
# Mechanical properties :
#
#
# Convention : Reuss Voigt Hill
#
# Bulk Modulus (GPa) = 34.68757 62.21135 48.44946
# Shear Modulus (GPa) = 27.84859 39.95593 33.90226
#
# Velocity S-wave (km/s) = 3.66127 4.38552 4.03966
# Velocity P-wave (km/s) = 5.87963 7.45581 6.71413
#
# Compressibility (1/GPa) = 0.02882877
#
# Stress axis : x y z
#
# Youngs Moduli (GPa) = 76.91143 93.41750 29.48321
#
# Poissons Ratio (x) = 0.56617 0.17625
# Poissons Ratio (y) = 0.46613 0.06955
# Poissons Ratio (z) = 0.45979 0.22037
#
# Static dielectric constant tensor:
#      x y z
#    x 12.693010 0.000000 10.505070 
#    y 0.000000 3.958850 0.000000 
#    z 10.505070 0.000000 15.741200 
# 
# 
# High freq. dielectric constant tensor:
#      x y z
#    x 1.809600 0.000000 -0.001960 
#    y 0.000000 1.821290 0.000000 
#    z -0.001960 0.000000 1.789700 
# 
# From -- ./inp_files/353566.got.cif
#   From: 2010.06.25/outbox.cif.g09.slc.cpg/sg12_177_cif.got.tgz:353566.got - 2010.06.28 00:19:55.
