data_PCOD8086459
_publ_section_title
;
Structure prediction by ZEFSAII (Michael W. Deem and Ramdas Pophale) SiO2 
 PCOD8086459
Probable space group: C 2/M
;
_chemical_formula_sum "Si O2"
_cell_formula_units_Z 40
_cell_length_a 25.017553
_cell_length_b 9.156965
_cell_length_c 29.230199
_cell_angle_alpha 90.000000
_cell_angle_beta 159.933900
_cell_angle_gamma 90.000000
_cell_volume 2297.491645
_symmetry_space_group_name_H-M "C 2/M"
_symmetry_group_IT_number 12
_symmetry_cell_setting 'monoclinic'
loop_
_space_group_symop_operation_xyz
x,y,z
-x,y,-z
-x,-y,-z
x,-y,z
1/2+x,1/2+y,z
1/2-x,1/2+y,-z
1/2-x,1/2-y,-z
1/2+x,1/2-y,z
loop_
_atom_site_type_symbol
_atom_site_label
_atom_site_fract_x
_atom_site_fract_y
_atom_site_fract_z
Si Si1 0.072071 0.172322 0.208376
Si Si2 0.318841 0.669271 0.348580
Si Si3 0.824028 0.671545 0.861991
Si Si4 0.730764 0.333568 0.093237
Si Si5 0.102547 0.330338 0.861104
O O1 0.230927 0.232043 0.314805
O O2 0.049042 0.250598 0.239485
O O3 0.082989 0.000000 0.224919
O O4 0.928180 0.216350 0.059872
O O5 0.500000 0.699521 0.500000
O O6 0.276120 0.500000 0.322580
O O7 0.269877 0.718652 0.258467
O O8 0.824216 0.500000 0.869225
O O9 0.738640 0.738930 0.837234
O O10 0.000000 0.732233 0.000000
O O11 0.712308 0.500000 0.093856
O O12 0.881335 0.314590 0.180995
O O13 0.103638 0.500000 0.876289
O O14 0.250000 0.250000 0.000000
#
# Coordination Sequence:
#
# PCOD8086459 Si02
#       5
#     8   8   8   8   8
#     4  10  19  31  49  74 102 133 169 207 251 296
#     4  10  21  36  52  72 101 136 169 205 252 301
#     4  10  19  31  50  75  99 129 168 206 247 294
#     4   9  18  30  47  74 103 131 161 202 252 295
#     4   9  17  29  46  72 103 133 166 204 252 300
#
# _framework density 17.410291999999998
#
# number of rings (size 3 to 8) (size 9 to 14) (size 15 to 20)
#    0.000    2.400    2.000    2.400    0.000    5.600 
#    0.000    0.000    0.000    1.200    0.000    0.000 
#    0.000    0.000    0.000    0.000    0.000    0.000 
#
# Total GULP energy -247953.619496 kJ/mol
# GULP energy per Si atom -12397.680975 kJ/mol
# Density = 1.737067 g / cm^3
# Si number density = 17.410292 Si / 1000 Ang^3
#
#
#
# Elastic Constant Matrix: (Units=GPa)
#
#
# Indices 1 2 3 4 5 6 
#
# 1 138.3821 65.7845 51.4469 -0.0098 19.3962 -0.0030
# 2 65.7845 84.1516 34.8152 -0.0084 15.2443 -0.0041
# 3 51.4469 34.8152 74.6934 0.0082 2.3281 -0.0043
# 4 -0.0098 -0.0084 0.0082 16.0228 -0.0012 6.3232
# 5 19.3962 15.2443 2.3281 -0.0012 22.3555 0.0004
# 6 -0.0030 -0.0041 -0.0043 6.3232 0.0004 38.8227
#
#
#
# Elastic Compliance Matrix: (Units=1/GPa)
#
#
# Indices 1 2 3 4 5 6 
#
# 1 0.013707 -0.007094 -0.005934 0.000008 -0.006437 -0.000002
# 2 -0.007094 0.020642 -0.004503 0.000008 -0.007452 0.000000
# 3 -0.005934 -0.004503 0.019381 -0.000017 0.006200 0.000004
# 4 0.000008 0.000008 -0.000017 0.066698 -0.000007 -0.010863
# 5 -0.006437 -0.007452 0.006200 -0.000007 0.054752 0.000000
# 6 -0.000002 0.000000 0.000004 -0.010863 0.000000 0.027527
#
#
# Mechanical properties :
#
#
# Convention : Reuss Voigt Hill
#
# Bulk Modulus (GPa) = 53.56755 66.81338 60.19046
# Shear Modulus (GPa) = 20.49244 25.11890 22.80567
#
# Velocity S-wave (km/s) = 3.43451 3.80249 3.62317
# Velocity P-wave (km/s) = 6.82366 7.59853 7.22150
#
# Compressibility (1/GPa) = 0.01866802
#
# Stress axis : x y z
#
# Youngs Moduli (GPa) = 72.95427 48.44479 51.59797
#
# Poissons Ratio (x) = 0.34369 0.30617
# Poissons Ratio (y) = 0.51757 0.23233
# Poissons Ratio (z) = 0.43289 0.21813
#
# Static dielectric constant tensor:
#      x y z
#    x 3.854970 -0.000050 0.306930 
#    y -0.000050 3.255590 -0.000020 
#    z 0.306930 -0.000020 2.926840 
# 
# 
# High freq. dielectric constant tensor:
#      x y z
#    x 1.685460 0.000000 0.019310 
#    y 0.000000 1.678440 0.000000 
#    z 0.019310 0.000000 1.621780 
# 
# From -- ./inp_files/93018.got.cif
#   From: 2010.06.25/outbox.cif.g09.slc.cpg/sg12_47_cif.got.tgz:93018.got - 2010.06.28 00:19:55.
