data_PCOD8086720
_publ_section_title
;
Structure prediction by ZEFSAII (Michael W. Deem and Ramdas Pophale) SiO2 
 PCOD8086720
Probable space group: C 2/M
;
_chemical_formula_sum "Si O2"
_cell_formula_units_Z 64
_cell_length_a 18.882781
_cell_length_b 8.695237
_cell_length_c 21.084283
_cell_angle_alpha 90.000000
_cell_angle_beta 89.826053
_cell_angle_gamma 90.000000
_cell_volume 3461.817870
_symmetry_space_group_name_H-M "C 2/M"
_symmetry_group_IT_number 12
_symmetry_cell_setting 'monoclinic'
loop_
_space_group_symop_operation_xyz
x,y,z
-x,y,-z
-x,-y,-z
x,-y,z
1/2+x,1/2+y,z
1/2-x,1/2+y,-z
1/2-x,1/2-y,-z
1/2+x,1/2-y,z
loop_
_atom_site_type_symbol
_atom_site_label
_atom_site_fract_x
_atom_site_fract_y
_atom_site_fract_z
Si Si1 0.453219 0.826154 0.062681
Si Si2 0.137253 0.679217 0.457462
Si Si3 0.975247 0.821054 0.623299
Si Si4 0.618802 0.681358 0.262377
Si Si5 0.762729 0.180358 0.644768
Si Si6 0.633069 0.677291 0.592054
Si Si7 0.080376 0.182389 0.125610
Si Si8 0.828326 0.818139 0.994611
O O1 0.500538 0.745050 0.116450
O O2 0.378153 0.740692 0.052116
O O3 0.436445 0.000000 0.083252
O O4 0.500000 0.818359 0.000000
O O5 0.151962 0.500000 0.446412
O O6 0.193441 0.779044 0.418316
O O7 0.145263 0.717053 0.531080
O O8 0.058661 0.724904 0.434364
O O9 0.058105 0.789111 0.624339
O O10 0.943763 0.763141 0.690462
O O11 0.956907 0.000000 0.611909
O O12 0.615689 0.500000 0.256214
O O13 0.693922 0.731473 0.292508
O O14 0.608668 0.751543 0.192305
O O15 0.689999 0.275407 0.645097
O O16 0.746841 0.000000 0.645211
O O17 0.640967 0.500000 0.572265
O O18 0.075241 0.000000 0.125660
O O19 0.135691 0.236947 0.071468
O O20 0.822928 0.000000 0.998679
O O21 0.750000 0.750000 0.000000
#
# Coordination Sequence:
#
# PCOD8086720 Si02
#       8
#     8   8   8   8   8   8   8   8
#     4   9  17  30  49  74 103 132 164 202 241 283
#     4  11  21  33  51  74  99 127 163 205 249 299
#     4   9  19  35  53  72  98 130 161 200 250 299
#     4   8  16  34  56  73  93 128 169 204 243 294
#     4  10  20  35  53  72  98 131 165 202 247 297
#     4  11  21  33  50  73 100 128 161 202 250 300
#     4   9  17  32  55  77  98 130 170 205 242 292
#     4  10  19  31  50  77 108 138 166 202 247 291
#
# _framework density 18.487396
#
# number of rings (size 3 to 8) (size 9 to 14) (size 15 to 20)
#    0.000    2.375    0.000    4.125    0.000    4.500 
#    0.000    4.375    0.000    3.000    0.000    0.000 
#    0.000    0.000    0.000    0.000    0.000    0.000 
#
# Total GULP energy -396765.967563 kJ/mol
# GULP energy per Si atom -12398.936486 kJ/mol
# Density = 1.844532 g / cm^3
# Si number density = 18.487396 Si / 1000 Ang^3
#
#
#
# Elastic Constant Matrix: (Units=GPa)
#
#
# Indices 1 2 3 4 5 6 
#
# 1 147.0563 35.3820 50.4506 0.0000 25.1498 0.0000
# 2 35.3820 53.3969 17.5479 0.0000 6.4534 0.0000
# 3 50.4506 17.5479 96.7276 0.0000 26.3500 0.0000
# 4 0.0000 0.0000 0.0000 16.4005 0.0000 6.6793
# 5 25.1498 6.4534 26.3500 0.0000 21.0466 0.0000
# 6 0.0000 0.0000 0.0000 6.6793 0.0000 32.6903
#
#
#
# Elastic Compliance Matrix: (Units=1/GPa)
#
#
# Indices 1 2 3 4 5 6 
#
# 1 0.010100 -0.005019 -0.002259 0.000000 -0.007701 0.000000
# 2 -0.005019 0.022490 -0.001848 0.000000 0.001415 0.000000
# 3 -0.002259 -0.001848 0.016636 0.000000 -0.017562 0.000000
# 4 0.000000 0.000000 0.000000 0.066508 0.000000 -0.013589
# 5 -0.007701 0.001415 -0.017562 0.000000 0.078269 0.000000
# 6 0.000000 0.000000 0.000000 -0.013589 0.000000 0.033367
#
#
# Mechanical properties :
#
#
# Convention : Reuss Voigt Hill
#
# Bulk Modulus (GPa) = 32.28585 55.99354 44.13969
# Shear Modulus (GPa) = 19.53534 26.94751 23.24142
#
# Velocity S-wave (km/s) = 3.25419 3.82201 3.54948
# Velocity P-wave (km/s) = 5.62328 7.05905 6.38167
#
# Compressibility (1/GPa) = 0.03097332
#
# Stress axis : x y z
#
# Youngs Moduli (GPa) = 99.01030 44.46484 60.11086
#
# Poissons Ratio (x) = 0.22318 0.13581
# Poissons Ratio (y) = 0.49695 0.11106
# Poissons Ratio (z) = 0.22370 0.08215
#
# Static dielectric constant tensor:
#      x y z
#    x 3.556050 0.000000 0.222030 
#    y 0.000000 3.318090 0.000000 
#    z 0.222030 0.000000 3.481550 
# 
# 
# High freq. dielectric constant tensor:
#      x y z
#    x 1.722380 0.000000 0.018450 
#    y 0.000000 1.710640 0.000000 
#    z 0.018450 0.000000 1.693340 
# 
# From -- ./inp_files/314090.got.cif
#   From: 2010.06.25/outbox.cif.g09.slc.cpg/sg12_158_cif.got.tgz:314090.got - 2010.06.28 00:19:55.
