data_PCOD8086745
_publ_section_title
;
Structure prediction by ZEFSAII (Michael W. Deem and Ramdas Pophale) SiO2 
 PCOD8086745
Probable space group: C 2/M
;
_chemical_formula_sum "Si O2"
_cell_formula_units_Z 56
_cell_length_a 21.433874
_cell_length_b 18.153034
_cell_length_c 17.692068
_cell_angle_alpha 90.000000
_cell_angle_beta 25.626337
_cell_angle_gamma 90.000000
_cell_volume 2977.246911
_symmetry_space_group_name_H-M "C 2/M"
_symmetry_group_IT_number 12
_symmetry_cell_setting 'monoclinic'
loop_
_space_group_symop_operation_xyz
x,y,z
-x,y,-z
-x,-y,-z
x,-y,z
1/2+x,1/2+y,z
1/2-x,1/2+y,-z
1/2-x,1/2-y,-z
1/2+x,1/2-y,z
loop_
_atom_site_type_symbol
_atom_site_label
_atom_site_fract_x
_atom_site_fract_y
_atom_site_fract_z
Si Si1 0.493294 0.917005 0.207397
Si Si2 0.152181 0.914618 0.792585
Si Si3 0.342622 0.812379 0.685608
Si Si4 0.092787 0.167550 0.164081
Si Si5 0.830418 0.085534 0.403385
Si Si6 0.334801 0.918333 0.828795
Si Si7 0.309928 0.205675 0.047459
O O1 0.327724 0.893736 0.394412
O O2 0.551525 0.910687 0.228525
O O3 0.511367 0.000000 0.156438
O O4 0.583718 0.863341 0.052718
O O5 0.274094 0.860757 0.693400
O O6 0.142675 0.896218 0.714277
O O7 0.198204 0.000000 0.754252
O O8 0.000000 0.898941 0.000000
O O9 0.500000 0.776571 0.500000
O O10 0.381996 0.864411 0.712105
O O11 0.229139 0.748075 0.832491
O O12 0.158700 0.179401 0.175432
O O13 0.929522 0.138730 0.346435
O O14 0.176177 0.102140 0.030404
O O15 0.103800 0.243351 0.105827
O O16 0.863498 0.000000 0.382721
O O17 0.329209 0.000000 0.801314
#
# Coordination Sequence:
#
# PCOD8086745 Si02
#       7
#     8   8   8   8   8   8   8
#     4   9  18  32  50  71  95 122 161 215 263 298
#     4  10  20  32  47  73 111 148 172 190 226 292
#     4  11  21  32  48  69 101 138 174 207 238 289
#     4   9  17  30  49  70  99 131 165 207 247 286
#     4  10  19  31  50  79 107 130 164 205 244 294
#     4   9  16  28  46  68  96 133 168 197 239 291
#     4   9  19  34  48  69  96 132 172 207 251 297
#
# _framework density 18.809322999999999
#
# number of rings (size 3 to 8) (size 9 to 14) (size 15 to 20)
#    0.000    2.429    0.000    4.286    0.000    4.571 
#    0.000    1.429    0.000    0.429    0.000    0.000 
#    0.000    7.429    0.000    0.000    0.000    0.286 
#
# Total GULP energy -347093.875460 kJ/mol
# GULP energy per Si atom -12396.209838 kJ/mol
# Density = 1.876651 g / cm^3
# Si number density = 18.809323 Si / 1000 Ang^3
#
#
#
# Elastic Constant Matrix: (Units=GPa)
#
#
# Indices 1 2 3 4 5 6 
#
# 1 37.4049 28.1807 23.2594 0.0010 -11.0166 0.0002
# 2 28.1807 93.0342 58.9201 0.0010 -8.4564 -0.0005
# 3 23.2594 58.9201 91.6245 0.0060 -22.3380 -0.0030
# 4 0.0010 0.0010 0.0060 30.0752 -0.0026 -5.8976
# 5 -11.0166 -8.4564 -22.3380 -0.0026 27.3416 0.0008
# 6 0.0002 -0.0005 -0.0030 -5.8976 0.0008 20.1514
#
#
#
# Elastic Compliance Matrix: (Units=1/GPa)
#
#
# Indices 1 2 3 4 5 6 
#
# 1 0.038199 -0.010462 -0.000008 0.000000 0.012149 -0.000001
# 2 -0.010462 0.021539 -0.013235 0.000001 -0.008366 -0.000001
# 3 -0.000008 -0.013235 0.023012 -0.000002 0.014704 0.000002
# 4 0.000000 0.000001 -0.000002 0.035274 0.000001 0.010324
# 5 0.012149 -0.008366 0.014704 0.000001 0.050895 0.000000
# 6 -0.000001 -0.000001 0.000002 0.010324 0.000000 0.052646
#
#
# Mechanical properties :
#
#
# Convention : Reuss Voigt Hill
#
# Bulk Modulus (GPa) = 28.29512 49.19821 38.74667
# Shear Modulus (GPa) = 17.80918 22.96051 20.38484
#
# Velocity S-wave (km/s) = 3.08039 3.49764 3.29563
# Velocity P-wave (km/s) = 5.26570 6.52107 5.92672
#
# Compressibility (1/GPa) = 0.03534178
#
# Stress axis : x y z
#
# Youngs Moduli (GPa) = 26.17853 46.42736 43.45616
#
# Poissons Ratio (x) = 0.48571 0.00033
# Poissons Ratio (y) = 0.27387 0.57514
# Poissons Ratio (z) = 0.00020 0.61446
#
# Static dielectric constant tensor:
#      x y z
#    x 3.176500 -0.000010 -0.127180 
#    y -0.000010 3.621340 0.000010 
#    z -0.127180 0.000010 3.396320 
# 
# 
# High freq. dielectric constant tensor:
#      x y z
#    x 1.691520 0.000000 -0.020770 
#    y 0.000000 1.728590 0.000000 
#    z -0.020770 0.000000 1.728210 
# 
# From -- ./inp_files/87242.got.cif
#   From: 2010.06.25/outbox.cif.g09.slc.cpg/sg12_44_cif.got.tgz:87242.got - 2010.06.28 00:19:55.
