data_PCOD8086779
_publ_section_title
;
Structure prediction by ZEFSAII (Michael W. Deem and Ramdas Pophale) SiO2 
 PCOD8086779
Probable space group: C 2/M
;
_chemical_formula_sum "Si O2"
_cell_formula_units_Z 56
_cell_length_a 13.806507
_cell_length_b 16.866038
_cell_length_c 18.445049
_cell_angle_alpha 90.000000
_cell_angle_beta 46.666075
_cell_angle_gamma 90.000000
_cell_volume 3124.136732
_symmetry_space_group_name_H-M "C 2/M"
_symmetry_group_IT_number 12
_symmetry_cell_setting 'monoclinic'
loop_
_space_group_symop_operation_xyz
x,y,z
-x,y,-z
-x,-y,-z
x,-y,z
1/2+x,1/2+y,z
1/2-x,1/2+y,-z
1/2-x,1/2-y,-z
1/2+x,1/2-y,z
loop_
_atom_site_type_symbol
_atom_site_label
_atom_site_fract_x
_atom_site_fract_y
_atom_site_fract_z
Si Si1 0.281010 0.910401 0.363370
Si Si2 0.852304 0.680039 0.927622
Si Si3 0.140852 0.763772 0.496119
Si Si4 0.922824 0.408332 0.746458
Si Si5 0.344744 0.915239 0.064554
Si Si6 0.634189 0.798833 0.348532
Si Si7 0.651704 0.182847 0.806500
O O1 0.165845 0.851180 0.450372
O O2 0.417601 0.899470 0.337768
O O3 0.317035 0.890910 0.262184
O O4 0.226843 0.000000 0.397397
O O5 0.855907 0.649126 0.842174
O O6 0.997763 0.708237 0.879653
O O7 0.750000 0.750000 0.000000
O O8 0.812062 0.605482 0.998167
O O9 0.250000 0.750000 0.500000
O O10 0.147893 0.695569 0.429316
O O11 0.992771 0.758016 0.605628
O O12 0.881175 0.500000 0.780996
O O13 0.877391 0.381712 0.688860
O O14 0.295699 0.845138 0.142077
O O15 0.274888 0.000000 0.116295
O O16 0.500000 0.924671 0.000000
O O17 0.769799 0.761488 0.251541
#
# Coordination Sequence:
#
# PCOD8086779 Si02
#       7
#     8   8   8   8   8   8   8
#     4   9  17  31  52  78 107 139 171 215 267 311
#     4  10  19  31  51  75 102 136 175 217 261 307
#     4  10  19  35  54  78 106 135 173 216 258 315
#     4  10  19  33  53  78 105 138 182 221 258 311
#     4   9  16  28  46  70  99 127 163 211 254 299
#     4  10  20  34  54  78 102 139 173 212 265 312
#     4   9  18  31  49  76 103 133 173 212 259 316
#
# _framework density 17.924951
#
# number of rings (size 3 to 8) (size 9 to 14) (size 15 to 20)
#    0.000    2.429    1.429    1.714    0.000    3.429 
#    0.000    8.571    0.000    2.571    0.000    0.000 
#    0.000    0.000    0.000    0.000    0.000    0.000 
#
# Total GULP energy -346887.965692 kJ/mol
# GULP energy per Si atom -12388.855918 kJ/mol
# Density = 1.788415 g / cm^3
# Si number density = 17.924951 Si / 1000 Ang^3
#
#
#
# Elastic Constant Matrix: (Units=GPa)
#
#
# Indices 1 2 3 4 5 6 
#
# 1 82.0832 28.8396 31.3109 -0.0001 12.5565 0.0000
# 2 28.8396 85.7285 34.2089 0.0000 -1.9860 0.0000
# 3 31.3109 34.2089 66.5428 0.0000 -0.9709 0.0001
# 4 -0.0001 0.0000 0.0000 24.8719 0.0000 3.9367
# 5 12.5565 -1.9860 -0.9709 0.0000 30.7409 0.0000
# 6 0.0000 0.0000 0.0001 3.9367 0.0000 8.4927
#
#
#
# Elastic Compliance Matrix: (Units=1/GPa)
#
#
# Indices 1 2 3 4 5 6 
#
# 1 0.016889 -0.003318 -0.006348 0.000000 -0.007313 0.000000
# 2 -0.003318 0.015343 -0.006295 0.000000 0.002148 0.000000
# 3 -0.006348 -0.006295 0.021293 0.000000 0.002859 0.000000
# 4 0.000000 0.000000 0.000000 0.043389 0.000000 -0.020113
# 5 -0.007313 0.002148 0.002859 0.000000 0.035746 0.000000
# 6 0.000000 0.000000 0.000000 -0.020113 0.000000 0.127071
#
#
# Mechanical properties :
#
#
# Convention : Reuss Voigt Hill
#
# Bulk Modulus (GPa) = 46.29049 47.00815 46.64932
# Shear Modulus (GPa) = 16.73068 22.15412 19.44240
#
# Velocity S-wave (km/s) = 3.05843 3.51940 3.29698
# Velocity P-wave (km/s) = 6.19295 6.54193 6.36983
#
# Compressibility (1/GPa) = 0.02160271
#
# Stress axis : x y z
#
# Youngs Moduli (GPa) = 59.21170 65.17830 46.96461
#
# Poissons Ratio (x) = 0.21625 0.29812
# Poissons Ratio (y) = 0.19645 0.29564
# Poissons Ratio (z) = 0.37586 0.41029
#
# Static dielectric constant tensor:
#      x y z
#    x 3.316420 0.000000 0.177220 
#    y 0.000000 3.185130 0.000000 
#    z 0.177220 0.000000 3.507260 
# 
# 
# High freq. dielectric constant tensor:
#      x y z
#    x 1.679060 0.000000 0.014220 
#    y 0.000000 1.674100 0.000000 
#    z 0.014220 0.000000 1.694290 
# 
# From -- ./inp_files/214212.got.cif
#   From: 2010.06.25/outbox.cif.g09.slc.cpg/sg12_108_cif.got.tgz:214212.got - 2010.06.28 00:19:55.
