data_PCOD8086572
_publ_section_title
;
Structure prediction by ZEFSAII (Michael W. Deem and Ramdas Pophale) SiO2 
 PCOD8086572
Probable space group: C 2/M
;
_chemical_formula_sum "Si O2"
_cell_formula_units_Z 56
_cell_length_a 20.684812
_cell_length_b 9.341397
_cell_length_c 22.747417
_cell_angle_alpha 90.000000
_cell_angle_beta 47.059749
_cell_angle_gamma 90.000000
_cell_volume 3217.694778
_symmetry_space_group_name_H-M "C 2/M"
_symmetry_group_IT_number 12
_symmetry_cell_setting 'monoclinic'
loop_
_space_group_symop_operation_xyz
x,y,z
-x,y,-z
-x,-y,-z
x,-y,z
1/2+x,1/2+y,z
1/2-x,1/2+y,-z
1/2-x,1/2-y,-z
1/2+x,1/2-y,z
loop_
_atom_site_type_symbol
_atom_site_label
_atom_site_fract_x
_atom_site_fract_y
_atom_site_fract_z
Si Si1 0.882798 0.833153 0.829904
Si Si2 0.364675 0.830868 0.186511
Si Si3 0.558635 0.665029 0.655968
Si Si4 0.177274 0.334566 0.508982
Si Si5 0.565137 0.830615 0.086163
Si Si6 0.307298 0.830529 0.095461
Si Si7 0.301118 0.662879 0.332005
O O1 0.900771 0.743443 0.876577
O O2 0.791142 0.779328 0.859079
O O3 0.957524 0.804127 0.734833
O O4 0.879833 0.000000 0.849091
O O5 0.465254 0.784197 0.135057
O O6 0.334813 0.769165 0.141910
O O7 0.301700 0.762794 0.274772
O O8 0.353020 0.000000 0.197089
O O9 0.575122 0.500000 0.629372
O O10 0.583422 0.761054 0.583256
O O11 0.620076 0.709546 0.672917
O O12 0.175576 0.500000 0.529378
O O13 0.250000 0.250000 0.500000
O O14 0.205232 0.320909 0.423138
O O15 0.573914 0.000000 0.088871
O O16 0.624635 0.773561 0.995556
O O17 0.312970 0.000000 0.094322
O O18 0.316698 0.500000 0.302266
#
# Coordination Sequence:
#
# PCOD8086572 Si02
#       7
#     8   8   8   8   8   8   8
#     4  10  19  33  52  71  98 132 164 201 245 293
#     4  10  19  31  50  73  97 129 166 202 241 289
#     4   9  17  29  46  70  97 125 159 199 242 285
#     4   9  17  28  45  70  99 127 156 195 241 287
#     4  10  19  32  51  74  98 125 164 210 248 287
#     4   9  19  34  50  70  98 132 166 202 245 290
#     4   9  17  30  46  69  99 125 155 196 243 288
#
# _framework density 17.403763999999999
#
# number of rings (size 3 to 8) (size 9 to 14) (size 15 to 20)
#    0.000    2.571    1.429    2.143    0.000    5.143 
#    0.000    1.429    0.000    2.571    0.000    6.000 
#    0.000    0.000    0.000    0.000    0.000    0.000 
#
# Total GULP energy -347137.395424 kJ/mol
# GULP energy per Si atom -12397.764122 kJ/mol
# Density = 1.736415 g / cm^3
# Si number density = 17.403764 Si / 1000 Ang^3
#
#
#
# Elastic Constant Matrix: (Units=GPa)
#
#
# Indices 1 2 3 4 5 6 
#
# 1 94.0618 29.8712 59.2638 -0.0001 7.4767 0.0000
# 2 29.8712 51.2465 54.3533 -0.0002 4.0583 0.0001
# 3 59.2638 54.3533 146.4586 0.0000 0.4850 0.0000
# 4 -0.0001 -0.0002 0.0000 30.7789 0.0000 3.3365
# 5 7.4767 4.0583 0.4850 0.0000 9.2864 0.0000
# 6 0.0000 0.0001 0.0000 3.3365 0.0000 16.7663
#
#
#
# Elastic Compliance Matrix: (Units=1/GPa)
#
#
# Indices 1 2 3 4 5 6 
#
# 1 0.015729 -0.002583 -0.005369 0.000000 -0.011255 0.000000
# 2 -0.002583 0.034374 -0.011671 0.000000 -0.012333 0.000000
# 3 -0.005369 -0.011671 0.013303 0.000000 0.008728 0.000000
# 4 0.000000 0.000000 0.000000 0.033206 0.000000 -0.006608
# 5 -0.011255 -0.012333 0.008728 0.000000 0.121680 0.000000
# 6 0.000000 0.000000 0.000000 -0.006608 0.000000 0.060958
#
#
# Mechanical properties :
#
#
# Convention : Reuss Voigt Hill
#
# Bulk Modulus (GPa) = 41.38930 64.30482 52.84706
# Shear Modulus (GPa) = 15.31167 21.25154 18.28161
#
# Velocity S-wave (km/s) = 2.96934 3.49820 3.24456
# Velocity P-wave (km/s) = 5.96569 7.30380 6.66840
#
# Compressibility (1/GPa) = 0.02416083
#
# Stress axis : x y z
#
# Youngs Moduli (GPa) = 63.57804 29.09170 75.17245
#
# Poissons Ratio (x) = 0.07513 0.40359
# Poissons Ratio (y) = 0.16419 0.87733
# Poissons Ratio (z) = 0.34134 0.33953
#
# Static dielectric constant tensor:
#      x y z
#    x 3.088760 0.000000 -0.146690 
#    y 0.000000 3.137420 0.000000 
#    z -0.146690 0.000000 3.696160 
# 
# 
# High freq. dielectric constant tensor:
#      x y z
#    x 1.637380 0.000000 -0.007440 
#    y 0.000000 1.657640 0.000000 
#    z -0.007440 0.000000 1.690680 
# 
# From -- ./inp_files/281749.got.cif
#   From: 2010.06.25/outbox.cif.g09.slc.cpg/sg12_141_cif.got.tgz:281749.got - 2010.06.28 00:19:55.
