data_PCOD8086311
_publ_section_title
;
Structure prediction by ZEFSAII (Michael W. Deem and Ramdas Pophale) SiO2 
 PCOD8086311
Probable space group: C 2/M
;
_chemical_formula_sum "Si O2"
_cell_formula_units_Z 64
_cell_length_a 17.688330
_cell_length_b 9.211491
_cell_length_c 20.539068
_cell_angle_alpha 90.000000
_cell_angle_beta 79.107448
_cell_angle_gamma 90.000000
_cell_volume 3286.257516
_symmetry_space_group_name_H-M "C 2/M"
_symmetry_group_IT_number 12
_symmetry_cell_setting 'monoclinic'
loop_
_space_group_symop_operation_xyz
x,y,z
-x,y,-z
-x,-y,-z
x,-y,z
1/2+x,1/2+y,z
1/2-x,1/2+y,-z
1/2-x,1/2-y,-z
1/2+x,1/2-y,z
loop_
_atom_site_type_symbol
_atom_site_label
_atom_site_fract_x
_atom_site_fract_y
_atom_site_fract_z
Si Si1 0.853001 0.834739 0.108444
Si Si2 0.416744 0.331929 0.488040
Si Si3 0.363491 0.665852 0.356271
Si Si4 0.139712 0.335977 0.767875
Si Si5 0.314973 0.831110 0.603384
Si Si6 0.322907 0.662865 0.728479
Si Si7 0.830758 0.670543 0.989975
Si Si8 0.169736 0.660848 0.151898
O O1 0.889616 0.756133 0.165461
O O2 0.761238 0.829190 0.128203
O O3 0.883040 0.000000 0.099875
O O4 0.880326 0.746842 0.039194
O O5 0.500000 0.285866 0.500000
O O6 0.398335 0.500000 0.505794
O O7 0.414606 0.300925 0.411291
O O8 0.352981 0.234868 0.533113
O O9 0.371833 0.500000 0.331849
O O10 0.393989 0.766046 0.292649
O O11 0.275317 0.699868 0.388146
O O12 0.108982 0.500000 0.779200
O O13 0.231500 0.332168 0.749571
O O14 0.349956 0.755192 0.661977
O O15 0.334163 0.000000 0.604719
O O16 0.353964 0.500000 0.714816
O O17 0.359987 0.727574 0.788620
O O18 0.819215 0.500000 0.007594
O O19 0.869923 0.691642 0.912154
O O20 0.750000 0.750000 0.000000
O O21 0.147801 0.500000 0.179747
#
# Coordination Sequence:
#
# PCOD8086311 Si02
#       8
#     8   8   8   8   8   8   8   8
#     4   9  15  22  32  47  71 104 141 181 222 265
#     4  10  21  36  52  70  94 122 150 183 225 273
#     4   9  18  32  49  69  92 119 151 187 228 271
#     4   9  16  25  39  59  81 107 142 184 225 265
#     4  10  19  31  49  70  92 118 150 189 228 270
#     4   9  16  25  39  58  80 107 142 183 223 265
#     4   9  15  21  29  43  67 102 142 181 220 265
#     4   8  14  22  31  46  71 103 139 179 221 262
#
# _framework density 19.475041000000001
#
# number of rings (size 3 to 8) (size 9 to 14) (size 15 to 20)
#    0.000    2.875    0.000    3.000    0.000    7.750 
#    0.000    0.000    0.000    0.000    0.000    0.000 
#    0.000    0.000    0.000    1.125    0.000   23.000 
#
# Total GULP energy -396684.771753 kJ/mol
# GULP energy per Si atom -12396.399117 kJ/mol
# Density = 1.943071 g / cm^3
# Si number density = 19.475041 Si / 1000 Ang^3
#
#
#
# Elastic Constant Matrix: (Units=GPa)
#
#
# Indices 1 2 3 4 5 6 
#
# 1 25.5133 24.4873 30.7638 0.0000 16.0444 0.0000
# 2 24.4873 139.0919 71.6051 0.0000 23.9497 0.0000
# 3 30.7638 71.6051 127.2705 0.0000 41.7845 0.0000
# 4 0.0000 0.0000 0.0000 44.5723 0.0000 6.2562
# 5 16.0444 23.9497 41.7845 0.0000 17.0749 0.0000
# 6 0.0000 0.0000 0.0000 6.2562 0.0000 8.2145
#
#
#
# Elastic Compliance Matrix: (Units=1/GPa)
#
#
# Indices 1 2 3 4 5 6 
#
# 1 0.140145 -0.009081 0.052326 0.000000 -0.246999 0.000000
# 2 -0.009081 0.010715 -0.008651 0.000000 0.014674 0.000000
# 3 0.052326 -0.008651 0.062241 0.000000 -0.189344 0.000000
# 4 0.000000 0.000000 0.000000 0.025121 0.000000 -0.019132
# 5 -0.246999 0.014674 -0.189344 0.000000 0.733425 0.000000
# 6 0.000000 0.000000 0.000000 -0.019132 0.000000 0.136308
#
#
# Mechanical properties :
#
#
# Convention : Reuss Voigt Hill
#
# Bulk Modulus (GPa) = 3.54247 60.62091 32.08169
# Shear Modulus (GPa) = 4.41360 24.97363 14.69361
#
# Velocity S-wave (km/s) = 1.50705 3.58486 2.74977
# Velocity P-wave (km/s) = 2.20254 6.95198 5.15661
#
# Compressibility (1/GPa) = 0.28228895
#
# Stress axis : x y z
#
# Youngs Moduli (GPa) = 7.13546 93.32520 16.06668
#
# Poissons Ratio (x) = 0.84745 -0.84070
# Poissons Ratio (y) = 0.06479 0.13900
# Poissons Ratio (z) = -0.37337 0.80739
#
# Static dielectric constant tensor:
#      x y z
#    x 2.826220 0.000000 0.340910 
#    y 0.000000 3.701170 0.000000 
#    z 0.340910 0.000000 3.943580 
# 
# 
# High freq. dielectric constant tensor:
#      x y z
#    x 1.678670 0.000000 0.026440 
#    y 0.000000 1.768170 0.000000 
#    z 0.026440 0.000000 1.774040 
# 
# From -- ./inp_files/319083.got.cif
#   From: 2010.06.25/outbox.cif.g09.slc.cpg/sg12_160_cif.got.tgz:319083.got - 2010.06.28 00:19:55.
