data_PCOD8086427
_publ_section_title
;
Structure prediction by ZEFSAII (Michael W. Deem and Ramdas Pophale) SiO2 
 PCOD8086427
Probable space group: C 2/M
;
_chemical_formula_sum "Si O2"
_cell_formula_units_Z 56
_cell_length_a 19.126243
_cell_length_b 9.055699
_cell_length_c 35.194001
_cell_angle_alpha 90.000000
_cell_angle_beta 148.806184
_cell_angle_gamma 90.000000
_cell_volume 3157.150511
_symmetry_space_group_name_H-M "C 2/M"
_symmetry_group_IT_number 12
_symmetry_cell_setting 'monoclinic'
loop_
_space_group_symop_operation_xyz
x,y,z
-x,y,-z
-x,-y,-z
x,-y,z
1/2+x,1/2+y,z
1/2-x,1/2+y,-z
1/2-x,1/2-y,-z
1/2+x,1/2-y,z
loop_
_atom_site_type_symbol
_atom_site_label
_atom_site_fract_x
_atom_site_fract_y
_atom_site_fract_z
Si Si1 0.400006 0.669228 0.418933
Si Si2 0.392354 0.826730 0.060929
Si Si3 0.588063 0.324771 0.004435
Si Si4 0.431319 0.171811 0.560596
Si Si5 0.863090 0.172698 0.603238
Si Si6 0.899197 0.674203 0.696345
Si Si7 0.104572 0.327840 0.853983
O O1 0.500000 0.696187 0.500000
O O2 0.407334 0.500000 0.408383
O O3 0.440985 0.778832 0.404430
O O4 0.250354 0.716344 0.360327
O O5 0.460199 0.799629 0.134033
O O6 0.375794 0.000000 0.044880
O O7 0.250000 0.750000 0.000000
O O8 0.470619 0.750799 0.061693
O O9 0.580105 0.500000 0.995279
O O10 0.742558 0.266484 0.080679
O O11 0.500000 0.274541 0.000000
O O12 0.295319 0.211837 0.474225
O O13 0.441640 0.262874 0.603958
O O14 0.437856 0.000000 0.573382
O O15 0.928677 0.247409 0.670395
O O16 0.888549 0.000000 0.617265
O O17 0.914878 0.500000 0.698071
O O18 0.004185 0.740470 0.775979
O O19 0.114298 0.500000 0.850868
#
# Coordination Sequence:
#
# PCOD8086427 Si02
#       7
#     8   8   8   8   8   8   8
#     4  10  19  31  49  73  97 125 164 206 245 288
#     4   9  16  29  50  74 100 129 165 200 236 286
#     4   9  17  31  52  77 103 131 164 201 241 286
#     4  10  20  33  51  71  94 125 163 208 253 296
#     4  10  20  33  50  72  97 125 162 207 250 295
#     4  10  19  33  52  71  99 134 164 199 248 298
#     4   8  16  31  50  72  98 132 166 197 241 296
#
# _framework density 17.737513
#
# number of rings (size 3 to 8) (size 9 to 14) (size 15 to 20)
#    0.000    2.571    1.429    2.143    0.000    2.286 
#    0.000    5.000    0.000    3.429    0.000    0.000 
#    0.000    0.000    0.000    0.000    0.000    0.000 
#
# Total GULP energy -347060.815354 kJ/mol
# GULP energy per Si atom -12395.029120 kJ/mol
# Density = 1.769714 g / cm^3
# Si number density = 17.737513 Si / 1000 Ang^3
#
#
#
# Elastic Constant Matrix: (Units=GPa)
#
#
# Indices 1 2 3 4 5 6 
#
# 1 105.8417 32.2210 42.6481 -0.0005 -18.4548 0.0005
# 2 32.2210 44.6300 23.5928 -0.0006 -11.6963 0.0005
# 3 42.6481 23.5928 100.9791 -0.0004 -17.9268 0.0004
# 4 -0.0005 -0.0006 -0.0004 17.6022 0.0002 -9.5694
# 5 -18.4548 -11.6963 -17.9268 0.0002 26.8247 -0.0002
# 6 0.0005 0.0005 0.0004 -9.5694 -0.0002 33.5038
#
#
#
# Elastic Compliance Matrix: (Units=1/GPa)
#
#
# Indices 1 2 3 4 5 6 
#
# 1 0.013662 -0.006992 -0.003414 0.000000 0.004069 0.000000
# 2 -0.006992 0.030802 -0.003078 0.000001 0.006563 0.000000
# 3 -0.003414 -0.003078 0.012945 0.000000 0.004960 0.000000
# 4 0.000000 0.000001 0.000000 0.067254 0.000000 0.019209
# 5 0.004069 0.006563 0.004960 0.000000 0.046254 0.000000
# 6 0.000000 0.000000 0.000000 0.019209 0.000000 0.035334
#
#
# Mechanical properties :
#
#
# Convention : Reuss Voigt Hill
#
# Bulk Modulus (GPa) = 32.85250 49.81941 41.33595
# Shear Modulus (GPa) = 20.54523 25.78542 23.16532
#
# Velocity S-wave (km/s) = 3.40706 3.81691 3.61779
# Velocity P-wave (km/s) = 5.83430 6.89732 6.38796
#
# Compressibility (1/GPa) = 0.03043909
#
# Stress axis : x y z
#
# Youngs Moduli (GPa) = 73.19715 32.46575 77.25183
#
# Poissons Ratio (x) = 0.22701 0.26374
# Poissons Ratio (y) = 0.51181 0.23781
# Poissons Ratio (z) = 0.24990 0.09994
#
# Static dielectric constant tensor:
#      x y z
#    x 3.484880 0.000000 -0.186880 
#    y 0.000000 3.173460 0.000000 
#    z -0.186880 0.000000 3.476550 
# 
# 
# High freq. dielectric constant tensor:
#      x y z
#    x 1.685980 0.000000 -0.022800 
#    y 0.000000 1.676060 0.000000 
#    z -0.022800 0.000000 1.665120 
# 
# From -- ./inp_files/313331.got.cif
#   From: 2010.06.25/outbox.cif.g09.slc.cpg/sg12_157_cif.got.tgz:313331.got - 2010.06.28 00:19:55.
