data_PCOD8086916
_publ_section_title
;
Structure prediction by ZEFSAII (Michael W. Deem and Ramdas Pophale) SiO2 
 PCOD8086916
Probable space group: C 2/M
;
_chemical_formula_sum "Si O2"
_cell_formula_units_Z 64
_cell_length_a 11.807769
_cell_length_b 29.196664
_cell_length_c 9.750033
_cell_angle_alpha 90.000000
_cell_angle_beta 81.799446
_cell_angle_gamma 90.000000
_cell_volume 3326.929369
_symmetry_space_group_name_H-M "C 2/M"
_symmetry_group_IT_number 12
_symmetry_cell_setting 'monoclinic'
loop_
_space_group_symop_operation_xyz
x,y,z
-x,y,-z
-x,-y,-z
x,-y,z
1/2+x,1/2+y,z
1/2-x,1/2+y,-z
1/2-x,1/2-y,-z
1/2+x,1/2-y,z
loop_
_atom_site_type_symbol
_atom_site_label
_atom_site_fract_x
_atom_site_fract_y
_atom_site_fract_z
Si Si1 0.583704 0.734190 0.607364
Si Si2 0.248778 0.112462 0.685070
Si Si3 0.366832 0.550508 0.498858
Si Si4 0.039173 0.835832 0.836111
Si Si5 0.425546 0.949689 0.805490
Si Si6 0.661697 0.949457 0.875520
Si Si7 0.824280 0.118595 0.742771
Si Si8 0.786942 0.319924 0.448027
O O1 0.500000 0.720310 0.500000
O O2 0.536640 0.713577 0.759493
O O3 0.702663 0.710864 0.552270
O O4 0.601850 0.789319 0.611612
O O5 0.163415 0.074079 0.640139
O O6 0.167293 0.143081 0.799587
O O7 0.353965 0.090018 0.745689
O O8 0.312517 0.139118 0.549599
O O9 0.500000 0.548009 0.500000
O O10 0.312294 0.500000 0.509229
O O11 0.316654 0.579924 0.629196
O O12 0.949622 0.869760 0.777106
O O13 0.000000 0.828596 0.000000
O O14 0.561352 0.937797 0.781801
O O15 0.405903 0.000000 0.739634
O O16 0.389634 0.953163 0.967022
O O17 0.749877 0.906694 0.871691
O O18 0.715918 0.000000 0.830817
O O19 0.767067 0.163881 0.687318
#
# Coordination Sequence:
#
# PCOD8086916 Si02
#       8
#     8   8   8   8   8   8   8   8
#     4  10  19  39  60  77 109 139 182 224 285 347
#     4  10  19  34  56  83 113 141 194 232 278 326
#     4  10  19  31  51  81 115 152 185 221 274 331
#     4  11  22  35  58  85 114 146 179 234 292 340
#     4   9  18  35  54  75 111 158 191 226 273 323
#     4   9  19  34  54  76 111 158 194 223 272 330
#     4  11  19  35  56  83 113 143 186 234 278 330
#     4   9  21  33  59  84  97 144 184 227 277 339
#
# _framework density 19.236957
#
# number of rings (size 3 to 8) (size 9 to 14) (size 15 to 20)
#    0.000    2.125    2.500    2.250    0.000    1.000 
#    0.000    2.500    5.500    9.750    0.000    0.000 
#    0.000    0.000    0.000    0.000    0.000    0.000 
#
# Total GULP energy -396432.172810 kJ/mol
# GULP energy per Si atom -12388.505400 kJ/mol
# Density = 1.919317 g / cm^3
# Si number density = 19.236957 Si / 1000 Ang^3
#
#
#
# Elastic Constant Matrix: (Units=GPa)
#
#
# Indices 1 2 3 4 5 6 
#
# 1 63.5311 41.6559 14.6650 0.0000 8.8658 0.0000
# 2 41.6559 106.0183 39.8062 0.0000 4.0366 0.0000
# 3 14.6650 39.8062 69.0826 0.0000 6.3191 0.0000
# 4 0.0000 0.0000 0.0000 25.7787 0.0000 3.5716
# 5 8.8658 4.0366 6.3191 0.0000 27.0320 0.0000
# 6 0.0000 0.0000 0.0000 3.5716 0.0000 27.1745
#
#
#
# Elastic Compliance Matrix: (Units=1/GPa)
#
#
# Indices 1 2 3 4 5 6 
#
# 1 0.022175 -0.008834 0.000947 0.000000 -0.006175 0.000000
# 2 -0.008834 0.015556 -0.007297 0.000000 0.002280 0.000000
# 3 0.000947 -0.007297 0.018810 0.000000 -0.003618 0.000000
# 4 0.000000 0.000000 0.000000 0.039511 0.000000 -0.005193
# 5 -0.006175 0.002280 -0.003618 0.000000 0.039524 0.000000
# 6 0.000000 0.000000 0.000000 -0.005193 0.000000 0.037482
#
#
# Mechanical properties :
#
#
# Convention : Reuss Voigt Hill
#
# Bulk Modulus (GPa) = 38.20418 47.87623 43.04020
# Shear Modulus (GPa) = 23.56831 25.49738 24.53285
#
# Velocity S-wave (km/s) = 3.50402 3.64461 3.57501
# Velocity P-wave (km/s) = 6.02277 6.53089 6.28197
#
# Compressibility (1/GPa) = 0.02617515
#
# Stress axis : x y z
#
# Youngs Moduli (GPa) = 45.09512 64.28350 53.16364
#
# Poissons Ratio (x) = 0.56785 -0.05037
# Poissons Ratio (y) = 0.39835 0.38793
# Poissons Ratio (z) = -0.04273 0.46907
#
# Static dielectric constant tensor:
#      x y z
#    x 3.526520 0.000000 -0.093920 
#    y 0.000000 3.962230 0.000000 
#    z -0.093920 0.000000 3.475300 
# 
# 
# High freq. dielectric constant tensor:
#      x y z
#    x 1.739590 0.000000 0.003370 
#    y 0.000000 1.752260 0.000000 
#    z 0.003370 0.000000 1.730060 
# 
# From -- ./inp_files/54702.got.cif
#   From: 2010.06.25/outbox.cif.g09.slc.cpg/sg12_28_cif.got.tgz:54702.got - 2010.06.28 00:19:55.
