data_PCOD8086018
_publ_section_title
;
Structure prediction by ZEFSAII (Michael W. Deem and Ramdas Pophale) SiO2 
 PCOD8086018
Probable space group: C 2/M
;
_chemical_formula_sum "Si O2"
_cell_formula_units_Z 64
_cell_length_a 33.396932
_cell_length_b 9.486859
_cell_length_c 12.070816
_cell_angle_alpha 90.000000
_cell_angle_beta 94.418282
_cell_angle_gamma 90.000000
_cell_volume 3813.055263
_symmetry_space_group_name_H-M "C 2/M"
_symmetry_group_IT_number 12
_symmetry_cell_setting 'monoclinic'
loop_
_space_group_symop_operation_xyz
x,y,z
-x,y,-z
-x,-y,-z
x,-y,z
1/2+x,1/2+y,z
1/2-x,1/2+y,-z
1/2-x,1/2-y,-z
1/2+x,1/2-y,z
loop_
_atom_site_type_symbol
_atom_site_label
_atom_site_fract_x
_atom_site_fract_y
_atom_site_fract_z
Si Si1 0.335541 0.333801 0.412386
Si Si2 0.173604 0.166577 0.932144
Si Si3 0.266162 0.332842 0.244733
Si Si4 0.873109 0.164021 0.644417
Si Si5 0.188546 0.164993 0.180937
Si Si6 0.947534 0.663235 0.594693
Si Si7 0.537552 0.163010 0.653603
Si Si8 0.895639 0.833587 0.238064
O O1 0.334845 0.500000 0.404091
O O2 0.292285 0.282964 0.357153
O O3 0.344086 0.280910 0.538741
O O4 0.371184 0.281052 0.340620
O O5 0.209954 0.215671 0.860731
O O6 0.130283 0.214434 0.874750
O O7 0.173548 0.000000 0.935497
O O8 0.179924 0.226969 0.056656
O O9 0.258014 0.500000 0.242701
O O10 0.224738 0.250027 0.243374
O O11 0.851148 0.192219 0.755432
O O12 0.914849 0.246651 0.653813
O O13 0.882832 0.000000 0.628963
O O14 0.199762 0.000000 0.181260
O O15 0.935685 0.500000 0.600282
O O16 0.949913 0.710486 0.467341
O O17 0.990372 0.690778 0.661882
O O18 0.561741 0.253901 0.749742
O O19 0.547791 0.000000 0.673741
O O20 0.903630 0.000000 0.239642
#
# Coordination Sequence:
#
# PCOD8086018 Si02
#       8
#     8   8   8   8   8   8   8   8
#     4   8  15  28  44  65  91 118 148 185 229 267
#     4   8  16  31  49  68  91 121 153 190 235 268
#     4   9  17  31  50  66  86 119 157 193 229 274
#     4  10  19  31  47  66  93 125 155 188 222 266
#     4  10  20  32  46  67  94 121 153 194 233 265
#     4   9  18  31  46  67  98 127 145 175 226 280
#     4   9  17  29  46  71  99 120 142 181 233 271
#     4   9  15  27  49  70  90 119 153 187 223 269
#
# _framework density 16.784441000000001
#
# number of rings (size 3 to 8) (size 9 to 14) (size 15 to 20)
#    0.000    3.000    1.250    2.625    0.000    1.500 
#    0.000    5.000    0.000    0.750    0.000    5.250 
#    0.000    0.000    0.000    0.000    0.000    0.000 
#
# Total GULP energy -396654.331285 kJ/mol
# GULP energy per Si atom -12395.447853 kJ/mol
# Density = 1.674624 g / cm^3
# Si number density = 16.784441 Si / 1000 Ang^3
#
#
#
# Elastic Constant Matrix: (Units=GPa)
#
#
# Indices 1 2 3 4 5 6 
#
# 1 106.1979 47.9035 29.3804 0.0000 11.3073 0.0000
# 2 47.9035 44.6957 18.6086 0.0000 5.8993 0.0000
# 3 29.3804 18.6086 44.6126 0.0000 1.9796 0.0000
# 4 0.0000 0.0000 0.0000 16.7859 0.0000 5.3814
# 5 11.3073 5.8993 1.9796 0.0000 24.5766 0.0000
# 6 0.0000 0.0000 0.0000 5.3814 0.0000 31.1295
#
#
#
# Elastic Compliance Matrix: (Units=1/GPa)
#
#
# Indices 1 2 3 4 5 6 
#
# 1 0.019476 -0.018224 -0.005039 0.000000 -0.004180 0.000000
# 2 -0.018224 0.044921 -0.006653 0.000000 -0.001862 0.000000
# 3 -0.005039 -0.006653 0.028437 0.000000 0.001625 0.000000
# 4 0.000000 0.000000 0.000000 0.063069 0.000000 -0.010903
# 5 -0.004180 -0.001862 0.001625 0.000000 0.042929 0.000000
# 6 0.000000 0.000000 0.000000 -0.010903 0.000000 0.034009
#
#
# Mechanical properties :
#
#
# Convention : Reuss Voigt Hill
#
# Bulk Modulus (GPa) = 30.30159 43.03235 36.66697
# Shear Modulus (GPa) = 16.46502 21.13930 18.80216
#
# Velocity S-wave (km/s) = 3.13544 3.55273 3.35059
# Velocity P-wave (km/s) = 5.58575 6.52098 6.07140
#
# Compressibility (1/GPa) = 0.03300157
#
# Stress axis : x y z
#
# Youngs Moduli (GPa) = 51.34492 22.26116 35.16564
#
# Poissons Ratio (x) = 0.40569 0.17721
# Poissons Ratio (y) = 0.93572 0.23396
# Poissons Ratio (z) = 0.25874 0.14810
#
# Static dielectric constant tensor:
#      x y z
#    x 3.047500 0.000000 0.179640 
#    y 0.000000 2.838920 0.000000 
#    z 0.179640 0.000000 3.356780 
# 
# 
# High freq. dielectric constant tensor:
#      x y z
#    x 1.642320 0.000000 0.017760 
#    y 0.000000 1.620820 0.000000 
#    z 0.017760 0.000000 1.632980 
# 
# From -- ./inp_files/182138.got.cif
#   From: 2010.06.25/outbox.cif.g09.slc.cpg/sg12_92_cif.got.tgz:182138.got - 2010.06.28 00:19:55.
