data_PCOD8086186
_publ_section_title
;
Structure prediction by ZEFSAII (Michael W. Deem and Ramdas Pophale) SiO2 
 PCOD8086186
Probable space group: C 2/M
;
_chemical_formula_sum "Si O2"
_cell_formula_units_Z 48
_cell_length_a 18.362027
_cell_length_b 10.254011
_cell_length_c 19.787485
_cell_angle_alpha 90.000000
_cell_angle_beta 132.427554
_cell_angle_gamma 90.000000
_cell_volume 2750.036331
_symmetry_space_group_name_H-M "C 2/M"
_symmetry_group_IT_number 12
_symmetry_cell_setting 'monoclinic'
loop_
_space_group_symop_operation_xyz
x,y,z
-x,y,-z
-x,-y,-z
x,-y,z
1/2+x,1/2+y,z
1/2-x,1/2+y,-z
1/2-x,1/2-y,-z
1/2+x,1/2-y,z
loop_
_atom_site_type_symbol
_atom_site_label
_atom_site_fract_x
_atom_site_fract_y
_atom_site_fract_z
Si Si1 0.022982 0.643286 0.696131
Si Si2 0.728013 0.150282 0.232521
Si Si3 0.377596 0.642518 0.075034
Si Si4 0.459729 0.151275 0.802012
Si Si5 0.450583 0.349447 0.398470
Si Si6 0.272758 0.777218 0.125374
O O1 0.997558 0.500000 0.649860
O O2 0.002183 0.756504 0.628897
O O3 0.136281 0.636315 0.791520
O O4 0.953963 0.672549 0.717712
O O5 0.644922 0.196373 0.233219
O O6 0.834363 0.179170 0.332152
O O7 0.713877 0.221990 0.152586
O O8 0.715028 0.000000 0.208262
O O9 0.428881 0.500000 0.111262
O O10 0.456618 0.757139 0.112883
O O11 0.316838 0.661677 0.106394
O O12 0.302731 0.637625 0.965264
O O13 0.484752 0.000000 0.834613
O O14 0.500000 0.313418 0.500000
O O15 0.471010 0.500000 0.391153
#
# Coordination Sequence:
#
# PCOD8086186 Si02
#       6
#     8   8   8   8   8   8
#     4   9  17  31  50  70  95 125 155 189 233 281
#     4   9  17  32  51  69  92 124 160 194 233 283
#     4  10  19  31  48  70  97 127 163 202 238 275
#     4   9  19  33  48  68  96 129 160 192 232 280
#     4   9  18  33  54  76  94 117 154 197 235 277
#     4   9  18  30  48  70  93 125 164 202 234 269
#
# _framework density 17.454315999999999
#
# number of rings (size 3 to 8) (size 9 to 14) (size 15 to 20)
#    0.000    2.833    0.000    1.000    0.000    9.667 
#    0.000    7.500    0.000    0.000    0.000    0.000 
#    0.000    0.000    0.000    0.000    0.000    0.000 
#
# Total GULP energy -297507.761526 kJ/mol
# GULP energy per Si atom -12396.156730 kJ/mol
# Density = 1.741459 g / cm^3
# Si number density = 17.454316 Si / 1000 Ang^3
#
#
#
# Elastic Constant Matrix: (Units=GPa)
#
#
# Indices 1 2 3 4 5 6 
#
# 1 134.0925 50.0224 38.0339 0.0000 -15.9523 0.0000
# 2 50.0224 95.1777 44.2315 0.0000 -10.7421 0.0000
# 3 38.0339 44.2315 82.3876 0.0000 -17.1076 0.0000
# 4 0.0000 0.0000 0.0000 17.3159 0.0000 -1.2444
# 5 -15.9523 -10.7421 -17.1076 0.0000 18.4357 0.0000
# 6 0.0000 0.0000 0.0000 -1.2444 0.0000 16.9184
#
#
#
# Elastic Compliance Matrix: (Units=1/GPa)
#
#
# Indices 1 2 3 4 5 6 
#
# 1 0.009943 -0.004013 -0.001406 0.000000 0.004961 0.000000
# 2 -0.004013 0.015651 -0.006661 0.000000 -0.000534 0.000000
# 3 -0.001406 -0.006661 0.018957 0.000000 0.012494 0.000000
# 4 0.000000 0.000000 0.000000 0.058057 0.000000 0.004270
# 5 0.004961 -0.000534 0.012494 0.000000 0.069818 0.000000
# 6 0.000000 0.000000 0.000000 0.004270 0.000000 0.059421
#
#
# Mechanical properties :
#
#
# Convention : Reuss Voigt Hill
#
# Bulk Modulus (GPa) = 49.03751 64.02593 56.53172
# Shear Modulus (GPa) = 19.02556 22.49201 20.75879
#
# Velocity S-wave (km/s) = 3.30513 3.59363 3.45239
# Velocity P-wave (km/s) = 6.53612 7.34715 6.95347
#
# Compressibility (1/GPa) = 0.02039255
#
# Stress axis : x y z
#
# Youngs Moduli (GPa) = 100.56910 63.89444 52.75077
#
# Poissons Ratio (x) = 0.25639 0.07416
# Poissons Ratio (y) = 0.40355 0.35137
# Poissons Ratio (z) = 0.14139 0.42559
#
# Static dielectric constant tensor:
#      x y z
#    x 3.350210 0.000000 -0.069820 
#    y 0.000000 3.184090 0.000000 
#    z -0.069820 0.000000 3.066550 
# 
# 
# High freq. dielectric constant tensor:
#      x y z
#    x 1.665520 0.000000 -0.010900 
#    y 0.000000 1.673760 0.000000 
#    z -0.010900 0.000000 1.654930 
# 
# From -- ./inp_files/276719.got.cif
#   From: 2010.06.25/outbox.cif.g09.slc.cpg/sg12_139_cif.got.tgz:276719.got - 2010.06.28 00:19:55.
