data_PCOD8086074
_publ_section_title
;
Structure prediction by ZEFSAII (Michael W. Deem and Ramdas Pophale) SiO2 
 PCOD8086074
Probable space group: C 2/M
;
_chemical_formula_sum "Si O2"
_cell_formula_units_Z 64
_cell_length_a 24.243284
_cell_length_b 9.001158
_cell_length_c 17.052604
_cell_angle_alpha 90.000000
_cell_angle_beta 94.707979
_cell_angle_gamma 90.000000
_cell_volume 3708.623443
_symmetry_space_group_name_H-M "C 2/M"
_symmetry_group_IT_number 12
_symmetry_cell_setting 'monoclinic'
loop_
_space_group_symop_operation_xyz
x,y,z
-x,y,-z
-x,-y,-z
x,-y,z
1/2+x,1/2+y,z
1/2-x,1/2+y,-z
1/2-x,1/2-y,-z
1/2+x,1/2-y,z
loop_
_atom_site_type_symbol
_atom_site_label
_atom_site_fract_x
_atom_site_fract_y
_atom_site_fract_z
Si Si1 0.566512 0.176709 0.725926
Si Si2 0.425742 0.174577 0.936746
Si Si3 0.342959 0.325144 0.364338
Si Si4 0.955623 0.323783 0.103888
Si Si5 0.782451 0.673605 0.649350
Si Si6 0.043606 0.174527 0.328255
Si Si7 0.637525 0.327854 0.456811
Si Si8 0.125150 0.326326 0.222700
O O1 0.623118 0.234046 0.695474
O O2 0.565627 0.238592 0.815422
O O3 0.514971 0.243435 0.671587
O O4 0.563710 0.000000 0.720947
O O5 0.482542 0.236072 0.905485
O O6 0.375584 0.214223 0.870762
O O7 0.432737 0.000000 0.945198
O O8 0.417447 0.233423 0.025443
O O9 0.348353 0.500000 0.348074
O O10 0.279871 0.268672 0.349214
O O11 0.365961 0.283626 0.452833
O O12 0.954756 0.500000 0.110199
O O13 0.782321 0.500000 0.633293
O O14 0.811505 0.744635 0.577604
O O15 0.815500 0.714630 0.733277
O O16 0.078959 0.213417 0.410257
O O17 0.076710 0.232646 0.256969
O O18 0.033246 0.000000 0.318771
O O19 0.650980 0.500000 0.447829
O O20 0.111347 0.500000 0.233928
#
# Coordination Sequence:
#
# PCOD8086074 Si02
#       8
#     8   8   8   8   8   8   8   8
#     4  11  21  33  49  69  94 125 161 197 228 274
#     4   8  12  22  44  71  96 118 146 187 230 272
#     4  10  21  36  49  66  94 129 161 191 233 283
#     4   8  14  24  42  69  95 120 150 187 228 271
#     4   9  18  31  51  75  96 118 153 200 241 269
#     4  10  19  31  47  69  96 126 153 186 237 285
#     4   9  19  34  52  70  92 123 158 193 233 283
#     4   9  15  27  49  75  97 119 151 194 233 272
#
# _framework density 17.257076999999999
#
# number of rings (size 3 to 8) (size 9 to 14) (size 15 to 20)
#    0.000    2.750    1.250    1.875    0.000    2.000 
#    0.000    2.500    0.000    3.000    0.000    0.000 
#    0.000    0.000    0.000    0.000    0.000    0.125 
#
# Total GULP energy -396578.419049 kJ/mol
# GULP energy per Si atom -12393.075595 kJ/mol
# Density = 1.721780 g / cm^3
# Si number density = 17.257077 Si / 1000 Ang^3
#
#
#
# Elastic Constant Matrix: (Units=GPa)
#
#
# Indices 1 2 3 4 5 6 
#
# 1 76.9216 26.3019 52.6409 0.0000 -9.6661 0.0000
# 2 26.3019 36.9145 25.8520 0.0000 -4.3988 0.0000
# 3 52.6409 25.8520 130.6977 0.0000 2.1281 0.0000
# 4 0.0000 0.0000 0.0000 15.9984 0.0000 -2.9598
# 5 -9.6661 -4.3988 2.1281 0.0000 21.3474 0.0000
# 6 0.0000 0.0000 0.0000 -2.9598 0.0000 24.5830
#
#
#
# Elastic Compliance Matrix: (Units=1/GPa)
#
#
# Indices 1 2 3 4 5 6 
#
# 1 0.022431 -0.009867 -0.007227 0.000000 0.008844 0.000000
# 2 -0.009867 0.036902 -0.003382 0.000000 0.003473 0.000000
# 3 -0.007227 -0.003382 0.011314 0.000000 -0.005097 0.000000
# 4 0.000000 0.000000 0.000000 0.063930 0.000000 0.007697
# 5 0.008844 0.003473 -0.005097 0.000000 0.052072 0.000000
# 6 0.000000 0.000000 0.000000 0.007697 0.000000 0.041605
#
#
# Mechanical properties :
#
#
# Convention : Reuss Voigt Hill
#
# Bulk Modulus (GPa) = 33.67486 50.45816 42.06651
# Shear Modulus (GPa) = 17.91437 21.70169 19.80803
#
# Velocity S-wave (km/s) = 3.22543 3.55005 3.39163
# Velocity P-wave (km/s) = 5.78163 6.79017 6.30609
#
# Compressibility (1/GPa) = 0.02969574
#
# Stress axis : x y z
#
# Youngs Moduli (GPa) = 44.58072 27.09863 88.38741
#
# Poissons Ratio (x) = 0.26739 0.63876
# Poissons Ratio (y) = 0.43990 0.29888
# Poissons Ratio (z) = 0.32218 0.09163
#
# Static dielectric constant tensor:
#      x y z
#    x 3.154460 0.000000 0.281560 
#    y 0.000000 2.982330 0.000000 
#    z 0.281560 0.000000 3.598690 
# 
# 
# High freq. dielectric constant tensor:
#      x y z
#    x 1.643030 0.000000 0.021010 
#    y 0.000000 1.641960 0.000000 
#    z 0.021010 0.000000 1.675100 
# 
# From -- ./inp_files/287651.got.cif
#   From: 2010.06.25/outbox.cif.g09.slc.cpg/sg12_144_cif.got.tgz:287651.got - 2010.06.28 00:19:55.
