data_PCOD8086469
_publ_section_title
;
Structure prediction by ZEFSAII (Michael W. Deem and Ramdas Pophale) SiO2 
 PCOD8086469
Probable space group: C 2/M
;
_chemical_formula_sum "Si O2"
_cell_formula_units_Z 56
_cell_length_a 23.633412
_cell_length_b 9.266382
_cell_length_c 15.633547
_cell_angle_alpha 90.000000
_cell_angle_beta 116.992047
_cell_angle_gamma 90.000000
_cell_volume 3050.743845
_symmetry_space_group_name_H-M "C 2/M"
_symmetry_group_IT_number 12
_symmetry_cell_setting 'monoclinic'
loop_
_space_group_symop_operation_xyz
x,y,z
-x,y,-z
-x,-y,-z
x,-y,z
1/2+x,1/2+y,z
1/2-x,1/2+y,-z
1/2-x,1/2-y,-z
1/2+x,1/2-y,z
loop_
_atom_site_type_symbol
_atom_site_label
_atom_site_fract_x
_atom_site_fract_y
_atom_site_fract_z
Si Si1 0.986615 0.833620 0.128573
Si Si2 0.848188 0.330927 0.323125
Si Si3 0.588206 0.832593 0.461849
Si Si4 0.301962 0.833977 0.587456
Si Si5 0.965779 0.668027 0.288137
Si Si6 0.781505 0.329178 0.766561
Si Si7 0.898022 0.166988 0.909769
O O1 0.971915 0.742332 0.201629
O O2 0.052951 0.785294 0.131009
O O3 0.990462 0.000000 0.157612
O O4 0.929727 0.807715 0.023271
O O5 0.831204 0.500000 0.322074
O O6 0.879304 0.264287 0.431409
O O7 0.896347 0.304582 0.278347
O O8 0.785577 0.242218 0.256784
O O9 0.629563 0.801471 0.405774
O O10 0.518220 0.770893 0.391926
O O11 0.582202 0.000000 0.479831
O O12 0.250000 0.750000 0.500000
O O13 0.302072 0.783938 0.685249
O O14 0.283510 0.000000 0.566855
O O15 0.979575 0.500000 0.282958
O O16 0.776665 0.500000 0.776385
O O17 0.835357 0.265294 0.865269
O O18 0.879231 0.000000 0.884841
#
# Coordination Sequence:
#
# PCOD8086469 Si02
#       7
#     8   8   8   8   8   8   8
#     4   9  19  37  59  83 108 135 171 218 269 321
#     4  10  20  35  54  74 105 151 188 214 256 320
#     4   9  17  32  53  76 103 139 180 219 258 309
#     4  10  19  31  49  74 105 137 170 212 260 309
#     4  10  20  34  55  81 106 138 184 226 263 312
#     4  11  22  34  52  82 113 139 176 226 271 307
#     4   9  19  37  60  82 106 139 175 209 263 337
#
# _framework density 18.356179000000001
#
# number of rings (size 3 to 8) (size 9 to 14) (size 15 to 20)
#    0.000    2.286    1.429    2.571    0.000    5.143 
#    0.000    3.571    0.000    1.714    0.000    0.000 
#    0.000    0.000    0.000    0.000    0.000    0.000 
#
# Total GULP energy -347189.142578 kJ/mol
# GULP energy per Si atom -12399.612235 kJ/mol
# Density = 1.831440 g / cm^3
# Si number density = 18.356179 Si / 1000 Ang^3
#
#
#
# Elastic Constant Matrix: (Units=GPa)
#
#
# Indices 1 2 3 4 5 6 
#
# 1 102.3318 49.0590 56.2572 0.0000 17.7043 0.0000
# 2 49.0590 60.1060 44.1414 0.0000 10.9535 0.0000
# 3 56.2572 44.1414 91.6620 0.0000 13.8335 0.0000
# 4 0.0000 0.0000 0.0000 27.4877 0.0000 -2.0622
# 5 17.7043 10.9535 13.8335 0.0000 32.3877 0.0000
# 6 0.0000 0.0000 0.0000 -2.0622 0.0000 29.1040
#
#
#
# Elastic Compliance Matrix: (Units=1/GPa)
#
#
# Indices 1 2 3 4 5 6 
#
# 1 0.018574 -0.010036 -0.005929 0.000000 -0.004227 0.000000
# 2 -0.010036 0.031572 -0.008830 0.000000 -0.001420 0.000000
# 3 -0.005929 -0.008830 0.019092 0.000000 -0.001927 0.000000
# 4 0.000000 0.000000 0.000000 0.036574 0.000000 0.002592
# 5 -0.004227 -0.001420 -0.001927 0.000000 0.034490 0.000000
# 6 0.000000 0.000000 0.000000 0.002592 0.000000 0.034543
#
#
# Mechanical properties :
#
#
# Convention : Reuss Voigt Hill
#
# Bulk Modulus (GPa) = 50.89624 61.44611 56.17118
# Shear Modulus (GPa) = 21.64635 24.77202 23.20919
#
# Velocity S-wave (km/s) = 3.43773 3.67757 3.55967
# Velocity P-wave (km/s) = 6.59883 7.18190 6.89653
#
# Compressibility (1/GPa) = 0.01964781
#
# Stress axis : x y z
#
# Youngs Moduli (GPa) = 53.83799 31.67314 52.37856
#
# Poissons Ratio (x) = 0.31787 0.31055
# Poissons Ratio (y) = 0.54032 0.46252
# Poissons Ratio (z) = 0.31920 0.27969
#
# Static dielectric constant tensor:
#      x y z
#    x 3.325900 0.000000 0.014980 
#    y 0.000000 3.209390 0.000000 
#    z 0.014980 0.000000 3.219260 
# 
# 
# High freq. dielectric constant tensor:
#      x y z
#    x 1.715340 0.000000 0.007340 
#    y 0.000000 1.690250 0.000000 
#    z 0.007340 0.000000 1.711440 
# 
# From -- ./inp_files/238961.got.cif
#   From: 2010.06.25/outbox.cif.g09.slc.cpg/sg12_120_cif.got.tgz:238961.got - 2010.06.28 00:19:55.
