data_PCOD8086823
_publ_section_title
;
Structure prediction by ZEFSAII (Michael W. Deem and Ramdas Pophale) SiO2 
 PCOD8086823
Probable space group: C 2/M
;
_chemical_formula_sum "Si O2"
_cell_formula_units_Z 56
_cell_length_a 18.411505
_cell_length_b 13.725128
_cell_length_c 13.056648
_cell_angle_alpha 90.000000
_cell_angle_beta 71.882364
_cell_angle_gamma 90.000000
_cell_volume 3135.833410
_symmetry_space_group_name_H-M "C 2/M"
_symmetry_group_IT_number 12
_symmetry_cell_setting 'monoclinic'
loop_
_space_group_symop_operation_xyz
x,y,z
-x,y,-z
-x,-y,-z
x,-y,z
1/2+x,1/2+y,z
1/2-x,1/2+y,-z
1/2-x,1/2-y,-z
1/2+x,1/2-y,z
loop_
_atom_site_type_symbol
_atom_site_label
_atom_site_fract_x
_atom_site_fract_y
_atom_site_fract_z
Si Si1 0.186522 0.111225 0.851985
Si Si2 0.506605 0.610403 0.720692
Si Si3 0.561897 0.698272 0.052541
Si Si4 0.253183 0.111379 0.437205
Si Si5 0.844901 0.110100 0.714679
Si Si6 0.160097 0.794675 0.650459
Si Si7 0.191111 0.272666 0.112707
O O1 0.167144 0.181456 0.766622
O O2 0.275177 0.130858 0.847058
O O3 0.179147 0.000000 0.821178
O O4 0.126076 0.133390 0.968516
O O5 0.537194 0.500000 0.701162
O O6 0.482661 0.629230 0.848903
O O7 0.436050 0.627445 0.674688
O O8 0.573737 0.681927 0.653777
O O9 0.606177 0.783145 0.098999
O O10 0.500000 0.743314 0.000000
O O11 0.184786 0.128246 0.386636
O O12 0.221392 0.140385 0.562118
O O13 0.324620 0.180057 0.375646
O O14 0.282176 0.000000 0.425529
O O15 0.804729 0.183107 0.810162
O O16 0.826131 0.000000 0.759470
O O17 0.250000 0.250000 0.000000
#
# Coordination Sequence:
#
# PCOD8086823 Si02
#       7
#     8   8   8   8   8   8   8
#     4  11  20  32  51  78 109 138 172 213 264 314
#     4  10  19  31  51  80 109 135 167 213 269 318
#     4  10  19  31  51  77 106 138 167 215 269 316
#     4  10  21  37  55  77 105 139 177 215 255 302
#     4   9  18  34  53  74 104 138 173 214 263 312
#     4  11  21  33  54  83 105 135 174 216 259 307
#     4   9  19  32  47  72 104 138 175 203 252 313
#
# _framework density 17.858091000000002
#
# number of rings (size 3 to 8) (size 9 to 14) (size 15 to 20)
#    0.000    2.000    2.857    1.714    0.000    4.571 
#    0.000    2.143    0.000    3.857    0.000    2.000 
#    0.000    0.000    0.000    0.000    0.000    0.000 
#
# Total GULP energy -347036.095275 kJ/mol
# GULP energy per Si atom -12394.146260 kJ/mol
# Density = 1.781744 g / cm^3
# Si number density = 17.858091 Si / 1000 Ang^3
#
#
#
# Elastic Constant Matrix: (Units=GPa)
#
#
# Indices 1 2 3 4 5 6 
#
# 1 92.9762 41.9300 9.2082 0.0000 -4.3355 0.0000
# 2 41.9300 95.0369 33.1699 0.0000 -17.5538 0.0000
# 3 9.2082 33.1699 53.7527 0.0000 -11.2513 0.0000
# 4 0.0000 0.0000 0.0000 18.3988 0.0000 -2.0167
# 5 -4.3355 -17.5538 -11.2513 0.0000 24.4661 0.0000
# 6 0.0000 0.0000 0.0000 -2.0167 0.0000 24.8464
#
#
#
# Elastic Compliance Matrix: (Units=1/GPa)
#
#
# Indices 1 2 3 4 5 6 
#
# 1 0.013622 -0.006880 0.001532 0.000000 -0.001818 0.000000
# 2 -0.006880 0.017869 -0.008210 0.000000 0.007826 0.000000
# 3 0.001532 -0.008210 0.024599 0.000000 0.005694 0.000000
# 4 0.000000 0.000000 0.000000 0.054839 0.000000 0.004451
# 5 -0.001818 0.007826 0.005694 0.000000 0.048784 0.000000
# 6 0.000000 0.000000 0.000000 0.004451 0.000000 0.040609
#
#
# Mechanical properties :
#
#
# Convention : Reuss Voigt Hill
#
# Bulk Modulus (GPa) = 34.51518 45.59800 40.05659
# Shear Modulus (GPa) = 21.08851 24.03943 22.56397
#
# Velocity S-wave (km/s) = 3.44014 3.67295 3.55845
# Velocity P-wave (km/s) = 5.92865 6.60124 6.27396
#
# Compressibility (1/GPa) = 0.02897276
#
# Stress axis : x y z
#
# Youngs Moduli (GPa) = 73.41152 55.96395 40.65168
#
# Poissons Ratio (x) = 0.38505 -0.06226
# Poissons Ratio (y) = 0.50510 0.33374
# Poissons Ratio (z) = -0.11244 0.45945
#
# Static dielectric constant tensor:
#      x y z
#    x 3.692900 0.000000 0.029550 
#    y 0.000000 1.891880 0.000000 
#    z 0.029550 0.000000 3.163270 
# 
# 
# High freq. dielectric constant tensor:
#      x y z
#    x 1.692620 0.000000 0.011660 
#    y 0.000000 1.660870 0.000000 
#    z 0.011660 0.000000 1.696690 
# 
# From -- ./inp_files/155951.got.cif
#   From: 2010.06.25/outbox.cif.g09.slc.cpg/sg12_78_cif.got.tgz:155951.got - 2010.06.28 00:19:55.
