data_PCOD8086172
_publ_section_title
;
Structure prediction by ZEFSAII (Michael W. Deem and Ramdas Pophale) SiO2 
 PCOD8086172
Probable space group: C 2/M
;
_chemical_formula_sum "Si O2"
_cell_formula_units_Z 48
_cell_length_a 20.267987
_cell_length_b 8.484134
_cell_length_c 29.531117
_cell_angle_alpha 90.000000
_cell_angle_beta 149.037873
_cell_angle_gamma 90.000000
_cell_volume 2612.517571
_symmetry_space_group_name_H-M "C 2/M"
_symmetry_group_IT_number 12
_symmetry_cell_setting 'monoclinic'
loop_
_space_group_symop_operation_xyz
x,y,z
-x,y,-z
-x,-y,-z
x,-y,z
1/2+x,1/2+y,z
1/2-x,1/2+y,-z
1/2-x,1/2-y,-z
1/2+x,1/2-y,z
loop_
_atom_site_type_symbol
_atom_site_label
_atom_site_fract_x
_atom_site_fract_y
_atom_site_fract_z
Si Si1 0.615608 0.187237 0.733773
Si Si2 0.687542 0.686305 0.591539
Si Si3 0.213839 0.313814 0.930259
Si Si4 0.053807 0.686290 0.597836
Si Si5 0.031045 0.687328 0.265942
Si Si6 0.638675 0.687549 0.069728
O O1 0.581388 0.253672 0.664188
O O2 0.511110 0.247798 0.708972
O O3 0.757231 0.245746 0.831967
O O4 0.612551 0.000000 0.731001
O O5 0.677130 0.500000 0.578114
O O6 0.591657 0.772389 0.500676
O O7 0.652838 0.728088 0.622649
O O8 0.829081 0.753333 0.664239
O O9 0.213956 0.500000 0.932032
O O10 0.318075 0.254875 0.954697
O O11 0.072787 0.252890 0.832180
O O12 0.250000 0.250000 0.000000
O O13 0.074901 0.500000 0.606826
O O14 0.033574 0.500000 0.267027
O O15 0.631980 0.500000 0.066663
O O16 0.500000 0.761447 0.000000
#
# Coordination Sequence:
#
# PCOD8086172 Si02
#       6
#     8   8   8   8   8   8
#     4   8  15  28  45  65  90 119 150 186 227 266
#     4  10  19  32  49  66  90 124 157 184 218 275
#     4   9  17  30  48  69  94 121 151 188 227 268
#     4  10  19  31  48  70  95 117 145 192 238 268
#     4   8  16  31  48  66  90 123 157 186 221 269
#     4   8  14  26  45  68  91 117 151 186 220 265
#
# _framework density 18.373082
#
# number of rings (size 3 to 8) (size 9 to 14) (size 15 to 20)
#    0.000    3.167    0.000    4.000    0.000    2.000 
#    0.000    3.333    0.000   11.500    0.000    0.000 
#    0.000    0.000    0.000    0.000    0.000    0.000 
#
# Total GULP energy -297464.924568 kJ/mol
# GULP energy per Si atom -12394.371857 kJ/mol
# Density = 1.833126 g / cm^3
# Si number density = 18.373082 Si / 1000 Ang^3
#
#
#
# Elastic Constant Matrix: (Units=GPa)
#
#
# Indices 1 2 3 4 5 6 
#
# 1 152.0148 4.7053 121.8428 0.0001 0.6904 0.0000
# 2 4.7053 14.5951 4.2793 -0.0001 0.0489 0.0000
# 3 121.8428 4.2793 149.0481 0.0008 0.3669 0.0000
# 4 0.0001 -0.0001 0.0008 19.1103 0.0001 -3.8342
# 5 0.6904 0.0489 0.3669 0.0001 49.4887 0.0000
# 6 0.0000 0.0000 0.0000 -3.8342 0.0000 18.5555
#
#
#
# Elastic Compliance Matrix: (Units=1/GPa)
#
#
# Indices 1 2 3 4 5 6 
#
# 1 0.019118 -0.001594 -0.015582 0.000001 -0.000150 0.000000
# 2 -0.001594 0.069231 -0.000685 0.000000 -0.000041 0.000000
# 3 -0.015582 -0.000685 0.019467 -0.000001 0.000074 0.000000
# 4 0.000001 0.000000 -0.000001 0.054591 0.000000 0.011280
# 5 -0.000150 -0.000041 0.000074 0.000000 0.020208 0.000000
# 6 0.000000 0.000000 0.000000 0.011280 0.000000 0.056223
#
#
# Mechanical properties :
#
#
# Convention : Reuss Voigt Hill
#
# Bulk Modulus (GPa) = 13.87077 64.14586 39.00832
# Shear Modulus (GPa) = 16.74537 29.75294 23.24915
#
# Velocity S-wave (km/s) = 3.02223 4.02851 3.56109
# Velocity P-wave (km/s) = 4.44346 7.52511 6.17947
#
# Compressibility (1/GPa) = 0.07209407
#
# Stress axis : x y z
#
# Youngs Moduli (GPa) = 52.30781 14.44440 51.37010
#
# Poissons Ratio (x) = 0.02303 0.80045
# Poissons Ratio (y) = 0.08338 0.03516
# Poissons Ratio (z) = 0.81506 0.00989
#
# Static dielectric constant tensor:
#      x y z
#    x 2.813340 0.000000 1.099320 
#    y 0.000000 2.923230 0.000000 
#    z 1.099320 0.000000 2.512200 
# 
# 
# High freq. dielectric constant tensor:
#      x y z
#    x 1.718190 0.000000 0.000950 
#    y 0.000000 1.669180 0.000000 
#    z 0.000950 0.000000 1.717950 
# 
# From -- ./inp_files/380259.got.cif
#   From: 2010.06.25/outbox.cif.g09.slc.cpg/sg12_191_cif.got.tgz:380259.got - 2010.06.28 00:19:55.
