data_PCOD8086830
_publ_section_title
;
Structure prediction by ZEFSAII (Michael W. Deem and Ramdas Pophale) SiO2 
 PCOD8086830
Probable space group: C 2/M
;
_chemical_formula_sum "Si O2"
_cell_formula_units_Z 56
_cell_length_a 28.291491
_cell_length_b 8.829465
_cell_length_c 17.571397
_cell_angle_alpha 90.000000
_cell_angle_beta 136.022166
_cell_angle_gamma 90.000000
_cell_volume 3047.851038
_symmetry_space_group_name_H-M "C 2/M"
_symmetry_group_IT_number 12
_symmetry_cell_setting 'monoclinic'
loop_
_space_group_symop_operation_xyz
x,y,z
-x,y,-z
-x,-y,-z
x,-y,z
1/2+x,1/2+y,z
1/2-x,1/2+y,-z
1/2-x,1/2-y,-z
1/2+x,1/2-y,z
loop_
_atom_site_type_symbol
_atom_site_label
_atom_site_fract_x
_atom_site_fract_y
_atom_site_fract_z
Si Si1 0.912634 0.180916 0.665091
Si Si2 0.653341 0.323232 0.105361
Si Si3 0.180994 0.176324 0.892075
Si Si4 0.675033 0.322276 0.297696
Si Si5 0.936494 0.822104 0.136435
Si Si6 0.205744 0.175557 0.751492
Si Si7 0.325716 0.179213 0.437548
O O1 0.866139 0.249481 0.679557
O O2 0.885209 0.241292 0.553426
O O3 0.988615 0.247222 0.764443
O O4 0.911865 0.000000 0.664449
O O5 0.673505 0.500000 0.122409
O O6 0.637238 0.280952 0.174493
O O7 0.716562 0.227279 0.148093
O O8 0.588184 0.284155 0.978017
O O9 0.116866 0.245579 0.864080
O O10 0.167792 0.205258 0.787405
O O11 0.188100 0.000000 0.918686
O O12 0.250000 0.250000 0.000000
O O13 0.676630 0.500000 0.311119
O O14 0.752704 0.262339 0.384999
O O15 0.941664 0.000000 0.154764
O O16 0.167231 0.271348 0.642091
O O17 0.204057 0.000000 0.726643
O O18 0.332828 0.000000 0.451630
#
# Coordination Sequence:
#
# PCOD8086830 Si02
#       7
#     8   8   8   8   8   8   8
#     4  10  19  33  51  73 102 135 170 206 245 295
#     4   9  16  30  50  74 105 134 162 201 249 296
#     4  10  19  32  52  78 103 130 165 202 246 296
#     4   8  16  29  50  77  99 127 168 208 247 291
#     4   9  18  31  50  75 105 136 164 200 248 298
#     4  10  19  31  51  78 101 126 166 211 249 291
#     4  10  20  35  53  73  99 131 169 211 253 295
#
# _framework density 18.373601000000001
#
# number of rings (size 3 to 8) (size 9 to 14) (size 15 to 20)
#    0.000    2.571    1.429    2.143    0.000    1.143 
#    0.000    7.857    0.000    4.286    0.000    5.000 
#    0.000    0.000    0.000    0.000    0.000    0.000 
#
# Total GULP energy -347124.280322 kJ/mol
# GULP energy per Si atom -12397.295726 kJ/mol
# Density = 1.833178 g / cm^3
# Si number density = 18.373601 Si / 1000 Ang^3
#
#
#
# Elastic Constant Matrix: (Units=GPa)
#
#
# Indices 1 2 3 4 5 6 
#
# 1 77.9265 19.7622 55.9944 0.0000 -6.2122 0.0000
# 2 19.7622 28.2826 20.6271 0.0000 -2.2706 0.0000
# 3 55.9944 20.6271 147.7363 0.0000 0.0594 0.0000
# 4 0.0000 0.0000 0.0000 25.6741 0.0000 -1.8663
# 5 -6.2122 -2.2706 0.0594 0.0000 23.2755 0.0000
# 6 0.0000 0.0000 0.0000 -1.8663 0.0000 17.0661
#
#
#
# Elastic Compliance Matrix: (Units=1/GPa)
#
#
# Indices 1 2 3 4 5 6 
#
# 1 0.020027 -0.009015 -0.006334 0.000000 0.004482 0.000000
# 2 -0.009015 0.043772 -0.002696 0.000000 0.001871 0.000000
# 3 -0.006334 -0.002696 0.009547 0.000000 -0.001978 0.000000
# 4 0.000000 0.000000 0.000000 0.039262 0.000000 0.004294
# 5 0.004482 0.001871 -0.001978 0.000000 0.044347 0.000000
# 6 0.000000 0.000000 0.000000 0.004294 0.000000 0.059065
#
#
# Mechanical properties :
#
#
# Convention : Reuss Voigt Hill
#
# Bulk Modulus (GPa) = 26.83978 49.63477 38.23728
# Shear Modulus (GPa) = 18.90157 23.70725 21.30441
#
# Velocity S-wave (km/s) = 3.21087 3.59596 3.40885
# Velocity P-wave (km/s) = 5.32783 6.65688 6.02909
#
# Compressibility (1/GPa) = 0.03725813
#
# Stress axis : x y z
#
# Youngs Moduli (GPa) = 49.93210 22.84542 104.74948
#
# Poissons Ratio (x) = 0.20594 0.66346
# Poissons Ratio (y) = 0.45012 0.28236
# Poissons Ratio (z) = 0.31626 0.06158
#
# Static dielectric constant tensor:
#      x y z
#    x 3.685450 0.000000 -0.101350 
#    y 0.000000 3.089790 0.000000 
#    z -0.101350 0.000000 3.453600 
# 
# 
# High freq. dielectric constant tensor:
#      x y z
#    x 1.706640 0.000000 -0.017760 
#    y 0.000000 1.681560 0.000000 
#    z -0.017760 0.000000 1.714440 
# 
# From -- ./inp_files/288156.got.cif
#   From: 2010.06.25/outbox.cif.g09.slc.cpg/sg12_145_cif.got.tgz:288156.got - 2010.06.28 00:19:55.
