data_PCOD8086563
_publ_section_title
;
Structure prediction by ZEFSAII (Michael W. Deem and Ramdas Pophale) SiO2 
 PCOD8086563
Probable space group: C 2/M
;
_chemical_formula_sum "Si O2"
_cell_formula_units_Z 48
_cell_length_a 19.449882
_cell_length_b 8.955878
_cell_length_c 15.647821
_cell_angle_alpha 90.000000
_cell_angle_beta 90.353119
_cell_angle_gamma 90.000000
_cell_volume 2725.654228
_symmetry_space_group_name_H-M "C 2/M"
_symmetry_group_IT_number 12
_symmetry_cell_setting 'monoclinic'
loop_
_space_group_symop_operation_xyz
x,y,z
-x,y,-z
-x,-y,-z
x,-y,z
1/2+x,1/2+y,z
1/2-x,1/2+y,-z
1/2-x,1/2-y,-z
1/2+x,1/2-y,z
loop_
_atom_site_type_symbol
_atom_site_label
_atom_site_fract_x
_atom_site_fract_y
_atom_site_fract_z
Si Si1 0.045968 0.824215 0.420324
Si Si2 0.057603 0.673360 0.256482
Si Si3 0.449396 0.827492 0.930445
Si Si4 0.297055 0.672971 0.569355
Si Si5 0.293269 0.822954 0.925907
Si Si6 0.201419 0.826651 0.242330
O O1 0.014904 0.735171 0.337471
O O2 0.124179 0.769858 0.437465
O O3 0.000000 0.776947 0.500000
O O4 0.041854 0.000000 0.401895
O O5 0.078256 0.500000 0.269126
O O6 0.018731 0.692946 0.164922
O O7 0.123140 0.778882 0.251917
O O8 0.371809 0.763586 0.935205
O O9 0.443231 0.000000 0.954585
O O10 0.500000 0.748415 0.000000
O O11 0.296657 0.500000 0.548005
O O12 0.250000 0.750000 0.500000
O O13 0.265146 0.703643 0.663917
O O14 0.263391 0.768000 0.833716
O O15 0.287416 0.000000 0.930040
O O16 0.250000 0.750000 0.000000
O O17 0.205881 0.000000 0.217923
#
# Coordination Sequence:
#
# PCOD8086563 Si02
#       6
#     8   8   8   8   8   8
#     4   9  18  33  50  67  92 126 159 191 232 279
#     4   9  16  27  47  72  93 119 156 193 231 276
#     4   8  15  29  48  69  93 121 153 189 230 276
#     4   9  18  31  49  71  93 122 156 193 237 280
#     4  10  19  31  50  73  96 125 159 196 236 277
#     4   9  17  31  49  68  93 126 161 192 229 280
#
# _framework density 17.610451000000001
#
# number of rings (size 3 to 8) (size 9 to 14) (size 15 to 20)
#    0.000    3.000    0.000    3.500    0.000    3.667 
#    0.000    1.667    0.000   24.000    0.000    0.000 
#    0.000    0.000    0.000    0.000    0.000    0.000 
#
# Total GULP energy -297339.983418 kJ/mol
# GULP energy per Si atom -12389.165976 kJ/mol
# Density = 1.757037 g / cm^3
# Si number density = 17.610451 Si / 1000 Ang^3
#
#
#
# Elastic Constant Matrix: (Units=GPa)
#
#
# Indices 1 2 3 4 5 6 
#
# 1 55.8392 26.1138 63.9556 0.0000 -2.7986 0.0000
# 2 26.1138 58.6046 61.3006 0.0000 -0.2943 0.0000
# 3 63.9556 61.3006 184.0014 0.0000 -6.5632 0.0000
# 4 0.0000 0.0000 0.0000 34.9312 0.0000 -4.0733
# 5 -2.7986 -0.2943 -6.5632 0.0000 31.0050 0.0000
# 6 0.0000 0.0000 0.0000 -4.0733 0.0000 16.7304
#
#
#
# Elastic Compliance Matrix: (Units=1/GPa)
#
#
# Indices 1 2 3 4 5 6 
#
# 1 0.030316 -0.003854 -0.009227 0.000000 0.000747 0.000000
# 2 -0.003854 0.026760 -0.007637 0.000000 -0.001710 0.000000
# 3 -0.009227 -0.007637 0.011239 0.000000 0.001474 0.000000
# 4 0.000000 0.000000 0.000000 0.029464 0.000000 0.007174
# 5 0.000747 -0.001710 0.001474 0.000000 0.032616 0.000000
# 6 0.000000 0.000000 0.000000 0.007174 0.000000 0.061518
#
#
# Mechanical properties :
#
#
# Convention : Reuss Voigt Hill
#
# Bulk Modulus (GPa) = 37.20169 66.79835 52.00002
# Shear Modulus (GPa) = 20.63491 26.33834 23.48663
#
# Velocity S-wave (km/s) = 3.42679 3.87151 3.65591
# Velocity P-wave (km/s) = 6.06859 7.61565 6.88571
#
# Compressibility (1/GPa) = 0.02688050
#
# Stress axis : x y z
#
# Youngs Moduli (GPa) = 32.98558 37.36899 88.97856
#
# Poissons Ratio (x) = 0.14400 0.82100
# Poissons Ratio (y) = 0.12711 0.67951
# Poissons Ratio (z) = 0.30436 0.28538
#
# Static dielectric constant tensor:
#      x y z
#    x 3.035100 0.000000 0.070510 
#    y 0.000000 3.232600 0.000000 
#    z 0.070510 0.000000 3.845660 
# 
# 
# High freq. dielectric constant tensor:
#      x y z
#    x 1.629300 0.000000 -0.003290 
#    y 0.000000 1.673090 0.000000 
#    z -0.003290 0.000000 1.705980 
# 
# From -- ./inp_files/229284.got.cif
#   From: 2010.06.25/outbox.cif.g09.slc.cpg/sg12_115_cif.got.tgz:229284.got - 2010.06.28 00:19:55.
