data_PCOD8086515
_publ_section_title
;
Structure prediction by ZEFSAII (Michael W. Deem and Ramdas Pophale) SiO2 
 PCOD8086515
Probable space group: C 2/M
;
_chemical_formula_sum "Si O2"
_cell_formula_units_Z 64
_cell_length_a 29.212470
_cell_length_b 8.936906
_cell_length_c 14.431332
_cell_angle_alpha 90.000000
_cell_angle_beta 121.448215
_cell_angle_gamma 90.000000
_cell_volume 3214.163528
_symmetry_space_group_name_H-M "C 2/M"
_symmetry_group_IT_number 12
_symmetry_cell_setting 'monoclinic'
loop_
_space_group_symop_operation_xyz
x,y,z
-x,y,-z
-x,-y,-z
x,-y,z
1/2+x,1/2+y,z
1/2-x,1/2+y,-z
1/2-x,1/2-y,-z
1/2+x,1/2-y,z
loop_
_atom_site_type_symbol
_atom_site_label
_atom_site_fract_x
_atom_site_fract_y
_atom_site_fract_z
Si Si1 0.051854 0.177756 0.607259
Si Si2 0.801155 0.167107 0.018398
Si Si3 0.743223 0.664988 0.221412
Si Si4 0.554777 0.678128 0.012626
Si Si5 0.840489 0.175460 0.382570
Si Si6 0.852700 0.827215 0.752455
Si Si7 0.307245 0.177499 0.537655
Si Si8 0.082118 0.821159 0.838655
O O1 0.105167 0.230498 0.609810
O O2 0.050511 0.233957 0.713320
O O3 0.000000 0.244891 0.500000
O O4 0.049907 0.000000 0.605101
O O5 0.799889 0.173079 0.906174
O O6 0.798157 0.000000 0.054413
O O7 0.750000 0.250000 0.000000
O O8 0.857125 0.240993 0.108667
O O9 0.770037 0.500000 0.252449
O O10 0.790390 0.787922 0.261390
O O11 0.708098 0.691265 0.275630
O O12 0.556107 0.500000 0.010930
O O13 0.603910 0.736382 0.128198
O O14 0.500000 0.738307 0.000000
O O15 0.557541 0.740494 0.909425
O O16 0.830121 0.271118 0.463190
O O17 0.842188 0.000000 0.407263
O O18 0.852951 0.729890 0.659101
O O19 0.865933 0.000000 0.743161
O O20 0.250000 0.250000 0.500000
O O21 0.300811 0.000000 0.532851
O O22 0.084039 0.000000 0.845630
#
# Coordination Sequence:
#
# PCOD8086515 Si02
#       8
#     8   8   8   8   8   8   8   8
#     4   9  19  34  53  80 115 150 187 236 286 329
#     4  10  19  31  49  76 108 146 184 227 279 333
#     4  10  19  32  52  76 111 149 184 232 289 344
#     4   9  17  30  53  85 116 149 189 232 282 337
#     4  11  22  36  57  86 115 148 192 239 288 347
#     4  10  19  34  55  82 113 148 189 236 285 340
#     4  12  24  38  57  83 115 154 193 236 291 349
#     4   9  16  30  50  74 109 146 179 222 274 326
#
# _framework density 19.911868999999999
#
# number of rings (size 3 to 8) (size 9 to 14) (size 15 to 20)
#    0.000    2.000    2.500    2.250    0.000    2.500 
#    0.000    3.750    0.000    1.875    0.000    3.500 
#    0.000    0.000    0.000    0.000    0.000    0.000 
#
# Total GULP energy -396633.824386 kJ/mol
# GULP energy per Si atom -12394.807012 kJ/mol
# Density = 1.986655 g / cm^3
# Si number density = 19.911869 Si / 1000 Ang^3
#
#
#
# Elastic Constant Matrix: (Units=GPa)
#
#
# Indices 1 2 3 4 5 6 
#
# 1 119.7611 26.6644 65.0633 0.0000 1.8774 0.0000
# 2 26.6644 56.1632 27.5108 0.0000 -0.5606 0.0000
# 3 65.0633 27.5108 149.6613 0.0000 4.7309 0.0000
# 4 0.0000 0.0000 0.0000 21.9216 0.0000 -1.0915
# 5 1.8774 -0.5606 4.7309 0.0000 30.7218 0.0000
# 6 0.0000 0.0000 0.0000 -1.0915 0.0000 20.5017
#
#
#
# Elastic Compliance Matrix: (Units=1/GPa)
#
#
# Indices 1 2 3 4 5 6 
#
# 1 0.011462 -0.003300 -0.004374 0.000000 -0.000087 0.000000
# 2 -0.003300 0.020543 -0.002371 0.000000 0.000942 0.000000
# 3 -0.004374 -0.002371 0.009056 0.000000 -0.001171 0.000000
# 4 0.000000 0.000000 0.000000 0.045738 0.000000 0.002435
# 5 -0.000087 0.000942 -0.001171 0.000000 0.032753 0.000000
# 6 0.000000 0.000000 0.000000 0.002435 0.000000 0.048906
#
#
# Mechanical properties :
#
#
# Convention : Reuss Voigt Hill
#
# Bulk Modulus (GPa) = 47.68518 62.67364 55.17941
# Shear Modulus (GPa) = 25.57029 28.38549 26.97789
#
# Velocity S-wave (km/s) = 3.58742 3.77975 3.68484
# Velocity P-wave (km/s) = 6.41557 7.11284 6.77319
#
# Compressibility (1/GPa) = 0.02097088
#
# Stress axis : x y z
#
# Youngs Moduli (GPa) = 87.24307 48.67822 110.42393
#
# Poissons Ratio (x) = 0.16066 0.48295
# Poissons Ratio (y) = 0.28794 0.26184
# Poissons Ratio (z) = 0.38157 0.11543
#
# Static dielectric constant tensor:
#      x y z
#    x 3.682470 0.000000 -0.163610 
#    y 0.000000 3.184230 0.000000 
#    z -0.163610 0.000000 4.420970 
# 
# 
# High freq. dielectric constant tensor:
#      x y z
#    x 1.771580 0.000000 -0.007540 
#    y 0.000000 1.722380 0.000000 
#    z -0.007540 0.000000 1.796810 
# 
# From -- ./inp_files/249205.got.cif
#   From: 2010.06.25/outbox.cif.g09.slc.cpg/sg12_125_cif.got.tgz:249205.got - 2010.06.28 00:19:55.
