data_PCOD8086072
_publ_section_title
;
Structure prediction by ZEFSAII (Michael W. Deem and Ramdas Pophale) SiO2 
 PCOD8086072
Probable space group: C 2/M
;
_chemical_formula_sum "Si O2"
_cell_formula_units_Z 48
_cell_length_a 27.689260
_cell_length_b 9.084794
_cell_length_c 12.364030
_cell_angle_alpha 90.000000
_cell_angle_beta 127.188117
_cell_angle_gamma 90.000000
_cell_volume 2477.746832
_symmetry_space_group_name_H-M "C 2/M"
_symmetry_group_IT_number 12
_symmetry_cell_setting 'monoclinic'
loop_
_space_group_symop_operation_xyz
x,y,z
-x,y,-z
-x,-y,-z
x,-y,z
1/2+x,1/2+y,z
1/2-x,1/2+y,-z
1/2-x,1/2-y,-z
1/2+x,1/2-y,z
loop_
_atom_site_type_symbol
_atom_site_label
_atom_site_fract_x
_atom_site_fract_y
_atom_site_fract_z
Si Si1 0.852735 0.674220 0.165394
Si Si2 0.485371 0.828954 0.356969
Si Si3 0.599138 0.824812 0.385290
Si Si4 0.567905 0.825731 0.107385
Si Si5 0.178097 0.673065 0.112313
Si Si6 0.202833 0.324977 0.685793
O O1 0.858740 0.500000 0.186722
O O2 0.920064 0.743191 0.244537
O O3 0.820364 0.735902 0.229091
O O4 0.817107 0.716791 0.007924
O O5 0.500000 0.801209 0.500000
O O6 0.538373 0.756871 0.356836
O O7 0.482437 0.000000 0.323575
O O8 0.598968 0.770841 0.261087
O O9 0.658116 0.767865 0.530362
O O10 0.598221 0.000000 0.393973
O O11 0.612713 0.776819 0.071245
O O12 0.561485 0.000000 0.101921
O O13 0.500000 0.758400 0.000000
O O14 0.186674 0.500000 0.141580
O O15 0.231356 0.756320 0.248008
O O16 0.208196 0.500000 0.693368
#
# Coordination Sequence:
#
# PCOD8086072 Si02
#       6
#     8   8   8   8   8   8
#     4   9  16  27  44  68  96 122 152 193 234 271
#     4   9  13  21  40  67  94 115 143 190 239 269
#     4   9  16  26  43  68  95 121 152 192 233 272
#     4   9  17  30  47  68  94 120 149 191 239 279
#     4  10  20  32  47  68  95 126 156 186 228 279
#     4  10  19  31  47  69  96 124 156 191 227 269
#
# _framework density 19.372439
#
# number of rings (size 3 to 8) (size 9 to 14) (size 15 to 20)
#    0.000    2.667    1.667    1.500    0.000    4.667 
#    0.000    0.000    0.000    0.500    0.000    5.833 
#    0.000    0.000    0.000    0.000    0.000    0.000 
#
# Total GULP energy -297445.411173 kJ/mol
# GULP energy per Si atom -12393.558799 kJ/mol
# Density = 1.932835 g / cm^3
# Si number density = 19.372439 Si / 1000 Ang^3
#
#
#
# Elastic Constant Matrix: (Units=GPa)
#
#
# Indices 1 2 3 4 5 6 
#
# 1 103.4251 14.6997 60.8461 0.0000 7.8163 0.0000
# 2 14.6997 10.0040 16.2804 0.0000 4.7734 0.0000
# 3 60.8461 16.2804 145.7624 0.0000 6.0773 0.0000
# 4 0.0000 0.0000 0.0000 15.4109 0.0000 6.6138
# 5 7.8163 4.7734 6.0773 0.0000 48.4451 0.0000
# 6 0.0000 0.0000 0.0000 6.6138 0.0000 11.0807
#
#
#
# Elastic Compliance Matrix: (Units=1/GPa)
#
#
# Indices 1 2 3 4 5 6 
#
# 1 0.014213 -0.013519 -0.004406 0.000000 -0.000408 0.000000
# 2 -0.013519 0.140447 -0.009608 0.000000 -0.010452 0.000000
# 3 -0.004406 -0.009608 0.009755 0.000000 0.000434 0.000000
# 4 0.000000 0.000000 0.000000 0.087235 0.000000 -0.052068
# 5 -0.000408 -0.010452 0.000434 0.000000 0.021683 0.000000
# 6 0.000000 0.000000 0.000000 -0.052068 0.000000 0.121326
#
#
# Mechanical properties :
#
#
# Convention : Reuss Voigt Hill
#
# Bulk Modulus (GPa) = 9.14503 49.20488 29.17495
# Shear Modulus (GPa) = 10.28436 26.14502 18.21469
#
# Velocity S-wave (km/s) = 2.30657 3.67767 3.06966
# Velocity P-wave (km/s) = 3.43869 6.59456 5.25894
#
# Compressibility (1/GPa) = 0.10934904
#
# Stress axis : x y z
#
# Youngs Moduli (GPa) = 70.35643 7.12012 102.51451
#
# Poissons Ratio (x) = 0.09626 0.45169
# Poissons Ratio (y) = 0.95118 0.98491
# Poissons Ratio (z) = 0.31000 0.06841
#
# Static dielectric constant tensor:
#      x y z
#    x 3.722260 0.000000 0.039090 
#    y 0.000000 2.690470 0.000000 
#    z 0.039090 0.000000 3.734960 
# 
# 
# High freq. dielectric constant tensor:
#      x y z
#    x 1.764590 0.000000 0.004880 
#    y 0.000000 1.659340 0.000000 
#    z 0.004880 0.000000 1.771020 
# 
# From -- ./inp_files/164007.got.cif
#   From: 2010.06.25/outbox.cif.g09.slc.cpg/sg12_83_cif.got.tgz:164007.got - 2010.06.28 00:19:55.
