data_PCOD8086892
_publ_section_title
;
Structure prediction by ZEFSAII (Michael W. Deem and Ramdas Pophale) SiO2 
 PCOD8086892
Probable space group: C 2/M
;
_chemical_formula_sum "Si O2"
_cell_formula_units_Z 56
_cell_length_a 29.436233
_cell_length_b 9.236045
_cell_length_c 19.961829
_cell_angle_alpha 90.000000
_cell_angle_beta 147.104801
_cell_angle_gamma 90.000000
_cell_volume 2947.485514
_symmetry_space_group_name_H-M "C 2/M"
_symmetry_group_IT_number 12
_symmetry_cell_setting 'monoclinic'
loop_
_space_group_symop_operation_xyz
x,y,z
-x,y,-z
-x,-y,-z
x,-y,z
1/2+x,1/2+y,z
1/2-x,1/2+y,-z
1/2-x,1/2-y,-z
1/2+x,1/2-y,z
loop_
_atom_site_type_symbol
_atom_site_label
_atom_site_fract_x
_atom_site_fract_y
_atom_site_fract_z
Si Si1 0.079777 0.670261 0.137416
Si Si2 0.592694 0.169232 0.439866
Si Si3 0.479405 0.167446 0.792538
Si Si4 0.635841 0.667896 0.943774
Si Si5 0.258151 0.328978 0.309895
Si Si6 0.062467 0.835129 0.709574
Si Si7 0.714912 0.667262 0.809624
O O1 0.079107 0.500000 0.124599
O O2 0.075465 0.709017 0.210716
O O3 0.165938 0.731220 0.213567
O O4 0.000000 0.739041 0.000000
O O5 0.574940 0.203658 0.340108
O O6 0.678449 0.248313 0.562717
O O7 0.517472 0.230731 0.392406
O O8 0.601042 0.000000 0.464642
O O9 0.564266 0.259031 0.900195
O O10 0.506308 0.000000 0.827350
O O11 0.638581 0.500000 0.965160
O O12 0.618168 0.696298 0.843931
O O13 0.724654 0.737108 0.070224
O O14 0.266209 0.500000 0.332086
O O15 0.278932 0.285812 0.259697
O O16 0.119841 0.805318 0.715872
O O17 0.029319 0.000000 0.669171
O O18 0.740173 0.500000 0.850697
#
# Coordination Sequence:
#
# PCOD8086892 Si02
#       7
#     8   8   8   8   8   8   8
#     4   9  17  32  56  82 103 128 168 212 252 301
#     4  10  21  36  53  75 104 137 173 214 258 302
#     4   9  18  34  55  76 102 138 175 210 252 304
#     4  10  19  31  51  80 109 135 167 211 260 307
#     4  10  21  36  55  77 102 135 174 215 255 301
#     4   9  19  35  54  76 103 136 174 213 254 305
#     4  10  20  34  53  76 103 138 175 212 257 306
#
# _framework density 18.999244999999998
#
# number of rings (size 3 to 8) (size 9 to 14) (size 15 to 20)
#    0.000    2.429    0.000    2.143    0.000    5.714 
#    0.000    3.571    0.000    1.714    0.000    0.000 
#    0.000    0.000    0.000    0.000    0.000    0.000 
#
# Total GULP energy -347280.227392 kJ/mol
# GULP energy per Si atom -12402.865264 kJ/mol
# Density = 1.895600 g / cm^3
# Si number density = 18.999245 Si / 1000 Ang^3
#
#
#
# Elastic Constant Matrix: (Units=GPa)
#
#
# Indices 1 2 3 4 5 6 
#
# 1 141.7730 33.9162 53.6251 0.0000 14.6396 0.0000
# 2 33.9162 58.5807 43.7057 0.0000 6.3288 0.0000
# 3 53.6251 43.7057 116.6836 0.0000 18.3366 0.0000
# 4 0.0000 0.0000 0.0000 34.4778 0.0000 4.6364
# 5 14.6396 6.3288 18.3366 0.0000 20.4694 0.0000
# 6 0.0000 0.0000 0.0000 4.6364 0.0000 18.4214
#
#
#
# Elastic Compliance Matrix: (Units=1/GPa)
#
#
# Indices 1 2 3 4 5 6 
#
# 1 0.009068 -0.003013 -0.002521 0.000000 -0.003296 0.000000
# 2 -0.003013 0.024702 -0.008154 0.000000 0.001822 0.000000
# 3 -0.002521 -0.008154 0.014086 0.000000 -0.008295 0.000000
# 4 0.000000 0.000000 0.000000 0.030020 0.000000 -0.007556
# 5 -0.003296 0.001822 -0.008295 0.000000 0.058077 0.000000
# 6 0.000000 0.000000 0.000000 -0.007556 0.000000 0.056186
#
#
# Mechanical properties :
#
#
# Convention : Reuss Voigt Hill
#
# Bulk Modulus (GPa) = 48.82817 64.39236 56.61027
# Shear Modulus (GPa) = 22.09033 27.05973 24.57503
#
# Velocity S-wave (km/s) = 3.41353 3.77802 3.60039
# Velocity P-wave (km/s) = 6.42589 7.27990 6.86619
#
# Compressibility (1/GPa) = 0.02047998
#
# Stress axis : x y z
#
# Youngs Moduli (GPa) = 110.27473 40.48310 70.99034
#
# Poissons Ratio (x) = 0.12199 0.17897
# Poissons Ratio (y) = 0.33229 0.57885
# Poissons Ratio (z) = 0.27800 0.33009
#
# Static dielectric constant tensor:
#      x y z
#    x 3.600940 0.000000 0.048480 
#    y 0.000000 3.320940 0.000000 
#    z 0.048480 0.000000 3.399220 
# 
# 
# High freq. dielectric constant tensor:
#      x y z
#    x 1.745400 0.000000 0.002660 
#    y 0.000000 1.719200 0.000000 
#    z 0.002660 0.000000 1.735770 
# 
# From -- ./inp_files/281601.got.cif
#   From: 2010.06.25/outbox.cif.g09.slc.cpg/sg12_141_cif.got.tgz:281601.got - 2010.06.28 00:19:55.
