data_PCOD8086889
_publ_section_title
;
Structure prediction by ZEFSAII (Michael W. Deem and Ramdas Pophale) SiO2 
 PCOD8086889
Probable space group: C 2/M
;
_chemical_formula_sum "Si O2"
_cell_formula_units_Z 48
_cell_length_a 29.500269
_cell_length_b 13.375541
_cell_length_c 11.381459
_cell_angle_alpha 90.000000
_cell_angle_beta 143.480269
_cell_angle_gamma 90.000000
_cell_volume 2672.544298
_symmetry_space_group_name_H-M "C 2/M"
_symmetry_group_IT_number 12
_symmetry_cell_setting 'monoclinic'
loop_
_space_group_symop_operation_xyz
x,y,z
-x,y,-z
-x,-y,-z
x,-y,z
1/2+x,1/2+y,z
1/2-x,1/2+y,-z
1/2-x,1/2-y,-z
1/2+x,1/2-y,z
loop_
_atom_site_type_symbol
_atom_site_label
_atom_site_fract_x
_atom_site_fract_y
_atom_site_fract_z
Si Si1 0.154080 0.881787 0.061766
Si Si2 0.708895 0.218163 0.533244
Si Si3 0.085530 0.118426 0.674300
Si Si4 0.509648 0.693638 0.880679
Si Si5 0.445920 0.891026 0.777777
Si Si6 0.132560 0.887034 0.521710
O O1 0.133323 0.846325 0.886989
O O2 0.096234 0.830391 0.032067
O O3 0.148831 0.000000 0.064520
O O4 0.237564 0.844920 0.268612
O O5 0.750000 0.250000 0.500000
O O6 0.636746 0.148724 0.352760
O O7 0.686073 0.318711 0.553826
O O8 0.130491 0.153951 0.651427
O O9 0.000000 0.164451 0.500000
O O10 0.078438 0.000000 0.655437
O O11 0.484630 0.804041 0.778596
O O12 0.454442 0.611981 0.707119
O O13 0.500000 0.692986 0.000000
O O14 0.437938 0.000000 0.696922
O O15 0.500000 0.908022 0.000000
O O16 0.164190 0.000000 0.581119
#
# Coordination Sequence:
#
# PCOD8086889 Si02
#       6
#     8   8   8   8   8   8
#     4  11  21  34  55  80 109 139 176 229 276 316
#     4  11  23  35  50  81 114 142 181 222 266 336
#     4   9  17  33  56  81 104 135 182 224 271 327
#     4  10  19  31  51  80 105 133 179 222 267 330
#     4   9  18  34  52  68  99 144 180 211 254 315
#     4  10  20  35  54  77 107 142 178 225 271 317
#
# _framework density 17.960412999999999
#
# number of rings (size 3 to 8) (size 9 to 14) (size 15 to 20)
#    0.000    2.000    1.667    4.000    0.000    4.667 
#    0.000    0.833    0.000    0.000    0.000   10.500 
#    0.000    0.000    0.000    0.000    0.000    0.000 
#
# Total GULP energy -297477.252639 kJ/mol
# GULP energy per Si atom -12394.885527 kJ/mol
# Density = 1.791953 g / cm^3
# Si number density = 17.960413 Si / 1000 Ang^3
#
#
#
# Elastic Constant Matrix: (Units=GPa)
#
#
# Indices 1 2 3 4 5 6 
#
# 1 106.8274 47.3901 43.9135 0.0000 -4.8707 0.0000
# 2 47.3901 99.9215 37.8704 0.0000 5.0742 0.0000
# 3 43.9135 37.8704 115.2308 0.0000 4.2651 0.0000
# 4 0.0000 0.0000 0.0000 27.3411 0.0000 2.9775
# 5 -4.8707 5.0742 4.2651 0.0000 30.5204 0.0000
# 6 0.0000 0.0000 0.0000 2.9775 0.0000 19.7430
#
#
#
# Elastic Compliance Matrix: (Units=1/GPa)
#
#
# Indices 1 2 3 4 5 6 
#
# 1 0.013224 -0.005127 -0.003482 0.000000 0.003449 0.000000
# 2 -0.005127 0.013478 -0.002375 0.000000 -0.002727 0.000000
# 3 -0.003482 -0.002375 0.010848 0.000000 -0.001677 0.000000
# 4 0.000000 0.000000 0.000000 0.037186 0.000000 -0.005608
# 5 0.003449 -0.002727 -0.001677 0.000000 0.034003 0.000000
# 6 0.000000 0.000000 0.000000 -0.005608 0.000000 0.051496
#
#
# Mechanical properties :
#
#
# Convention : Reuss Voigt Hill
#
# Bulk Modulus (GPa) = 64.17775 64.48086 64.32931
# Shear Modulus (GPa) = 26.68125 28.37462 27.52794
#
# Velocity S-wave (km/s) = 3.85848 3.97904 3.91922
# Velocity P-wave (km/s) = 7.46062 7.55579 7.50836
#
# Compressibility (1/GPa) = 0.01558172
#
# Stress axis : x y z
#
# Youngs Moduli (GPa) = 75.61936 74.19465 92.18479
#
# Poissons Ratio (x) = 0.38041 0.32101
# Poissons Ratio (y) = 0.38772 0.21891
# Poissons Ratio (z) = 0.26332 0.17619
#
# Static dielectric constant tensor:
#      x y z
#    x 3.250740 0.000000 -0.064640 
#    y 0.000000 3.590590 0.000000 
#    z -0.064640 0.000000 3.469620 
# 
# 
# High freq. dielectric constant tensor:
#      x y z
#    x 1.677500 0.000000 0.001400 
#    y 0.000000 1.688520 0.000000 
#    z 0.001400 0.000000 1.701180 
# 
# From -- ./inp_files/189524.got.cif
#   From: 2010.06.25/outbox.cif.g09.slc.cpg/sg12_95_cif.got.tgz:189524.got - 2010.06.28 00:19:55.
