data_PCOD8086631
_publ_section_title
;
Structure prediction by ZEFSAII (Michael W. Deem and Ramdas Pophale) SiO2 
 PCOD8086631
Probable space group: C 2/M
;
_chemical_formula_sum "Si O2"
_cell_formula_units_Z 56
_cell_length_a 19.701767
_cell_length_b 8.983520
_cell_length_c 18.313089
_cell_angle_alpha 90.000000
_cell_angle_beta 75.524645
_cell_angle_gamma 90.000000
_cell_volume 3138.363061
_symmetry_space_group_name_H-M "C 2/M"
_symmetry_group_IT_number 12
_symmetry_cell_setting 'monoclinic'
loop_
_space_group_symop_operation_xyz
x,y,z
-x,y,-z
-x,-y,-z
x,-y,z
1/2+x,1/2+y,z
1/2-x,1/2+y,-z
1/2-x,1/2-y,-z
1/2+x,1/2-y,z
loop_
_atom_site_type_symbol
_atom_site_label
_atom_site_fract_x
_atom_site_fract_y
_atom_site_fract_z
Si Si1 0.211031 0.675663 0.344360
Si Si2 0.180051 0.825695 0.491248
Si Si3 0.540672 0.827877 0.063685
Si Si4 0.134954 0.826281 0.656083
Si Si5 0.994845 0.824229 0.217582
Si Si6 0.816774 0.827666 0.948335
Si Si7 0.352115 0.669451 0.774230
O O1 0.207136 0.500000 0.355373
O O2 0.159815 0.750144 0.419443
O O3 0.290547 0.736625 0.334570
O O4 0.184851 0.720009 0.271825
O O5 0.250000 0.750000 0.500000
O O6 0.124141 0.796489 0.571787
O O7 0.191868 0.000000 0.475890
O O8 0.493719 0.757797 0.140404
O O9 0.614519 0.745870 0.035990
O O10 0.554337 0.000000 0.077532
O O11 0.500000 0.804425 0.000000
O O12 0.069646 0.757487 0.717864
O O13 0.135051 0.000000 0.671704
O O14 0.066109 0.788267 0.241940
O O15 0.989387 0.000000 0.204364
O O16 0.814836 0.806946 0.861816
O O17 0.817158 0.000000 0.969945
O O18 0.750000 0.750000 0.000000
O O19 0.343184 0.500000 0.749541
#
# Coordination Sequence:
#
# PCOD8086631 Si02
#       7
#     8   8   8   8   8   8   8
#     4  10  19  31  50  75 101 131 168 208 249 298
#     4   9  16  29  49  72 100 131 164 206 254 300
#     4  10  21  36  53  76 106 137 171 212 256 305
#     4   8  16  31  51  74  96 124 166 209 247 293
#     4   9  18  35  55  73  97 130 170 211 252 303
#     4  10  21  37  57  79 104 136 173 213 258 308
#     4   9  19  34  51  72  99 131 164 202 250 300
#
# _framework density 17.843696000000001
#
# number of rings (size 3 to 8) (size 9 to 14) (size 15 to 20)
#    0.000    2.714    0.000    3.429    0.000    5.143 
#    0.000    7.857    0.000    4.286    0.000    0.000 
#    0.000    0.000    0.000    0.000    0.000    0.000 
#
# Total GULP energy -347097.440910 kJ/mol
# GULP energy per Si atom -12396.337175 kJ/mol
# Density = 1.780308 g / cm^3
# Si number density = 17.843696 Si / 1000 Ang^3
#
#
#
# Elastic Constant Matrix: (Units=GPa)
#
#
# Indices 1 2 3 4 5 6 
#
# 1 85.9565 46.9786 74.7282 0.0000 -13.8350 0.0000
# 2 46.9786 95.6597 61.5274 0.0000 -2.4820 0.0000
# 3 74.7282 61.5274 122.1894 0.0000 -13.9439 0.0000
# 4 0.0000 0.0000 0.0000 35.1032 0.0000 3.8980
# 5 -13.8350 -2.4820 -13.9439 0.0000 31.9519 0.0000
# 6 0.0000 0.0000 0.0000 3.8980 0.0000 24.7893
#
#
#
# Elastic Compliance Matrix: (Units=1/GPa)
#
#
# Indices 1 2 3 4 5 6 
#
# 1 0.026512 -0.004202 -0.013498 0.000000 0.005263 0.000000
# 2 -0.004202 0.016291 -0.005995 0.000000 -0.003170 0.000000
# 3 -0.013498 -0.005995 0.019720 0.000000 0.002296 0.000000
# 4 0.000000 0.000000 0.000000 0.028994 0.000000 -0.004559
# 5 0.005263 -0.003170 0.002296 0.000000 0.034331 0.000000
# 6 0.000000 0.000000 0.000000 -0.004559 0.000000 0.041057
#
#
# Mechanical properties :
#
#
# Convention : Reuss Voigt Hill
#
# Bulk Modulus (GPa) = 66.08043 74.47488 70.27766
# Shear Modulus (GPa) = 22.79583 26.40697 24.60140
#
# Velocity S-wave (km/s) = 3.57813 3.85113 3.71714
# Velocity P-wave (km/s) = 7.36098 7.84875 7.60877
#
# Compressibility (1/GPa) = 0.01513307
#
# Stress axis : x y z
#
# Youngs Moduli (GPa) = 37.71899 61.38323 50.71074
#
# Poissons Ratio (x) = 0.25793 0.68448
# Poissons Ratio (y) = 0.15849 0.30402
# Poissons Ratio (z) = 0.50912 0.36801
#
# Static dielectric constant tensor:
#      x y z
#    x 3.297040 0.000000 -0.272880 
#    y 0.000000 3.319060 0.000000 
#    z -0.272880 0.000000 3.687220 
# 
# 
# High freq. dielectric constant tensor:
#      x y z
#    x 1.669540 0.000000 -0.004800 
#    y 0.000000 1.688320 0.000000 
#    z -0.004800 0.000000 1.702010 
# 
# From -- ./inp_files/280207.got.cif
#   From: 2010.06.25/outbox.cif.g09.slc.cpg/sg12_141_cif.got.tgz:280207.got - 2010.06.28 00:19:55.
