data_PCOD8086286
_publ_section_title
;
Structure prediction by ZEFSAII (Michael W. Deem and Ramdas Pophale) SiO2 
 PCOD8086286
Probable space group: C 2/M
;
_chemical_formula_sum "Si O2"
_cell_formula_units_Z 64
_cell_length_a 12.829514
_cell_length_b 20.758934
_cell_length_c 26.733263
_cell_angle_alpha 90.000000
_cell_angle_beta 150.453643
_cell_angle_gamma 90.000000
_cell_volume 3510.965194
_symmetry_space_group_name_H-M "C 2/M"
_symmetry_group_IT_number 12
_symmetry_cell_setting 'monoclinic'
loop_
_space_group_symop_operation_xyz
x,y,z
-x,y,-z
-x,-y,-z
x,-y,z
1/2+x,1/2+y,z
1/2-x,1/2+y,-z
1/2-x,1/2-y,-z
1/2+x,1/2-y,z
loop_
_atom_site_type_symbol
_atom_site_label
_atom_site_fract_x
_atom_site_fract_y
_atom_site_fract_z
Si Si1 0.694601 0.292642 0.046693
Si Si2 0.813261 0.154759 0.057358
Si Si3 0.521619 0.667881 0.393275
Si Si4 0.392689 0.802167 0.724858
Si Si5 0.064940 0.692137 0.373455
Si Si6 0.433170 0.928722 0.915050
Si Si7 0.533957 0.576936 0.307081
Si Si8 0.185191 0.845964 0.282087
O O1 0.743879 0.220831 0.052127
O O2 0.900965 0.323766 0.158202
O O3 0.500000 0.287912 0.000000
O O4 0.600929 0.334153 0.962206
O O5 0.995363 0.125487 0.168457
O O6 0.608249 0.112150 0.960255
O O7 0.304538 0.659190 0.333656
O O8 0.706434 0.673355 0.510757
O O9 0.513448 0.732231 0.356504
O O10 0.564580 0.607086 0.374929
O O11 0.433172 0.823861 0.684605
O O12 0.352260 0.725694 0.712458
O O13 0.893992 0.651793 0.334555
O O14 0.198082 0.901041 0.809223
O O15 0.438822 0.000000 0.894667
O O16 0.500000 0.927576 0.000000
O O17 0.564433 0.500000 0.322397
O O18 0.702205 0.606725 0.337429
#
# Coordination Sequence:
#
# PCOD8086286 Si02
#       8
#     8   8   8   8   8   8   8   8
#     4  10  20  29  47  78 110 146 169 209 284 325
#     4  10  19  31  48  74 112 142 176 220 258 327
#     4  10  21  36  56  81 107 142 188 233 282 327
#     4  10  19  34  55  78 110 142 183 233 274 329
#     4  10  20  35  57  80 107 141 185 236 282 336
#     4  10  19  31  52  76 101 142 183 213 249 307
#     4  11  22  37  56  82 117 148 183 227 277 333
#     4  10  20  32  52  81 112 145 181 224 281 330
#
# _framework density 18.228605000000002
#
# number of rings (size 3 to 8) (size 9 to 14) (size 15 to 20)
#    0.000    1.875    2.500    2.250    1.750    2.500 
#    0.000    1.250    0.000    2.625    0.000    0.000 
#    0.000    0.000    0.000    0.000    0.000    0.000 
#
# Total GULP energy -396642.718450 kJ/mol
# GULP energy per Si atom -12395.084952 kJ/mol
# Density = 1.818712 g / cm^3
# Si number density = 18.228605 Si / 1000 Ang^3
#
#
#
# Elastic Constant Matrix: (Units=GPa)
#
#
# Indices 1 2 3 4 5 6 
#
# 1 151.9231 38.2917 41.6186 -0.0003 6.9531 0.0002
# 2 38.2917 54.0863 14.8505 -0.0007 0.6068 -0.0002
# 3 41.6186 14.8505 67.4644 0.0017 6.8725 -0.0003
# 4 -0.0003 -0.0007 0.0017 19.9409 0.0002 -1.0127
# 5 6.9531 0.6068 6.8725 0.0002 35.4246 0.0000
# 6 0.0002 -0.0002 -0.0003 -1.0127 0.0000 19.5799
#
#
#
# Elastic Compliance Matrix: (Units=1/GPa)
#
#
# Indices 1 2 3 4 5 6 
#
# 1 0.009153 -0.005262 -0.004402 0.000000 -0.000853 0.000000
# 2 -0.005262 0.022713 -0.001856 0.000001 0.001004 0.000000
# 3 -0.004402 -0.001856 0.018215 -0.000002 -0.002638 0.000000
# 4 0.000000 0.000001 -0.000002 0.050280 0.000000 0.002601
# 5 -0.000853 0.001004 -0.002638 0.000000 0.028891 0.000000
# 6 0.000000 0.000000 0.000000 0.002601 0.000000 0.051207
#
#
# Mechanical properties :
#
#
# Convention : Reuss Voigt Hill
#
# Bulk Modulus (GPa) = 36.97878 51.44392 44.21135
# Shear Modulus (GPa) = 23.52801 26.90328 25.21564
#
# Velocity S-wave (km/s) = 3.59656 3.84589 3.72331
# Velocity P-wave (km/s) = 6.13002 6.92849 6.54145
#
# Compressibility (1/GPa) = 0.02704253
#
# Stress axis : x y z
#
# Youngs Moduli (GPa) = 109.24898 44.02814 54.89946
#
# Poissons Ratio (x) = 0.23169 0.24164
# Poissons Ratio (y) = 0.57490 0.10187
# Poissons Ratio (z) = 0.48086 0.08170
#
# Static dielectric constant tensor:
#      x y z
#    x 3.796750 0.000010 -0.074480 
#    y 0.000010 3.142880 0.000000 
#    z -0.074480 0.000000 3.558220 
# 
# 
# High freq. dielectric constant tensor:
#      x y z
#    x 1.716000 0.000000 -0.000230 
#    y 0.000000 1.662150 0.000000 
#    z -0.000230 0.000000 1.714660 
# 
# From -- ./inp_files/178444.got.cif
#   From: 2010.06.25/outbox.cif.g09.slc.cpg/sg12_90_cif.got.tgz:178444.got - 2010.06.28 00:19:55.
