data_PCOD8086447
_publ_section_title
;
Structure prediction by ZEFSAII (Michael W. Deem and Ramdas Pophale) SiO2 
 PCOD8086447
Probable space group: C 2/M
;
_chemical_formula_sum "Si O2"
_cell_formula_units_Z 56
_cell_length_a 30.536804
_cell_length_b 9.079192
_cell_length_c 19.573028
_cell_angle_alpha 90.000000
_cell_angle_beta 143.547229
_cell_angle_gamma 90.000000
_cell_volume 3224.275803
_symmetry_space_group_name_H-M "C 2/M"
_symmetry_group_IT_number 12
_symmetry_cell_setting 'monoclinic'
loop_
_space_group_symop_operation_xyz
x,y,z
-x,y,-z
-x,-y,-z
x,-y,z
1/2+x,1/2+y,z
1/2-x,1/2+y,-z
1/2-x,1/2-y,-z
1/2+x,1/2-y,z
loop_
_atom_site_type_symbol
_atom_site_label
_atom_site_fract_x
_atom_site_fract_y
_atom_site_fract_z
Si Si1 0.795251 0.828994 0.498110
Si Si2 0.728162 0.170247 0.272341
Si Si3 0.600963 0.328326 0.896304
Si Si4 0.687297 0.327127 0.878096
Si Si5 0.445981 0.328063 0.751012
Si Si6 0.569527 0.830186 0.128732
Si Si7 0.753480 0.825039 0.843585
O O1 0.750000 0.750000 0.500000
O O2 0.770875 0.772288 0.393062
O O3 0.882424 0.798505 0.615386
O O4 0.775390 0.000000 0.479669
O O5 0.641052 0.193027 0.172072
O O6 0.755240 0.271199 0.244476
O O7 0.746856 0.000000 0.280337
O O8 0.597101 0.500000 0.906246
O O9 0.613165 0.300846 0.830107
O O10 0.522916 0.256972 0.820712
O O11 0.668661 0.266683 0.027203
O O12 0.703596 0.500000 0.889820
O O13 0.686282 0.248150 0.802881
O O14 0.750000 0.250000 0.000000
O O15 0.455354 0.500000 0.776564
O O16 0.420198 0.255957 0.788592
O O17 0.557020 0.000000 0.131706
O O18 0.500000 0.766259 0.000000
O O19 0.746218 0.000000 0.838504
#
# Coordination Sequence:
#
# PCOD8086447 Si02
#       7
#     8   8   8   8   8   8   8
#     4  10  20  34  52  70  92 126 168 208 244 284
#     4  10  20  33  47  67  97 128 162 202 241 288
#     4   8  16  30  48  73 101 124 154 197 240 286
#     4   9  16  29  49  72 101 132 159 194 239 289
#     4  10  19  32  51  72  94 125 164 203 240 284
#     4  10  20  32  46  68 100 132 158 192 243 295
#     4  10  19  31  49  74 100 127 161 200 243 292
#
# _framework density 17.36824
#
# number of rings (size 3 to 8) (size 9 to 14) (size 15 to 20)
#    0.000    2.429    1.429    2.571    0.000    1.429 
#    0.000    3.571    0.000    0.857    0.000    6.000 
#    0.000    0.000    0.000    0.000    0.000    0.000 
#
# Total GULP energy -347088.624124 kJ/mol
# GULP energy per Si atom -12396.022290 kJ/mol
# Density = 1.732871 g / cm^3
# Si number density = 17.368240 Si / 1000 Ang^3
#
#
#
# Elastic Constant Matrix: (Units=GPa)
#
#
# Indices 1 2 3 4 5 6 
#
# 1 98.6257 38.2611 30.4051 0.0000 -26.1045 0.0000
# 2 38.2611 57.0268 24.3076 0.0000 -12.6607 0.0000
# 3 30.4051 24.3076 81.0715 0.0000 -21.6987 0.0000
# 4 0.0000 0.0000 0.0000 20.0557 0.0000 -8.5937
# 5 -26.1045 -12.6607 -21.6987 0.0000 24.4686 0.0000
# 6 0.0000 0.0000 0.0000 -8.5937 0.0000 27.4839
#
#
#
# Elastic Compliance Matrix: (Units=1/GPa)
#
#
# Indices 1 2 3 4 5 6 
#
# 1 0.017058 -0.008302 -0.000245 0.000000 0.013685 0.000000
# 2 -0.008302 0.025001 -0.004315 0.000000 0.000253 0.000000
# 3 -0.000245 -0.004315 0.017115 0.000000 0.012683 0.000000
# 4 0.000000 0.000000 0.000000 0.057575 0.000000 0.018003
# 5 0.013685 0.000253 0.012683 0.000000 0.066847 0.000000
# 6 0.000000 0.000000 0.000000 0.018003 0.000000 0.042014
#
#
# Mechanical properties :
#
#
# Convention : Reuss Voigt Hill
#
# Bulk Modulus (GPa) = 29.89552 46.96352 38.42952
# Shear Modulus (GPa) = 19.04874 23.98496 21.51685
#
# Velocity S-wave (km/s) = 3.31532 3.72017 3.52357
# Velocity P-wave (km/s) = 5.64848 6.74918 6.22321
#
# Compressibility (1/GPa) = 0.03344982
#
# Stress axis : x y z
#
# Youngs Moduli (GPa) = 58.62418 39.99865 58.42748
#
# Poissons Ratio (x) = 0.33206 0.01434
# Poissons Ratio (y) = 0.48668 0.25210
# Poissons Ratio (z) = 0.01439 0.17259
#
# Static dielectric constant tensor:
#      x y z
#    x 3.509750 0.000000 0.091190 
#    y 0.000000 3.147370 0.000000 
#    z 0.091190 0.000000 3.274060 
# 
# 
# High freq. dielectric constant tensor:
#      x y z
#    x 1.675680 0.000000 -0.007240 
#    y 0.000000 1.660130 0.000000 
#    z -0.007240 0.000000 1.649210 
# 
# From -- ./inp_files/287879.got.cif
#   From: 2010.06.25/outbox.cif.g09.slc.cpg/sg12_144_cif.got.tgz:287879.got - 2010.06.28 00:19:55.
