data_PCOD8086620
_publ_section_title
;
Structure prediction by ZEFSAII (Michael W. Deem and Ramdas Pophale) SiO2 
 PCOD8086620
Probable space group: C 2/M
;
_chemical_formula_sum "Si O2"
_cell_formula_units_Z 32
_cell_length_a 22.919265
_cell_length_b 8.836705
_cell_length_c 14.167344
_cell_angle_alpha 90.000000
_cell_angle_beta 137.534780
_cell_angle_gamma 90.000000
_cell_volume 1937.202200
_symmetry_space_group_name_H-M "C 2/M"
_symmetry_group_IT_number 12
_symmetry_cell_setting 'monoclinic'
loop_
_space_group_symop_operation_xyz
x,y,z
-x,y,-z
-x,-y,-z
x,-y,z
1/2+x,1/2+y,z
1/2-x,1/2+y,-z
1/2-x,1/2-y,-z
1/2+x,1/2-y,z
loop_
_atom_site_type_symbol
_atom_site_label
_atom_site_fract_x
_atom_site_fract_y
_atom_site_fract_z
Si Si1 0.327229 0.171471 0.038397
Si Si2 0.008925 0.178534 0.819994
Si Si3 0.164767 0.679242 0.355887
Si Si4 0.617478 0.171272 0.093207
O O1 0.310104 0.176945 0.904286
O O2 0.335744 0.000000 0.085108
O O3 0.250000 0.250000 0.000000
O O4 0.418328 0.258722 0.166404
O O5 0.917108 0.253740 0.685283
O O6 0.001948 0.000000 0.803362
O O7 0.035213 0.229558 0.958693
O O8 0.167590 0.500000 0.370431
O O9 0.250000 0.750000 0.500000
O O10 0.158769 0.731965 0.239171
O O11 0.583754 0.000000 0.066596
#
# Coordination Sequence:
#
# PCOD8086620 Si02
#       4
#     8   8   8   8
#     4   9  17  31  50  75  99 126 161 204 246 286
#     4  10  19  31  50  75 100 129 164 203 242 288
#     4  11  21  34  49  71 102 135 164 200 246 293
#     4   8  18  33  50  70 100 131 160 200 248 290
#
# _framework density 16.518668000000002
#
# number of rings (size 3 to 8) (size 9 to 14) (size 15 to 20)
#    1.500    1.000    0.000    3.750    0.000    5.000 
#    0.000    0.000    0.000    1.500    0.000   10.500 
#    0.000    0.000    0.000    0.000    0.000    0.000 
#
# Total GULP energy -198213.893477 kJ/mol
# GULP energy per Si atom -12388.368342 kJ/mol
# Density = 1.648107 g / cm^3
# Si number density = 16.518668 Si / 1000 Ang^3
#
#
#
# Elastic Constant Matrix: (Units=GPa)
#
#
# Indices 1 2 3 4 5 6 
#
# 1 72.3639 34.2565 50.9557 0.0000 28.7846 0.0000
# 2 34.2565 123.9563 58.9553 0.0000 19.1810 0.0000
# 3 50.9557 58.9553 123.4493 0.0000 26.4852 0.0000
# 4 0.0000 0.0000 0.0000 30.1132 0.0000 5.9978
# 5 28.7846 19.1810 26.4852 0.0000 25.8252 0.0000
# 6 0.0000 0.0000 0.0000 5.9978 0.0000 25.7322
#
#
#
# Elastic Compliance Matrix: (Units=1/GPa)
#
#
# Indices 1 2 3 4 5 6 
#
# 1 0.028307 -0.001249 -0.005792 0.000000 -0.024684 0.000000
# 2 -0.001249 0.010729 -0.004100 0.000000 -0.002373 0.000000
# 3 -0.005792 -0.004100 0.013348 0.000000 -0.004188 0.000000
# 4 0.000000 0.000000 0.000000 0.034825 0.000000 -0.008117
# 5 -0.024684 -0.002373 -0.004188 0.000000 0.072292 0.000000
# 6 0.000000 0.000000 0.000000 -0.008117 0.000000 0.040754
#
#
# Mechanical properties :
#
#
# Convention : Reuss Voigt Hill
#
# Bulk Modulus (GPa) = 33.21867 67.56715 50.39291
# Shear Modulus (GPa) = 21.49891 28.04090 24.76991
#
# Velocity S-wave (km/s) = 3.61153 4.12458 3.87655
# Velocity P-wave (km/s) = 6.12734 7.97967 7.11405
#
# Compressibility (1/GPa) = 0.03010356
#
# Stress axis : x y z
#
# Youngs Moduli (GPa) = 35.32651 93.20179 74.91951
#
# Poissons Ratio (x) = 0.11637 0.43396
# Poissons Ratio (y) = 0.04411 0.30713
# Poissons Ratio (z) = 0.20462 0.38208
#
# Static dielectric constant tensor:
#      x y z
#    x 3.037880 0.000000 0.090260 
#    y 0.000000 3.109700 0.000000 
#    z 0.090260 0.000000 2.914530 
# 
# 
# High freq. dielectric constant tensor:
#      x y z
#    x 1.621530 0.000000 0.021790 
#    y 0.000000 1.648170 0.000000 
#    z 0.021790 0.000000 1.605540 
# 
# From -- ./inp_files/151059.got.cif
#   From: 2010.06.25/outbox.cif.g09.slc.cpg/sg12_76_cif.got.tgz:151059.got - 2010.06.28 00:19:55.
