data_PCOD8086487
_publ_section_title
;
Structure prediction by ZEFSAII (Michael W. Deem and Ramdas Pophale) SiO2 
 PCOD8086487
Probable space group: C 2/M
;
_chemical_formula_sum "Si O2"
_cell_formula_units_Z 64
_cell_length_a 28.152955
_cell_length_b 9.662651
_cell_length_c 28.802606
_cell_angle_alpha 90.000000
_cell_angle_beta 151.963621
_cell_angle_gamma 90.000000
_cell_volume 3682.812124
_symmetry_space_group_name_H-M "C 2/M"
_symmetry_group_IT_number 12
_symmetry_cell_setting 'monoclinic'
loop_
_space_group_symop_operation_xyz
x,y,z
-x,y,-z
-x,-y,-z
x,-y,z
1/2+x,1/2+y,z
1/2-x,1/2+y,-z
1/2-x,1/2-y,-z
1/2+x,1/2-y,z
loop_
_atom_site_type_symbol
_atom_site_label
_atom_site_fract_x
_atom_site_fract_y
_atom_site_fract_z
Si Si1 0.433573 0.341609 0.309800
Si Si2 0.101133 0.647432 0.469864
Si Si3 0.603274 0.838050 0.898423
Si Si4 0.208186 0.852777 0.426817
Si Si5 0.826429 0.158152 0.124001
Si Si6 0.922590 0.163596 0.769068
Si Si7 0.268588 0.162006 0.334489
Si Si8 0.896808 0.838157 0.383950
O O1 0.465505 0.500000 0.336787
O O2 0.534561 0.257247 0.384492
O O3 0.350624 0.308903 0.198841
O O4 0.400556 0.296597 0.332821
O O5 0.042309 0.500000 0.422573
O O6 0.204952 0.618023 0.534394
O O7 0.135704 0.699084 0.550176
O O8 0.612096 0.762741 0.856040
O O9 0.520991 0.760154 0.859864
O O10 0.575483 0.000000 0.867155
O O11 0.707309 0.820821 0.015894
O O12 0.250000 0.750000 0.500000
O O13 0.114731 0.798259 0.315476
O O14 0.179309 0.000000 0.425818
O O15 0.857265 0.000000 0.137840
O O16 0.839440 0.204771 0.736269
O O17 0.948311 0.000000 0.794978
O O18 0.296723 0.255264 0.314421
O O19 0.266757 0.000000 0.320017
O O20 0.000000 0.796531 0.500000
O O21 0.875344 0.000000 0.371992
#
# Coordination Sequence:
#
# PCOD8086487 Si02
#       8
#     8   8   8   8   8   8   8   8
#     4  10  20  33  50  72 100 135 165 200 252 301
#     4   9  18  31  45  66  98 130 165 204 237 282
#     4  10  20  35  56  79  99 127 170 215 255 300
#     4   9  19  32  44  64  96 131 164 200 241 289
#     4   9  20  37  54  74 103 134 166 206 257 310
#     4   9  19  35  52  71  99 134 168 204 252 303
#     4   9  18  33  51  71  99 136 171 201 241 296
#     4  10  19  31  49  75 104 132 168 210 247 290
#
# _framework density 17.378025999999998
#
# number of rings (size 3 to 8) (size 9 to 14) (size 15 to 20)
#    0.000    2.625    1.250    1.875    1.750    3.250 
#    0.000    2.500    0.000    0.750    0.000    5.250 
#    0.000    0.000    0.000    0.000    0.000    0.000 
#
# Total GULP energy -396486.058023 kJ/mol
# GULP energy per Si atom -12390.189313 kJ/mol
# Density = 1.733847 g / cm^3
# Si number density = 17.378026 Si / 1000 Ang^3
#
#
#
# Elastic Constant Matrix: (Units=GPa)
#
#
# Indices 1 2 3 4 5 6 
#
# 1 65.6301 41.9942 41.2198 -0.0011 1.7191 -0.0002
# 2 41.9942 75.8694 42.0895 -0.0010 8.9609 -0.0003
# 3 41.2198 42.0895 74.7619 -0.0016 -0.3564 -0.0003
# 4 -0.0011 -0.0010 -0.0016 24.8152 -0.0004 5.6864
# 5 1.7191 8.9609 -0.3564 -0.0004 26.6219 0.0000
# 6 -0.0002 -0.0003 -0.0003 5.6864 0.0000 30.5563
#
#
#
# Elastic Compliance Matrix: (Units=1/GPa)
#
#
# Indices 1 2 3 4 5 6 
#
# 1 0.027731 -0.010255 -0.009508 0.000000 0.001534 0.000000
# 2 -0.010255 0.024192 -0.008002 0.000000 -0.007588 0.000000
# 3 -0.009508 -0.008002 0.023140 0.000001 0.003617 0.000000
# 4 0.000000 0.000000 0.000001 0.042093 0.000001 -0.007833
# 5 0.001534 -0.007588 0.003617 0.000001 0.040067 0.000000
# 6 0.000000 0.000000 0.000000 -0.007833 0.000000 0.034184
#
#
# Mechanical properties :
#
#
# Convention : Reuss Voigt Hill
#
# Bulk Modulus (GPa) = 51.19716 51.87426 51.53571
# Shear Modulus (GPa) = 19.72794 22.46255 21.09524
#
# Velocity S-wave (km/s) = 3.37296 3.59915 3.48789
# Velocity P-wave (km/s) = 6.68536 6.86929 6.77795
#
# Compressibility (1/GPa) = 0.01953233
#
# Stress axis : x y z
#
# Youngs Moduli (GPa) = 36.06135 41.33567 43.21496
#
# Poissons Ratio (x) = 0.42391 0.41090
# Poissons Ratio (y) = 0.36982 0.34579
# Poissons Ratio (z) = 0.34288 0.33075
#
# Static dielectric constant tensor:
#      x y z
#    x 2.428730 0.000000 0.276430 
#    y 0.000000 3.295990 0.000000 
#    z 0.276430 0.000000 2.993440 
# 
# 
# High freq. dielectric constant tensor:
#      x y z
#    x 1.662170 0.000000 0.005710 
#    y 0.000000 1.677680 0.000000 
#    z 0.005710 0.000000 1.648300 
# 
# From -- ./inp_files/384613.got.cif
#   From: 2010.06.25/outbox.cif.g09.slc.cpg/sg12_193_cif.got.tgz:384613.got - 2010.06.28 00:19:55.
