data_PCOD8086329
_publ_section_title
;
Structure prediction by ZEFSAII (Michael W. Deem and Ramdas Pophale) SiO2 
 PCOD8086329
Probable space group: C 2/M
;
_chemical_formula_sum "Si O2"
_cell_formula_units_Z 56
_cell_length_a 22.804576
_cell_length_b 9.286992
_cell_length_c 14.675778
_cell_angle_alpha 90.000000
_cell_angle_beta 75.675369
_cell_angle_gamma 90.000000
_cell_volume 3011.489842
_symmetry_space_group_name_H-M "C 2/M"
_symmetry_group_IT_number 12
_symmetry_cell_setting 'monoclinic'
loop_
_space_group_symop_operation_xyz
x,y,z
-x,y,-z
-x,-y,-z
x,-y,z
1/2+x,1/2+y,z
1/2-x,1/2+y,-z
1/2-x,1/2-y,-z
1/2+x,1/2-y,z
loop_
_atom_site_type_symbol
_atom_site_label
_atom_site_fract_x
_atom_site_fract_y
_atom_site_fract_z
Si Si1 0.467561 0.835231 0.153324
Si Si2 0.620522 0.166671 0.649067
Si Si3 0.068151 0.671732 0.479123
Si Si4 0.107779 0.668782 0.110568
Si Si5 0.711060 0.331984 0.731086
Si Si6 0.877502 0.168365 0.071407
Si Si7 0.154026 0.328774 0.286714
O O1 0.435328 0.806723 0.261752
O O2 0.536970 0.795365 0.140170
O O3 0.439782 0.735398 0.085476
O O4 0.459048 0.000000 0.124807
O O5 0.600267 0.226707 0.558829
O O6 0.679712 0.251693 0.658952
O O7 0.638387 0.000000 0.637161
O O8 0.066024 0.500000 0.479816
O O9 0.106307 0.731425 0.378839
O O10 0.000000 0.733593 0.500000
O O11 0.120242 0.500000 0.091870
O O12 0.136136 0.726952 0.193597
O O13 0.139665 0.756167 0.017017
O O14 0.709627 0.500000 0.709101
O O15 0.676883 0.298255 0.838477
O O16 0.779126 0.272969 0.714063
O O17 0.887257 0.000000 0.052251
O O18 0.152368 0.500000 0.287767
#
# Coordination Sequence:
#
# PCOD8086329 Si02
#       7
#     8   8   8   8   8   8   8
#     4   9  17  30  48  72  99 123 153 196 243 287
#     4   9  17  30  51  76  99 124 156 197 238 276
#     4   9  16  28  50  79 103 122 152 196 241 282
#     4  10  19  31  49  71  94 124 161 200 242 283
#     4   9  19  35  50  67  96 132 164 192 232 286
#     4  10  20  32  47  68  95 128 163 197 235 283
#     4   9  18  32  49  69  96 129 161 194 235 285
#
# _framework density 18.595447
#
# number of rings (size 3 to 8) (size 9 to 14) (size 15 to 20)
#    0.000    2.714    0.000    1.714    0.000    7.429 
#    0.000    0.714    0.000    1.286    0.000    0.000 
#    0.000    0.000    0.000    0.000    0.000    0.000 
#
# Total GULP energy -347245.341895 kJ/mol
# GULP energy per Si atom -12401.619353 kJ/mol
# Density = 1.855312 g / cm^3
# Si number density = 18.595447 Si / 1000 Ang^3
#
#
#
# Elastic Constant Matrix: (Units=GPa)
#
#
# Indices 1 2 3 4 5 6 
#
# 1 154.7560 41.1721 81.1927 0.0000 9.0076 0.0000
# 2 41.1721 42.4126 41.6032 0.0000 6.2231 0.0000
# 3 81.1927 41.6032 131.2728 0.0000 28.0355 0.0000
# 4 0.0000 0.0000 0.0000 17.9877 0.0000 2.7288
# 5 9.0076 6.2231 28.0355 0.0000 30.7944 0.0000
# 6 0.0000 0.0000 0.0000 2.7288 0.0000 21.3985
#
#
#
# Elastic Compliance Matrix: (Units=1/GPa)
#
#
# Indices 1 2 3 4 5 6 
#
# 1 0.010590 -0.005323 -0.005501 0.000000 0.002986 0.000000
# 2 -0.005323 0.037227 -0.008977 0.000000 0.002207 0.000000
# 3 -0.005501 -0.008977 0.016304 0.000000 -0.011420 0.000000
# 4 0.000000 0.000000 0.000000 0.056690 0.000000 -0.007229
# 5 0.002986 0.002207 -0.011420 0.000000 0.041551 0.000000
# 6 0.000000 0.000000 0.000000 -0.007229 0.000000 0.047654
#
#
# Mechanical properties :
#
#
# Convention : Reuss Voigt Hill
#
# Bulk Modulus (GPa) = 40.78366 72.93083 56.85724
# Shear Modulus (GPa) = 19.39553 25.00101 22.19827
#
# Velocity S-wave (km/s) = 3.23309 3.67068 3.45881
# Velocity P-wave (km/s) = 5.99307 7.56770 6.82594
#
# Compressibility (1/GPa) = 0.02451963
#
# Stress axis : x y z
#
# Youngs Moduli (GPa) = 94.42828 26.86224 61.33416
#
# Poissons Ratio (x) = 0.14298 0.33739
# Poissons Ratio (y) = 0.50260 0.55062
# Poissons Ratio (z) = 0.51944 0.24115
#
# Static dielectric constant tensor:
#      x y z
#    x 3.495980 0.000000 0.042880 
#    y 0.000000 3.082290 0.000000 
#    z 0.042880 0.000000 3.582610 
# 
# 
# High freq. dielectric constant tensor:
#      x y z
#    x 1.723960 0.000000 0.003250 
#    y 0.000000 1.680610 0.000000 
#    z 0.003250 0.000000 1.731680 
# 
# From -- ./inp_files/237322.got.cif
#   From: 2010.06.25/outbox.cif.g09.slc.cpg/sg12_119_cif.got.tgz:237322.got - 2010.06.28 00:19:55.
