data_PCOD8086476
_publ_section_title
;
Structure prediction by ZEFSAII (Michael W. Deem and Ramdas Pophale) SiO2 
 PCOD8086476
Probable space group: C 2/M
;
_chemical_formula_sum "Si O2"
_cell_formula_units_Z 48
_cell_length_a 27.330745
_cell_length_b 8.912624
_cell_length_c 20.735101
_cell_angle_alpha 90.000000
_cell_angle_beta 32.462027
_cell_angle_gamma 90.000000
_cell_volume 2710.988034
_symmetry_space_group_name_H-M "C 2/M"
_symmetry_group_IT_number 12
_symmetry_cell_setting 'monoclinic'
loop_
_space_group_symop_operation_xyz
x,y,z
-x,y,-z
-x,-y,-z
x,-y,z
1/2+x,1/2+y,z
1/2-x,1/2+y,-z
1/2-x,1/2-y,-z
1/2+x,1/2-y,z
loop_
_atom_site_type_symbol
_atom_site_label
_atom_site_fract_x
_atom_site_fract_y
_atom_site_fract_z
Si Si1 0.524413 0.674868 0.236463
Si Si2 0.816434 0.823521 0.476898
Si Si3 0.304371 0.176688 0.998954
Si Si4 0.287504 0.170885 0.781054
Si Si5 0.823293 0.326859 0.601332
Si Si6 0.028689 0.668545 0.359475
O O1 0.537536 0.500000 0.208529
O O2 0.419448 0.725593 0.344039
O O3 0.590891 0.766687 0.115237
O O4 0.555144 0.712830 0.274881
O O5 0.750000 0.750000 0.500000
O O6 0.788967 0.770669 0.579252
O O7 0.805265 0.000000 0.486465
O O8 0.300602 0.000000 0.993465
O O9 0.250000 0.250000 0.000000
O O10 0.263257 0.218793 0.113958
O O11 0.268116 0.216361 0.727988
O O12 0.396691 0.183342 0.667706
O O13 0.255380 0.000000 0.830020
O O14 0.806536 0.500000 0.602524
O O15 0.929483 0.294855 0.497855
O O16 0.030422 0.500000 0.327781
#
# Coordination Sequence:
#
# PCOD8086476 Si02
#       6
#     8   8   8   8   8   8
#     4  10  20  34  52  77 106 137 177 220 261 307
#     4  10  21  37  59  83 106 133 170 220 272 319
#     4  12  23  34  50  73 106 147 185 219 255 303
#     4  10  19  31  49  74 107 145 179 212 254 307
#     4   9  18  32  51  77 107 138 174 214 261 316
#     4   9  16  28  48  73 104 141 176 210 251 304
#
# _framework density 17.705722000000002
#
# number of rings (size 3 to 8) (size 9 to 14) (size 15 to 20)
#    0.000    2.000    1.667    3.000    0.000    4.667 
#    0.000    0.000    0.000    6.000    0.000    7.000 
#    0.000    0.000    0.000    0.000    0.000    0.000 
#
# Total GULP energy -297536.889350 kJ/mol
# GULP energy per Si atom -12397.370390 kJ/mol
# Density = 1.766542 g / cm^3
# Si number density = 17.705722 Si / 1000 Ang^3
#
#
#
# Elastic Constant Matrix: (Units=GPa)
#
#
# Indices 1 2 3 4 5 6 
#
# 1 103.8513 46.5502 52.9405 -0.0023 8.9854 0.0010
# 2 46.5502 92.2593 47.2362 0.0039 6.8131 -0.0028
# 3 52.9405 47.2362 89.0556 -0.0033 16.8747 0.0007
# 4 -0.0023 0.0039 -0.0033 28.7756 0.0012 3.7317
# 5 8.9854 6.8131 16.8747 0.0012 21.1459 0.0004
# 6 0.0010 -0.0028 0.0007 3.7317 0.0004 26.1962
#
#
#
# Elastic Compliance Matrix: (Units=1/GPa)
#
#
# Indices 1 2 3 4 5 6 
#
# 1 0.014861 -0.004072 -0.006746 0.000001 0.000381 -0.000001
# 2 -0.004072 0.016052 -0.006411 -0.000004 0.001674 0.000003
# 3 -0.006746 -0.006411 0.020859 0.000003 -0.011714 -0.000001
# 4 0.000001 -0.000004 0.000003 0.035406 -0.000004 -0.005044
# 5 0.000381 0.001674 -0.011714 -0.000004 0.055937 0.000000
# 6 -0.000001 0.000003 -0.000001 -0.005044 0.000000 0.038892
#
#
# Mechanical properties :
#
#
# Convention : Reuss Voigt Hill
#
# Bulk Modulus (GPa) = 57.75818 64.29111 61.02464
# Shear Modulus (GPa) = 22.49851 24.45282 23.47566
#
# Velocity S-wave (km/s) = 3.56854 3.72031 3.64521
# Velocity P-wave (km/s) = 7.04779 7.40567 7.22895
#
# Compressibility (1/GPa) = 0.01731357
#
# Stress axis : x y z
#
# Youngs Moduli (GPa) = 67.29208 62.29637 47.93980
#
# Poissons Ratio (x) = 0.25367 0.32342
# Poissons Ratio (y) = 0.27402 0.30734
# Poissons Ratio (z) = 0.45398 0.39938
#
# Static dielectric constant tensor:
#      x y z
#    x 3.052600 -0.000010 0.059920 
#    y -0.000010 3.303320 0.000020 
#    z 0.059920 0.000020 3.458220 
# 
# 
# High freq. dielectric constant tensor:
#      x y z
#    x 1.656080 0.000000 0.012040 
#    y 0.000000 1.685880 0.000000 
#    z 0.012040 0.000000 1.679910 
# 
# From -- ./inp_files/323870.got.cif
#   From: 2010.06.25/outbox.cif.g09.slc.cpg/sg12_162_cif.got.tgz:323870.got - 2010.06.28 00:19:55.
