data_PCOD8086028
_publ_section_title
;
Structure prediction by ZEFSAII (Michael W. Deem and Ramdas Pophale) SiO2 
 PCOD8086028
Probable space group: C 2/M
;
_chemical_formula_sum "Si O2"
_cell_formula_units_Z 64
_cell_length_a 23.327314
_cell_length_b 8.915003
_cell_length_c 21.209702
_cell_angle_alpha 90.000000
_cell_angle_beta 121.008220
_cell_angle_gamma 90.000000
_cell_volume 3780.497430
_symmetry_space_group_name_H-M "C 2/M"
_symmetry_group_IT_number 12
_symmetry_cell_setting 'monoclinic'
loop_
_space_group_symop_operation_xyz
x,y,z
-x,y,-z
-x,-y,-z
x,-y,z
1/2+x,1/2+y,z
1/2-x,1/2+y,-z
1/2-x,1/2-y,-z
1/2+x,1/2-y,z
loop_
_atom_site_type_symbol
_atom_site_label
_atom_site_fract_x
_atom_site_fract_y
_atom_site_fract_z
Si Si1 0.438317 0.176748 0.219312
Si Si2 0.941879 0.673445 0.516849
Si Si3 0.260377 0.672658 0.921136
Si Si4 0.643694 0.328868 0.924309
Si Si5 0.558753 0.322886 0.352896
Si Si6 0.690331 0.177816 0.626499
Si Si7 0.182491 0.673826 0.761176
Si Si8 0.209617 0.823258 0.420789
O O1 0.416083 0.224847 0.135708
O O2 0.508881 0.252154 0.273875
O O3 0.381988 0.236043 0.236938
O O4 0.446662 0.000000 0.226540
O O5 0.934779 0.500000 0.532486
O O6 0.960942 0.767602 0.588948
O O7 0.873586 0.737648 0.448368
O O8 0.000000 0.697267 0.500000
O O9 0.237775 0.500000 0.923474
O O10 0.212313 0.791638 0.927309
O O11 0.250924 0.699555 0.840486
O O12 0.336816 0.696773 0.990027
O O13 0.622877 0.500000 0.900026
O O14 0.552463 0.500000 0.346211
O O15 0.633277 0.267500 0.377592
O O16 0.690734 0.250605 0.697061
O O17 0.757274 0.225396 0.627056
O O18 0.685136 0.000000 0.628868
O O19 0.168923 0.500000 0.742163
O O20 0.250000 0.750000 0.500000
O O21 0.214040 0.000000 0.433226
#
# Coordination Sequence:
#
# PCOD8086028 Si02
#       8
#     8   8   8   8   8   8   8   8
#     4  10  19  31  47  67  93 124 156 190 230 281
#     4  10  19  31  49  70  91 121 158 187 220 276
#     4   8  14  24  40  64  94 127 157 184 220 271
#     4   9  15  24  40  64  95 126 154 186 224 269
#     4  11  22  33  46  67  93 120 152 194 241 280
#     4   9  16  28  47  68  89 115 150 191 228 264
#     4   8  14  26  45  69  93 117 151 189 223 266
#     4  10  20  34  51  68  87 116 155 196 237 277
#
# _framework density 16.928989000000001
#
# number of rings (size 3 to 8) (size 9 to 14) (size 15 to 20)
#    0.000    2.625    1.250    2.625    0.000    3.250 
#    0.000    0.000    0.000    3.750    0.000    0.875 
#    0.000    7.000    0.000    0.000    0.000    0.000 
#
# Total GULP energy -396529.226839 kJ/mol
# GULP energy per Si atom -12391.538339 kJ/mol
# Density = 1.689046 g / cm^3
# Si number density = 16.928989 Si / 1000 Ang^3
#
#
#
# Elastic Constant Matrix: (Units=GPa)
#
#
# Indices 1 2 3 4 5 6 
#
# 1 70.6947 23.2304 44.1345 0.0000 16.2259 0.0000
# 2 23.2304 41.1008 28.8192 0.0000 9.7925 0.0000
# 3 44.1345 28.8192 129.0800 0.0000 27.9645 0.0000
# 4 0.0000 0.0000 0.0000 25.4478 0.0000 5.4313
# 5 16.2259 9.7925 27.9645 0.0000 18.8111 0.0000
# 6 0.0000 0.0000 0.0000 5.4313 0.0000 11.5130
#
#
#
# Elastic Compliance Matrix: (Units=1/GPa)
#
#
# Indices 1 2 3 4 5 6 
#
# 1 0.020756 -0.007101 -0.003590 0.000000 -0.008871 0.000000
# 2 -0.007101 0.032122 -0.003611 0.000000 -0.005228 0.000000
# 3 -0.003590 -0.003611 0.012837 0.000000 -0.014107 0.000000
# 4 0.000000 0.000000 0.000000 0.043696 0.000000 -0.020613
# 5 -0.008871 -0.005228 -0.014107 0.000000 0.084505 0.000000
# 6 0.000000 0.000000 0.000000 -0.020613 0.000000 0.096583
#
#
# Mechanical properties :
#
#
# Convention : Reuss Voigt Hill
#
# Bulk Modulus (GPa) = 26.94606 48.13820 37.54213
# Shear Modulus (GPa) = 15.08431 20.80050 17.94240
#
# Velocity S-wave (km/s) = 2.98826 3.50907 3.25908
# Velocity P-wave (km/s) = 5.27806 6.70188 6.03213
#
# Compressibility (1/GPa) = 0.03711117
#
# Stress axis : x y z
#
# Youngs Moduli (GPa) = 48.17982 31.13173 77.90022
#
# Poissons Ratio (x) = 0.22106 0.27963
# Poissons Ratio (y) = 0.34212 0.28131
# Poissons Ratio (z) = 0.17294 0.11242
#
# Static dielectric constant tensor:
#      x y z
#    x 3.058830 0.000000 0.037340 
#    y 0.000000 2.982940 0.000000 
#    z 0.037340 0.000000 3.640750 
# 
# 
# High freq. dielectric constant tensor:
#      x y z
#    x 1.607600 0.000000 0.011800 
#    y 0.000000 1.634110 0.000000 
#    z 0.011800 0.000000 1.670490 
# 
# From -- ./inp_files/323755.got.cif
#   From: 2010.06.25/outbox.cif.g09.slc.cpg/sg12_162_cif.got.tgz:323755.got - 2010.06.28 00:19:55.
