data_PCOD8086008
_publ_section_title
;
Structure prediction by ZEFSAII (Michael W. Deem and Ramdas Pophale) SiO2 
 PCOD8086008
Probable space group: C 2/M
;
_chemical_formula_sum "Si O2"
_cell_formula_units_Z 56
_cell_length_a 18.223897
_cell_length_b 9.146846
_cell_length_c 22.944035
_cell_angle_alpha 90.000000
_cell_angle_beta 126.959909
_cell_angle_gamma 90.000000
_cell_volume 3056.045804
_symmetry_space_group_name_H-M "C 2/M"
_symmetry_group_IT_number 12
_symmetry_cell_setting 'monoclinic'
loop_
_space_group_symop_operation_xyz
x,y,z
-x,y,-z
-x,-y,-z
x,-y,z
1/2+x,1/2+y,z
1/2-x,1/2+y,-z
1/2-x,1/2-y,-z
1/2+x,1/2-y,z
loop_
_atom_site_type_symbol
_atom_site_label
_atom_site_fract_x
_atom_site_fract_y
_atom_site_fract_z
Si Si1 0.987357 0.668276 0.929152
Si Si2 0.049920 0.333111 0.353377
Si Si3 0.721719 0.162124 0.348837
Si Si4 0.380066 0.336912 0.787685
Si Si5 0.337449 0.829824 0.067311
Si Si6 0.332870 0.327950 0.507546
Si Si7 0.944515 0.166505 0.211564
O O1 0.958471 0.500000 0.918112
O O2 0.081431 0.691838 0.939914
O O3 0.903227 0.750172 0.857644
O O4 0.000000 0.732851 0.000000
O O5 0.021380 0.500000 0.353158
O O6 0.137555 0.326889 0.353401
O O7 0.073489 0.249007 0.425357
O O8 0.965602 0.249014 0.282274
O O9 0.708156 0.270273 0.287935
O O10 0.815842 0.195303 0.429817
O O11 0.725375 0.000000 0.323953
O O12 0.353987 0.500000 0.793403
O O13 0.466232 0.331173 0.786088
O O14 0.362973 0.753582 0.140628
O O15 0.316638 0.000000 0.068621
O O16 0.250000 0.750000 0.000000
O O17 0.334174 0.500000 0.523891
O O18 0.250000 0.250000 0.500000
O O19 0.913615 0.000000 0.209388
#
# Coordination Sequence:
#
# PCOD8086008 Si02
#       7
#     8   8   8   8   8   8   8
#     4   9  18  32  48  64  84 113 146 178 214 258
#     4   9  15  22  32  47  68  96 130 167 206 247
#     4   8  14  22  31  44  66  97 131 165 201 245
#     4   9  16  24  37  56  76 100 132 171 211 250
#     4  10  19  31  47  66  88 113 144 180 218 260
#     4   9  15  21  29  43  64  93 129 167 205 244
#     4   9  16  26  39  55  76 103 136 171 208 251
#
# _framework density 18.324331999999998
#
# number of rings (size 3 to 8) (size 9 to 14) (size 15 to 20)
#    0.000    3.000    0.000    3.000    0.000    8.286 
#    0.000    0.000    0.000    0.000    0.000    0.000 
#    0.000    0.000    0.000    1.286    0.000   27.143 
#
# Total GULP energy -347030.648924 kJ/mol
# GULP energy per Si atom -12393.951747 kJ/mol
# Density = 1.828262 g / cm^3
# Si number density = 18.324332 Si / 1000 Ang^3
#
#
#
# Elastic Constant Matrix: (Units=GPa)
#
#
# Indices 1 2 3 4 5 6 
#
# 1 4.1919 13.4947 14.9681 0.0000 -0.2622 0.0000
# 2 13.4947 162.1046 109.9130 0.0000 2.2501 0.0000
# 3 14.9681 109.9130 206.1048 0.0000 3.8592 0.0000
# 4 0.0000 0.0000 0.0000 43.4598 0.0000 2.9398
# 5 -0.2622 2.2501 3.8592 0.0000 15.0622 0.0000
# 6 0.0000 0.0000 0.0000 2.9398 0.0000 8.1922
#
#
#
# Elastic Compliance Matrix: (Units=1/GPa)
#
#
# Indices 1 2 3 4 5 6 
#
# 1 0.358308 -0.019110 -0.016078 0.000000 0.013212 0.000000
# 2 -0.019110 0.010682 -0.004293 0.000000 -0.000828 0.000000
# 3 -0.016078 -0.004293 0.008342 0.000000 -0.001776 0.000000
# 4 0.000000 0.000000 0.000000 0.023582 0.000000 -0.008463
# 5 0.013212 -0.000828 -0.001776 0.000000 0.067200 0.000000
# 6 0.000000 0.000000 0.000000 -0.008463 0.000000 0.125105
#
#
# Mechanical properties :
#
#
# Convention : Reuss Voigt Hill
#
# Bulk Modulus (GPa) = 3.35154 72.12810 37.73982
# Shear Modulus (GPa) = 6.47971 28.94452 17.71211
#
# Velocity S-wave (km/s) = 1.88250 3.97869 3.11238
# Velocity P-wave (km/s) = 2.56087 7.78164 5.79276
#
# Compressibility (1/GPa) = 0.29837050
#
# Stress axis : x y z
#
# Youngs Moduli (GPa) = 2.79089 93.61320 119.86974
#
# Poissons Ratio (x) = 1.78894 1.92727
# Poissons Ratio (y) = 0.05333 0.51464
# Poissons Ratio (z) = 0.04487 0.40191
#
# Static dielectric constant tensor:
#      x y z
#    x 2.587740 0.000000 -0.025360 
#    y 0.000000 3.588340 0.000000 
#    z -0.025360 0.000000 4.012790 
# 
# 
# High freq. dielectric constant tensor:
#      x y z
#    x 1.610000 0.000000 0.001980 
#    y 0.000000 1.725000 0.000000 
#    z 0.001980 0.000000 1.737990 
# 
# From -- ./inp_files/345655.got.cif
#   From: 2010.06.25/outbox.cif.g09.slc.cpg/sg12_173_cif.got.tgz:345655.got - 2010.06.28 00:19:55.
