data_PCOD8086353
_publ_section_title
;
Structure prediction by ZEFSAII (Michael W. Deem and Ramdas Pophale) SiO2 
 PCOD8086353
Probable space group: C 2/M
;
_chemical_formula_sum "Si O2"
_cell_formula_units_Z 64
_cell_length_a 29.471737
_cell_length_b 8.856330
_cell_length_c 15.141429
_cell_angle_alpha 90.000000
_cell_angle_beta 79.388121
_cell_angle_gamma 90.000000
_cell_volume 3884.494237
_symmetry_space_group_name_H-M "C 2/M"
_symmetry_group_IT_number 12
_symmetry_cell_setting 'monoclinic'
loop_
_space_group_symop_operation_xyz
x,y,z
-x,y,-z
-x,-y,-z
x,-y,z
1/2+x,1/2+y,z
1/2-x,1/2+y,-z
1/2-x,1/2-y,-z
1/2+x,1/2-y,z
loop_
_atom_site_type_symbol
_atom_site_label
_atom_site_fract_x
_atom_site_fract_y
_atom_site_fract_z
Si Si1 0.561387 0.177107 0.620615
Si Si2 0.962731 0.821072 0.889079
Si Si3 0.408916 0.324658 0.566478
Si Si4 0.308179 0.673113 0.544153
Si Si5 0.062540 0.821666 0.913096
Si Si6 0.457755 0.176789 0.709930
Si Si7 0.708881 0.174008 0.630798
Si Si8 0.372732 0.321581 0.261049
O O1 0.565005 0.232267 0.518848
O O2 0.510890 0.219299 0.673932
O O3 0.599357 0.261456 0.664960
O O4 0.570839 0.000000 0.621798
O O5 0.943056 0.731445 0.812537
O O6 0.014724 0.762901 0.888597
O O7 0.960700 0.000000 0.871881
O O8 0.932233 0.774069 0.986085
O O9 0.421181 0.500000 0.550413
O O10 0.353880 0.297287 0.584301
O O11 0.425577 0.266112 0.654339
O O12 0.305478 0.500000 0.511316
O O13 0.308741 0.781286 0.459875
O O14 0.263438 0.709644 0.620948
O O15 0.104874 0.760260 0.838477
O O16 0.060157 0.000000 0.910040
O O17 0.448667 0.000000 0.702605
O O18 0.680136 0.265531 0.714925
O O19 0.697835 0.000000 0.649590
O O20 0.374055 0.500000 0.264287
#
# Coordination Sequence:
#
# PCOD8086353 Si02
#       8
#     8   8   8   8   8   8   8   8
#     4  11  22  34  46  67 100 134 165 199 237 280
#     4   9  16  32  52  70  92 126 166 200 238 281
#     4  11  22  35  52  70  91 128 173 207 235 278
#     4   9  19  34  49  69  94 124 164 203 238 286
#     4   8  16  29  50  73  95 123 161 204 238 279
#     4  11  23  35  47  69 101 132 163 201 244 287
#     4  10  19  31  49  71  98 127 155 196 249 291
#     4  11  19  30  49  74 100 129 163 197 236 287
#
# _framework density 16.475760999999999
#
# number of rings (size 3 to 8) (size 9 to 14) (size 15 to 20)
#    0.000    2.000    2.500    3.000    0.000    4.000 
#    0.000    2.500    0.000    0.000    0.000    0.875 
#    0.000    0.000    0.000    0.000    0.000    0.000 
#
# Total GULP energy -396783.245589 kJ/mol
# GULP energy per Si atom -12399.476425 kJ/mol
# Density = 1.643826 g / cm^3
# Si number density = 16.475761 Si / 1000 Ang^3
#
#
#
# Elastic Constant Matrix: (Units=GPa)
#
#
# Indices 1 2 3 4 5 6 
#
# 1 63.3559 30.9197 40.6753 0.0000 -12.6490 0.0000
# 2 30.9197 55.2920 27.0928 0.0000 -7.0077 0.0000
# 3 40.6753 27.0928 115.3885 0.0000 -13.3161 0.0000
# 4 0.0000 0.0000 0.0000 18.1338 0.0000 -4.2964
# 5 -12.6490 -7.0077 -13.3161 0.0000 22.8248 0.0000
# 6 0.0000 0.0000 0.0000 -4.2964 0.0000 21.6851
#
#
#
# Elastic Compliance Matrix: (Units=1/GPa)
#
#
# Indices 1 2 3 4 5 6 
#
# 1 0.026443 -0.010923 -0.005846 0.000000 0.007890 0.000000
# 2 -0.010923 0.025249 -0.002018 0.000000 0.000522 0.000000
# 3 -0.005846 -0.002018 0.011532 0.000000 0.002868 0.000000
# 4 0.000000 0.000000 0.000000 0.057862 0.000000 0.011464
# 5 0.007890 0.000522 0.002868 0.000000 0.050018 0.000000
# 6 0.000000 0.000000 0.000000 0.011464 0.000000 0.048386
#
#
# Mechanical properties :
#
#
# Convention : Reuss Voigt Hill
#
# Bulk Modulus (GPa) = 38.98576 47.93468 43.46022
# Shear Modulus (GPa) = 18.82439 21.55197 20.18818
#
# Velocity S-wave (km/s) = 3.38383 3.62069 3.50426
# Velocity P-wave (km/s) = 6.24347 6.82909 6.54284
#
# Compressibility (1/GPa) = 0.02565039
#
# Stress axis : x y z
#
# Youngs Moduli (GPa) = 37.81723 39.60622 86.71498
#
# Poissons Ratio (x) = 0.43260 0.50696
# Poissons Ratio (y) = 0.41306 0.17497
# Poissons Ratio (z) = 0.22109 0.07992
#
# Static dielectric constant tensor:
#      x y z
#    x 3.148440 0.000000 -0.297860 
#    y 0.000000 3.066590 0.000000 
#    z -0.297860 0.000000 3.247330 
# 
# 
# High freq. dielectric constant tensor:
#      x y z
#    x 1.615100 0.000000 -0.016560 
#    y 0.000000 1.635570 0.000000 
#    z -0.016560 0.000000 1.623510 
# 
# From -- ./inp_files/248260.got.cif
#   From: 2010.06.25/outbox.cif.g09.slc.cpg/sg12_125_cif.got.tgz:248260.got - 2010.06.28 00:19:55.
