data_PCOD8086505
_publ_section_title
;
Structure prediction by ZEFSAII (Michael W. Deem and Ramdas Pophale) SiO2 
 PCOD8086505
Probable space group: C 2/M
;
_chemical_formula_sum "Si O2"
_cell_formula_units_Z 64
_cell_length_a 30.841360
_cell_length_b 16.819687
_cell_length_c 6.266238
_cell_angle_alpha 90.000000
_cell_angle_beta 94.283807
_cell_angle_gamma 90.000000
_cell_volume 3241.479826
_symmetry_space_group_name_H-M "C 2/M"
_symmetry_group_IT_number 12
_symmetry_cell_setting 'monoclinic'
loop_
_space_group_symop_operation_xyz
x,y,z
-x,y,-z
-x,-y,-z
x,-y,z
1/2+x,1/2+y,z
1/2-x,1/2+y,-z
1/2-x,1/2-y,-z
1/2+x,1/2-y,z
loop_
_atom_site_type_symbol
_atom_site_label
_atom_site_fract_x
_atom_site_fract_y
_atom_site_fract_z
Si Si1 0.873411 0.298828 0.701730
Si Si2 0.851243 0.913838 0.380028
Si Si3 0.241543 0.139535 0.667700
Si Si4 0.820840 0.591134 0.960068
Si Si5 0.598657 0.313924 0.924512
Si Si6 0.926851 0.090339 0.712061
Si Si7 0.951735 0.241615 0.479508
Si Si8 0.198582 0.699202 0.658233
O O1 0.856391 0.382515 0.793242
O O2 0.920784 0.300912 0.605946
O O3 0.838781 0.267102 0.514933
O O4 0.875310 0.239301 0.899733
O O5 0.799918 0.913876 0.401969
O O6 0.864143 0.847940 0.213575
O O7 0.877102 0.901348 0.611083
O O8 0.864179 0.000000 0.291235
O O9 0.271632 0.098844 0.856871
O O10 0.225993 0.225407 0.752288
O O11 0.268276 0.143621 0.458227
O O12 0.830699 0.500000 0.025365
O O13 0.824835 0.647614 0.167995
O O14 0.564437 0.263680 0.771011
O O15 0.572507 0.383498 0.039661
O O16 0.954716 0.152575 0.581799
O O17 0.944889 0.000000 0.696414
O O18 0.000000 0.278723 0.500000
#
# Coordination Sequence:
#
# PCOD8086505 Si02
#       8
#     8   8   8   8   8   8   8   8
#     4  10  21  38  59  80 105 141 182 222 267 326
#     4  10  19  31  49  75 110 149 188 230 267 302
#     4  10  20  34  52  79 109 143 187 227 262 307
#     4  11  23  37  56  81 109 144 181 222 275 326
#     4  10  19  35  55  77 106 144 187 221 264 320
#     4   9  19  33  50  76 112 153 190 224 266 315
#     4  10  21  36  57  84 109 135 175 227 276 325
#     4  10  21  37  56  77 108 146 182 224 267 313
#
# _framework density 19.744070000000001
#
# number of rings (size 3 to 8) (size 9 to 14) (size 15 to 20)
#    0.000    2.000    0.000    4.875    0.000    8.250 
#    0.000    1.875    0.000    0.375    0.000    3.500 
#    0.000    0.000    0.000    0.000    0.000    0.000 
#
# Total GULP energy -396681.845636 kJ/mol
# GULP energy per Si atom -12396.307676 kJ/mol
# Density = 1.969913 g / cm^3
# Si number density = 19.744070 Si / 1000 Ang^3
#
#
#
# Elastic Constant Matrix: (Units=GPa)
#
#
# Indices 1 2 3 4 5 6 
#
# 1 119.6817 21.8415 38.8245 0.0000 -2.6693 0.0000
# 2 21.8415 72.9076 32.2069 0.0000 -3.1327 0.0000
# 3 38.8245 32.2069 100.7035 0.0000 1.8969 0.0000
# 4 0.0000 0.0000 0.0000 19.8112 0.0000 -2.4131
# 5 -2.6693 -3.1327 1.8969 0.0000 21.6570 0.0000
# 6 0.0000 0.0000 0.0000 -2.4131 0.0000 17.8987
#
#
#
# Elastic Compliance Matrix: (Units=1/GPa)
#
#
# Indices 1 2 3 4 5 6 
#
# 1 0.009716 -0.001386 -0.003327 0.000000 0.001289 0.000000
# 2 -0.001386 0.016337 -0.004740 0.000000 0.002608 0.000000
# 3 -0.003327 -0.004740 0.012770 0.000000 -0.002214 0.000000
# 4 0.000000 0.000000 0.000000 0.051319 0.000000 0.006919
# 5 0.001289 0.002608 -0.002214 0.000000 0.046904 0.000000
# 6 0.000000 0.000000 0.000000 0.006919 0.000000 0.056803
#
#
# Mechanical properties :
#
#
# Convention : Reuss Voigt Hill
#
# Bulk Modulus (GPa) = 50.20415 53.22652 51.71534
# Shear Modulus (GPa) = 22.78995 25.23470 24.01233
#
# Velocity S-wave (km/s) = 3.40114 3.57892 3.49116
# Velocity P-wave (km/s) = 6.39580 6.64040 6.51925
#
# Compressibility (1/GPa) = 0.01991867
#
# Stress axis : x y z
#
# Youngs Moduli (GPa) = 102.91848 61.21090 78.30596
#
# Poissons Ratio (x) = 0.08482 0.26053
# Poissons Ratio (y) = 0.14262 0.37115
# Poissons Ratio (z) = 0.34242 0.29012
#
# Static dielectric constant tensor:
#      x y z
#    x 3.434020 0.000000 -0.016710 
#    y 0.000000 3.433980 0.000000 
#    z -0.016710 0.000000 3.671210 
# 
# 
# High freq. dielectric constant tensor:
#      x y z
#    x 1.754390 0.000000 0.000090 
#    y 0.000000 1.743880 0.000000 
#    z 0.000090 0.000000 1.773900 
# 
# From -- ./inp_files/32037.got.cif
#   From: 2010.06.25/outbox.cif.g09.slc.cpg/sg12_17_cif.got.tgz:32037.got - 2010.06.28 00:19:55.
