data_PCOD8086939
_publ_section_title
;
Structure prediction by ZEFSAII (Michael W. Deem and Ramdas Pophale) SiO2 
 PCOD8086939
Probable space group: C 2/M
;
_chemical_formula_sum "Si O2"
_cell_formula_units_Z 64
_cell_length_a 8.600674
_cell_length_b 18.974522
_cell_length_c 20.855331
_cell_angle_alpha 90.000000
_cell_angle_beta 90.398841
_cell_angle_gamma 90.000000
_cell_volume 3403.375712
_symmetry_space_group_name_H-M "C 2/M"
_symmetry_group_IT_number 12
_symmetry_cell_setting 'monoclinic'
loop_
_space_group_symop_operation_xyz
x,y,z
-x,y,-z
-x,-y,-z
x,-y,z
1/2+x,1/2+y,z
1/2-x,1/2+y,-z
1/2-x,1/2-y,-z
1/2+x,1/2-y,z
loop_
_atom_site_type_symbol
_atom_site_label
_atom_site_fract_x
_atom_site_fract_y
_atom_site_fract_z
Si Si1 0.436043 0.421089 0.064279
Si Si2 0.612063 0.832060 0.317322
Si Si3 0.407918 0.185813 0.824782
Si Si4 0.468117 0.652015 0.569127
Si Si5 0.898937 0.081369 0.312689
Si Si6 0.552778 0.664258 0.817313
Si Si7 0.677272 0.775498 0.615766
Si Si8 0.067722 0.420135 0.068154
O O1 0.500689 0.500000 0.064285
O O2 0.509932 0.388420 0.128660
O O3 0.251678 0.418341 0.064335
O O4 0.500000 0.382633 0.000000
O O5 0.551551 0.842684 0.245300
O O6 0.722057 0.899089 0.333329
O O7 0.455181 0.828506 0.358455
O O8 0.718501 0.761240 0.327587
O O9 0.452166 0.266791 0.825871
O O10 0.225999 0.184444 0.836168
O O11 0.491040 0.135110 0.877553
O O12 0.500000 0.616236 0.500000
O O13 0.489869 0.595577 0.626230
O O14 0.592005 0.715378 0.574831
O O15 0.291085 0.679996 0.570675
O O16 0.956723 0.129834 0.253591
O O17 0.907028 0.000000 0.292436
O O18 0.011716 0.500000 0.084933
O O19 0.000000 0.395315 0.000000
#
# Coordination Sequence:
#
# PCOD8086939 Si02
#       8
#     8   8   8   8   8   8   8   8
#     4   9  18  33  52  72  96 131 172 210 249 297
#     4   9  17  31  53  76 101 131 167 215 260 314
#     4  10  19  31  52  76  98 129 166 210 259 304
#     4  10  19  32  54  80 108 140 175 216 260 313
#     4  10  21  36  53  73 102 142 179 215 265 318
#     4  10  20  34  53  76 102 130 167 214 261 310
#     4   9  17  32  53  80 108 133 167 214 269 312
#     4   9  19  35  51  70 100 136 170 204 248 305
#
# _framework density 18.804859
#
# number of rings (size 3 to 8) (size 9 to 14) (size 15 to 20)
#    0.000    2.500    0.000    3.750    0.000    4.750 
#    0.000    3.125    0.000    4.500    0.000    0.000 
#    0.000    0.000    0.000    0.000    0.000    0.000 
#
# Total GULP energy -396588.753090 kJ/mol
# GULP energy per Si atom -12393.398534 kJ/mol
# Density = 1.876206 g / cm^3
# Si number density = 18.804859 Si / 1000 Ang^3
#
#
#
# Elastic Constant Matrix: (Units=GPa)
#
#
# Indices 1 2 3 4 5 6 
#
# 1 49.6096 25.1496 33.1209 0.0000 -7.5474 0.0000
# 2 25.1496 98.0240 48.1190 0.0000 -5.7828 0.0000
# 3 33.1209 48.1190 129.5711 0.0000 -3.8267 0.0000
# 4 0.0000 0.0000 0.0000 23.9391 0.0000 -1.3778
# 5 -7.5474 -5.7828 -3.8267 0.0000 24.4874 0.0000
# 6 0.0000 0.0000 0.0000 -1.3778 0.0000 19.0768
#
#
#
# Elastic Compliance Matrix: (Units=1/GPa)
#
#
# Indices 1 2 3 4 5 6 
#
# 1 0.026556 -0.003906 -0.005147 0.000000 0.006458 0.000000
# 2 -0.003906 0.013173 -0.003855 0.000000 0.001305 0.000000
# 3 -0.005147 -0.003855 0.010440 0.000000 -0.000865 0.000000
# 4 0.000000 0.000000 0.000000 0.041947 0.000000 0.003030
# 5 0.006458 0.001305 -0.000865 0.000000 0.043001 0.000000
# 6 0.000000 0.000000 0.000000 0.003030 0.000000 0.052638
#
#
# Mechanical properties :
#
#
# Convention : Reuss Voigt Hill
#
# Bulk Modulus (GPa) = 41.06281 54.44263 47.75272
# Shear Modulus (GPa) = 22.55410 24.88833 23.72121
#
# Velocity S-wave (km/s) = 3.46696 3.64195 3.55553
# Velocity P-wave (km/s) = 6.15712 6.83369 6.50420
#
# Compressibility (1/GPa) = 0.02435294
#
# Stress axis : x y z
#
# Youngs Moduli (GPa) = 37.65575 75.91218 95.78902
#
# Poissons Ratio (x) = 0.29650 0.49303
# Poissons Ratio (y) = 0.14708 0.36928
# Poissons Ratio (z) = 0.19382 0.29266
#
# Static dielectric constant tensor:
#      x y z
#    x 3.458980 0.000000 0.094180 
#    y 0.000000 3.391640 0.000000 
#    z 0.094180 0.000000 3.589060 
# 
# 
# High freq. dielectric constant tensor:
#      x y z
#    x 1.721020 0.000000 0.002480 
#    y 0.000000 1.704850 0.000000 
#    z 0.002480 0.000000 1.737010 
# 
# From -- ./inp_files/300800.got.cif
#   From: 2010.06.25/outbox.cif.g09.slc.cpg/sg12_151_cif.got.tgz:300800.got - 2010.06.28 00:19:55.
