data_PCOD8086885
_publ_section_title
;
Structure prediction by ZEFSAII (Michael W. Deem and Ramdas Pophale) SiO2 
 PCOD8086885
Probable space group: C 2/M
;
_chemical_formula_sum "Si O2"
_cell_formula_units_Z 56
_cell_length_a 26.391941
_cell_length_b 8.850504
_cell_length_c 13.186584
_cell_angle_alpha 90.000000
_cell_angle_beta 118.520862
_cell_angle_gamma 90.000000
_cell_volume 2706.351797
_symmetry_space_group_name_H-M "C 2/M"
_symmetry_group_IT_number 12
_symmetry_cell_setting 'monoclinic'
loop_
_space_group_symop_operation_xyz
x,y,z
-x,y,-z
-x,-y,-z
x,-y,z
1/2+x,1/2+y,z
1/2-x,1/2+y,-z
1/2-x,1/2-y,-z
1/2+x,1/2-y,z
loop_
_atom_site_type_symbol
_atom_site_label
_atom_site_fract_x
_atom_site_fract_y
_atom_site_fract_z
Si Si1 0.035711 0.327576 0.636269
Si Si2 0.341600 0.327052 0.263387
Si Si3 0.733150 0.676141 0.230437
Si Si4 0.937497 0.325642 0.035061
Si Si5 0.338146 0.670165 0.033670
Si Si6 0.968827 0.178373 0.756624
Si Si7 0.129422 0.677303 0.232351
O O1 0.044133 0.500000 0.680718
O O2 0.097200 0.253583 0.673071
O O3 0.000000 0.319264 0.500000
O O4 0.000095 0.238143 0.686713
O O5 0.349727 0.500000 0.304596
O O6 0.296868 0.247876 0.297651
O O7 0.313859 0.315911 0.124001
O O8 0.737360 0.500000 0.257687
O O9 0.692732 0.751298 0.277690
O O10 0.709809 0.711469 0.095078
O O11 0.955015 0.500000 0.056250
O O12 0.891887 0.285320 0.079660
O O13 0.995501 0.230778 0.109479
O O14 0.908179 0.281119 0.901929
O O15 0.361294 0.500000 0.035528
O O16 0.904144 0.247864 0.704638
O O17 0.964259 0.000000 0.747299
O O18 0.136280 0.500000 0.256599
#
# Coordination Sequence:
#
# PCOD8086885 Si02
#       7
#     8   8   8   8   8   8   8
#     4  11  25  44  65  88 112 144 191 245 298 347
#     4  11  21  35  57  84 115 152 192 236 290 343
#     4  10  20  34  53  81 119 159 197 233 276 336
#     4  10  19  31  51  79 114 155 196 235 280 335
#     4   9  18  31  49  78 115 155 194 233 280 336
#     4  12  23  36  57  83 114 151 190 237 292 347
#     4  10  21  36  54  81 117 157 198 236 278 336
#
# _framework density 20.692062
#
# number of rings (size 3 to 8) (size 9 to 14) (size 15 to 20)
#    0.000    1.571    1.429    4.286    0.000    5.714 
#    0.000    0.000    0.000    0.857    0.000    0.000 
#    0.000    0.000    0.000    0.000    0.000    0.000 
#
# Total GULP energy -347198.574121 kJ/mol
# GULP energy per Si atom -12399.949076 kJ/mol
# Density = 2.064497 g / cm^3
# Si number density = 20.692062 Si / 1000 Ang^3
#
#
#
# Elastic Constant Matrix: (Units=GPa)
#
#
# Indices 1 2 3 4 5 6 
#
# 1 189.8591 84.7790 21.1774 0.0000 15.8437 0.0000
# 2 84.7790 143.7233 15.1975 0.0000 10.6861 0.0000
# 3 21.1774 15.1975 24.1045 0.0000 6.8552 0.0000
# 4 0.0000 0.0000 0.0000 17.3701 0.0000 2.8742
# 5 15.8437 10.6861 6.8552 0.0000 11.1877 0.0000
# 6 0.0000 0.0000 0.0000 2.8742 0.0000 42.2625
#
#
#
# Elastic Compliance Matrix: (Units=1/GPa)
#
#
# Indices 1 2 3 4 5 6 
#
# 1 0.007777 -0.003875 -0.002797 0.000000 -0.005598 0.000000
# 2 -0.003875 0.009638 -0.001955 0.000000 -0.002520 0.000000
# 3 -0.002797 -0.001955 0.052702 0.000000 -0.026464 0.000000
# 4 0.000000 0.000000 0.000000 0.058225 0.000000 -0.003960
# 5 -0.005598 -0.002520 -0.026464 0.000000 0.115933 0.000000
# 6 0.000000 0.000000 0.000000 -0.003960 0.000000 0.023931
#
#
# Mechanical properties :
#
#
# Convention : Reuss Voigt Hill
#
# Bulk Modulus (GPa) = 18.91728 66.66608 42.79168
# Shear Modulus (GPa) = 16.49719 29.93294 23.21506
#
# Velocity S-wave (km/s) = 2.82666 3.80753 3.35316
# Velocity P-wave (km/s) = 4.45146 7.18456 5.97634
#
# Compressibility (1/GPa) = 0.05286173
#
# Stress axis : x y z
#
# Youngs Moduli (GPa) = 128.59014 103.75758 18.97444
#
# Poissons Ratio (x) = 0.40209 0.05307
# Poissons Ratio (y) = 0.49833 0.03710
# Poissons Ratio (z) = 0.35968 0.20287
#
# Static dielectric constant tensor:
#      x y z
#    x 3.884600 0.000000 -0.000250 
#    y 0.000000 3.795110 0.000000 
#    z -0.000250 0.000000 3.330650 
# 
# 
# High freq. dielectric constant tensor:
#      x y z
#    x 1.825810 0.000000 0.002660 
#    y 0.000000 1.820730 0.000000 
#    z 0.002660 0.000000 1.758850 
# 
# From -- ./inp_files/244338.got.cif
#   From: 2010.06.25/outbox.cif.g09.slc.cpg/sg12_123_cif.got.tgz:244338.got - 2010.06.28 00:19:55.
