data_PCOD8086294
_publ_section_title
;
Structure prediction by ZEFSAII (Michael W. Deem and Ramdas Pophale) SiO2 
 PCOD8086294
Probable space group: C 2/M
;
_chemical_formula_sum "Si O2"
_cell_formula_units_Z 60
_cell_length_a 17.147031
_cell_length_b 16.896773
_cell_length_c 23.232886
_cell_angle_alpha 90.000000
_cell_angle_beta 30.373572
_cell_angle_gamma 90.000000
_cell_volume 3403.562580
_symmetry_space_group_name_H-M "C 2/M"
_symmetry_group_IT_number 12
_symmetry_cell_setting 'monoclinic'
loop_
_space_group_symop_operation_xyz
x,y,z
-x,y,-z
-x,-y,-z
x,-y,z
1/2+x,1/2+y,z
1/2-x,1/2+y,-z
1/2-x,1/2-y,-z
1/2+x,1/2-y,z
loop_
_atom_site_type_symbol
_atom_site_label
_atom_site_fract_x
_atom_site_fract_y
_atom_site_fract_z
Si Si1 0.851172 0.816725 0.125919
Si Si2 0.405289 0.814975 0.337388
Si Si3 0.310153 0.649237 0.351857
Si Si4 0.440021 0.730262 0.658731
Si Si5 0.802011 0.591454 0.875362
Si Si6 0.500000 0.805112 0.500000
Si Si7 0.000026 0.908993 0.869009
Si Si8 0.860366 0.090498 0.443731
O O1 0.735212 0.744102 0.209833
O O2 0.780093 0.886593 0.132305
O O3 0.891611 0.855120 0.160743
O O4 0.000000 0.779563 0.000000
O O5 0.343067 0.742012 0.339918
O O6 0.448565 0.786679 0.374344
O O7 0.547285 0.854249 0.212430
O O8 0.270576 0.879175 0.429083
O O9 0.453383 0.611639 0.225695
O O10 0.300843 0.600636 0.416651
O O11 0.147368 0.639777 0.421677
O O12 0.461104 0.749325 0.578577
O O13 0.482557 0.639443 0.644857
O O14 0.851804 0.500000 0.841305
O O15 0.681907 0.608289 0.004025
O O16 0.034178 0.000000 0.861721
O O17 0.896759 0.000000 0.434183
#
# Coordination Sequence:
#
# PCOD8086294 Si02
#       8
#     8   8   8   8   8   4   8   8
#     4   9  17  30  51  76 103 135 169 208 251 308
#     4  10  19  35  52  74 102 138 179 203 250 307
#     4  11  21  34  53  76 105 136 167 213 258 310
#     4  10  19  34  55  76 102 137 174 212 250 304
#     4   9  18  31  49  73 103 135 169 209 252 302
#     4  12  18  34  56  76 104 128 168 216 260 294
#     4  10  19  31  48  76 107 133 162 208 267 307
#     4  11  21  36  54  76 105 139 174 208 257 309
#
# _framework density 17.628587
#
# number of rings (size 3 to 8) (size 9 to 14) (size 15 to 20)
#    0.000    1.867    4.000    2.000    0.000    2.133 
#    0.000    3.000    0.000    0.400    0.000    0.000 
#    0.000    0.000    0.000    0.000    0.000    0.000 
#
# Total GULP energy -372007.338292 kJ/mol
# GULP energy per Si atom -12400.244610 kJ/mol
# Density = 1.758846 g / cm^3
# Si number density = 17.628587 Si / 1000 Ang^3
#
#
#
# Elastic Constant Matrix: (Units=GPa)
#
#
# Indices 1 2 3 4 5 6 
#
# 1 45.6879 13.9948 28.1509 0.0028 -2.4006 0.0005
# 2 13.9948 102.3011 52.2373 -0.0040 -11.8326 -0.0008
# 3 28.1509 52.2373 118.8367 -0.0031 -4.1031 -0.0037
# 4 0.0028 -0.0040 -0.0031 29.1295 0.0030 0.7232
# 5 -2.4006 -11.8326 -4.1031 0.0030 22.5297 0.0033
# 6 0.0005 -0.0008 -0.0037 0.7232 0.0033 14.3174
#
#
#
# Elastic Compliance Matrix: (Units=1/GPa)
#
#
# Indices 1 2 3 4 5 6 
#
# 1 0.025697 -0.000337 -0.005888 -0.000003 0.001489 -0.000003
# 2 -0.000337 0.013365 -0.005589 0.000001 0.005966 -0.000002
# 3 -0.005888 -0.005589 0.012220 0.000001 -0.001337 0.000003
# 4 -0.000003 0.000001 0.000001 0.034373 -0.000004 -0.001736
# 5 0.001489 0.005966 -0.001337 -0.000004 0.047434 -0.000011
# 6 -0.000003 -0.000002 0.000003 -0.001736 -0.000011 0.069933
#
#
# Mechanical properties :
#
#
# Convention : Reuss Voigt Hill
#
# Bulk Modulus (GPa) = 36.15996 50.62127 43.39062
# Shear Modulus (GPa) = 21.19833 24.69149 22.94491
#
# Velocity S-wave (km/s) = 3.47147 3.74659 3.61165
# Velocity P-wave (km/s) = 6.05184 6.89157 6.48531
#
# Compressibility (1/GPa) = 0.02765490
#
# Stress axis : x y z
#
# Youngs Moduli (GPa) = 38.91530 74.82182 81.83071
#
# Poissons Ratio (x) = 0.02519 0.48181
# Poissons Ratio (y) = 0.01310 0.45737
# Poissons Ratio (z) = 0.22913 0.41819
#
# Static dielectric constant tensor:
#      x y z
#    x 3.113540 0.000000 -0.052940 
#    y 0.000000 3.057970 0.000010 
#    z -0.052940 0.000010 3.532860 
# 
# 
# High freq. dielectric constant tensor:
#      x y z
#    x 1.659540 0.000000 0.002620 
#    y 0.000000 1.659290 0.000000 
#    z 0.002620 0.000000 1.698910 
# 
# From -- ./inp_files/344368.got.cif
#   From: 2010.06.25/outbox.cif.g09.slc.cpg/sg12_173_cif.got.tgz:344368.got - 2010.06.28 00:19:55.
