data_PCOD8086566
_publ_section_title
;
Structure prediction by ZEFSAII (Michael W. Deem and Ramdas Pophale) SiO2 
 PCOD8086566
Probable space group: C 2/M
;
_chemical_formula_sum "Si O2"
_cell_formula_units_Z 56
_cell_length_a 28.529497
_cell_length_b 9.128943
_cell_length_c 16.667961
_cell_angle_alpha 90.000000
_cell_angle_beta 46.374054
_cell_angle_gamma 90.000000
_cell_volume 3142.326898
_symmetry_space_group_name_H-M "C 2/M"
_symmetry_group_IT_number 12
_symmetry_cell_setting 'monoclinic'
loop_
_space_group_symop_operation_xyz
x,y,z
-x,y,-z
-x,-y,-z
x,-y,z
1/2+x,1/2+y,z
1/2-x,1/2+y,-z
1/2-x,1/2-y,-z
1/2+x,1/2-y,z
loop_
_atom_site_type_symbol
_atom_site_label
_atom_site_fract_x
_atom_site_fract_y
_atom_site_fract_z
Si Si1 0.914923 0.332862 0.673350
Si Si2 0.261922 0.828607 0.221355
Si Si3 0.472544 0.826597 0.338973
Si Si4 0.494334 0.825862 0.134595
Si Si5 0.879403 0.171735 0.558499
Si Si6 0.771231 0.667734 0.896437
Si Si7 0.399807 0.826673 0.111913
O O1 0.926216 0.500000 0.631921
O O2 0.969942 0.280082 0.669401
O O3 0.916593 0.232780 0.592627
O O4 0.848040 0.316257 0.799124
O O5 0.197108 0.791061 0.347546
O O6 0.264472 0.740378 0.136169
O O7 0.324822 0.777195 0.197552
O O8 0.264652 0.000000 0.196923
O O9 0.489171 0.763881 0.230942
O O10 0.406763 0.749908 0.446888
O O11 0.461910 0.000000 0.350062
O O12 0.432909 0.768591 0.154763
O O13 0.494533 0.000000 0.138585
O O14 0.560217 0.769656 0.013429
O O15 0.892155 0.000000 0.538608
O O16 0.749392 0.500000 0.927307
O O17 0.750000 0.750000 0.000000
O O18 0.404753 0.000000 0.106025
#
# Coordination Sequence:
#
# PCOD8086566 Si02
#       7
#     8   8   8   8   8   8   8
#     4   9  19  33  49  69  95 129 165 201 241 282
#     4   9  18  32  52  71  95 131 164 198 244 291
#     4  10  19  31  50  73  97 125 162 206 245 282
#     4   8  15  27  48  78  99 117 157 209 250 283
#     4  10  20  33  47  69  99 132 165 197 238 293
#     4  10  20  32  47  71 102 130 161 200 239 289
#     4   8  14  28  51  75  98 122 156 205 250 288
#
# _framework density 17.821187999999999
#
# number of rings (size 3 to 8) (size 9 to 14) (size 15 to 20)
#    0.000    2.857    0.000    2.143    2.000    3.429 
#    0.000    0.714    0.000    0.857    0.000    2.000 
#    0.000    0.000    0.000    0.000    0.000    0.000 
#
# Total GULP energy -347127.671072 kJ/mol
# GULP energy per Si atom -12397.416824 kJ/mol
# Density = 1.778063 g / cm^3
# Si number density = 17.821188 Si / 1000 Ang^3
#
#
#
# Elastic Constant Matrix: (Units=GPa)
#
#
# Indices 1 2 3 4 5 6 
#
# 1 117.9272 26.9133 71.8314 0.0000 -9.5577 0.0000
# 2 26.9133 38.9967 28.7802 -0.0014 0.9396 0.0002
# 3 71.8314 28.7802 110.7412 -0.0004 9.1648 0.0000
# 4 0.0000 -0.0014 -0.0004 27.9796 0.0000 -0.3295
# 5 -9.5577 0.9396 9.1648 0.0000 25.5263 0.0000
# 6 0.0000 0.0002 0.0000 -0.3295 0.0000 14.6911
#
#
#
# Elastic Compliance Matrix: (Units=1/GPa)
#
#
# Indices 1 2 3 4 5 6 
#
# 1 0.016690 -0.003899 -0.010658 0.000000 0.010219 0.000000
# 2 -0.003899 0.032724 -0.005932 0.000002 -0.000535 0.000000
# 3 -0.010658 -0.005932 0.018342 0.000000 -0.010358 0.000000
# 4 0.000000 0.000002 0.000000 0.035750 0.000000 0.000802
# 5 0.010219 -0.000535 -0.010358 0.000000 0.046740 0.000000
# 6 0.000000 0.000000 0.000000 0.000802 0.000000 0.068086
#
#
# Mechanical properties :
#
#
# Convention : Reuss Voigt Hill
#
# Bulk Modulus (GPa) = 37.34207 58.07944 47.71076
# Shear Modulus (GPa) = 18.64026 22.98207 20.81116
#
# Velocity S-wave (km/s) = 3.23764 3.59499 3.42098
# Velocity P-wave (km/s) = 5.91402 7.06348 6.51415
#
# Compressibility (1/GPa) = 0.02677945
#
# Stress axis : x y z
#
# Youngs Moduli (GPa) = 59.91601 30.55831 54.51889
#
# Poissons Ratio (x) = 0.11914 0.58108
# Poissons Ratio (y) = 0.23359 0.32338
# Poissons Ratio (z) = 0.63861 0.18126
#
# Static dielectric constant tensor:
#      x y z
#    x 3.051180 0.000000 -0.277320 
#    y 0.000000 3.052940 0.000000 
#    z -0.277320 0.000000 3.401460 
# 
# 
# High freq. dielectric constant tensor:
#      x y z
#    x 1.683340 0.000000 -0.006010 
#    y 0.000000 1.658750 0.000000 
#    z -0.006010 0.000000 1.696230 
# 
# From -- ./inp_files/295062.got.cif
#   From: 2010.06.25/outbox.cif.g09.slc.cpg/sg12_148_cif.got.tgz:295062.got - 2010.06.28 00:19:55.
