data_PCOD8086240
_publ_section_title
;
Structure prediction by ZEFSAII (Michael W. Deem and Ramdas Pophale) SiO2 
 PCOD8086240
Probable space group: C 2/M
;
_chemical_formula_sum "Si O2"
_cell_formula_units_Z 64
_cell_length_a 25.007003
_cell_length_b 9.073172
_cell_length_c 17.503929
_cell_angle_alpha 90.000000
_cell_angle_beta 103.553874
_cell_angle_gamma 90.000000
_cell_volume 3860.909375
_symmetry_space_group_name_H-M "C 2/M"
_symmetry_group_IT_number 12
_symmetry_cell_setting 'monoclinic'
loop_
_space_group_symop_operation_xyz
x,y,z
-x,y,-z
-x,-y,-z
x,-y,z
1/2+x,1/2+y,z
1/2-x,1/2+y,-z
1/2-x,1/2-y,-z
1/2+x,1/2-y,z
loop_
_atom_site_type_symbol
_atom_site_label
_atom_site_fract_x
_atom_site_fract_y
_atom_site_fract_z
Si Si1 0.841247 0.325324 0.659175
Si Si2 0.132040 0.671683 0.927808
Si Si3 0.192623 0.171466 0.492258
Si Si4 0.781562 0.831654 0.334334
Si Si5 0.204779 0.672513 0.811782
Si Si6 0.320924 0.326361 0.912267
Si Si7 0.406435 0.325658 0.811147
Si Si8 0.992473 0.328182 0.085844
O O1 0.848311 0.500000 0.655636
O O2 0.850627 0.253592 0.577933
O O3 0.780908 0.278931 0.669578
O O4 0.887347 0.257083 0.728757
O O5 0.139355 0.500000 0.947808
O O6 0.155651 0.714349 0.852791
O O7 0.068478 0.717140 0.908762
O O8 0.167062 0.756072 0.002394
O O9 0.250000 0.250000 0.500000
O O10 0.179097 0.188688 0.578033
O O11 0.196987 0.000000 0.471208
O O12 0.808495 0.740626 0.274915
O O13 0.779667 0.000000 0.307871
O O14 0.209746 0.500000 0.801403
O O15 0.262427 0.734555 0.863459
O O16 0.319535 0.500000 0.923002
O O17 0.367219 0.277814 0.867587
O O18 0.405559 0.500000 0.797068
O O19 0.467551 0.271608 0.850240
O O20 0.005060 0.500000 0.104747
O O21 0.000000 0.287786 0.000000
#
# Coordination Sequence:
#
# PCOD8086240 Si02
#       8
#     8   8   8   8   8   8   8   8
#     4  10  19  31  48  72 100 131 165 199 241 292
#     4  10  21  35  51  69  92 128 171 208 245 289
#     4   9  17  29  45  69 100 132 165 198 237 289
#     4   9  18  30  46  70  99 132 163 192 235 289
#     4  10  20  33  48  70  99 130 165 203 242 289
#     4  10  20  32  47  70  98 127 161 202 249 291
#     4  11  21  32  50  74  98 128 163 203 248 294
#     4  10  20  35  52  69  92 127 167 209 251 290
#
# _framework density 16.576405000000001
#
# number of rings (size 3 to 8) (size 9 to 14) (size 15 to 20)
#    0.000    2.125    2.500    2.250    0.000    4.750 
#    0.000    0.000    0.000    0.000    0.000    0.875 
#    0.000    7.000    0.000    0.000    0.000    0.000 
#
# Total GULP energy -396801.614068 kJ/mol
# GULP energy per Si atom -12400.050440 kJ/mol
# Density = 1.653868 g / cm^3
# Si number density = 16.576405 Si / 1000 Ang^3
#
#
#
# Elastic Constant Matrix: (Units=GPa)
#
#
# Indices 1 2 3 4 5 6 
#
# 1 78.3460 29.0281 49.6119 0.0000 -6.0766 0.0000
# 2 29.0281 65.3386 57.9779 0.0000 1.6571 0.0000
# 3 49.6119 57.9779 136.4832 0.0000 2.8306 0.0000
# 4 0.0000 0.0000 0.0000 35.4048 0.0000 3.2309
# 5 -6.0766 1.6571 2.8306 0.0000 18.4710 0.0000
# 6 0.0000 0.0000 0.0000 3.2309 0.0000 19.1897
#
#
#
# Elastic Compliance Matrix: (Units=1/GPa)
#
#
# Indices 1 2 3 4 5 6 
#
# 1 0.017874 -0.003570 -0.005126 0.000000 0.006986 0.000000
# 2 -0.003570 0.025284 -0.009401 0.000000 -0.002002 0.000000
# 3 -0.005126 -0.009401 0.013243 0.000000 -0.002872 0.000000
# 4 0.000000 0.000000 0.000000 0.028686 0.000000 -0.004830
# 5 0.006986 -0.002002 -0.002872 0.000000 0.057057 0.000000
# 6 0.000000 0.000000 0.000000 -0.004830 0.000000 0.052925
#
#
# Mechanical properties :
#
#
# Convention : Reuss Voigt Hill
#
# Bulk Modulus (GPa) = 49.48651 61.48929 55.48790
# Shear Modulus (GPa) = 21.00852 24.18308 22.59580
#
# Velocity S-wave (km/s) = 3.56388 3.82368 3.69606
# Velocity P-wave (km/s) = 6.84496 7.52788 7.19453
#
# Compressibility (1/GPa) = 0.02020753
#
# Stress axis : x y z
#
# Youngs Moduli (GPa) = 55.94652 39.55072 75.50942
#
# Poissons Ratio (x) = 0.14119 0.38704
# Poissons Ratio (y) = 0.19972 0.70990
# Poissons Ratio (z) = 0.28676 0.37183
#
# Static dielectric constant tensor:
#      x y z
#    x 2.921660 0.000000 0.017370 
#    y 0.000000 3.117220 0.000000 
#    z 0.017370 0.000000 3.255880 
# 
# 
# High freq. dielectric constant tensor:
#      x y z
#    x 1.600210 0.000000 0.005430 
#    y 0.000000 1.643810 0.000000 
#    z 0.005430 0.000000 1.645350 
# 
# From -- ./inp_files/244051.got.cif
#   From: 2010.06.25/outbox.cif.g09.slc.cpg/sg12_123_cif.got.tgz:244051.got - 2010.06.28 00:19:55.
