data_PCOD8086666
_publ_section_title
;
Structure prediction by ZEFSAII (Michael W. Deem and Ramdas Pophale) SiO2 
 PCOD8086666
Probable space group: C 2/M
;
_chemical_formula_sum "Si O2"
_cell_formula_units_Z 56
_cell_length_a 16.262542
_cell_length_b 13.407799
_cell_length_c 20.500572
_cell_angle_alpha 90.000000
_cell_angle_beta 136.377801
_cell_angle_gamma 90.000000
_cell_volume 3083.884394
_symmetry_space_group_name_H-M "C 2/M"
_symmetry_group_IT_number 12
_symmetry_cell_setting 'monoclinic'
loop_
_space_group_symop_operation_xyz
x,y,z
-x,y,-z
-x,-y,-z
x,-y,z
1/2+x,1/2+y,z
1/2-x,1/2+y,-z
1/2-x,1/2-y,-z
1/2+x,1/2-y,z
loop_
_atom_site_type_symbol
_atom_site_label
_atom_site_fract_x
_atom_site_fract_y
_atom_site_fract_z
Si Si1 0.615945 0.611963 0.462302
Si Si2 0.164576 0.201618 0.838915
Si Si3 0.702975 0.194099 0.339270
Si Si4 0.415081 0.115110 0.009015
Si Si5 0.043772 0.386933 0.819657
Si Si6 0.148656 0.884933 0.692303
Si Si7 0.914958 0.112133 0.708679
O O1 0.655710 0.500000 0.504136
O O2 0.707946 0.688219 0.548061
O O3 0.482898 0.632948 0.412621
O O4 0.612398 0.625895 0.383089
O O5 0.288585 0.169570 0.941678
O O6 0.173977 0.188346 0.766767
O O7 0.145613 0.317145 0.847113
O O8 0.053560 0.136612 0.802909
O O9 0.580546 0.138132 0.287515
O O10 0.756924 0.139275 0.308437
O O11 0.672907 0.310055 0.305575
O O12 0.389977 0.000000 0.978933
O O13 0.500000 0.158824 0.000000
O O14 0.476353 0.130903 0.114414
O O15 0.082677 0.500000 0.827603
O O16 0.162476 0.000000 0.723597
O O17 0.887393 0.000000 0.716897
#
# Coordination Sequence:
#
# PCOD8086666 Si02
#       7
#     8   8   8   8   8   8   8
#     4   9  17  30  49  71  96 126 160 201 246 288
#     4  10  19  34  53  70  97 132 161 197 241 285
#     4  11  19  30  50  73 100 128 157 203 251 284
#     4  10  19  32  53  78 100 122 154 201 248 284
#     4  10  21  33  48  74 102 129 162 197 238 291
#     4  10  19  31  50  75  97 122 163 207 244 285
#     4   9  19  33  49  71  96 128 168 199 232 290
#
# _framework density 18.158916999999999
#
# number of rings (size 3 to 8) (size 9 to 14) (size 15 to 20)
#    0.000    2.143    0.000    5.571    0.000    2.286 
#    0.000    0.714    0.000    2.143    0.000    0.000 
#    0.000    0.000    0.000    0.000    0.000    0.000 
#
# Total GULP energy -347172.908052 kJ/mol
# GULP energy per Si atom -12399.032430 kJ/mol
# Density = 1.811759 g / cm^3
# Si number density = 18.158917 Si / 1000 Ang^3
#
#
#
# Elastic Constant Matrix: (Units=GPa)
#
#
# Indices 1 2 3 4 5 6 
#
# 1 54.7785 35.3135 17.8012 0.0000 7.5576 0.0000
# 2 35.3135 114.5931 38.8615 0.0000 6.6855 0.0000
# 3 17.8012 38.8615 76.8223 0.0000 15.2474 0.0000
# 4 0.0000 0.0000 0.0000 23.9409 0.0000 2.0894
# 5 7.5576 6.6855 15.2474 0.0000 24.8773 0.0000
# 6 0.0000 0.0000 0.0000 2.0894 0.0000 30.8826
#
#
#
# Elastic Compliance Matrix: (Units=1/GPa)
#
#
# Indices 1 2 3 4 5 6 
#
# 1 0.023522 -0.006569 -0.001206 0.000000 -0.004641 0.000000
# 2 -0.006569 0.012373 -0.005093 0.000000 0.001792 0.000000
# 3 -0.001206 -0.005093 0.017679 0.000000 -0.009100 0.000000
# 4 0.000000 0.000000 0.000000 0.042018 0.000000 -0.002843
# 5 -0.004641 0.001792 -0.009100 0.000000 0.046703 0.000000
# 6 0.000000 0.000000 0.000000 -0.002843 0.000000 0.032573
#
#
# Mechanical properties :
#
#
# Convention : Reuss Voigt Hill
#
# Bulk Modulus (GPa) = 35.92117 47.79403 41.85760
# Shear Modulus (GPa) = 23.82263 26.22133 25.02198
#
# Velocity S-wave (km/s) = 3.62594 3.80411 3.71609
# Velocity P-wave (km/s) = 6.11183 6.75811 6.44308
#
# Compressibility (1/GPa) = 0.02783874
#
# Stress axis : x y z
#
# Youngs Moduli (GPa) = 42.51269 80.81878 56.56411
#
# Poissons Ratio (x) = 0.53089 0.06824
# Poissons Ratio (y) = 0.27926 0.28806
# Poissons Ratio (z) = 0.05129 0.41159
#
# Static dielectric constant tensor:
#      x y z
#    x 3.175190 0.000000 0.086070 
#    y 0.000000 3.349530 0.000000 
#    z 0.086070 0.000000 3.393070 
# 
# 
# High freq. dielectric constant tensor:
#      x y z
#    x 1.680880 0.000000 0.007500 
#    y 0.000000 1.690590 0.000000 
#    z 0.007500 0.000000 1.713930 
# 
# From -- ./inp_files/214256.got.cif
#   From: 2010.06.25/outbox.cif.g09.slc.cpg/sg12_108_cif.got.tgz:214256.got - 2010.06.28 00:19:55.
