data_PCOD8086131
_publ_section_title
;
Structure prediction by ZEFSAII (Michael W. Deem and Ramdas Pophale) SiO2 
 PCOD8086131
Probable space group: C 2/M
;
_chemical_formula_sum "Si O2"
_cell_formula_units_Z 64
_cell_length_a 12.709272
_cell_length_b 13.238572
_cell_length_c 23.235701
_cell_angle_alpha 90.000000
_cell_angle_beta 81.885209
_cell_angle_gamma 90.000000
_cell_volume 3870.322879
_symmetry_space_group_name_H-M "C 2/M"
_symmetry_group_IT_number 12
_symmetry_cell_setting 'monoclinic'
loop_
_space_group_symop_operation_xyz
x,y,z
-x,y,-z
-x,-y,-z
x,-y,z
1/2+x,1/2+y,z
1/2-x,1/2+y,-z
1/2-x,1/2-y,-z
1/2+x,1/2-y,z
loop_
_atom_site_type_symbol
_atom_site_label
_atom_site_fract_x
_atom_site_fract_y
_atom_site_fract_z
Si Si1 0.585795 0.275506 0.857730
Si Si2 0.261906 0.616718 0.846775
Si Si3 0.027067 0.116893 0.235030
Si Si4 0.308937 0.381295 0.049446
Si Si5 0.105766 0.771291 0.458659
Si Si6 0.785480 0.116186 0.449585
Si Si7 0.995775 0.882471 0.366988
Si Si8 0.372522 0.268451 0.938239
O O1 0.656876 0.178237 0.838049
O O2 0.552158 0.322335 0.799807
O O3 0.650420 0.359133 0.889148
O O4 0.484885 0.239789 0.902442
O O5 0.230406 0.500000 0.854200
O O6 0.350430 0.635086 0.791074
O O7 0.306854 0.653114 0.904274
O O8 0.010260 0.156288 0.300955
O O9 0.996357 0.000000 0.231601
O O10 0.307808 0.500000 0.038119
O O11 0.190583 0.336771 0.049895
O O12 0.386853 0.324847 0.998234
O O13 0.170151 0.852441 0.491495
O O14 0.179006 0.674979 0.440652
O O15 0.000000 0.735388 0.500000
O O16 0.077603 0.821516 0.400210
O O17 0.874488 0.138093 0.394651
O O18 0.753994 0.000000 0.454688
O O19 0.024432 0.000000 0.370974
#
# Coordination Sequence:
#
# PCOD8086131 Si02
#       8
#     8   8   8   8   8   8   8   8
#     4  10  19  31  48  68  89 115 148 184 221 262
#     4   9  18  32  48  65  88 118 148 180 221 267
#     4   9  18  32  48  67  90 116 149 187 223 259
#     4  10  19  31  48  68  90 116 145 180 222 266
#     4   9  17  29  46  68  93 121 151 183 220 262
#     4   9  17  29  46  69  94 119 149 184 222 263
#     4   9  17  30  48  67  89 119 152 185 220 260
#     4   9  19  32  45  67  93 114 143 181 221 267
#
# _framework density 16.536087999999999
#
# number of rings (size 3 to 8) (size 9 to 14) (size 15 to 20)
#    0.000    2.750    0.000    1.500    0.000    5.250 
#    0.000    0.000    0.000    5.250    0.000    0.000 
#    0.000    0.000    0.000    0.000    0.000    0.000 
#
# Total GULP energy -396839.334042 kJ/mol
# GULP energy per Si atom -12401.229189 kJ/mol
# Density = 1.649845 g / cm^3
# Si number density = 16.536088 Si / 1000 Ang^3
#
#
#
# Elastic Constant Matrix: (Units=GPa)
#
#
# Indices 1 2 3 4 5 6 
#
# 1 96.6174 66.0673 46.3408 0.0000 3.8331 0.0000
# 2 66.0673 96.3654 50.4016 0.0000 2.5486 0.0000
# 3 46.3408 50.4016 114.8530 0.0000 3.0929 0.0000
# 4 0.0000 0.0000 0.0000 20.8745 0.0000 -0.6299
# 5 3.8331 2.5486 3.0929 0.0000 18.1553 0.0000
# 6 0.0000 0.0000 0.0000 -0.6299 0.0000 28.1537
#
#
#
# Elastic Compliance Matrix: (Units=1/GPa)
#
#
# Indices 1 2 3 4 5 6 
#
# 1 0.020176 -0.012394 -0.002646 0.000000 -0.002069 0.000000
# 2 -0.012394 0.021096 -0.004267 0.000000 0.000382 0.000000
# 3 -0.002646 -0.004267 0.011669 0.000000 -0.000830 0.000000
# 4 0.000000 0.000000 0.000000 0.047938 0.000000 0.001073
# 5 -0.002069 0.000382 -0.000830 0.000000 0.055605 0.000000
# 6 0.000000 0.000000 0.000000 0.001073 0.000000 0.035543
#
#
# Mechanical properties :
#
#
# Convention : Reuss Voigt Hill
#
# Bulk Modulus (GPa) = 69.79767 70.38393 70.09080
# Shear Modulus (GPa) = 21.23874 23.10512 22.17193
#
# Velocity S-wave (km/s) = 3.58772 3.74204 3.66569
# Velocity P-wave (km/s) = 7.71124 7.83114 7.77142
#
# Compressibility (1/GPa) = 0.01432712
#
# Stress axis : x y z
#
# Youngs Moduli (GPa) = 49.56261 47.40172 85.69396
#
# Poissons Ratio (x) = 0.58750 0.22675
# Poissons Ratio (y) = 0.61429 0.36568
# Poissons Ratio (z) = 0.13115 0.20228
#
# Static dielectric constant tensor:
#      x y z
#    x 3.117840 0.000000 -0.068390 
#    y 0.000000 2.982700 0.000000 
#    z -0.068390 0.000000 3.133680 
# 
# 
# High freq. dielectric constant tensor:
#      x y z
#    x 1.636460 0.000000 -0.002890 
#    y 0.000000 1.626360 0.000000 
#    z -0.002890 0.000000 1.635180 
# 
# From -- ./inp_files/335213.got.cif
#   From: 2010.06.25/outbox.cif.g09.slc.cpg/sg12_168_cif.got.tgz:335213.got - 2010.06.28 00:19:55.
