data_PCOD8086004
_publ_section_title
;
Structure prediction by ZEFSAII (Michael W. Deem and Ramdas Pophale) SiO2 
 PCOD8086004
Probable space group: C 2/M
;
_chemical_formula_sum "Si O2"
_cell_formula_units_Z 64
_cell_length_a 9.144845
_cell_length_b 27.461309
_cell_length_c 14.652546
_cell_angle_alpha 90.000000
_cell_angle_beta 108.889549
_cell_angle_gamma 90.000000
_cell_volume 3481.513735
_symmetry_space_group_name_H-M "C 2/M"
_symmetry_group_IT_number 12
_symmetry_cell_setting 'monoclinic'
loop_
_space_group_symop_operation_xyz
x,y,z
-x,y,-z
-x,-y,-z
x,-y,z
1/2+x,1/2+y,z
1/2-x,1/2+y,-z
1/2-x,1/2-y,-z
1/2+x,1/2-y,z
loop_
_atom_site_type_symbol
_atom_site_label
_atom_site_fract_x
_atom_site_fract_y
_atom_site_fract_z
Si Si1 0.542495 0.381278 0.307315
Si Si2 0.334134 0.108343 0.493918
Si Si3 0.848438 0.712998 0.575776
Si Si4 0.140176 0.945468 0.597751
Si Si5 0.983143 0.856083 0.102282
Si Si6 0.339532 0.820918 0.989193
Si Si7 0.115014 0.220358 0.683956
Si Si8 0.208079 0.773442 0.123618
O O1 0.708625 0.394015 0.385972
O O2 0.409652 0.415722 0.322440
O O3 0.548633 0.390438 0.197786
O O4 0.496869 0.325129 0.317200
O O5 0.500000 0.085059 0.500000
O O6 0.366072 0.163688 0.524886
O O7 0.281309 0.079850 0.573750
O O8 0.750000 0.750000 0.500000
O O9 0.758332 0.702679 0.651819
O O10 0.017145 0.736370 0.619085
O O11 0.000000 0.946560 0.500000
O O12 0.187944 0.000000 0.637038
O O13 0.800971 0.849809 0.086348
O O14 0.062861 0.803378 0.134275
O O15 0.000000 0.875641 0.000000
O O16 0.362742 0.766404 0.957090
O O17 0.500000 0.849453 0.000000
O O18 0.309132 0.814709 0.091158
O O19 0.185475 0.245532 0.785516
#
# Coordination Sequence:
#
# PCOD8086004 Si02
#       8
#     8   8   8   8   8   8   8   8
#     4  11  21  38  58  80 112 148 192 232 279 337
#     4  11  23  38  55  85 118 146 186 232 274 337
#     4  12  24  34  47  71 113 160 188 218 266 323
#     4   9  20  41  66  85 107 141 186 241 291 332
#     4  10  21  36  50  74 110 151 188 239 281 323
#     4  10  19  31  47  65  99 140 191 246 268 309
#     4  12  23  33  49  72 107 159 195 227 264 331
#     4  10  20  31  45  68  98 148 196 224 273 309
#
# _framework density 18.382809000000002
#
# number of rings (size 3 to 8) (size 9 to 14) (size 15 to 20)
#    0.000    1.375    3.750    3.750    3.500    0.250 
#    0.000    0.000    0.000    0.375    0.000    0.000 
#    0.000    1.500    0.000    0.000    0.000    0.000 
#
# Total GULP energy -396539.506797 kJ/mol
# GULP energy per Si atom -12391.859587 kJ/mol
# Density = 1.834097 g / cm^3
# Si number density = 18.382809 Si / 1000 Ang^3
#
#
#
# Elastic Constant Matrix: (Units=GPa)
#
#
# Indices 1 2 3 4 5 6 
#
# 1 121.0506 26.9024 38.2106 0.0000 10.1737 0.0000
# 2 26.9024 61.2799 33.1470 0.0000 -5.8629 0.0000
# 3 38.2106 33.1470 103.2105 0.0000 -7.3070 0.0000
# 4 0.0000 0.0000 0.0000 13.4698 0.0000 -4.3209
# 5 10.1737 -5.8629 -7.3070 0.0000 23.1524 0.0000
# 6 0.0000 0.0000 0.0000 -4.3209 0.0000 13.5783
#
#
#
# Elastic Compliance Matrix: (Units=1/GPa)
#
#
# Indices 1 2 3 4 5 6 
#
# 1 0.010632 -0.003530 -0.003270 0.000000 -0.006598 0.000000
# 2 -0.003530 0.021137 -0.005107 0.000000 0.005292 0.000000
# 3 -0.003270 -0.005107 0.012836 0.000000 0.004195 0.000000
# 4 0.000000 0.000000 0.000000 0.082680 0.000000 0.026311
# 5 -0.006598 0.005292 0.004195 0.000000 0.048755 0.000000
# 6 0.000000 0.000000 0.000000 0.026311 0.000000 0.082020
#
#
# Mechanical properties :
#
#
# Convention : Reuss Voigt Hill
#
# Bulk Modulus (GPa) = 48.09434 53.56236 50.82835
# Shear Modulus (GPa) = 17.31272 22.52549 19.91911
#
# Velocity S-wave (km/s) = 3.07219 3.50431 3.29534
# Velocity P-wave (km/s) = 6.22928 6.75085 6.49530
#
# Compressibility (1/GPa) = 0.02079247
#
# Stress axis : x y z
#
# Youngs Moduli (GPa) = 94.05409 47.31044 77.90329
#
# Poissons Ratio (x) = 0.16702 0.25471
# Poissons Ratio (y) = 0.33204 0.39783
# Poissons Ratio (z) = 0.30752 0.24160
#
# Static dielectric constant tensor:
#      x y z
#    x 4.519760 0.000000 -0.287220 
#    y 0.000000 3.002060 0.000000 
#    z -0.287220 0.000000 3.442320 
# 
# 
# High freq. dielectric constant tensor:
#      x y z
#    x 1.729970 0.000000 -0.007010 
#    y 0.000000 1.652420 0.000000 
#    z -0.007010 0.000000 1.711050 
# 
# From -- ./inp_files/199760.got.cif
#   From: 2010.06.25/outbox.cif.g09.slc.cpg/sg12_100_cif.got.tgz:199760.got - 2010.06.28 00:19:55.
