data_PCOD8086180
_publ_section_title
;
Structure prediction by ZEFSAII (Michael W. Deem and Ramdas Pophale) SiO2 
 PCOD8086180
Probable space group: C 2/M
;
_chemical_formula_sum "Si O2"
_cell_formula_units_Z 64
_cell_length_a 28.934688
_cell_length_b 9.285946
_cell_length_c 25.744718
_cell_angle_alpha 90.000000
_cell_angle_beta 32.315204
_cell_angle_gamma 90.000000
_cell_volume 3697.796992
_symmetry_space_group_name_H-M "C 2/M"
_symmetry_group_IT_number 12
_symmetry_cell_setting 'monoclinic'
loop_
_space_group_symop_operation_xyz
x,y,z
-x,y,-z
-x,-y,-z
x,-y,z
1/2+x,1/2+y,z
1/2-x,1/2+y,-z
1/2-x,1/2-y,-z
1/2+x,1/2-y,z
loop_
_atom_site_type_symbol
_atom_site_label
_atom_site_fract_x
_atom_site_fract_y
_atom_site_fract_z
Si Si1 0.802111 0.336002 0.333317
Si Si2 0.055525 0.169392 0.738291
Si Si3 0.709547 0.335040 0.110494
Si Si4 0.475989 0.839659 0.463078
Si Si5 0.638564 0.333505 0.287265
Si Si6 0.181154 0.161246 0.535666
Si Si7 0.315655 0.333169 0.642183
Si Si8 0.383438 0.167987 0.887737
O O1 0.836076 0.500000 0.308742
O O2 0.873630 0.227114 0.287396
O O3 0.705708 0.319083 0.451898
O O4 0.778549 0.304916 0.295137
O O5 0.086425 0.203173 0.648844
O O6 0.966834 0.252851 0.831647
O O7 0.041349 0.000000 0.761783
O O8 0.684377 0.500000 0.121709
O O9 0.702136 0.301822 0.178780
O O10 0.643649 0.233903 0.141861
O O11 0.807965 0.303712 0.001147
O O12 0.500000 0.846302 0.500000
O O13 0.551007 0.755742 0.361160
O O14 0.385809 0.757701 0.543507
O O15 0.467048 0.000000 0.447946
O O16 0.611485 0.500000 0.315308
O O17 0.687835 0.287982 0.293691
O O18 0.250000 0.250000 0.500000
O O19 0.196386 0.000000 0.539782
O O20 0.341667 0.500000 0.612365
O O21 0.403249 0.000000 0.861416
#
# Coordination Sequence:
#
# PCOD8086180 Si02
#       8
#     8   8   8   8   8   8   8   8
#     4   9  17  30  47  68  95 126 160 195 229 268
#     4  10  19  31  48  70  96 126 158 191 232 281
#     4   9  19  35  53  72  94 120 152 194 242 289
#     4   9  17  28  42  64  95 127 159 195 232 271
#     4   9  17  31  50  70  94 125 161 198 237 282
#     4   8  15  27  42  61  87 118 150 184 220 260
#     4   9  17  29  47  70  96 129 165 198 233 275
#     4  10  20  34  52  73  95 119 151 193 242 292
#
# _framework density 17.307601999999999
#
# number of rings (size 3 to 8) (size 9 to 14) (size 15 to 20)
#    0.000    2.875    0.000    1.125    0.000    4.500 
#    0.000    2.500    0.000    0.750    0.000    5.250 
#    0.000    0.000    0.000    0.000    0.000    0.000 
#
# Total GULP energy -396449.439035 kJ/mol
# GULP energy per Si atom -12389.044970 kJ/mol
# Density = 1.726821 g / cm^3
# Si number density = 17.307602 Si / 1000 Ang^3
#
#
#
# Elastic Constant Matrix: (Units=GPa)
#
#
# Indices 1 2 3 4 5 6 
#
# 1 88.3589 45.3827 51.3191 0.0043 -3.7415 -0.0004
# 2 45.3827 88.0768 48.9103 0.0285 -6.6722 -0.0108
# 3 51.3191 48.9103 89.3722 0.0115 -2.5035 -0.0033
# 4 0.0043 0.0285 0.0115 23.7910 -0.0043 -3.6095
# 5 -3.7415 -6.6722 -2.5035 -0.0043 22.5727 0.0011
# 6 -0.0004 -0.0108 -0.0033 -3.6095 0.0011 22.1927
#
#
#
# Elastic Compliance Matrix: (Units=1/GPa)
#
#
# Indices 1 2 3 4 5 6 
#
# 1 0.018525 -0.005168 -0.007790 0.000006 0.000679 -0.000002
# 2 -0.005168 0.018091 -0.006829 -0.000016 0.003734 0.000005
# 3 -0.007790 -0.006829 0.019367 0.000000 -0.001162 0.000000
# 4 0.000006 -0.000016 0.000000 0.043096 0.000004 0.007009
# 5 0.000679 0.003734 -0.001162 0.000004 0.045389 0.000000
# 6 -0.000002 0.000005 0.000000 0.007009 0.000000 0.046200
#
#
# Mechanical properties :
#
#
# Convention : Reuss Voigt Hill
#
# Bulk Modulus (GPa) = 60.93871 61.89246 61.41558
# Shear Modulus (GPa) = 21.21235 21.72436 21.46836
#
# Velocity S-wave (km/s) = 3.50467 3.54671 3.52575
# Velocity P-wave (km/s) = 7.18767 7.25328 7.22055
#
# Compressibility (1/GPa) = 0.01640993
#
# Stress axis : x y z
#
# Youngs Moduli (GPa) = 53.98079 55.27458 51.63398
#
# Poissons Ratio (x) = 0.28565 0.40224
# Poissons Ratio (y) = 0.27896 0.35260
# Poissons Ratio (z) = 0.42052 0.37746
#
# Static dielectric constant tensor:
#      x y z
#    x 3.643630 -0.000010 0.544540 
#    y -0.000010 3.386450 0.000020 
#    z 0.544540 0.000020 3.476120 
# 
# 
# High freq. dielectric constant tensor:
#      x y z
#    x 1.653890 0.000000 0.002580 
#    y 0.000000 1.675680 0.000000 
#    z 0.002580 0.000000 1.646820 
# 
# From -- ./inp_files/384514.got.cif
#   From: 2010.06.25/outbox.cif.g09.slc.cpg/sg12_193_cif.got.tgz:384514.got - 2010.06.28 00:19:55.
