data_PCOD8086267
_publ_section_title
;
Structure prediction by ZEFSAII (Michael W. Deem and Ramdas Pophale) SiO2 
 PCOD8086267
Probable space group: C 2/M
;
_chemical_formula_sum "Si O2"
_cell_formula_units_Z 48
_cell_length_a 17.545982
_cell_length_b 14.455532
_cell_length_c 11.027441
_cell_angle_alpha 90.000000
_cell_angle_beta 111.416128
_cell_angle_gamma 90.000000
_cell_volume 2603.839978
_symmetry_space_group_name_H-M "C 2/M"
_symmetry_group_IT_number 12
_symmetry_cell_setting 'monoclinic'
loop_
_space_group_symop_operation_xyz
x,y,z
-x,y,-z
-x,-y,-z
x,-y,z
1/2+x,1/2+y,z
1/2-x,1/2+y,-z
1/2-x,1/2-y,-z
1/2+x,1/2-y,z
loop_
_atom_site_type_symbol
_atom_site_label
_atom_site_fract_x
_atom_site_fract_y
_atom_site_fract_z
Si Si1 0.809094 0.805920 0.876114
Si Si2 0.431300 0.304984 0.366132
Si Si3 0.330075 0.500000 0.964397
Si Si4 0.871359 0.307089 0.119976
Si Si5 0.403143 0.500000 0.258169
Si Si6 0.727294 0.000000 0.279408
Si Si7 0.747620 0.698317 0.625296
Si Si8 0.653173 0.000000 0.982972
O O1 0.719091 0.801992 0.879052
O O2 0.808878 0.756009 0.746675
O O3 0.838811 0.911754 0.881591
O O4 0.873581 0.755166 0.000889
O O5 0.500000 0.273070 0.500000
O O6 0.434555 0.233368 0.255371
O O7 0.450867 0.408504 0.329930
O O8 0.344178 0.300444 0.379832
O O9 0.398883 0.500000 0.109381
O O10 0.243907 0.500000 0.982630
O O11 0.895804 0.411011 0.095605
O O12 0.313119 0.500000 0.261058
O O13 0.720042 0.908212 0.359573
O O14 0.658286 0.000000 0.133077
O O15 0.750000 0.750000 0.500000
#
# Coordination Sequence:
#
# PCOD8086267 Si02
#       8
#     8   8   4   8   4   4   8   4
#     4   9  15  25  43  68  94 118 153 200 238 269
#     4  10  19  31  48  73 102 129 156 192 239 291
#     4   9  14  22  42  73  99 114 147 206 246 273
#     4   9  15  25  44  68  90 117 158 202 237 267
#     4   9  15  26  47  75  99 123 155 190 238 289
#     4   9  16  28  48  71  95 123 159 200 235 283
#     4  10  20  32  48  72 100 129 159 193 240 289
#     4   9  14  24  44  69  91 116 157 208 248 265
#
# _framework density 18.434311999999998
#
# number of rings (size 3 to 8) (size 9 to 14) (size 15 to 20)
#    0.000    2.667    3.333    0.250    0.000    0.667 
#    0.000    1.250    0.000    1.000    0.000    2.333 
#    0.000    0.000    0.000    0.000    0.000    0.000 
#
# Total GULP energy -297462.517845 kJ/mol
# GULP energy per Si atom -12394.271577 kJ/mol
# Density = 1.839235 g / cm^3
# Si number density = 18.434312 Si / 1000 Ang^3
#
#
#
# Elastic Constant Matrix: (Units=GPa)
#
#
# Indices 1 2 3 4 5 6 
#
# 1 6.1707 13.6347 15.5451 0.0000 -0.2198 0.0000
# 2 13.6347 196.4507 101.7091 0.0000 -6.3811 0.0000
# 3 15.5451 101.7091 174.3136 0.0000 4.3790 0.0000
# 4 0.0000 0.0000 0.0000 37.7062 0.0000 -3.0442
# 5 -0.2198 -6.3811 4.3790 0.0000 21.6145 0.0000
# 6 0.0000 0.0000 0.0000 -3.0442 0.0000 9.1865
#
#
#
# Elastic Compliance Matrix: (Units=1/GPa)
#
#
# Indices 1 2 3 4 5 6 
#
# 1 0.216086 -0.006983 -0.015277 0.000000 0.003230 0.000000
# 2 -0.006983 0.007722 -0.003959 0.000000 0.003011 0.000000
# 3 -0.015277 -0.003959 0.009491 0.000000 -0.003247 0.000000
# 4 0.000000 0.000000 0.000000 0.027250 0.000000 0.009030
# 5 0.003230 0.003011 -0.003247 0.000000 0.047845 0.000000
# 6 0.000000 0.000000 0.000000 0.009030 0.000000 0.111847
#
#
# Mechanical properties :
#
#
# Convention : Reuss Voigt Hill
#
# Bulk Modulus (GPa) = 5.52911 70.96810 38.24861
# Shear Modulus (GPa) = 9.38147 30.10452 19.74299
#
# Velocity S-wave (km/s) = 2.25836 4.04551 3.27615
# Velocity P-wave (km/s) = 3.13147 7.77193 5.92491
#
# Compressibility (1/GPa) = 0.18086097
#
# Stress axis : x y z
#
# Youngs Moduli (GPa) = 4.62779 129.49358 105.36733
#
# Poissons Ratio (x) = 0.90428 1.60969
# Poissons Ratio (y) = 0.03232 0.41712
# Poissons Ratio (z) = 0.07070 0.51264
#
# Static dielectric constant tensor:
#      x y z
#    x 2.612240 0.000000 -0.003700 
#    y 0.000000 3.816630 0.000000 
#    z -0.003700 0.000000 3.491150 
# 
# 
# High freq. dielectric constant tensor:
#      x y z
#    x 1.632520 0.000000 0.001540 
#    y 0.000000 1.733680 0.000000 
#    z 0.001540 0.000000 1.719050 
# 
# From -- ./inp_files/165230.got.cif
#   From: 2010.06.25/outbox.cif.g09.slc.cpg/sg12_83_cif.got.tgz:165230.got - 2010.06.28 00:19:55.
