data_PCOD8086363
_publ_section_title
;
Structure prediction by ZEFSAII (Michael W. Deem and Ramdas Pophale) SiO2 
 PCOD8086363
Probable space group: C 2/M
;
_chemical_formula_sum "Si O2"
_cell_formula_units_Z 64
_cell_length_a 10.827536
_cell_length_b 27.126838
_cell_length_c 12.562034
_cell_angle_alpha 90.000000
_cell_angle_beta 89.182252
_cell_angle_gamma 90.000000
_cell_volume 3689.304827
_symmetry_space_group_name_H-M "C 2/M"
_symmetry_group_IT_number 12
_symmetry_cell_setting 'monoclinic'
loop_
_space_group_symop_operation_xyz
x,y,z
-x,y,-z
-x,-y,-z
x,-y,z
1/2+x,1/2+y,z
1/2-x,1/2+y,-z
1/2-x,1/2-y,-z
1/2+x,1/2-y,z
loop_
_atom_site_type_symbol
_atom_site_label
_atom_site_fract_x
_atom_site_fract_y
_atom_site_fract_z
Si Si1 0.758866 0.140552 0.627630
Si Si2 0.497546 0.187182 0.626222
Si Si3 0.236426 0.859528 0.624330
Si Si4 0.002383 0.202422 0.374098
Si Si5 0.256993 0.556293 0.787307
Si Si6 0.993977 0.555482 0.883417
Si Si7 0.142319 0.946105 0.999002
Si Si8 0.752508 0.441615 0.782804
O O1 0.623233 0.160302 0.665226
O O2 0.763304 0.131973 0.501700
O O3 0.786946 0.088382 0.683395
O O4 0.869440 0.176719 0.663699
O O5 0.500000 0.189164 0.500000
O O6 0.368748 0.161600 0.662861
O O7 0.498536 0.242466 0.673871
O O8 0.122966 0.824684 0.662564
O O9 0.210114 0.912516 0.678479
O O10 0.000000 0.205061 0.500000
O O11 0.303185 0.500000 0.766141
O O12 0.113119 0.558501 0.810285
O O13 0.318784 0.581053 0.892243
O O14 0.952628 0.500000 0.909407
O O15 0.890685 0.576604 0.806257
O O16 0.000000 0.582458 0.000000
O O17 0.209414 0.000000 0.002535
O O18 0.179213 0.921142 0.887509
O O19 0.000000 0.953530 0.000000
O O20 0.733117 0.500000 0.761691
#
# Coordination Sequence:
#
# PCOD8086363 Si02
#       8
#     8   8   8   8   8   8   8   8
#     4  10  20  32  49  77 106 131 162 196 244 308
#     4   9  17  33  54  73  97 127 164 212 251 282
#     4  10  20  32  49  77 106 131 162 196 244 308
#     4   9  18  33  52  73  98 128 165 210 249 284
#     4  10  19  31  49  72 102 134 164 201 240 286
#     4   9  15  28  47  67  90 120 165 213 243 263
#     4   9  18  31  47  67  92 129 175 212 237 267
#     4  10  19  31  49  72 102 134 164 201 240 286
#
# _framework density 17.347442000000001
#
# number of rings (size 3 to 8) (size 9 to 14) (size 15 to 20)
#    0.000    2.500    1.250    1.500    1.750    3.500 
#    0.000    0.000    0.000    6.750    0.000    5.250 
#    0.000    0.000    0.000    0.000    0.000    0.000 
#
# Total GULP energy -396419.900286 kJ/mol
# GULP energy per Si atom -12388.121884 kJ/mol
# Density = 1.730796 g / cm^3
# Si number density = 17.347442 Si / 1000 Ang^3
#
#
#
# Elastic Constant Matrix: (Units=GPa)
#
#
# Indices 1 2 3 4 5 6 
#
# 1 110.4946 35.4868 25.9365 0.0000 1.4769 0.0000
# 2 35.4868 95.7366 47.8525 0.0000 2.1349 0.0000
# 3 25.9365 47.8525 63.4368 0.0000 2.9618 0.0000
# 4 0.0000 0.0000 0.0000 8.5891 0.0000 -0.4357
# 5 1.4769 2.1349 2.9618 0.0000 10.9743 0.0000
# 6 0.0000 0.0000 0.0000 -0.4357 0.0000 19.5894
#
#
#
# Elastic Compliance Matrix: (Units=1/GPa)
#
#
# Indices 1 2 3 4 5 6 
#
# 1 0.010457 -0.002792 -0.002156 0.000000 -0.000282 0.000000
# 2 -0.002792 0.017513 -0.012080 0.000000 0.000229 0.000000
# 3 -0.002156 -0.012080 0.025961 0.000000 -0.004366 0.000000
# 4 0.000000 0.000000 0.000000 0.116558 0.000000 0.002593
# 5 -0.000282 0.000229 -0.004366 0.000000 0.092294 0.000000
# 6 0.000000 0.000000 0.000000 0.002593 0.000000 0.051106
#
#
# Mechanical properties :
#
#
# Convention : Reuss Voigt Hill
#
# Bulk Modulus (GPa) = 50.31355 54.24663 52.28009
# Shear Modulus (GPa) = 14.10161 18.52338 16.31249
#
# Velocity S-wave (km/s) = 2.85422 3.27125 3.06982
# Velocity P-wave (km/s) = 6.31890 6.75327 6.53969
#
# Compressibility (1/GPa) = 0.01987536
#
# Stress axis : x y z
#
# Youngs Moduli (GPa) = 95.63164 57.10013 38.51888
#
# Poissons Ratio (x) = 0.15943 0.08305
# Poissons Ratio (y) = 0.26701 0.46530
# Poissons Ratio (z) = 0.20618 0.68976
#
# Static dielectric constant tensor:
#      x y z
#    x 3.447460 0.000000 0.063980 
#    y 0.000000 3.096860 0.000000 
#    z 0.063980 0.000000 3.024680 
# 
# 
# High freq. dielectric constant tensor:
#      x y z
#    x 1.691810 0.000000 0.002710 
#    y 0.000000 1.636150 0.000000 
#    z 0.002710 0.000000 1.643460 
# 
# From -- ./inp_files/136684.got.cif
#   From: 2010.06.25/outbox.cif.g09.slc.cpg/sg12_69_cif.got.tgz:136684.got - 2010.06.28 00:19:55.
