data_PCOD8086304
_publ_section_title
;
Structure prediction by ZEFSAII (Michael W. Deem and Ramdas Pophale) SiO2 
 PCOD8086304
Probable space group: C 2/M
;
_chemical_formula_sum "Si O2"
_cell_formula_units_Z 64
_cell_length_a 29.844777
_cell_length_b 9.221783
_cell_length_c 14.920225
_cell_angle_alpha 90.000000
_cell_angle_beta 77.763669
_cell_angle_gamma 90.000000
_cell_volume 4013.085149
_symmetry_space_group_name_H-M "C 2/M"
_symmetry_group_IT_number 12
_symmetry_cell_setting 'monoclinic'
loop_
_space_group_symop_operation_xyz
x,y,z
-x,y,-z
-x,-y,-z
x,-y,z
1/2+x,1/2+y,z
1/2-x,1/2+y,-z
1/2-x,1/2-y,-z
1/2+x,1/2-y,z
loop_
_atom_site_type_symbol
_atom_site_label
_atom_site_fract_x
_atom_site_fract_y
_atom_site_fract_z
Si Si1 0.372749 0.171640 0.253860
Si Si2 0.307568 0.829266 0.118295
Si Si3 0.284454 0.833324 0.599341
Si Si4 0.682952 0.668738 0.578825
Si Si5 0.443993 0.667535 0.930218
Si Si6 0.452417 0.331429 0.131863
Si Si7 0.142179 0.669714 0.081851
Si Si8 0.715224 0.831345 0.197194
O O1 0.338289 0.218065 0.189418
O O2 0.356449 0.245007 0.352566
O O3 0.423076 0.231988 0.210681
O O4 0.375073 0.000000 0.265571
O O5 0.258395 0.756424 0.143935
O O6 0.299853 0.000000 0.119302
O O7 0.332022 0.773450 0.017821
O O8 0.314446 0.730447 0.523011
O O9 0.230679 0.802685 0.609124
O O10 0.297195 0.792488 0.695392
O O11 0.295869 0.000000 0.571563
O O12 0.670249 0.500000 0.580348
O O13 0.431411 0.500000 0.928130
O O14 0.494304 0.697049 0.868494
O O15 0.407280 0.756199 0.888098
O O16 0.442227 0.716605 0.034449
O O17 0.439987 0.500000 0.151113
O O18 0.133700 0.500000 0.078584
O O19 0.171515 0.712000 0.156453
O O20 0.727586 0.000000 0.182258
#
# Coordination Sequence:
#
# PCOD8086304 Si02
#       8
#     8   8   8   8   8   8   8   8
#     4  11  20  30  47  72  99 128 157 193 238 283
#     4  10  20  31  43  66  99 130 164 198 228 269
#     4   9  18  32  47  67  92 122 159 199 239 279
#     4  10  19  31  49  69  92 124 158 196 240 285
#     4   9  18  32  49  69  93 124 161 200 238 277
#     4   9  18  32  49  69  94 124 160 198 237 283
#     4  10  20  33  47  68  97 129 165 200 234 276
#     4  10  20  33  49  67  93 130 167 199 234 277
#
# _framework density 15.94783
#
# number of rings (size 3 to 8) (size 9 to 14) (size 15 to 20)
#    0.000    2.250    2.500    1.875    0.000    3.000 
#    0.000    1.250    0.000    0.000    0.000    0.875 
#    0.000    7.000    0.000    0.000    0.000    0.000 
#
# Total GULP energy -396890.584084 kJ/mol
# GULP energy per Si atom -12402.830753 kJ/mol
# Density = 1.591153 g / cm^3
# Si number density = 15.947830 Si / 1000 Ang^3
#
#
#
# Elastic Constant Matrix: (Units=GPa)
#
#
# Indices 1 2 3 4 5 6 
#
# 1 99.5457 47.3144 49.5402 0.0000 -4.9920 0.0000
# 2 47.3144 62.4958 42.9023 0.0000 -10.1009 0.0000
# 3 49.5402 42.9023 91.7332 0.0000 -8.0460 0.0000
# 4 0.0000 0.0000 0.0000 25.0418 0.0000 -5.8651
# 5 -4.9920 -10.1009 -8.0460 0.0000 23.0056 0.0000
# 6 0.0000 0.0000 0.0000 -5.8651 0.0000 29.3692
#
#
#
# Elastic Compliance Matrix: (Units=1/GPa)
#
#
# Indices 1 2 3 4 5 6 
#
# 1 0.017053 -0.010057 -0.004713 0.000000 -0.002364 0.000000
# 2 -0.010057 0.030544 -0.008118 0.000000 0.008389 0.000000
# 3 -0.004713 -0.008118 0.017374 0.000000 0.001489 0.000000
# 4 0.000000 0.000000 0.000000 0.041893 0.000000 0.008366
# 5 -0.002364 0.008389 0.001489 0.000000 0.047159 0.000000
# 6 0.000000 0.000000 0.000000 0.008366 0.000000 0.035720
#
#
# Mechanical properties :
#
#
# Convention : Reuss Voigt Hill
#
# Bulk Modulus (GPa) = 52.09847 59.25427 55.67637
# Shear Modulus (GPa) = 20.66839 23.08451 21.87645
#
# Velocity S-wave (km/s) = 3.60391 3.80873 3.70773
# Velocity P-wave (km/s) = 7.07506 7.52181 7.30185
#
# Compressibility (1/GPa) = 0.01919442
#
# Stress axis : x y z
#
# Youngs Moduli (GPa) = 58.64175 32.74013 57.55827
#
# Poissons Ratio (x) = 0.32926 0.27128
# Poissons Ratio (y) = 0.58975 0.46725
# Poissons Ratio (z) = 0.27639 0.26578
#
# Static dielectric constant tensor:
#      x y z
#    x 2.878170 0.000000 -0.012540 
#    y 0.000000 2.983590 0.000000 
#    z -0.012540 0.000000 2.970320 
# 
# 
# High freq. dielectric constant tensor:
#      x y z
#    x 1.594140 0.000000 -0.008930 
#    y 0.000000 1.616520 0.000000 
#    z -0.008930 0.000000 1.600440 
# 
# From -- ./inp_files/244016.got.cif
#   From: 2010.06.25/outbox.cif.g09.slc.cpg/sg12_123_cif.got.tgz:244016.got - 2010.06.28 00:19:55.
