data_PCOD8086374
_publ_section_title
;
Structure prediction by ZEFSAII (Michael W. Deem and Ramdas Pophale) SiO2 
 PCOD8086374
Probable space group: C 2/M
;
_chemical_formula_sum "Si O2"
_cell_formula_units_Z 56
_cell_length_a 12.785845
_cell_length_b 13.551512
_cell_length_c 27.048458
_cell_angle_alpha 90.000000
_cell_angle_beta 40.594992
_cell_angle_gamma 90.000000
_cell_volume 3049.620137
_symmetry_space_group_name_H-M "C 2/M"
_symmetry_group_IT_number 12
_symmetry_cell_setting 'monoclinic'
loop_
_space_group_symop_operation_xyz
x,y,z
-x,y,-z
-x,-y,-z
x,-y,z
1/2+x,1/2+y,z
1/2-x,1/2+y,-z
1/2-x,1/2-y,-z
1/2+x,1/2-y,z
loop_
_atom_site_type_symbol
_atom_site_label
_atom_site_fract_x
_atom_site_fract_y
_atom_site_fract_z
Si Si1 0.556843 0.741213 0.698852
Si Si2 0.355952 0.113921 0.086689
Si Si3 0.163519 0.798765 0.348151
Si Si4 0.499919 0.385887 0.186537
Si Si5 0.991430 0.611883 0.444836
Si Si6 0.288012 0.750935 0.201575
Si Si7 0.367059 0.611187 0.421904
O O1 0.697464 0.820870 0.660988
O O2 0.563703 0.660130 0.739799
O O3 0.381871 0.793177 0.758305
O O4 0.601270 0.688032 0.632607
O O5 0.191761 0.129876 0.114947
O O6 0.365212 0.177532 0.133276
O O7 0.375185 0.000000 0.095487
O O8 0.500000 0.149202 0.000000
O O9 0.243238 0.815906 0.265809
O O10 0.106871 0.684323 0.373344
O O11 0.008978 0.870039 0.411397
O O12 0.452930 0.500000 0.202144
O O13 0.415001 0.334324 0.169725
O O14 0.047529 0.500000 0.413892
O O15 0.808274 0.629181 0.491702
O O16 0.000000 0.634897 0.500000
O O17 0.377475 0.500000 0.397551
#
# Coordination Sequence:
#
# PCOD8086374 Si02
#       7
#     8   8   8   8   8   8   8
#     4   9  17  31  48  71  99 131 170 210 248 286
#     4   9  18  34  56  80 104 129 161 203 245 288
#     4  10  19  31  49  73 101 130 163 209 256 294
#     4   9  17  30  50  74 102 134 167 200 240 290
#     4  10  19  31  50  75  96 125 170 215 256 294
#     4   9  19  31  49  77 102 130 166 203 246 292
#     4  10  19  31  49  72  96 127 168 211 256 299
#
# _framework density 18.362943000000001
#
# number of rings (size 3 to 8) (size 9 to 14) (size 15 to 20)
#    0.000    2.571    1.429    0.857    0.000    6.286 
#    0.000    0.714    0.000    6.857    0.000    0.000 
#    0.000    0.000    0.000    0.000    0.000    0.000 
#
# Total GULP energy -347009.070107 kJ/mol
# GULP energy per Si atom -12393.181075 kJ/mol
# Density = 1.832115 g / cm^3
# Si number density = 18.362943 Si / 1000 Ang^3
#
#
#
# Elastic Constant Matrix: (Units=GPa)
#
#
# Indices 1 2 3 4 5 6 
#
# 1 95.6474 31.0256 25.7140 0.0000 -17.9577 0.0000
# 2 31.0256 41.8307 18.8285 0.0000 0.9436 0.0000
# 3 25.7140 18.8285 70.9415 0.0000 -4.6152 0.0000
# 4 0.0000 0.0000 0.0000 21.3359 0.0000 -2.5048
# 5 -17.9577 0.9436 -4.6152 0.0000 29.1449 0.0000
# 6 0.0000 0.0000 0.0000 -2.5048 0.0000 28.4183
#
#
#
# Elastic Compliance Matrix: (Units=1/GPa)
#
#
# Indices 1 2 3 4 5 6 
#
# 1 0.016805 -0.011652 -0.002325 0.000000 0.010364 0.000000
# 2 -0.011652 0.035349 -0.005759 0.000000 -0.009236 0.000000
# 3 -0.002325 -0.005759 0.016557 0.000000 0.001376 0.000000
# 4 0.000000 0.000000 0.000000 0.047360 0.000000 0.004174
# 5 0.010364 -0.009236 0.001376 0.000000 0.041214 0.000000
# 6 0.000000 0.000000 0.000000 0.004174 0.000000 0.035557
#
#
# Mechanical properties :
#
#
# Convention : Reuss Voigt Hill
#
# Bulk Modulus (GPa) = 34.20063 39.95066 37.07565
# Shear Modulus (GPa) = 20.65610 24.63657 22.64634
#
# Velocity S-wave (km/s) = 3.35756 3.66682 3.51559
# Velocity P-wave (km/s) = 5.80484 6.30324 6.05917
#
# Compressibility (1/GPa) = 0.02923922
#
# Stress axis : x y z
#
# Youngs Moduli (GPa) = 59.50451 28.28956 60.39804
#
# Poissons Ratio (x) = 0.32963 0.14041
# Poissons Ratio (y) = 0.69334 0.34785
# Poissons Ratio (z) = 0.13833 0.16293
#
# Static dielectric constant tensor:
#      x y z
#    x 3.814350 0.000000 -0.469940 
#    y 0.000000 3.156000 0.000000 
#    z -0.469940 0.000000 3.408360 
# 
# 
# High freq. dielectric constant tensor:
#      x y z
#    x 1.716400 0.000000 -0.028220 
#    y 0.000000 1.677920 0.000000 
#    z -0.028220 0.000000 1.706500 
# 
# From -- ./inp_files/373968.got.cif
#   From: 2010.06.25/outbox.cif.g09.slc.cpg/sg12_187_cif.got.tgz:373968.got - 2010.06.28 00:19:55.
