data_PCOD8086352
_publ_section_title
;
Structure prediction by ZEFSAII (Michael W. Deem and Ramdas Pophale) SiO2 
 PCOD8086352
Probable space group: C 2/M
;
_chemical_formula_sum "Si O2"
_cell_formula_units_Z 64
_cell_length_a 28.110035
_cell_length_b 9.029076
_cell_length_c 20.616998
_cell_angle_alpha 90.000000
_cell_angle_beta 131.408202
_cell_angle_gamma 90.000000
_cell_volume 3924.649527
_symmetry_space_group_name_H-M "C 2/M"
_symmetry_group_IT_number 12
_symmetry_cell_setting 'monoclinic'
loop_
_space_group_symop_operation_xyz
x,y,z
-x,y,-z
-x,-y,-z
x,-y,z
1/2+x,1/2+y,z
1/2-x,1/2+y,-z
1/2-x,1/2-y,-z
1/2+x,1/2-y,z
loop_
_atom_site_type_symbol
_atom_site_label
_atom_site_fract_x
_atom_site_fract_y
_atom_site_fract_z
Si Si1 0.468506 0.327516 0.666392
Si Si2 0.301497 0.170132 0.003435
Si Si3 0.186804 0.674808 0.660688
Si Si4 0.846751 0.672021 0.588469
Si Si5 0.740643 0.672058 0.592530
Si Si6 0.791690 0.830786 0.187752
Si Si7 0.607856 0.327175 0.832307
Si Si8 0.557740 0.328237 0.506045
O O1 0.457523 0.500000 0.670814
O O2 0.417739 0.232546 0.661538
O O3 0.537245 0.274469 0.752031
O O4 0.462935 0.292352 0.585492
O O5 0.369400 0.244427 0.081133
O O6 0.304373 0.000000 0.026497
O O7 0.250000 0.250000 0.000000
O O8 0.278301 0.186595 0.907949
O O9 0.189338 0.500000 0.656546
O O10 0.239328 0.745263 0.660094
O O11 0.204887 0.720518 0.749354
O O12 0.117373 0.730337 0.579190
O O13 0.846648 0.500000 0.568947
O O14 0.809039 0.698097 0.621481
O O15 0.815095 0.764029 0.502292
O O16 0.725830 0.500000 0.589653
O O17 0.846832 0.785998 0.187045
O O18 0.802286 0.000000 0.220523
O O19 0.610959 0.500000 0.849515
O O20 0.500000 0.282463 0.500000
O O21 0.575679 0.500000 0.531556
#
# Coordination Sequence:
#
# PCOD8086352 Si02
#       8
#     8   8   8   8   8   8   8   8
#     4  10  19  31  49  71  97 133 165 194 239 290
#     4   9  17  30  49  71  95 127 163 203 246 285
#     4  12  23  32  47  73  98 124 163 207 246 281
#     4  10  20  33  51  73  94 120 160 208 247 284
#     4  10  20  35  52  68  92 127 161 198 249 298
#     4   9  18  33  50  68  96 133 168 197 236 292
#     4   9  18  32  50  73  99 131 168 199 234 288
#     4  10  20  34  49  64  92 136 172 193 227 284
#
# _framework density 16.307189000000001
#
# number of rings (size 3 to 8) (size 9 to 14) (size 15 to 20)
#    0.000    2.125    1.250    3.750    0.000    6.750 
#    0.000    1.250    0.000    0.000    0.000    0.875 
#    0.000    7.000    0.000    0.000    0.000    0.000 
#
# Total GULP energy -396791.098910 kJ/mol
# GULP energy per Si atom -12399.721841 kJ/mol
# Density = 1.627007 g / cm^3
# Si number density = 16.307189 Si / 1000 Ang^3
#
#
#
# Elastic Constant Matrix: (Units=GPa)
#
#
# Indices 1 2 3 4 5 6 
#
# 1 94.0489 51.2461 51.1836 0.0000 9.8669 0.0000
# 2 51.2461 102.5119 59.7160 0.0000 1.6599 0.0000
# 3 51.1836 59.7160 114.8584 0.0000 12.9088 0.0000
# 4 0.0000 0.0000 0.0000 29.5542 0.0000 0.7250
# 5 9.8669 1.6599 12.9088 0.0000 10.0652 0.0000
# 6 0.0000 0.0000 0.0000 0.7250 0.0000 25.4951
#
#
#
# Elastic Compliance Matrix: (Units=1/GPa)
#
#
# Indices 1 2 3 4 5 6 
#
# 1 0.017066 -0.006738 -0.002741 0.000000 -0.012103 0.000000
# 2 -0.006738 0.017259 -0.007469 0.000000 0.013339 0.000000
# 3 -0.002741 -0.007469 0.015623 0.000000 -0.016117 0.000000
# 4 0.000000 0.000000 0.000000 0.033860 0.000000 -0.000963
# 5 -0.012103 0.013339 -0.016117 0.000000 0.129688 0.000000
# 6 0.000000 0.000000 0.000000 -0.000963 0.000000 0.039251
#
#
# Mechanical properties :
#
#
# Convention : Reuss Voigt Hill
#
# Bulk Modulus (GPa) = 62.30861 70.63453 66.47157
# Shear Modulus (GPa) = 17.12364 22.97446 20.04905
#
# Velocity S-wave (km/s) = 3.24399 3.75754 3.51017
# Velocity P-wave (km/s) = 7.23350 7.88888 7.56829
#
# Compressibility (1/GPa) = 0.01604915
#
# Stress axis : x y z
#
# Youngs Moduli (GPa) = 58.59542 57.94209 64.00901
#
# Poissons Ratio (x) = 0.39044 0.17548
# Poissons Ratio (y) = 0.39484 0.47810
# Poissons Ratio (z) = 0.16064 0.43278
#
# Static dielectric constant tensor:
#      x y z
#    x 3.071140 0.000000 0.035930 
#    y 0.000000 3.163980 0.000000 
#    z 0.035930 0.000000 3.181090 
# 
# 
# High freq. dielectric constant tensor:
#      x y z
#    x 1.607480 0.000000 0.004080 
#    y 0.000000 1.634940 0.000000 
#    z 0.004080 0.000000 1.617430 
# 
# From -- ./inp_files/326949.got.cif
#   From: 2010.06.25/outbox.cif.g09.slc.cpg/sg12_164_cif.got.tgz:326949.got - 2010.06.28 00:19:55.
