data_PCOD8086928
_publ_section_title
;
Structure prediction by ZEFSAII (Michael W. Deem and Ramdas Pophale) SiO2 
 PCOD8086928
Probable space group: C 2/M
;
_chemical_formula_sum "Si O2"
_cell_formula_units_Z 56
_cell_length_a 5.244966
_cell_length_b 25.655530
_cell_length_c 22.937324
_cell_angle_alpha 90.000000
_cell_angle_beta 69.809862
_cell_angle_gamma 90.000000
_cell_volume 2896.843023
_symmetry_space_group_name_H-M "C 2/M"
_symmetry_group_IT_number 12
_symmetry_cell_setting 'monoclinic'
loop_
_space_group_symop_operation_xyz
x,y,z
-x,y,-z
-x,-y,-z
x,-y,z
1/2+x,1/2+y,z
1/2-x,1/2+y,-z
1/2-x,1/2-y,-z
1/2+x,1/2-y,z
loop_
_atom_site_type_symbol
_atom_site_label
_atom_site_fract_x
_atom_site_fract_y
_atom_site_fract_z
Si Si1 0.466559 0.105279 0.723015
Si Si2 0.576477 0.773566 0.705884
Si Si3 0.946780 0.940046 0.335090
Si Si4 0.309467 0.614191 0.459407
Si Si5 0.251421 0.229200 0.568811
Si Si6 0.770164 0.938184 0.142915
Si Si7 0.114884 0.561545 0.930795
O O1 0.545319 0.165057 0.710201
O O2 0.744064 0.072884 0.705808
O O3 0.294552 0.093806 0.794065
O O4 0.278841 0.091878 0.682708
O O5 0.786993 0.754752 0.739299
O O6 0.725761 0.754236 0.635157
O O7 0.905633 0.929427 0.406655
O O8 0.895668 0.000000 0.324839
O O9 0.500000 0.609855 0.500000
O O10 0.349606 0.670116 0.425455
O O11 0.000000 0.603594 0.500000
O O12 0.583254 0.233456 0.536098
O O13 0.565288 0.918527 0.109039
O O14 0.073390 0.921933 0.100822
O O15 0.746674 0.000000 0.156651
O O16 0.086200 0.500000 0.935940
O O17 0.000000 0.585947 0.000000
#
# Coordination Sequence:
#
# PCOD8086928 Si02
#       7
#     8   8   8   8   8   8   8
#     4  12  23  40  62  88 119 151 194 239 289 348
#     4  10  20  36  59  82 111 144 176 227 294 351
#     4  12  25  42  62  82 112 154 193 234 287 344
#     4  12  26  41  59  82 106 138 185 234 285 353
#     4  10  19  35  55  78 104 131 166 216 284 345
#     4  10  19  31  51  82 118 154 194 234 271 324
#     4   9  17  30  49  76 116 162 198 231 273 317
#
# _framework density 19.331389000000001
#
# number of rings (size 3 to 8) (size 9 to 14) (size 15 to 20)
#    0.000    1.286    0.000    8.571    0.000    5.143 
#    0.000    0.000    0.000    0.000    0.000    0.000 
#    0.000   11.429    0.000    0.000    0.000    0.000 
#
# Total GULP energy -347269.374399 kJ/mol
# GULP energy per Si atom -12402.477657 kJ/mol
# Density = 1.928739 g / cm^3
# Si number density = 19.331389 Si / 1000 Ang^3
#
#
#
# Elastic Constant Matrix: (Units=GPa)
#
#
# Indices 1 2 3 4 5 6 
#
# 1 156.0045 28.2463 28.1442 0.0000 2.6855 0.0000
# 2 28.2463 69.7847 34.6552 0.0000 -1.8179 0.0000
# 3 28.1442 34.6552 87.7410 0.0000 -4.1464 0.0000
# 4 0.0000 0.0000 0.0000 17.0616 0.0000 3.1602
# 5 2.6855 -1.8179 -4.1464 0.0000 26.8510 0.0000
# 6 0.0000 0.0000 0.0000 3.1602 0.0000 14.4248
#
#
#
# Elastic Compliance Matrix: (Units=1/GPa)
#
#
# Indices 1 2 3 4 5 6 
#
# 1 0.007086 -0.002167 -0.001468 0.000000 -0.001082 0.000000
# 2 -0.002167 0.018490 -0.006586 0.000000 0.000452 0.000000
# 3 -0.001468 -0.006586 0.014562 0.000000 0.001950 0.000000
# 4 0.000000 0.000000 0.000000 0.061090 0.000000 -0.013384
# 5 -0.001082 0.000452 0.001950 0.000000 0.037682 0.000000
# 6 0.000000 0.000000 0.000000 -0.013384 0.000000 0.072257
#
#
# Mechanical properties :
#
#
# Convention : Reuss Voigt Hill
#
# Bulk Modulus (GPa) = 50.77734 55.06906 52.92320
# Shear Modulus (GPa) = 20.99300 26.49978 23.74639
#
# Velocity S-wave (km/s) = 3.29896 3.70647 3.50863
# Velocity P-wave (km/s) = 6.39020 6.84587 6.62195
#
# Compressibility (1/GPa) = 0.01969382
#
# Stress axis : x y z
#
# Youngs Moduli (GPa) = 141.12424 54.08450 68.67374
#
# Poissons Ratio (x) = 0.11722 0.10082
# Poissons Ratio (y) = 0.30586 0.45231
# Poissons Ratio (z) = 0.20718 0.35622
#
# Static dielectric constant tensor:
#      x y z
#    x 4.244580 0.000000 -0.030190 
#    y 0.000000 3.243770 0.000000 
#    z -0.030190 0.000000 3.490420 
# 
# 
# High freq. dielectric constant tensor:
#      x y z
#    x 1.796590 0.000000 -0.001030 
#    y 0.000000 1.717390 0.000000 
#    z -0.001030 0.000000 1.738710 
# 
# From -- ./inp_files/298074.got.cif
#   From: 2010.06.25/outbox.cif.g09.slc.cpg/sg12_150_cif.got.tgz:298074.got - 2010.06.28 00:19:55.
