data_PCOD8086992
_publ_section_title
;
Structure prediction by ZEFSAII (Michael W. Deem and Ramdas Pophale) SiO2 
 PCOD8086992
Probable space group: C 2/M
;
_chemical_formula_sum "Si O2"
_cell_formula_units_Z 64
_cell_length_a 24.285426
_cell_length_b 9.012958
_cell_length_c 19.850010
_cell_angle_alpha 90.000000
_cell_angle_beta 125.448909
_cell_angle_gamma 90.000000
_cell_volume 3539.450215
_symmetry_space_group_name_H-M "C 2/M"
_symmetry_group_IT_number 12
_symmetry_cell_setting 'monoclinic'
loop_
_space_group_symop_operation_xyz
x,y,z
-x,y,-z
-x,-y,-z
x,-y,z
1/2+x,1/2+y,z
1/2-x,1/2+y,-z
1/2-x,1/2-y,-z
1/2+x,1/2-y,z
loop_
_atom_site_type_symbol
_atom_site_label
_atom_site_fract_x
_atom_site_fract_y
_atom_site_fract_z
Si Si1 0.828064 0.169165 0.498299
Si Si2 0.576951 0.670738 0.553161
Si Si3 0.075749 0.325134 0.037135
Si Si4 0.693936 0.327636 0.368297
Si Si5 0.183366 0.327475 0.718738
Si Si6 0.345770 0.326431 0.021224
Si Si7 0.678665 0.175592 0.225121
Si Si8 0.194566 0.329402 0.879817
O O1 0.896243 0.190864 0.504153
O O2 0.771822 0.277322 0.427933
O O3 0.843321 0.207572 0.587287
O O4 0.800929 0.000000 0.473636
O O5 0.500000 0.724548 0.500000
O O6 0.583758 0.500000 0.581401
O O7 0.617575 0.774300 0.632775
O O8 0.081117 0.500000 0.031155
O O9 0.124354 0.270090 0.131775
O O10 0.096492 0.249540 0.982075
O O11 0.000000 0.274568 0.000000
O O12 0.692313 0.500000 0.349122
O O13 0.656210 0.239382 0.281926
O O14 0.197774 0.500000 0.714876
O O15 0.247713 0.235081 0.740918
O O16 0.168105 0.298732 0.786298
O O17 0.358923 0.500000 0.030137
O O18 0.350187 0.268070 0.100979
O O19 0.273153 0.282253 0.938811
O O20 0.681824 0.000000 0.231704
O O21 0.186828 0.500000 0.895800
#
# Coordination Sequence:
#
# PCOD8086992 Si02
#       8
#     8   8   8   8   8   8   8   8
#     4   9  18  33  52  77 107 142 180 217 267 320
#     4  10  21  37  56  79 111 148 182 221 270 325
#     4  10  22  39  57  78 110 151 187 223 275 334
#     4  10  19  31  52  80 109 139 175 224 271 317
#     4  11  21  35  56  83 111 140 182 229 271 318
#     4  10  19  33  55  83 111 142 182 226 274 325
#     4  11  21  34  55  81 108 140 182 227 272 324
#     4   9  19  34  53  80 113 143 177 226 276 325
#
# _framework density 18.081904999999999
#
# number of rings (size 3 to 8) (size 9 to 14) (size 15 to 20)
#    0.000    2.000    2.500    1.500    0.000    3.000 
#    0.000    1.250    0.000    3.000    0.000    0.000 
#    0.000    0.000    0.000    0.000    0.000    0.000 
#
# Total GULP energy -396891.214559 kJ/mol
# GULP energy per Si atom -12402.850455 kJ/mol
# Density = 1.804075 g / cm^3
# Si number density = 18.081905 Si / 1000 Ang^3
#
#
#
# Elastic Constant Matrix: (Units=GPa)
#
#
# Indices 1 2 3 4 5 6 
#
# 1 127.3436 39.6017 55.5772 0.0000 -9.4797 0.0000
# 2 39.6017 58.8787 33.6870 0.0000 -7.4594 0.0000
# 3 55.5772 33.6870 93.4610 0.0000 -9.5698 0.0000
# 4 0.0000 0.0000 0.0000 24.5402 0.0000 -9.1327
# 5 -9.4797 -7.4594 -9.5698 0.0000 27.0109 0.0000
# 6 0.0000 0.0000 0.0000 -9.1327 0.0000 25.6411
#
#
#
# Elastic Compliance Matrix: (Units=1/GPa)
#
#
# Indices 1 2 3 4 5 6 
#
# 1 0.011638 -0.004791 -0.005096 0.000000 0.000956 0.000000
# 2 -0.004791 0.023655 -0.005376 0.000000 0.002947 0.000000
# 3 -0.005096 -0.005376 0.015910 0.000000 0.002364 0.000000
# 4 0.000000 0.000000 0.000000 0.046976 0.000000 0.016732
# 5 0.000956 0.002947 0.002364 0.000000 0.039009 0.000000
# 6 0.000000 0.000000 0.000000 0.016732 0.000000 0.044959
#
#
# Mechanical properties :
#
#
# Convention : Reuss Voigt Hill
#
# Bulk Modulus (GPa) = 48.36058 59.71278 54.03668
# Shear Modulus (GPa) = 22.77236 25.49293 24.13265
#
# Velocity S-wave (km/s) = 3.55265 3.75888 3.65722
# Velocity P-wave (km/s) = 6.60544 7.20653 6.91252
#
# Compressibility (1/GPa) = 0.02067800
#
# Stress axis : x y z
#
# Youngs Moduli (GPa) = 85.92689 42.27360 62.85545
#
# Poissons Ratio (x) = 0.20253 0.32030
# Poissons Ratio (y) = 0.41167 0.33789
# Poissons Ratio (z) = 0.43786 0.22725
#
# Static dielectric constant tensor:
#      x y z
#    x 3.330740 0.000000 -0.268940 
#    y 0.000000 3.356890 0.000000 
#    z -0.268940 0.000000 3.374800 
# 
# 
# High freq. dielectric constant tensor:
#      x y z
#    x 1.694660 0.000000 -0.026620 
#    y 0.000000 1.705820 0.000000 
#    z -0.026620 0.000000 1.688030 
# 
# From -- ./inp_files/324344.got.cif
#   From: 2010.06.25/outbox.cif.g09.slc.cpg/sg12_163_cif.got.tgz:324344.got - 2010.06.28 00:19:55.
