data_PCOD8086076
_publ_section_title
;
Structure prediction by ZEFSAII (Michael W. Deem and Ramdas Pophale) SiO2 
 PCOD8086076
Probable space group: C 2/M
;
_chemical_formula_sum "Si O2"
_cell_formula_units_Z 56
_cell_length_a 28.895533
_cell_length_b 8.772386
_cell_length_c 17.406158
_cell_angle_alpha 90.000000
_cell_angle_beta 130.063702
_cell_angle_gamma 90.000000
_cell_volume 3376.756244
_symmetry_space_group_name_H-M "C 2/M"
_symmetry_group_IT_number 12
_symmetry_cell_setting 'monoclinic'
loop_
_space_group_symop_operation_xyz
x,y,z
-x,y,-z
-x,-y,-z
x,-y,z
1/2+x,1/2+y,z
1/2-x,1/2+y,-z
1/2-x,1/2-y,-z
1/2+x,1/2-y,z
loop_
_atom_site_type_symbol
_atom_site_label
_atom_site_fract_x
_atom_site_fract_y
_atom_site_fract_z
Si Si1 0.399312 0.321472 0.913465
Si Si2 0.230493 0.677402 0.863952
Si Si3 0.050792 0.324454 0.886516
Si Si4 0.271977 0.178454 0.761898
Si Si5 0.420982 0.175500 0.783297
Si Si6 0.154881 0.822314 0.911016
Si Si7 0.711678 0.178131 0.392059
O O1 0.383238 0.500000 0.898744
O O2 0.339584 0.220872 0.856832
O O3 0.433518 0.278948 0.871510
O O4 0.440495 0.278703 0.029261
O O5 0.216016 0.500000 0.854093
O O6 0.227574 0.731702 0.772321
O O7 0.178762 0.766819 0.854437
O O8 0.296160 0.715528 0.970401
O O9 0.066876 0.500000 0.920779
O O10 0.092273 0.264363 0.861563
O O11 0.979089 0.307808 0.789087
O O12 0.260973 0.228162 0.661574
O O13 0.261547 0.000000 0.762516
O O14 0.358777 0.229485 0.675805
O O15 0.412935 0.000000 0.801696
O O16 0.141063 0.000000 0.892222
O O17 0.750000 0.250000 0.500000
O O18 0.717118 0.000000 0.407604
#
# Coordination Sequence:
#
# PCOD8086076 Si02
#       7
#     8   8   8   8   8   8   8
#     4  11  20  29  43  67  96 127 163 200 234 276
#     4  10  19  31  47  69  96 129 167 202 238 279
#     4  11  20  31  47  65  93 132 166 196 234 280
#     4  10  19  32  50  70  97 130 162 198 241 288
#     4   9  20  35  48  66  93 127 162 195 237 290
#     4  10  20  31  45  67  98 131 166 204 236 274
#     4   9  19  35  53  74  97 122 156 198 244 291
#
# _framework density 16.583962
#
# number of rings (size 3 to 8) (size 9 to 14) (size 15 to 20)
#    0.000    2.000    1.429    4.286    0.000    6.857 
#    0.000    0.000    0.000    0.000    0.000    1.000 
#    0.000    8.000    0.000    0.000    0.000    0.000 
#
# Total GULP energy -347131.092710 kJ/mol
# GULP energy per Si atom -12397.539025 kJ/mol
# Density = 1.654622 g / cm^3
# Si number density = 16.583962 Si / 1000 Ang^3
#
#
#
# Elastic Constant Matrix: (Units=GPa)
#
#
# Indices 1 2 3 4 5 6 
#
# 1 114.4171 27.9962 46.5861 0.0000 -10.2661 0.0000
# 2 27.9962 47.2211 21.9219 0.0000 -5.2739 0.0000
# 3 46.5861 21.9219 77.9444 0.0000 -7.3737 0.0000
# 4 0.0000 0.0000 0.0000 23.2548 0.0000 -5.0273
# 5 -10.2661 -5.2739 -7.3737 0.0000 15.5184 0.0000
# 6 0.0000 0.0000 0.0000 -5.0273 0.0000 28.1361
#
#
#
# Elastic Compliance Matrix: (Units=1/GPa)
#
#
# Indices 1 2 3 4 5 6 
#
# 1 0.012554 -0.004239 -0.005928 0.000000 0.004048 0.000000
# 2 -0.004239 0.026205 -0.004460 0.000000 0.003982 0.000000
# 3 -0.005928 -0.004460 0.017918 0.000000 0.003077 0.000000
# 4 0.000000 0.000000 0.000000 0.044730 0.000000 0.007992
# 5 0.004048 0.003982 0.003077 0.000000 0.069932 0.000000
# 6 0.000000 0.000000 0.000000 0.007992 0.000000 0.036970
#
#
# Mechanical properties :
#
#
# Convention : Reuss Voigt Hill
#
# Bulk Modulus (GPa) = 36.46514 48.06567 42.26540
# Shear Modulus (GPa) = 20.26714 22.92043 21.59379
#
# Velocity S-wave (km/s) = 3.49964 3.72167 3.61236
# Velocity P-wave (km/s) = 6.19402 6.89304 6.55285
#
# Compressibility (1/GPa) = 0.02742345
#
# Stress axis : x y z
#
# Youngs Moduli (GPa) = 79.65557 38.16016 55.80879
#
# Poissons Ratio (x) = 0.16175 0.33085
# Poissons Ratio (y) = 0.33764 0.24891
# Poissons Ratio (z) = 0.47222 0.17020
#
# Static dielectric constant tensor:
#      x y z
#    x 3.259170 0.000000 -0.075990 
#    y 0.000000 3.173510 0.000000 
#    z -0.075990 0.000000 2.946600 
# 
# 
# High freq. dielectric constant tensor:
#      x y z
#    x 1.642740 0.000000 -0.009480 
#    y 0.000000 1.650560 0.000000 
#    z -0.009480 0.000000 1.585620 
# 
# From -- ./inp_files/244288.got.cif
#   From: 2010.06.25/outbox.cif.g09.slc.cpg/sg12_123_cif.got.tgz:244288.got - 2010.06.28 00:19:55.
