data_PCOD8086933
_publ_section_title
;
Structure prediction by ZEFSAII (Michael W. Deem and Ramdas Pophale) SiO2 
 PCOD8086933
Probable space group: C 2/M
;
_chemical_formula_sum "Si O2"
_cell_formula_units_Z 48
_cell_length_a 24.481425
_cell_length_b 23.829449
_cell_length_c 8.324154
_cell_angle_alpha 90.000000
_cell_angle_beta 147.761654
_cell_angle_gamma 90.000000
_cell_volume 2590.469002
_symmetry_space_group_name_H-M "C 2/M"
_symmetry_group_IT_number 12
_symmetry_cell_setting 'monoclinic'
loop_
_space_group_symop_operation_xyz
x,y,z
-x,y,-z
-x,-y,-z
x,-y,z
1/2+x,1/2+y,z
1/2-x,1/2+y,-z
1/2-x,1/2-y,-z
1/2+x,1/2-y,z
loop_
_atom_site_type_symbol
_atom_site_label
_atom_site_fract_x
_atom_site_fract_y
_atom_site_fract_z
Si Si1 0.096572 0.877226 0.131464
Si Si2 0.570301 0.220256 0.325219
Si Si3 0.894701 0.233642 0.055188
Si Si4 0.762458 0.835714 0.946642
Si Si5 0.609489 0.564312 0.844409
Si Si6 0.774926 0.813994 0.340579
O O1 0.198115 0.871432 0.496654
O O2 0.088520 0.818273 0.020476
O O3 0.109276 0.927314 0.035978
O O4 0.000000 0.891929 0.000000
O O5 0.501398 0.231626 0.315392
O O6 0.659175 0.175134 0.586822
O O7 0.619532 0.279491 0.400233
O O8 0.500000 0.199428 0.000000
O O9 0.852668 0.208925 0.120802
O O10 0.810780 0.277899 0.779970
O O11 0.801181 0.898678 0.013108
O O12 0.735410 0.827989 0.064427
O O13 0.500000 0.582922 0.500000
O O14 0.633495 0.500000 0.863174
#
# Coordination Sequence:
#
# PCOD8086933 Si02
#       6
#     8   8   8   8   8   8
#     4  11  19  33  54  78 114 146 178 225 276 324
#     4  11  20  32  51  83 119 156 183 216 268 332
#     4  10  19  31  52  74 120 152 181 211 260 328
#     4  10  24  34  54  82 113 149 191 227 272 329
#     4  10  23  41  61  80 103 141 189 241 287 324
#     4  11  20  33  48  83 116 153 184 217 267 330
#
# _framework density 18.529464000000001
#
# number of rings (size 3 to 8) (size 9 to 14) (size 15 to 20)
#    0.000    1.500    3.333    3.500    7.000    2.333 
#    0.000    0.833    0.000    0.500    0.000    1.167 
#    0.000    0.000    0.000    0.000    0.000    0.000 
#
# Total GULP energy -297395.649948 kJ/mol
# GULP energy per Si atom -12391.485414 kJ/mol
# Density = 1.848729 g / cm^3
# Si number density = 18.529464 Si / 1000 Ang^3
#
#
#
# Elastic Constant Matrix: (Units=GPa)
#
#
# Indices 1 2 3 4 5 6 
#
# 1 47.5581 20.8718 20.6603 0.0000 8.4347 0.0000
# 2 20.8718 70.8164 42.6769 0.0000 7.2343 0.0000
# 3 20.6603 42.6769 102.5005 0.0000 -4.4182 0.0000
# 4 0.0000 0.0000 0.0000 22.6461 0.0000 1.4818
# 5 8.4347 7.2343 -4.4182 0.0000 37.0008 0.0000
# 6 0.0000 0.0000 0.0000 1.4818 0.0000 15.7338
#
#
#
# Elastic Compliance Matrix: (Units=1/GPa)
#
#
# Indices 1 2 3 4 5 6 
#
# 1 0.025592 -0.005022 -0.003294 0.000000 -0.005245 0.000000
# 2 -0.005022 0.020666 -0.007757 0.000000 -0.003822 0.000000
# 3 -0.003294 -0.007757 0.013818 0.000000 0.003917 0.000000
# 4 0.000000 0.000000 0.000000 0.044431 0.000000 -0.004185
# 5 -0.005245 -0.003822 0.003917 0.000000 0.029437 0.000000
# 6 0.000000 0.000000 0.000000 -0.004185 0.000000 0.063952
#
#
# Mechanical properties :
#
#
# Convention : Reuss Voigt Hill
#
# Bulk Modulus (GPa) = 35.80191 43.25479 39.52835
# Shear Modulus (GPa) = 20.88963 24.18720 22.53842
#
# Velocity S-wave (km/s) = 3.36128 3.61686 3.49141
# Velocity P-wave (km/s) = 5.86752 6.39036 6.13452
#
# Compressibility (1/GPa) = 0.02793147
#
# Stress axis : x y z
#
# Youngs Moduli (GPa) = 39.07466 48.38775 72.36678
#
# Poissons Ratio (x) = 0.24301 0.23834
# Poissons Ratio (y) = 0.19624 0.56136
# Poissons Ratio (z) = 0.12869 0.37535
#
# Static dielectric constant tensor:
#      x y z
#    x 3.802910 0.000000 -0.041450 
#    y 0.000000 3.024430 0.000000 
#    z -0.041450 0.000000 3.441580 
# 
# 
# High freq. dielectric constant tensor:
#      x y z
#    x 1.732660 0.000000 -0.007050 
#    y 0.000000 1.662910 0.000000 
#    z -0.007050 0.000000 1.719500 
# 
# From -- ./inp_files/78901.got.cif
#   From: 2010.06.25/outbox.cif.g09.slc.cpg/sg12_40_cif.got.tgz:78901.got - 2010.06.28 00:19:55.
