data_PCOD8086648
_publ_section_title
;
Structure prediction by ZEFSAII (Michael W. Deem and Ramdas Pophale) SiO2 
 PCOD8086648
Probable space group: C 2/M
;
_chemical_formula_sum "Si O2"
_cell_formula_units_Z 36
_cell_length_a 24.847513
_cell_length_b 14.115583
_cell_length_c 5.960655
_cell_angle_alpha 90.000000
_cell_angle_beta 113.439944
_cell_angle_gamma 90.000000
_cell_volume 1918.099662
_symmetry_space_group_name_H-M "C 2/M"
_symmetry_group_IT_number 12
_symmetry_cell_setting 'monoclinic'
loop_
_space_group_symop_operation_xyz
x,y,z
-x,y,-z
-x,-y,-z
x,-y,z
1/2+x,1/2+y,z
1/2-x,1/2+y,-z
1/2-x,1/2-y,-z
1/2+x,1/2-y,z
loop_
_atom_site_type_symbol
_atom_site_label
_atom_site_fract_x
_atom_site_fract_y
_atom_site_fract_z
Si Si1 0.243335 0.105462 0.368236
Si Si2 0.635860 0.604522 0.859136
Si Si3 0.830716 0.761999 0.461428
Si Si4 0.530664 0.500000 0.305432
Si Si5 0.435298 0.326765 0.866666
O O1 0.217786 0.162035 0.538172
O O2 0.301103 0.160106 0.373288
O O3 0.262037 0.000000 0.476576
O O4 0.195511 0.098649 0.096905
O O5 0.626107 0.500000 0.724701
O O6 0.641799 0.697410 0.718865
O O7 0.579462 0.619551 0.925397
O O8 0.884565 0.749982 0.729110
O O9 0.500000 0.500000 0.500000
O O10 0.567585 0.401911 0.348600
O O11 0.500000 0.500000 0.000000
O O12 0.500000 0.280192 0.000000
#
# Coordination Sequence:
#
# PCOD8086648 Si02
#       5
#     8   8   8   4   8
#     4   9  19  36  49  75 103 128 173 221 271 318
#     4  10  19  31  50  75 103 133 170 211 266 323
#     4  10  20  31  54  73  99 140 171 214 266 330
#     4  10  22  34  50  76 116 154 184 220 273 334
#     4  10  22  32  46  75 108 140 174 217 260 323
#
# _framework density 18.768578000000002
#
# number of rings (size 3 to 8) (size 9 to 14) (size 15 to 20)
#    0.000    2.222    1.111    1.333    9.333    0.000 
#    0.000    0.000    0.000    0.667    0.000    1.556 
#    0.000    0.000    0.000    0.000    0.000    0.000 
#
# Total GULP energy -223020.032971 kJ/mol
# GULP energy per Si atom -12390.001832 kJ/mol
# Density = 1.872586 g / cm^3
# Si number density = 18.768578 Si / 1000 Ang^3
#
#
#
# Elastic Constant Matrix: (Units=GPa)
#
#
# Indices 1 2 3 4 5 6 
#
# 1 116.0962 48.5958 29.7903 0.0000 1.0134 0.0000
# 2 48.5958 91.1956 20.4545 0.0000 6.0126 0.0000
# 3 29.7903 20.4545 38.4626 0.0000 -9.2652 0.0000
# 4 0.0000 0.0000 0.0000 10.8273 0.0000 -6.3149
# 5 1.0134 6.0126 -9.2652 0.0000 34.2199 0.0000
# 6 0.0000 0.0000 0.0000 -6.3149 0.0000 19.3578
#
#
#
# Elastic Compliance Matrix: (Units=1/GPa)
#
#
# Indices 1 2 3 4 5 6 
#
# 1 0.012625 -0.004938 -0.007524 0.000000 -0.001543 0.000000
# 2 -0.004938 0.014990 -0.005078 0.000000 -0.003862 0.000000
# 3 -0.007524 -0.005078 0.037223 0.000000 0.011193 0.000000
# 4 0.000000 0.000000 0.000000 0.114061 0.000000 0.037209
# 5 -0.001543 -0.003862 0.011193 0.000000 0.032978 0.000000
# 6 0.000000 0.000000 0.000000 0.037209 0.000000 0.063797
#
#
# Mechanical properties :
#
#
# Convention : Reuss Voigt Hill
#
# Bulk Modulus (GPa) = 33.60304 49.27064 41.43684
# Shear Modulus (GPa) = 15.59224 22.67525 19.13375
#
# Velocity S-wave (km/s) = 2.88542 3.47962 3.19636
# Velocity P-wave (km/s) = 5.38922 6.51554 5.97896
#
# Compressibility (1/GPa) = 0.02975921
#
# Stress axis : x y z
#
# Youngs Moduli (GPa) = 79.21037 66.70955 26.86489
#
# Poissons Ratio (x) = 0.32941 0.20213
# Poissons Ratio (y) = 0.39114 0.13641
# Poissons Ratio (z) = 0.59596 0.33873
#
# Static dielectric constant tensor:
#      x y z
#    x 3.558250 0.000000 0.078370 
#    y 0.000000 3.497500 0.000000 
#    z 0.078370 0.000000 3.546900 
# 
# 
# High freq. dielectric constant tensor:
#      x y z
#    x 1.733670 0.000000 0.003180 
#    y 0.000000 1.679770 0.000000 
#    z 0.003180 0.000000 1.740570 
# 
# From -- ./inp_files/23883.got.cif
#   From: 2010.06.25/outbox.cif.g09.slc.cpg/sg12_12_cif.got.tgz:23883.got - 2010.06.28 00:19:55.
