data_PCOD8086522
_publ_section_title
;
Structure prediction by ZEFSAII (Michael W. Deem and Ramdas Pophale) SiO2 
 PCOD8086522
Probable space group: C 2/M
;
_chemical_formula_sum "Si O2"
_cell_formula_units_Z 64
_cell_length_a 30.127886
_cell_length_b 9.030552
_cell_length_c 16.521251
_cell_angle_alpha 90.000000
_cell_angle_beta 133.159459
_cell_angle_gamma 90.000000
_cell_volume 3278.861630
_symmetry_space_group_name_H-M "C 2/M"
_symmetry_group_IT_number 12
_symmetry_cell_setting 'monoclinic'
loop_
_space_group_symop_operation_xyz
x,y,z
-x,y,-z
-x,-y,-z
x,-y,z
1/2+x,1/2+y,z
1/2-x,1/2+y,-z
1/2-x,1/2-y,-z
1/2+x,1/2-y,z
loop_
_atom_site_type_symbol
_atom_site_label
_atom_site_fract_x
_atom_site_fract_y
_atom_site_fract_z
Si Si1 0.857210 0.330276 0.412495
Si Si2 0.638553 0.172424 0.288704
Si Si3 0.057609 0.331369 0.625748
Si Si4 0.443856 0.673749 0.209403
Si Si5 0.731163 0.829104 0.264266
Si Si6 0.582860 0.325613 0.367035
Si Si7 0.876998 0.326893 0.991303
Si Si8 0.432220 0.658694 0.923896
O O1 0.859549 0.500000 0.444498
O O2 0.881537 0.314146 0.351635
O O3 0.788307 0.275934 0.328146
O O4 0.900349 0.234547 0.523951
O O5 0.698782 0.207436 0.310233
O O6 0.632177 0.256789 0.365929
O O7 0.582816 0.227805 0.165804
O O8 0.632599 0.000000 0.298972
O O9 0.050544 0.500000 0.649039
O O10 0.061983 0.218172 0.704701
O O11 0.000000 0.287284 0.500000
O O12 0.432041 0.500000 0.185878
O O13 0.511914 0.714890 0.261423
O O14 0.388628 0.760157 0.094983
O O15 0.688039 0.795244 0.132766
O O16 0.751321 0.000000 0.288185
O O17 0.592516 0.500000 0.377155
O O18 0.890436 0.500000 0.009448
O O19 0.926900 0.241090 0.001992
O O20 0.395275 0.500000 0.874297
O O21 0.500000 0.609731 0.000000
#
# Coordination Sequence:
#
# PCOD8086522 Si02
#       8
#     8   8   8   8   8   8   8   8
#     4  11  23  39  63  89 112 150 195 237 290 349
#     4  10  21  36  55  80 112 154 200 239 283 339
#     4  10  21  40  63  88 119 149 185 235 291 351
#     4  11  23  37  59  91 122 152 190 238 294 347
#     4   9  21  41  60  82 115 155 197 241 286 335
#     4  11  23  37  56  86 122 155 191 240 294 344
#     4  10  21  37  58  82 113 155 196 236 286 340
#     4  10  19  31  49  76 112 150 191 239 290 340
#
# _framework density 19.518971000000001
#
# number of rings (size 3 to 8) (size 9 to 14) (size 15 to 20)
#    0.000    1.750    1.250    3.750    0.000   10.250 
#    0.000    0.625    0.000    0.000    0.000    0.000 
#    0.000    0.000    0.000    0.000    0.000    0.000 
#
# Total GULP energy -396611.705596 kJ/mol
# GULP energy per Si atom -12394.115800 kJ/mol
# Density = 1.947454 g / cm^3
# Si number density = 19.518971 Si / 1000 Ang^3
#
#
#
# Elastic Constant Matrix: (Units=GPa)
#
#
# Indices 1 2 3 4 5 6 
#
# 1 85.6440 48.8318 26.6027 0.0000 -1.1867 0.0000
# 2 48.8318 104.8178 32.6694 0.0000 1.7140 0.0000
# 3 26.6027 32.6694 61.6049 0.0000 -6.7245 0.0000
# 4 0.0000 0.0000 0.0000 50.5721 0.0000 -14.9115
# 5 -1.1867 1.7140 -6.7245 0.0000 26.1230 0.0000
# 6 0.0000 0.0000 0.0000 -14.9115 0.0000 38.1519
#
#
#
# Elastic Compliance Matrix: (Units=1/GPa)
#
#
# Indices 1 2 3 4 5 6 
#
# 1 0.016565 -0.006589 -0.003631 0.000000 0.000250 0.000000
# 2 -0.006589 0.014196 -0.004956 0.000000 -0.002507 0.000000
# 3 -0.003631 -0.004956 0.021038 0.000000 0.005576 0.000000
# 4 0.000000 0.000000 0.000000 0.022349 0.000000 0.008735
# 5 0.000250 -0.002507 0.005576 0.000000 0.039892 0.000000
# 6 0.000000 0.000000 0.000000 0.008735 0.000000 0.029625
#
#
# Mechanical properties :
#
#
# Convention : Reuss Voigt Hill
#
# Bulk Modulus (GPa) = 46.63295 52.03048 49.33172
# Shear Modulus (GPa) = 27.59891 32.56692 30.08292
#
# Velocity S-wave (km/s) = 3.76434 4.08913 3.93009
# Velocity P-wave (km/s) = 6.54497 7.00063 6.77663
#
# Compressibility (1/GPa) = 0.02144406
#
# Stress axis : x y z
#
# Youngs Moduli (GPa) = 60.36919 70.44278 47.53386
#
# Poissons Ratio (x) = 0.46417 0.17262
# Poissons Ratio (y) = 0.39779 0.23559
# Poissons Ratio (z) = 0.21923 0.34914
#
# Static dielectric constant tensor:
#      x y z
#    x 3.386460 0.000000 -0.061160 
#    y 0.000000 3.610030 0.000000 
#    z -0.061160 0.000000 3.512630 
# 
# 
# High freq. dielectric constant tensor:
#      x y z
#    x 1.746830 0.000000 -0.008260 
#    y 0.000000 1.776960 0.000000 
#    z -0.008260 0.000000 1.754590 
# 
# From -- ./inp_files/250077.got.cif
#   From: 2010.06.25/outbox.cif.g09.slc.cpg/sg12_126_cif.got.tgz:250077.got - 2010.06.28 00:19:55.
