data_PCOD8086183
_publ_section_title
;
Structure prediction by ZEFSAII (Michael W. Deem and Ramdas Pophale) SiO2 
 PCOD8086183
Probable space group: C 2/M
;
_chemical_formula_sum "Si O2"
_cell_formula_units_Z 56
_cell_length_a 18.935493
_cell_length_b 9.084550
_cell_length_c 20.431704
_cell_angle_alpha 90.000000
_cell_angle_beta 117.015118
_cell_angle_gamma 90.000000
_cell_volume 3131.173277
_symmetry_space_group_name_H-M "C 2/M"
_symmetry_group_IT_number 12
_symmetry_cell_setting 'monoclinic'
loop_
_space_group_symop_operation_xyz
x,y,z
-x,y,-z
-x,-y,-z
x,-y,z
1/2+x,1/2+y,z
1/2-x,1/2+y,-z
1/2-x,1/2-y,-z
1/2+x,1/2-y,z
loop_
_atom_site_type_symbol
_atom_site_label
_atom_site_fract_x
_atom_site_fract_y
_atom_site_fract_z
Si Si1 0.867272 0.670250 0.070933
Si Si2 0.312426 0.174038 0.793491
Si Si3 0.475133 0.171816 0.793314
Si Si4 0.592342 0.336568 0.347764
Si Si5 0.678596 0.673635 0.506970
Si Si6 0.237229 0.667600 0.647736
Si Si7 0.293628 0.669866 0.922015
O O1 0.876351 0.500000 0.053198
O O2 0.796057 0.689286 0.091841
O O3 0.946262 0.732846 0.138599
O O4 0.854111 0.769017 0.001558
O O5 0.399550 0.218393 0.804514
O O6 0.245093 0.249950 0.720450
O O7 0.304320 0.233174 0.862658
O O8 0.299404 0.000000 0.786515
O O9 0.468220 0.231990 0.716213
O O10 0.482625 0.000000 0.788705
O O11 0.558734 0.500000 0.324606
O O12 0.600007 0.299132 0.428808
O O13 0.679512 0.323800 0.354035
O O14 0.695749 0.500000 0.521629
O O15 0.750000 0.750000 0.500000
O O16 0.671011 0.748549 0.575437
O O17 0.209915 0.500000 0.648099
O O18 0.313956 0.500000 0.916207
#
# Coordination Sequence:
#
# PCOD8086183 Si02
#       7
#     8   8   8   8   8   8   8
#     4   9  19  36  53  69  91 120 156 193 229 273
#     4  10  19  31  48  70  97 125 153 189 233 279
#     4   9  18  31  48  69  93 123 156 191 230 273
#     4   8  15  25  38  60  91 122 151 188 229 270
#     4   9  15  23  36  57  87 123 158 190 228 272
#     4   9  16  26  40  61  90 122 156 192 229 271
#     4  10  20  34  52  71  92 120 154 192 231 275
#
# _framework density 17.884668999999999
#
# number of rings (size 3 to 8) (size 9 to 14) (size 15 to 20)
#    0.000    2.857    0.000    2.571    0.000    6.286 
#    0.000    2.857    0.000    0.000    0.000    1.000 
#    0.000    8.000    0.000    0.000    0.000    0.000 
#
# Total GULP energy -347064.333477 kJ/mol
# GULP energy per Si atom -12395.154767 kJ/mol
# Density = 1.784396 g / cm^3
# Si number density = 17.884669 Si / 1000 Ang^3
#
#
#
# Elastic Constant Matrix: (Units=GPa)
#
#
# Indices 1 2 3 4 5 6 
#
# 1 25.5092 25.3164 42.1694 0.0000 -3.3272 0.0000
# 2 25.3164 91.8865 68.2308 0.0000 -4.5952 0.0000
# 3 42.1694 68.2308 166.2789 0.0000 -7.0098 0.0000
# 4 0.0000 0.0000 0.0000 41.5406 0.0000 -4.2425
# 5 -3.3272 -4.5952 -7.0098 0.0000 -2.3551 0.0000
# 6 0.0000 0.0000 0.0000 -4.2425 0.0000 16.5884
#
#
#
# Elastic Compliance Matrix: (Units=1/GPa)
#
#
# Indices 1 2 3 4 5 6 
#
# 1 0.069110 -0.009587 -0.015034 0.000000 -0.034182 0.000000
# 2 -0.009587 0.016714 -0.004648 0.000000 -0.005234 0.000000
# 3 -0.015034 -0.004648 0.011561 0.000000 -0.004102 0.000000
# 4 0.000000 0.000000 0.000000 0.024718 0.000000 0.006322
# 5 -0.034182 -0.005234 -0.004102 0.000000 -0.353890 0.000000
# 6 0.000000 0.000000 0.000000 0.006322 0.000000 0.061900
#
#
# Mechanical properties :
#
#
# Convention : Reuss Voigt Hill
#
# Bulk Modulus (GPa) = 25.74146 61.67862 43.71004
# Shear Modulus (GPa) = -50.81273 21.01864 -14.89704
#
# Velocity S-wave (km/s) = -5.33601 3.43189 -2.88922
# Velocity P-wave (km/s) = 4.85178 7.08982 3.65553
#
# Compressibility (1/GPa) = 0.03884784
#
# Stress axis : x y z
#
# Youngs Moduli (GPa) = 14.46959 59.83083 86.49896
#
# Poissons Ratio (x) = 0.57361 1.30042
# Poissons Ratio (y) = 0.13872 0.40201
# Poissons Ratio (z) = 0.21753 0.27807
#
# Static dielectric constant tensor:
#      x y z
#    x 2.831310 0.000000 0.052990 
#    y 0.000000 3.404440 0.000000 
#    z 0.052990 0.000000 3.984310 
# 
# 
# High freq. dielectric constant tensor:
#      x y z
#    x 1.627140 0.000000 -0.004050 
#    y 0.000000 1.701370 0.000000 
#    z -0.004050 0.000000 1.715160 
# 
# From -- ./inp_files/323824.got.cif
#   From: 2010.06.25/outbox.cif.g09.slc.cpg/sg12_162_cif.got.tgz:323824.got - 2010.06.28 00:19:55.
