data_PCOD8086381
_publ_section_title
;
Structure prediction by ZEFSAII (Michael W. Deem and Ramdas Pophale) SiO2 
 PCOD8086381
Probable space group: C 2/M
;
_chemical_formula_sum "Si O2"
_cell_formula_units_Z 48
_cell_length_a 18.417366
_cell_length_b 9.042102
_cell_length_c 16.475245
_cell_angle_alpha 90.000000
_cell_angle_beta 85.888053
_cell_angle_gamma 90.000000
_cell_volume 2736.588030
_symmetry_space_group_name_H-M "C 2/M"
_symmetry_group_IT_number 12
_symmetry_cell_setting 'monoclinic'
loop_
_space_group_symop_operation_xyz
x,y,z
-x,y,-z
-x,-y,-z
x,-y,z
1/2+x,1/2+y,z
1/2-x,1/2+y,-z
1/2-x,1/2-y,-z
1/2+x,1/2-y,z
loop_
_atom_site_type_symbol
_atom_site_label
_atom_site_fract_x
_atom_site_fract_y
_atom_site_fract_z
Si Si1 0.535338 0.337342 0.085018
Si Si2 0.077568 0.672056 0.514993
Si Si3 0.160497 0.673384 0.666277
Si Si4 0.905103 0.672916 0.155479
Si Si5 0.219982 0.671965 0.423301
Si Si6 0.825518 0.175365 0.014968
O O1 0.532701 0.500000 0.126422
O O2 0.489946 0.221892 0.143015
O O3 0.500000 0.347731 0.000000
O O4 0.618888 0.286567 0.063654
O O5 0.064420 0.500000 0.532234
O O6 0.110855 0.736410 0.596327
O O7 0.132367 0.696089 0.433862
O O8 0.000000 0.748506 0.500000
O O9 0.174418 0.500000 0.655717
O O10 0.121678 0.713327 0.752936
O O11 0.240160 0.752703 0.657082
O O12 0.899409 0.500000 0.136815
O O13 0.854757 0.760922 0.097175
O O14 0.239533 0.500000 0.423350
O O15 0.250000 0.750000 0.500000
O O16 0.816423 0.000000 0.025239
O O17 0.750000 0.250000 0.000000
#
# Coordination Sequence:
#
# PCOD8086381 Si02
#       6
#     8   8   8   8   8   8
#     4   8  16  31  49  69  94 124 158 196 237 285
#     4   8  14  27  47  68  90 118 154 194 233 273
#     4   9  18  31  47  69  96 124 155 195 238 280
#     4  10  19  31  49  72  98 128 162 200 242 289
#     4   9  16  27  46  68  90 122 160 195 234 283
#     4  10  20  34  52  73  97 126 161 200 243 290
#
# _framework density 17.540089999999999
#
# number of rings (size 3 to 8) (size 9 to 14) (size 15 to 20)
#    0.000    3.000    0.000    3.500    0.000    5.000 
#    0.000    1.667    0.000   14.500    0.000    0.000 
#    0.000    0.000    0.000    0.000    0.000    0.000 
#
# Total GULP energy -297378.634050 kJ/mol
# GULP energy per Si atom -12390.776419 kJ/mol
# Density = 1.750017 g / cm^3
# Si number density = 17.540090 Si / 1000 Ang^3
#
#
#
# Elastic Constant Matrix: (Units=GPa)
#
#
# Indices 1 2 3 4 5 6 
#
# 1 144.3215 56.7392 60.6267 0.0000 -27.8626 0.0000
# 2 56.7392 79.7862 50.8449 0.0000 -19.7047 0.0000
# 3 60.6267 50.8449 97.7523 0.0000 -27.8107 0.0000
# 4 0.0000 0.0000 0.0000 25.7012 0.0000 -8.6036
# 5 -27.8626 -19.7047 -27.8107 0.0000 27.5493 0.0000
# 6 0.0000 0.0000 0.0000 -8.6036 0.0000 26.2633
#
#
#
# Elastic Compliance Matrix: (Units=1/GPa)
#
#
# Indices 1 2 3 4 5 6 
#
# 1 0.010947 -0.004715 -0.003011 0.000000 0.004659 0.000000
# 2 -0.004715 0.021283 -0.007255 0.000000 0.003130 0.000000
# 3 -0.003011 -0.007255 0.018980 0.000000 0.010924 0.000000
# 4 0.000000 0.000000 0.000000 0.043701 0.000000 0.014316
# 5 0.004659 0.003130 0.010924 0.000000 0.054277 0.000000
# 6 0.000000 0.000000 0.000000 0.014316 0.000000 0.042766
#
#
# Mechanical properties :
#
#
# Convention : Reuss Voigt Hill
#
# Bulk Modulus (GPa) = 47.06816 73.14240 60.10528
# Shear Modulus (GPa) = 21.83401 26.14605 23.99003
#
# Velocity S-wave (km/s) = 3.53201 3.86508 3.70229
# Velocity P-wave (km/s) = 6.59745 7.85551 7.25381
#
# Compressibility (1/GPa) = 0.02124579
#
# Stress axis : x y z
#
# Youngs Moduli (GPa) = 91.34655 46.98519 52.68838
#
# Poissons Ratio (x) = 0.22155 0.15867
# Poissons Ratio (y) = 0.43073 0.38228
# Poissons Ratio (z) = 0.27508 0.34090
#
# Static dielectric constant tensor:
#      x y z
#    x 3.794550 0.000000 -0.371140 
#    y 0.000000 3.284620 0.000000 
#    z -0.371140 0.000000 3.077800 
# 
# 
# High freq. dielectric constant tensor:
#      x y z
#    x 1.678840 0.000000 -0.031760 
#    y 0.000000 1.671120 0.000000 
#    z -0.031760 0.000000 1.651710 
# 
# From -- ./inp_files/273611.got.cif
#   From: 2010.06.25/outbox.cif.g09.slc.cpg/sg12_137_cif.got.tgz:273611.got - 2010.06.28 00:19:55.
