data_PCOD8086954
_publ_section_title
;
Structure prediction by ZEFSAII (Michael W. Deem and Ramdas Pophale) SiO2 
 PCOD8086954
Probable space group: C 2/M
;
_chemical_formula_sum "Si O2"
_cell_formula_units_Z 56
_cell_length_a 21.115916
_cell_length_b 13.244190
_cell_length_c 11.960619
_cell_angle_alpha 90.000000
_cell_angle_beta 72.444835
_cell_angle_gamma 90.000000
_cell_volume 3189.160854
_symmetry_space_group_name_H-M "C 2/M"
_symmetry_group_IT_number 12
_symmetry_cell_setting 'monoclinic'
loop_
_space_group_symop_operation_xyz
x,y,z
-x,y,-z
-x,-y,-z
x,-y,z
1/2+x,1/2+y,z
1/2-x,1/2+y,-z
1/2-x,1/2-y,-z
1/2+x,1/2-y,z
loop_
_atom_site_type_symbol
_atom_site_label
_atom_site_fract_x
_atom_site_fract_y
_atom_site_fract_z
Si Si1 0.383560 0.885210 0.217715
Si Si2 0.742557 0.382984 0.905541
Si Si3 0.934093 0.615315 0.593521
Si Si4 0.793420 0.697290 0.641187
Si Si5 0.967125 0.384372 0.832170
Si Si6 0.762709 0.386732 0.427081
Si Si7 0.652610 0.795954 0.987767
O O1 0.457486 0.844004 0.201579
O O2 0.340637 0.875061 0.353570
O O3 0.388288 0.000000 0.174483
O O4 0.344794 0.823486 0.143717
O O5 0.722397 0.500000 0.908519
O O6 0.766509 0.343466 0.772701
O O7 0.801644 0.370418 0.963278
O O8 0.678860 0.319276 0.983070
O O9 0.922091 0.500000 0.560795
O O10 0.871927 0.681267 0.588872
O O11 0.940946 0.622059 0.721593
O O12 0.000000 0.659119 0.500000
O O13 0.754617 0.640141 0.561897
O O14 0.781425 0.816497 0.630600
O O15 0.961598 0.500000 0.878937
O O16 0.923160 0.309130 0.931006
O O17 0.737228 0.500000 0.419848
#
# Coordination Sequence:
#
# PCOD8086954 Si02
#       7
#     8   8   8   8   8   8   8
#     4  10  19  33  52  80 112 140 170 218 272 320
#     4  11  22  36  55  78 106 144 184 221 262 316
#     4  10  19  32  53  81 109 138 174 220 268 320
#     4  11  20  36  57  79 109 146 176 217 272 317
#     4  10  19  31  52  78 108 142 175 214 271 322
#     4  10  21  35  55  84 111 138 179 221 265 319
#     4  11  21  34  51  79 107 142 178 218 260 317
#
# _framework density 17.559477000000001
#
# number of rings (size 3 to 8) (size 9 to 14) (size 15 to 20)
#    0.000    1.571    2.857    3.857    0.000    3.429 
#    0.000    0.000    0.000    2.143    0.000    0.000 
#    0.000    0.000    0.000    0.000    0.000    0.000 
#
# Total GULP energy -347208.118012 kJ/mol
# GULP energy per Si atom -12400.289929 kJ/mol
# Density = 1.751951 g / cm^3
# Si number density = 17.559477 Si / 1000 Ang^3
#
#
#
# Elastic Constant Matrix: (Units=GPa)
#
#
# Indices 1 2 3 4 5 6 
#
# 1 88.3506 49.6271 13.8706 0.0000 -4.5797 0.0000
# 2 49.6271 111.1675 29.0882 0.0000 -5.6346 0.0000
# 3 13.8706 29.0882 56.6169 0.0000 -1.8054 0.0000
# 4 0.0000 0.0000 0.0000 20.7649 0.0000 -1.8827
# 5 -4.5797 -5.6346 -1.8054 0.0000 31.9624 0.0000
# 6 0.0000 0.0000 0.0000 -1.8827 0.0000 27.1632
#
#
#
# Elastic Compliance Matrix: (Units=1/GPa)
#
#
# Indices 1 2 3 4 5 6 
#
# 1 0.015141 -0.006639 -0.000267 0.000000 0.000984 0.000000
# 2 -0.006639 0.013380 -0.005212 0.000000 0.001113 0.000000
# 3 -0.000267 -0.005212 0.020412 0.000000 0.000196 0.000000
# 4 0.000000 0.000000 0.000000 0.048463 0.000000 0.003359
# 5 0.000984 0.001113 0.000196 0.000000 0.031635 0.000000
# 6 0.000000 0.000000 0.000000 0.003359 0.000000 0.037047
#
#
# Mechanical properties :
#
#
# Convention : Reuss Voigt Hill
#
# Bulk Modulus (GPa) = 40.49253 49.03408 44.76331
# Shear Modulus (GPa) = 25.18309 26.88137 26.03223
#
# Velocity S-wave (km/s) = 3.79114 3.91688 3.85452
# Velocity P-wave (km/s) = 6.50184 6.95997 6.73480
#
# Compressibility (1/GPa) = 0.02469591
#
# Stress axis : x y z
#
# Youngs Moduli (GPa) = 66.04639 74.74067 48.99088
#
# Poissons Ratio (x) = 0.49624 0.01307
# Poissons Ratio (y) = 0.43851 0.25534
# Poissons Ratio (z) = 0.01762 0.38955
#
# Static dielectric constant tensor:
#      x y z
#    x 3.269390 0.000000 -0.002960 
#    y 0.000000 3.141690 0.000000 
#    z -0.002960 0.000000 3.384000 
# 
# 
# High freq. dielectric constant tensor:
#      x y z
#    x 1.674520 0.000000 0.007090 
#    y 0.000000 1.648310 0.000000 
#    z 0.007090 0.000000 1.696080 
# 
# From -- ./inp_files/165594.got.cif
#   From: 2010.06.25/outbox.cif.g09.slc.cpg/sg12_83_cif.got.tgz:165594.got - 2010.06.28 00:19:55.
