data_PCOD8086609
_publ_section_title
;
Structure prediction by ZEFSAII (Michael W. Deem and Ramdas Pophale) SiO2 
 PCOD8086609
Probable space group: C 2/M
;
_chemical_formula_sum "Si O2"
_cell_formula_units_Z 48
_cell_length_a 20.676577
_cell_length_b 9.253286
_cell_length_c 13.649835
_cell_angle_alpha 90.000000
_cell_angle_beta 101.047210
_cell_angle_gamma 90.000000
_cell_volume 2563.178760
_symmetry_space_group_name_H-M "C 2/M"
_symmetry_group_IT_number 12
_symmetry_cell_setting 'monoclinic'
loop_
_space_group_symop_operation_xyz
x,y,z
-x,y,-z
-x,-y,-z
x,-y,z
1/2+x,1/2+y,z
1/2-x,1/2+y,-z
1/2-x,1/2-y,-z
1/2+x,1/2-y,z
loop_
_atom_site_type_symbol
_atom_site_label
_atom_site_fract_x
_atom_site_fract_y
_atom_site_fract_z
Si Si1 0.982254 0.671745 0.287085
Si Si2 0.377079 0.171700 0.603838
Si Si3 0.052487 0.327752 0.937632
Si Si4 0.358684 0.828762 0.377902
Si Si5 0.231683 0.668382 0.275229
Si Si6 0.305039 0.831909 0.956251
O O1 0.985810 0.500000 0.284347
O O2 0.965539 0.733225 0.174730
O O3 0.926337 0.721714 0.346784
O O4 0.052321 0.735743 0.342573
O O5 0.360083 0.226280 0.490094
O O6 0.320446 0.227630 0.660295
O O7 0.381121 0.000000 0.607571
O O8 0.050950 0.500000 0.938121
O O9 0.124484 0.271600 0.988610
O O10 0.000000 0.265783 0.000000
O O11 0.298978 0.755662 0.303510
O O12 0.349661 0.000000 0.368328
O O13 0.246552 0.500000 0.296344
O O14 0.200953 0.698075 0.160513
O O15 0.297840 0.000000 0.978438
O O16 0.250000 0.750000 0.000000
#
# Coordination Sequence:
#
# PCOD8086609 Si02
#       6
#     8   8   8   8   8   8
#     4   9  16  27  46  71  95 120 156 201 242 279
#     4   9  17  30  48  71  98 127 160 198 240 283
#     4   9  16  27  45  69  95 122 156 199 241 280
#     4  10  19  31  50  74  98 125 160 202 241 279
#     4  10  20  33  49  70  99 132 161 192 235 288
#     4  10  20  33  50  73  99 127 159 196 239 285
#
# _framework density 18.726745999999999
#
# number of rings (size 3 to 8) (size 9 to 14) (size 15 to 20)
#    0.000    2.500    0.000    3.000    0.000    8.000 
#    0.000    0.000    0.000    3.500    0.000    0.000 
#    0.000    0.000    0.000    0.000    0.000    0.000 
#
# Total GULP energy -297633.490576 kJ/mol
# GULP energy per Si atom -12401.395441 kJ/mol
# Density = 1.868412 g / cm^3
# Si number density = 18.726746 Si / 1000 Ang^3
#
#
#
# Elastic Constant Matrix: (Units=GPa)
#
#
# Indices 1 2 3 4 5 6 
#
# 1 121.6986 22.9488 27.6164 0.0000 0.4884 0.0000
# 2 22.9488 17.3993 19.2927 0.0000 1.0573 0.0000
# 3 27.6164 19.2927 94.5440 0.0000 -1.3615 0.0000
# 4 0.0000 0.0000 0.0000 18.9613 0.0000 2.7913
# 5 0.4884 1.0573 -1.3615 0.0000 46.4527 0.0000
# 6 0.0000 0.0000 0.0000 2.7913 0.0000 22.3157
#
#
#
# Elastic Compliance Matrix: (Units=1/GPa)
#
#
# Indices 1 2 3 4 5 6 
#
# 1 0.010947 -0.014098 -0.000318 0.000000 0.000196 0.000000
# 2 -0.014098 0.092649 -0.014823 0.000000 -0.002395 0.000000
# 3 -0.000318 -0.014823 0.013705 0.000000 0.000742 0.000000
# 4 0.000000 0.000000 0.000000 0.053728 0.000000 -0.006721
# 5 0.000196 -0.002395 0.000742 0.000000 0.021601 0.000000
# 6 0.000000 0.000000 0.000000 -0.006721 0.000000 0.045652
#
#
# Mechanical properties :
#
#
# Convention : Reuss Voigt Hill
#
# Bulk Modulus (GPa) = 16.99965 41.48418 29.24191
# Shear Modulus (GPa) = 15.80439 28.46488 22.13464
#
# Velocity S-wave (km/s) = 2.90823 3.90296 3.44172
# Velocity P-wave (km/s) = 4.51381 6.52007 5.60740
#
# Compressibility (1/GPa) = 0.05882476
#
# Stress axis : x y z
#
# Youngs Moduli (GPa) = 91.35092 10.79342 72.96414
#
# Poissons Ratio (x) = 0.15216 0.02320
# Poissons Ratio (y) = 1.28784 1.08152
# Poissons Ratio (z) = 0.02905 0.15999
#
# Static dielectric constant tensor:
#      x y z
#    x 3.533130 0.000000 0.246380 
#    y 0.000000 2.831370 0.000000 
#    z 0.246380 0.000000 3.092210 
# 
# 
# High freq. dielectric constant tensor:
#      x y z
#    x 1.746220 0.000000 -0.000940 
#    y 0.000000 1.658580 0.000000 
#    z -0.000940 0.000000 1.748220 
# 
# From -- ./inp_files/153505.got.cif
#   From: 2010.06.25/outbox.cif.g09.slc.cpg/sg12_77_cif.got.tgz:153505.got - 2010.06.28 00:19:55.
