data_PCOD8086722
_publ_section_title
;
Structure prediction by ZEFSAII (Michael W. Deem and Ramdas Pophale) SiO2 
 PCOD8086722
Probable space group: C 2/M
;
_chemical_formula_sum "Si O2"
_cell_formula_units_Z 64
_cell_length_a 20.472401
_cell_length_b 8.932575
_cell_length_c 31.415851
_cell_angle_alpha 90.000000
_cell_angle_beta 142.168018
_cell_angle_gamma 90.000000
_cell_volume 3523.718804
_symmetry_space_group_name_H-M "C 2/M"
_symmetry_group_IT_number 12
_symmetry_cell_setting 'monoclinic'
loop_
_space_group_symop_operation_xyz
x,y,z
-x,y,-z
-x,-y,-z
x,-y,z
1/2+x,1/2+y,z
1/2-x,1/2+y,-z
1/2-x,1/2-y,-z
1/2+x,1/2-y,z
loop_
_atom_site_type_symbol
_atom_site_label
_atom_site_fract_x
_atom_site_fract_y
_atom_site_fract_z
Si Si1 0.928891 0.331231 0.505221
Si Si2 0.963320 0.822608 0.765891
Si Si3 0.108369 0.824063 0.644069
Si Si4 0.738770 0.824813 0.782188
Si Si5 0.039011 0.822750 0.138650
Si Si6 0.813235 0.824014 0.994595
Si Si7 0.752602 0.176258 0.365847
Si Si8 0.326929 0.826143 0.156577
O O1 0.901081 0.500000 0.504936
O O2 0.820590 0.241454 0.440120
O O3 0.000000 0.329696 0.500000
O O4 0.993829 0.250364 0.576198
O O5 0.968979 0.762502 0.817221
O O6 0.863013 0.749460 0.690960
O O7 0.068538 0.772914 0.795340
O O8 0.951944 0.000000 0.758083
O O9 0.149187 0.762426 0.709887
O O10 0.193148 0.780465 0.651149
O O11 0.091176 0.000000 0.637701
O O12 0.854798 0.760344 0.829119
O O13 0.722923 0.791375 0.823451
O O14 0.728828 0.000000 0.766387
O O15 0.935773 0.767578 0.059108
O O16 0.043785 0.000000 0.141589
O O17 0.808296 0.000000 0.999545
O O18 0.750000 0.750000 0.000000
O O19 0.762459 0.777674 0.923530
O O20 0.743349 0.000000 0.366906
O O21 0.357614 0.000000 0.167216
#
# Coordination Sequence:
#
# PCOD8086722 Si02
#       8
#     8   8   8   8   8   8   8   8
#     4   9  17  29  48  76 109 144 180 218 264 318
#     4  11  20  33  55  79 106 141 183 225 267 322
#     4  10  19  31  50  77 109 144 178 221 271 316
#     4  10  20  36  54  76 108 144 182 223 268 325
#     4   9  18  32  54  79 102 136 180 222 266 317
#     4  10  19  34  54  79 106 137 177 223 274 323
#     4  10  19  31  50  79 112 140 177 227 271 313
#     4  10  22  36  54  79 108 141 179 225 275 324
#
# _framework density 18.162628999999999
#
# number of rings (size 3 to 8) (size 9 to 14) (size 15 to 20)
#    0.000    2.125    2.500    1.500    0.000    3.500 
#    0.000    3.125    0.000    0.750    0.000    2.625 
#    0.000    0.000    0.000    0.000    0.000    0.000 
#
# Total GULP energy -396866.398689 kJ/mol
# GULP energy per Si atom -12402.074959 kJ/mol
# Density = 1.812129 g / cm^3
# Si number density = 18.162629 Si / 1000 Ang^3
#
#
#
# Elastic Constant Matrix: (Units=GPa)
#
#
# Indices 1 2 3 4 5 6 
#
# 1 80.1155 29.7041 52.0393 -0.0002 1.0579 0.0004
# 2 29.7041 69.1618 52.5843 -0.0003 2.5299 0.0005
# 3 52.0393 52.5843 173.4919 -0.0001 7.3183 0.0002
# 4 -0.0002 -0.0003 -0.0001 26.9242 0.0000 1.1620
# 5 1.0579 2.5299 7.3183 0.0000 25.9187 -0.0002
# 6 0.0004 0.0005 0.0002 1.1620 -0.0002 22.7069
#
#
#
# Elastic Compliance Matrix: (Units=1/GPa)
#
#
# Indices 1 2 3 4 5 6 
#
# 1 0.016447 -0.004310 -0.003660 0.000000 0.000783 0.000000
# 2 -0.004310 0.019919 -0.004726 0.000000 -0.000434 0.000000
# 3 -0.003660 -0.004726 0.008368 0.000000 -0.001752 0.000000
# 4 0.000000 0.000000 0.000000 0.037223 0.000000 -0.001905
# 5 0.000783 -0.000434 -0.001752 0.000000 0.039087 0.000000
# 6 0.000000 0.000000 0.000000 -0.001905 0.000000 0.044137
#
#
# Mechanical properties :
#
#
# Convention : Reuss Voigt Hill
#
# Bulk Modulus (GPa) = 51.70051 65.71385 58.70718
# Shear Modulus (GPa) = 25.37794 27.67274 26.52534
#
# Velocity S-wave (km/s) = 3.74205 3.90758 3.82571
# Velocity P-wave (km/s) = 6.87006 7.52451 7.20472
#
# Compressibility (1/GPa) = 0.01934217
#
# Stress axis : x y z
#
# Youngs Moduli (GPa) = 60.80165 50.20300 119.49915
#
# Poissons Ratio (x) = 0.21635 0.43738
# Poissons Ratio (y) = 0.26203 0.56480
# Poissons Ratio (z) = 0.22254 0.23728
#
# Static dielectric constant tensor:
#      x y z
#    x 3.001550 0.000000 0.061100 
#    y 0.000000 3.251760 0.000000 
#    z 0.061100 0.000000 3.624180 
# 
# 
# High freq. dielectric constant tensor:
#      x y z
#    x 1.669530 0.000000 0.006210 
#    y 0.000000 1.696520 0.000000 
#    z 0.006210 0.000000 1.722040 
# 
# From -- ./inp_files/281368.got.cif
#   From: 2010.06.25/outbox.cif.g09.slc.cpg/sg12_141_cif.got.tgz:281368.got - 2010.06.28 00:19:55.
