data_PCOD8086654
_publ_section_title
;
Structure prediction by ZEFSAII (Michael W. Deem and Ramdas Pophale) SiO2 
 PCOD8086654
Probable space group: C 2/M
;
_chemical_formula_sum "Si O2"
_cell_formula_units_Z 64
_cell_length_a 27.762212
_cell_length_b 9.006116
_cell_length_c 14.315828
_cell_angle_alpha 90.000000
_cell_angle_beta 104.072162
_cell_angle_gamma 90.000000
_cell_volume 3471.965892
_symmetry_space_group_name_H-M "C 2/M"
_symmetry_group_IT_number 12
_symmetry_cell_setting 'monoclinic'
loop_
_space_group_symop_operation_xyz
x,y,z
-x,y,-z
-x,-y,-z
x,-y,z
1/2+x,1/2+y,z
1/2-x,1/2+y,-z
1/2-x,1/2-y,-z
1/2+x,1/2-y,z
loop_
_atom_site_type_symbol
_atom_site_label
_atom_site_fract_x
_atom_site_fract_y
_atom_site_fract_z
Si Si1 0.930309 0.173132 0.796960
Si Si2 0.803578 0.823630 0.027245
Si Si3 0.135195 0.171131 0.401100
Si Si4 0.956017 0.171095 0.125047
Si Si5 0.657331 0.173830 0.604284
Si Si6 0.886996 0.675934 0.950039
Si Si7 0.239545 0.829325 0.400579
Si Si8 0.127115 0.168965 0.770270
O O1 0.913543 0.207162 0.682585
O O2 0.897538 0.274111 0.849625
O O3 0.987649 0.218384 0.831065
O O4 0.921975 0.000000 0.817485
O O5 0.836554 0.755198 0.959842
O O6 0.799811 0.000000 0.010488
O O7 0.750000 0.750000 0.000000
O O8 0.829332 0.783508 0.137825
O O9 0.136311 0.265765 0.496108
O O10 0.181795 0.204576 0.350777
O O11 0.136622 0.000000 0.433171
O O12 0.926094 0.194587 0.206724
O O13 0.951288 0.000000 0.089576
O O14 0.934043 0.274319 0.033941
O O15 0.716034 0.219077 0.649204
O O16 0.626774 0.235163 0.676770
O O17 0.648901 0.000000 0.598374
O O18 0.880023 0.500000 0.952585
O O19 0.250000 0.750000 0.500000
O O20 0.248056 0.000000 0.424375
O O21 0.134641 0.000000 0.743676
#
# Coordination Sequence:
#
# PCOD8086654 Si02
#       8
#     8   8   8   8   8   8   8   8
#     4  10  20  35  56  79 103 136 177 223 275 322
#     4  10  21  38  58  82 113 145 178 219 263 309
#     4   9  18  33  52  74 101 133 171 216 264 316
#     4   9  19  37  57  76 101 135 178 225 269 318
#     4  10  19  31  50  75 103 137 174 213 259 313
#     4  11  22  35  54  81 110 141 176 214 263 323
#     4   8  15  28  45  67  94 124 159 198 243 295
#     4   9  19  35  54  75 101 137 178 216 257 311
#
# _framework density 18.43336
#
# number of rings (size 3 to 8) (size 9 to 14) (size 15 to 20)
#    0.000    2.500    0.000    3.000    0.000    6.500 
#    0.000    1.875    0.000    3.750    0.000    0.000 
#    0.000    0.000    0.000    0.000    0.000    0.000 
#
# Total GULP energy -396573.501002 kJ/mol
# GULP energy per Si atom -12392.921906 kJ/mol
# Density = 1.839141 g / cm^3
# Si number density = 18.433360 Si / 1000 Ang^3
#
#
#
# Elastic Constant Matrix: (Units=GPa)
#
#
# Indices 1 2 3 4 5 6 
#
# 1 111.4603 45.7138 52.2348 0.0000 2.8202 0.0000
# 2 45.7138 80.5579 45.5571 0.0000 -4.9676 0.0000
# 3 52.2348 45.5571 90.6471 0.0000 -10.5329 0.0000
# 4 0.0000 0.0000 0.0000 24.9596 0.0000 -2.5543
# 5 2.8202 -4.9676 -10.5329 0.0000 25.6796 0.0000
# 6 0.0000 0.0000 0.0000 -2.5543 0.0000 26.5953
#
#
#
# Elastic Compliance Matrix: (Units=1/GPa)
#
#
# Indices 1 2 3 4 5 6 
#
# 1 0.013959 -0.004683 -0.006272 0.000000 -0.005012 0.000000
# 2 -0.004683 0.018915 -0.006639 0.000000 0.001450 0.000000
# 3 -0.006272 -0.006639 0.018810 0.000000 0.007120 0.000000
# 4 0.000000 0.000000 0.000000 0.040462 0.000000 0.003886
# 5 -0.005012 0.001450 0.007120 0.000000 0.042693 0.000000
# 6 0.000000 0.000000 0.000000 0.003886 0.000000 0.037974
#
#
# Mechanical properties :
#
#
# Convention : Reuss Voigt Hill
#
# Bulk Modulus (GPa) = 60.62527 63.29742 61.96135
# Shear Modulus (GPa) = 23.41918 24.72419 24.07168
#
# Velocity S-wave (km/s) = 3.56824 3.66631 3.61761
# Velocity P-wave (km/s) = 7.06660 7.23433 7.15095
#
# Compressibility (1/GPa) = 0.01649477
#
# Stress axis : x y z
#
# Youngs Moduli (GPa) = 71.63948 52.86850 53.16259
#
# Poissons Ratio (x) = 0.24758 0.33346
# Poissons Ratio (y) = 0.33549 0.35295
# Poissons Ratio (z) = 0.44935 0.35100
#
# Static dielectric constant tensor:
#      x y z
#    x 5.613430 0.000000 0.567040 
#    y 0.000000 3.334040 0.000000 
#    z 0.567040 0.000000 3.316640 
# 
# 
# High freq. dielectric constant tensor:
#      x y z
#    x 1.720930 0.000000 -0.002670 
#    y 0.000000 1.713270 0.000000 
#    z -0.002670 0.000000 1.697700 
# 
# From -- ./inp_files/244038.got.cif
#   From: 2010.06.25/outbox.cif.g09.slc.cpg/sg12_123_cif.got.tgz:244038.got - 2010.06.28 00:19:55.
