data_PCOD8086621
_publ_section_title
;
Structure prediction by ZEFSAII (Michael W. Deem and Ramdas Pophale) SiO2 
 PCOD8086621
Probable space group: C 2/M
;
_chemical_formula_sum "Si O2"
_cell_formula_units_Z 56
_cell_length_a 28.705239
_cell_length_b 8.837956
_cell_length_c 14.458000
_cell_angle_alpha 90.000000
_cell_angle_beta 61.096185
_cell_angle_gamma 90.000000
_cell_volume 3211.025924
_symmetry_space_group_name_H-M "C 2/M"
_symmetry_group_IT_number 12
_symmetry_cell_setting 'monoclinic'
loop_
_space_group_symop_operation_xyz
x,y,z
-x,y,-z
-x,-y,-z
x,-y,z
1/2+x,1/2+y,z
1/2-x,1/2+y,-z
1/2-x,1/2-y,-z
1/2+x,1/2-y,z
loop_
_atom_site_type_symbol
_atom_site_label
_atom_site_fract_x
_atom_site_fract_y
_atom_site_fract_z
Si Si1 0.469289 0.177553 0.798831
Si Si2 0.870159 0.325881 0.542983
Si Si3 0.075470 0.170837 0.673219
Si Si4 0.546667 0.824983 0.390260
Si Si5 0.944618 0.180514 0.007520
Si Si6 0.147002 0.828805 0.775395
Si Si7 0.754026 0.320487 0.597385
O O1 0.530940 0.216944 0.755003
O O2 0.452286 0.244444 0.714301
O O3 0.459173 0.000000 0.817286
O O4 0.436521 0.260271 0.911149
O O5 0.876283 0.500000 0.505044
O O6 0.906217 0.220932 0.444899
O O7 0.894543 0.303112 0.622146
O O8 0.808724 0.275458 0.596691
O O9 0.125581 0.181238 0.691926
O O10 0.052744 0.000000 0.691586
O O11 0.500000 0.752529 0.500000
O O12 0.531776 0.000000 0.392093
O O13 0.894403 0.249215 0.113710
O O14 0.944548 0.000000 0.009537
O O15 0.000000 0.238970 0.000000
O O16 0.206399 0.757389 0.709839
O O17 0.152619 0.000000 0.804139
O O18 0.748432 0.500000 0.590836
O O19 0.750000 0.250000 0.500000
#
# Coordination Sequence:
#
# PCOD8086621 Si02
#       7
#     8   8   8   8   8   8   8
#     4  11  21  33  50  73 101 130 167 208 244 288
#     4  10  19  32  50  73  99 133 170 201 239 291
#     4  11  19  30  49  73 104 134 162 197 243 297
#     4   9  17  31  49  69  99 133 161 199 250 292
#     4  10  19  34  52  70  97 134 164 195 247 301
#     4   9  18  32  48  69 101 134 159 190 242 299
#     4  10  19  31  50  75 100 129 165 200 241 292
#
# _framework density 17.439907999999999
#
# number of rings (size 3 to 8) (size 9 to 14) (size 15 to 20)
#    0.000    2.000    4.286    0.857    0.000    0.286 
#    0.000    2.857    0.000    0.857    0.000    0.000 
#    0.000    0.000    0.000    0.000    0.000    0.143 
#
# Total GULP energy -347000.776303 kJ/mol
# GULP energy per Si atom -12392.884868 kJ/mol
# Density = 1.740021 g / cm^3
# Si number density = 17.439908 Si / 1000 Ang^3
#
#
#
# Elastic Constant Matrix: (Units=GPa)
#
#
# Indices 1 2 3 4 5 6 
#
# 1 101.8506 15.0433 53.4731 0.0000 -7.4644 0.0000
# 2 15.0433 19.8211 18.0357 0.0000 0.9710 0.0000
# 3 53.4731 18.0357 131.4616 0.0000 -4.5425 0.0000
# 4 0.0000 0.0000 0.0000 23.6245 0.0000 2.9485
# 5 -7.4644 0.9710 -4.5425 0.0000 31.2266 0.0000
# 6 0.0000 0.0000 0.0000 2.9485 0.0000 15.3809
#
#
#
# Elastic Compliance Matrix: (Units=1/GPa)
#
#
# Indices 1 2 3 4 5 6 
#
# 1 0.013266 -0.006143 -0.004459 0.000000 0.002713 0.000000
# 2 -0.006143 0.060766 -0.005984 0.000000 -0.004229 0.000000
# 3 -0.004459 -0.005984 0.010263 0.000000 0.000613 0.000000
# 4 0.000000 0.000000 0.000000 0.043366 0.000000 -0.008313
# 5 0.002713 -0.004229 0.000613 0.000000 0.032893 0.000000
# 6 0.000000 0.000000 0.000000 -0.008313 0.000000 0.066609
#
#
# Mechanical properties :
#
#
# Convention : Reuss Voigt Hill
#
# Bulk Modulus (GPa) = 19.56134 47.35973 33.46053
# Shear Modulus (GPa) = 18.02597 25.15181 21.58889
#
# Velocity S-wave (km/s) = 3.21846 3.80175 3.52220
# Velocity P-wave (km/s) = 5.00521 6.81806 5.98072
#
# Compressibility (1/GPa) = 0.05112125
#
# Stress axis : x y z
#
# Youngs Moduli (GPa) = 75.38195 16.45655 97.43905
#
# Poissons Ratio (x) = 0.10110 0.43452
# Poissons Ratio (y) = 0.46310 0.58307
# Poissons Ratio (z) = 0.33616 0.09848
#
# Static dielectric constant tensor:
#      x y z
#    x 3.335640 0.000000 -0.120180 
#    y 0.000000 3.017120 0.000000 
#    z -0.120180 0.000000 3.438840 
# 
# 
# High freq. dielectric constant tensor:
#      x y z
#    x 1.663430 0.000000 -0.002610 
#    y 0.000000 1.644650 0.000000 
#    z -0.002610 0.000000 1.668190 
# 
# From -- ./inp_files/248128.got.cif
#   From: 2010.06.25/outbox.cif.g09.slc.cpg/sg12_125_cif.got.tgz:248128.got - 2010.06.28 00:19:55.
