data_PCOD8086951
_publ_section_title
;
Structure prediction by ZEFSAII (Michael W. Deem and Ramdas Pophale) SiO2 
 PCOD8086951
Probable space group: C 2/M
;
_chemical_formula_sum "Si O2"
_cell_formula_units_Z 48
_cell_length_a 19.348353
_cell_length_b 8.760827
_cell_length_c 21.918203
_cell_angle_alpha 90.000000
_cell_angle_beta 44.816996
_cell_angle_gamma 90.000000
_cell_volume 2618.710367
_symmetry_space_group_name_H-M "C 2/M"
_symmetry_group_IT_number 12
_symmetry_cell_setting 'monoclinic'
loop_
_space_group_symop_operation_xyz
x,y,z
-x,y,-z
-x,-y,-z
x,-y,z
1/2+x,1/2+y,z
1/2-x,1/2+y,-z
1/2-x,1/2-y,-z
1/2+x,1/2-y,z
loop_
_atom_site_type_symbol
_atom_site_label
_atom_site_fract_x
_atom_site_fract_y
_atom_site_fract_z
Si Si1 0.155721 0.320480 0.027146
Si Si2 0.021421 0.822705 0.791115
Si Si3 0.279744 0.320460 0.131186
Si Si4 0.072590 0.176796 0.274489
Si Si5 0.430342 0.818415 0.597890
Si Si6 0.288167 0.320783 0.262825
O O1 0.167472 0.500000 0.020698
O O2 0.057948 0.273607 0.122843
O O3 0.250000 0.250000 0.000000
O O4 0.149653 0.262270 0.961225
O O5 0.010139 0.800800 0.725577
O O6 0.128737 0.758603 0.743232
O O7 0.009271 0.000000 0.817157
O O8 0.283079 0.500000 0.117356
O O9 0.168394 0.265876 0.191901
O O10 0.316978 0.276645 0.175498
O O11 0.030686 0.245753 0.363540
O O12 0.099511 0.000000 0.266446
O O13 0.500000 0.761728 0.500000
O O14 0.320116 0.756148 0.653485
O O15 0.432854 0.000000 0.603709
O O16 0.280775 0.500000 0.274356
#
# Coordination Sequence:
#
# PCOD8086951 Si02
#       6
#     8   8   8   8   8   8
#     4  12  23  34  51  76 106 140 182 224 262 306
#     4  10  20  35  53  75 106 142 178 216 264 314
#     4  10  19  34  55  76 103 141 184 222 256 306
#     4  10  19  31  52  78 105 137 174 218 265 313
#     4   9  18  35  59  81 102 135 178 218 259 317
#     4   8  17  34  55  77 103 139 178 215 260 316
#
# _framework density 18.329633000000001
#
# number of rings (size 3 to 8) (size 9 to 14) (size 15 to 20)
#    0.000    2.167    1.667    3.500    0.000    1.667 
#    0.000    8.333    0.000    0.000    0.000    0.000 
#    0.000    0.000    0.000    0.000    0.000    0.000 
#
# Total GULP energy -297573.772458 kJ/mol
# GULP energy per Si atom -12398.907186 kJ/mol
# Density = 1.828791 g / cm^3
# Si number density = 18.329633 Si / 1000 Ang^3
#
#
#
# Elastic Constant Matrix: (Units=GPa)
#
#
# Indices 1 2 3 4 5 6 
#
# 1 143.4732 38.7663 64.3776 0.0000 4.7679 0.0000
# 2 38.7663 78.9274 43.5548 0.0001 5.2894 0.0000
# 3 64.3776 43.5548 136.5875 0.0000 12.9658 0.0000
# 4 0.0000 0.0001 0.0000 25.9098 0.0000 5.0580
# 5 4.7679 5.2894 12.9658 0.0000 21.6884 0.0000
# 6 0.0000 0.0000 0.0000 5.0580 0.0000 21.9283
#
#
#
# Elastic Compliance Matrix: (Units=1/GPa)
#
#
# Indices 1 2 3 4 5 6 
#
# 1 0.009270 -0.002613 -0.003608 0.000000 0.000756 0.000000
# 2 -0.002613 0.016127 -0.003808 0.000000 -0.001082 0.000000
# 3 -0.003608 -0.003808 0.010679 0.000000 -0.004662 0.000000
# 4 0.000000 0.000000 0.000000 0.040415 0.000000 -0.009322
# 5 0.000756 -0.001082 -0.004662 0.000000 0.048992 0.000000
# 6 0.000000 0.000000 0.000000 -0.009322 0.000000 0.047753
#
#
# Mechanical properties :
#
#
# Convention : Reuss Voigt Hill
#
# Bulk Modulus (GPa) = 62.43037 72.48728 67.45882
# Shear Modulus (GPa) = 25.17197 28.05792 26.61495
#
# Velocity S-wave (km/s) = 3.70982 3.91671 3.81467
# Velocity P-wave (km/s) = 7.24459 7.75155 7.50235
#
# Compressibility (1/GPa) = 0.01601785
#
# Stress axis : x y z
#
# Youngs Moduli (GPa) = 107.88014 62.00664 93.64428
#
# Poissons Ratio (x) = 0.16201 0.33784
# Poissons Ratio (y) = 0.28186 0.35664
# Poissons Ratio (z) = 0.38919 0.23615
#
# Static dielectric constant tensor:
#      x y z
#    x 3.839590 0.000000 0.002210 
#    y 0.000000 3.291290 0.000000 
#    z 0.002210 0.000000 3.484550 
# 
# 
# High freq. dielectric constant tensor:
#      x y z
#    x 1.709750 0.000000 0.013130 
#    y 0.000000 1.700830 0.000000 
#    z 0.013130 0.000000 1.698080 
# 
# From -- ./inp_files/313594.got.cif
#   From: 2010.06.25/outbox.cif.g09.slc.cpg/sg12_157_cif.got.tgz:313594.got - 2010.06.28 00:19:55.
