data_PCOD8086876
_publ_section_title
;
Structure prediction by ZEFSAII (Michael W. Deem and Ramdas Pophale) SiO2 
 PCOD8086876
Probable space group: C 2/M
;
_chemical_formula_sum "Si O2"
_cell_formula_units_Z 40
_cell_length_a 5.287219
_cell_length_b 15.053374
_cell_length_c 22.120865
_cell_angle_alpha 90.000000
_cell_angle_beta 96.863497
_cell_angle_gamma 90.000000
_cell_volume 1747.993276
_symmetry_space_group_name_H-M "C 2/M"
_symmetry_group_IT_number 12
_symmetry_cell_setting 'monoclinic'
loop_
_space_group_symop_operation_xyz
x,y,z
-x,y,-z
-x,-y,-z
x,-y,z
1/2+x,1/2+y,z
1/2-x,1/2+y,-z
1/2-x,1/2-y,-z
1/2+x,1/2-y,z
loop_
_atom_site_type_symbol
_atom_site_label
_atom_site_fract_x
_atom_site_fract_y
_atom_site_fract_z
Si Si1 0.465858 0.394442 0.431622
Si Si2 0.930944 0.394344 0.361763
Si Si3 0.731724 0.604379 0.963468
Si Si4 0.136991 0.650515 0.775835
Si Si5 0.162846 0.151468 0.827548
O O1 0.500000 0.355714 0.500000
O O2 0.466915 0.500000 0.433857
O O3 0.197120 0.360750 0.397475
O O4 0.700556 0.360772 0.397506
O O5 0.926874 0.500000 0.353530
O O6 0.898160 0.347957 0.296625
O O7 0.724750 0.500000 0.949677
O O8 0.700219 0.656465 0.900192
O O9 0.500000 0.633157 0.000000
O O10 0.000000 0.633126 0.000000
O O11 0.147868 0.750103 0.800681
O O12 0.399827 0.601110 0.802364
O O13 0.899732 0.601102 0.801958
#
# Coordination Sequence:
#
# PCOD8086876 Si02
#       5
#     8   8   8   8   8
#     4   9  17  30  49  77 111 142 177 224 274 321
#     4  10  19  31  51  79 109 142 180 222 267 315
#     4  10  21  38  60  85 111 137 169 216 271 323
#     4  10  21  36  52  78 109 144 184 219 263 311
#     4  10  21  38  56  78 107 143 180 216 263 315
#
# _framework density 22.883384
#
# number of rings (size 3 to 8) (size 9 to 14) (size 15 to 20)
#    0.000    2.200    0.000    3.000    0.000    4.000 
#    0.000   12.000    0.000    0.000    0.000   56.000 
#    0.000    0.000    0.000    0.000    0.000    1.200 
#
# Total GULP energy -247972.710313 kJ/mol
# GULP energy per Si atom -12398.635516 kJ/mol
# Density = 2.283130 g / cm^3
# Si number density = 22.883384 Si / 1000 Ang^3
#
#
#
# Elastic Constant Matrix: (Units=GPa)
#
#
# Indices 1 2 3 4 5 6 
#
# 1 285.9810 8.8105 127.5269 0.0000 0.3256 0.0000
# 2 8.8105 31.8405 32.0872 0.0000 -0.0263 0.0000
# 3 127.5269 32.0872 261.6278 0.0000 0.0873 0.0000
# 4 0.0000 0.0000 0.0000 39.2668 0.0000 -0.1132
# 5 0.3256 -0.0263 0.0873 0.0000 53.8660 0.0000
# 6 0.0000 0.0000 0.0000 -0.1132 0.0000 -1.5983
#
#
#
# Elastic Compliance Matrix: (Units=1/GPa)
#
#
# Indices 1 2 3 4 5 6 
#
# 1 0.004502 0.001102 -0.002329 0.000000 -0.000023 0.000000
# 2 0.001102 0.036105 -0.004965 0.000000 0.000019 0.000000
# 3 -0.002329 -0.004965 0.005567 0.000000 0.000003 0.000000
# 4 0.000000 0.000000 0.000000 0.025462 0.000000 -0.001803
# 5 -0.000023 0.000019 0.000003 0.000000 0.018565 0.000000
# 6 0.000000 0.000000 0.000000 -0.001803 0.000000 -0.625533
#
#
# Mechanical properties :
#
#
# Convention : Reuss Voigt Hill
#
# Bulk Modulus (GPa) = 29.59638 101.81094 65.70366
# Shear Modulus (GPa) = -9.77163 45.70854 17.96845
#
# Velocity S-wave (km/s) = -2.06869 4.47414 2.80521
# Velocity P-wave (km/s) = 2.69364 8.44265 6.26634
#
# Compressibility (1/GPa) = 0.03378792
#
# Stress axis : x y z
#
# Youngs Moduli (GPa) = 222.14664 27.69679 179.64389
#
# Poissons Ratio (x) = -0.03051 0.41845
# Poissons Ratio (y) = -0.24475 0.89196
# Poissons Ratio (z) = 0.51745 0.13752
#
# Static dielectric constant tensor:
#      x y z
#    x 37.426600 0.000000 0.082020 
#    y 0.000000 3.861670 0.000000 
#    z 0.082020 0.000000 4.082630 
# 
# 
# High freq. dielectric constant tensor:
#      x y z
#    x 1.938560 0.000000 0.000070 
#    y 0.000000 1.858760 0.000000 
#    z 0.000070 0.000000 1.913660 
# 
# From -- ./inp_files/252598.got.cif
#   From: 2010.06.25/outbox.cif.g09.slc.cpg/sg12_127_cif.got.tgz:252598.got - 2010.06.28 00:19:55.
