data_PCOD8086056
_publ_section_title
;
Structure prediction by ZEFSAII (Michael W. Deem and Ramdas Pophale) SiO2 
 PCOD8086056
Probable space group: C 2/M
;
_chemical_formula_sum "Si O2"
_cell_formula_units_Z 56
_cell_length_a 18.731305
_cell_length_b 9.361093
_cell_length_c 22.827077
_cell_angle_alpha 90.000000
_cell_angle_beta 127.125830
_cell_angle_gamma 90.000000
_cell_volume 3191.340553
_symmetry_space_group_name_H-M "C 2/M"
_symmetry_group_IT_number 12
_symmetry_cell_setting 'monoclinic'
loop_
_space_group_symop_operation_xyz
x,y,z
-x,y,-z
-x,-y,-z
x,-y,z
1/2+x,1/2+y,z
1/2-x,1/2+y,-z
1/2-x,1/2-y,-z
1/2+x,1/2-y,z
loop_
_atom_site_type_symbol
_atom_site_label
_atom_site_fract_x
_atom_site_fract_y
_atom_site_fract_z
Si Si1 0.019887 0.830660 0.635030
Si Si2 0.363348 0.340799 0.203301
Si Si3 0.741464 0.166605 0.935731
Si Si4 0.196520 0.341631 0.207187
Si Si5 0.325432 0.329729 0.501719
Si Si6 0.905217 0.165136 0.930745
Si Si7 0.176832 0.169931 0.632550
O O1 0.920136 0.774959 0.574004
O O2 0.051480 0.786396 0.716359
O O3 0.087471 0.766843 0.619357
O O4 0.022357 0.000000 0.630857
O O5 0.380685 0.500000 0.185847
O O6 0.343989 0.229948 0.141463
O O7 0.279969 0.348101 0.205217
O O8 0.831932 0.193411 0.944331
O O9 0.724441 0.000000 0.939102
O O10 0.750000 0.250000 0.000000
O O11 0.155659 0.500000 0.194857
O O12 0.119508 0.241713 0.142496
O O13 0.233749 0.280703 0.287696
O O14 0.314224 0.500000 0.501613
O O15 0.250000 0.250000 0.500000
O O16 0.317929 0.276239 0.431153
O O17 0.913609 0.000000 0.919218
O O18 0.000000 0.226324 0.000000
O O19 0.171700 0.000000 0.632480
#
# Coordination Sequence:
#
# PCOD8086056 Si02
#       7
#     8   8   8   8   8   8   8
#     4   8  14  27  50  73  87 112 158 199 226 262
#     4   8  14  27  47  69  91 114 149 196 235 267
#     4  10  19  31  48  69  94 123 154 188 228 273
#     4   8  14  26  46  70  91 113 147 192 234 265
#     4  10  19  31  47  68  97 127 152 183 227 276
#     4   9  18  32  48  67  92 121 151 184 225 272
#     4   8  14  27  49  72  89 112 154 199 227 257
#
# _framework density 17.547484000000001
#
# number of rings (size 3 to 8) (size 9 to 14) (size 15 to 20)
#    0.000    3.286    0.000    2.571    0.000    2.571 
#    0.000    2.857    0.000    8.571    0.000    0.000 
#    0.000    0.000    0.000    0.000    0.000    0.000 
#
# Total GULP energy -347024.274821 kJ/mol
# GULP energy per Si atom -12393.724101 kJ/mol
# Density = 1.750755 g / cm^3
# Si number density = 17.547484 Si / 1000 Ang^3
#
#
#
# Elastic Constant Matrix: (Units=GPa)
#
#
# Indices 1 2 3 4 5 6 
#
# 1 69.4415 32.4476 68.8855 0.0000 7.9818 0.0000
# 2 32.4476 60.6079 64.0751 0.0000 0.2099 0.0000
# 3 68.8855 64.0751 196.5894 0.0000 12.8445 0.0000
# 4 0.0000 0.0000 0.0000 23.3078 0.0000 1.8088
# 5 7.9818 0.2099 12.8445 0.0000 26.1365 0.0000
# 6 0.0000 0.0000 0.0000 1.8088 0.0000 20.7646
#
#
#
# Elastic Compliance Matrix: (Units=1/GPa)
#
#
# Indices 1 2 3 4 5 6 
#
# 1 0.023820 -0.006423 -0.005973 0.000000 -0.004287 0.000000
# 2 -0.006423 0.027308 -0.006988 0.000000 0.005176 0.000000
# 3 -0.005973 -0.006988 0.009644 0.000000 -0.002859 0.000000
# 4 0.000000 0.000000 0.000000 0.043196 0.000000 -0.003763
# 5 -0.004287 0.005176 -0.002859 0.000000 0.040934 0.000000
# 6 0.000000 0.000000 0.000000 -0.003763 0.000000 0.048487
#
#
# Mechanical properties :
#
#
# Convention : Reuss Voigt Hill
#
# Bulk Modulus (GPa) = 45.44633 73.05059 59.24846
# Shear Modulus (GPa) = 20.87757 24.79048 22.83402
#
# Velocity S-wave (km/s) = 3.45305 3.76275 3.61123
# Velocity P-wave (km/s) = 6.46942 7.78450 7.15723
#
# Compressibility (1/GPa) = 0.02200398
#
# Stress axis : x y z
#
# Youngs Moduli (GPa) = 41.98201 36.61895 103.68877
#
# Poissons Ratio (x) = 0.23520 0.61933
# Poissons Ratio (y) = 0.26964 0.72461
# Poissons Ratio (z) = 0.25076 0.25590
#
# Static dielectric constant tensor:
#      x y z
#    x 3.043510 0.000000 0.163030 
#    y 0.000000 3.052730 0.000000 
#    z 0.163030 0.000000 3.860340 
# 
# 
# High freq. dielectric constant tensor:
#      x y z
#    x 1.642770 0.000000 0.006050 
#    y 0.000000 1.645250 0.000000 
#    z 0.006050 0.000000 1.699440 
# 
# From -- ./inp_files/314391.got.cif
#   From: 2010.06.25/outbox.cif.g09.slc.cpg/sg12_158_cif.got.tgz:314391.got - 2010.06.28 00:19:55.
