data_PCOD8086870
_publ_section_title
;
Structure prediction by ZEFSAII (Michael W. Deem and Ramdas Pophale) SiO2 
 PCOD8086870
Probable space group: C 2/M
;
_chemical_formula_sum "Si O2"
_cell_formula_units_Z 56
_cell_length_a 28.306146
_cell_length_b 9.259057
_cell_length_c 13.270810
_cell_angle_alpha 90.000000
_cell_angle_beta 121.785308
_cell_angle_gamma 90.000000
_cell_volume 2956.501171
_symmetry_space_group_name_H-M "C 2/M"
_symmetry_group_IT_number 12
_symmetry_cell_setting 'monoclinic'
loop_
_space_group_symop_operation_xyz
x,y,z
-x,y,-z
-x,-y,-z
x,-y,z
1/2+x,1/2+y,z
1/2-x,1/2+y,-z
1/2-x,1/2-y,-z
1/2+x,1/2-y,z
loop_
_atom_site_type_symbol
_atom_site_label
_atom_site_fract_x
_atom_site_fract_y
_atom_site_fract_z
Si Si1 0.872377 0.165170 0.198524
Si Si2 0.582096 0.164649 0.278215
Si Si3 0.691993 0.167871 0.717991
Si Si4 0.023503 0.169048 0.814242
Si Si5 0.408358 0.166549 0.945441
Si Si6 0.199857 0.670467 0.497629
Si Si7 0.312286 0.667966 0.928470
O O1 0.859307 0.256928 0.283142
O O2 0.935249 0.196390 0.233298
O O3 0.864383 0.000000 0.219650
O O4 0.829818 0.208134 0.061544
O O5 0.536396 0.265132 0.281356
O O6 0.574564 0.180378 0.150776
O O7 0.642988 0.216785 0.379364
O O8 0.572523 0.000000 0.302384
O O9 0.696814 0.223963 0.609455
O O10 0.748142 0.205912 0.840989
O O11 0.678842 0.000000 0.703748
O O12 0.018491 0.000000 0.832737
O O13 0.046416 0.248079 0.938984
O O14 0.347546 0.235896 0.890560
O O15 0.407059 0.000000 0.978718
O O16 0.210587 0.500000 0.502501
O O17 0.250000 0.750000 0.500000
O O18 0.325081 0.500000 0.920018
#
# Coordination Sequence:
#
# PCOD8086870 Si02
#       7
#     8   8   8   8   8   8   8
#     4   9  19  34  51  75 106 135 169 216 264 312
#     4  10  21  36  53  76 107 140 175 215 258 308
#     4  10  20  34  54  78 104 138 178 217 258 305
#     4  10  21  36  54  78 106 136 173 216 261 311
#     4  10  19  31  51  79 108 139 173 210 259 314
#     4  10  22  39  57  80 108 137 174 216 256 304
#     4   9  18  32  50  77 110 139 172 214 258 309
#
# _framework density 18.941306999999998
#
# number of rings (size 3 to 8) (size 9 to 14) (size 15 to 20)
#    0.000    2.286    0.000    3.429    0.000    7.429 
#    0.000    0.714    0.000    4.286    0.000    0.000 
#    0.000    0.000    0.000    0.000    0.000    0.000 
#
# Total GULP energy -347271.270926 kJ/mol
# GULP energy per Si atom -12402.545390 kJ/mol
# Density = 1.889820 g / cm^3
# Si number density = 18.941307 Si / 1000 Ang^3
#
#
#
# Elastic Constant Matrix: (Units=GPa)
#
#
# Indices 1 2 3 4 5 6 
#
# 1 136.5750 71.2571 59.9537 0.0000 0.2266 0.0000
# 2 71.2571 85.7616 39.9981 0.0000 0.0955 0.0000
# 3 59.9537 39.9981 70.9760 0.0000 -0.5969 0.0000
# 4 0.0000 0.0000 0.0000 21.0126 0.0000 0.5531
# 5 0.2266 0.0955 -0.5969 0.0000 27.9666 0.0000
# 6 0.0000 0.0000 0.0000 0.5531 0.0000 41.9378
#
#
#
# Elastic Compliance Matrix: (Units=1/GPa)
#
#
# Indices 1 2 3 4 5 6 
#
# 1 0.015695 -0.009300 -0.008019 0.000000 -0.000267 0.000000
# 2 -0.009300 0.021330 -0.004165 0.000000 -0.000086 0.000000
# 3 -0.008019 -0.004165 0.023215 0.000000 0.000575 0.000000
# 4 0.000000 0.000000 0.000000 0.047607 0.000000 -0.000628
# 5 -0.000267 -0.000086 0.000575 0.000000 0.035772 0.000000
# 6 0.000000 0.000000 0.000000 -0.000628 0.000000 0.023853
#
#
# Mechanical properties :
#
#
# Convention : Reuss Voigt Hill
#
# Bulk Modulus (GPa) = 57.89872 70.63670 64.26771
# Shear Modulus (GPa) = 23.12702 26.32365 24.72533
#
# Velocity S-wave (km/s) = 3.49805 3.73198 3.61690
# Velocity P-wave (km/s) = 6.85193 7.47954 7.17260
#
# Compressibility (1/GPa) = 0.01727154
#
# Stress axis : x y z
#
# Youngs Moduli (GPa) = 63.71531 46.88146 43.07611
#
# Poissons Ratio (x) = 0.43602 0.34541
# Poissons Ratio (y) = 0.59258 0.17942
# Poissons Ratio (z) = 0.51090 0.19527
#
# Static dielectric constant tensor:
#      x y z
#    x 3.490800 0.000000 0.065350 
#    y 0.000000 3.454530 0.000000 
#    z 0.065350 0.000000 3.349480 
# 
# 
# High freq. dielectric constant tensor:
#      x y z
#    x 1.743350 0.000000 0.002620 
#    y 0.000000 1.735060 0.000000 
#    z 0.002620 0.000000 1.718360 
# 
# From -- ./inp_files/180643.got.cif
#   From: 2010.06.25/outbox.cif.g09.slc.cpg/sg12_91_cif.got.tgz:180643.got - 2010.06.28 00:19:55.
