data_PCOD8086296
_publ_section_title
;
Structure prediction by ZEFSAII (Michael W. Deem and Ramdas Pophale) SiO2 
 PCOD8086296
Probable space group: C 2/M
;
_chemical_formula_sum "Si O2"
_cell_formula_units_Z 56
_cell_length_a 12.087395
_cell_length_b 23.672111
_cell_length_c 14.910820
_cell_angle_alpha 90.000000
_cell_angle_beta 38.285513
_cell_angle_gamma 90.000000
_cell_volume 2643.437403
_symmetry_space_group_name_H-M "C 2/M"
_symmetry_group_IT_number 12
_symmetry_cell_setting 'monoclinic'
loop_
_space_group_symop_operation_xyz
x,y,z
-x,y,-z
-x,-y,-z
x,-y,z
1/2+x,1/2+y,z
1/2-x,1/2+y,-z
1/2-x,1/2-y,-z
1/2+x,1/2-y,z
loop_
_atom_site_type_symbol
_atom_site_label
_atom_site_fract_x
_atom_site_fract_y
_atom_site_fract_z
Si Si1 0.513325 0.858209 0.219834
Si Si2 0.101090 0.311601 0.524886
Si Si3 0.941533 0.877814 0.314432
Si Si4 0.573495 0.701352 0.363221
Si Si5 0.041795 0.258000 0.874965
Si Si6 0.085701 0.129702 0.039662
Si Si7 0.683618 0.563867 0.436148
O O1 0.488241 0.847048 0.339616
O O2 0.533957 0.800685 0.150412
O O3 0.343900 0.896240 0.294474
O O4 0.706509 0.887637 0.090567
O O5 0.306231 0.326980 0.380555
O O6 0.000000 0.329922 0.500000
O O7 0.087052 0.244958 0.556152
O O8 0.853381 0.925059 0.434220
O O9 0.100578 0.845767 0.268993
O O10 0.006259 0.902857 0.177863
O O11 0.500000 0.669296 0.500000
O O12 0.743468 0.741689 0.272140
O O13 0.952268 0.196507 0.921726
O O14 0.000000 0.282276 0.000000
O O15 0.000000 0.108958 0.000000
O O16 0.500000 0.572390 0.500000
O O17 0.753161 0.500000 0.382387
#
# Coordination Sequence:
#
# PCOD8086296 Si02
#       7
#     8   8   8   8   8   8   8
#     4  11  21  36  59  82 115 157 196 233 285 345
#     4  10  19  31  48  76 113 154 196 235 275 333
#     4  11  20  34  57  80 113 153 192 236 289 340
#     4  11  19  30  49  80 115 151 197 235 278 338
#     4  11  21  33  51  82 125 161 191 227 276 339
#     4  11  22  36  54  85 125 163 194 224 268 336
#     4  10  23  44  67  89 110 137 186 253 311 349
#
# _framework density 21.184539000000001
#
# number of rings (size 3 to 8) (size 9 to 14) (size 15 to 20)
#    0.000    1.286    0.000    9.857    0.000    0.000 
#    0.000    0.714    0.000   18.429    0.000    0.000 
#    0.000    0.000    0.000    0.000    0.000    0.000 
#
# Total GULP energy -346967.673929 kJ/mol
# GULP energy per Si atom -12391.702640 kJ/mol
# Density = 2.113632 g / cm^3
# Si number density = 21.184539 Si / 1000 Ang^3
#
#
#
# Elastic Constant Matrix: (Units=GPa)
#
#
# Indices 1 2 3 4 5 6 
#
# 1 97.1081 13.0106 41.2919 0.0095 7.5670 -0.0019
# 2 13.0106 48.0520 0.8553 0.0035 -0.8488 -0.0014
# 3 41.2919 0.8553 120.5763 -0.0200 7.8883 -0.0053
# 4 0.0095 0.0035 -0.0200 15.4598 0.0184 -5.2711
# 5 7.5670 -0.8488 7.8883 0.0184 41.4384 0.0038
# 6 -0.0019 -0.0014 -0.0053 -5.2711 0.0038 3.7526
#
#
#
# Elastic Compliance Matrix: (Units=1/GPa)
#
#
# Indices 1 2 3 4 5 6 
#
# 1 0.012664 -0.003382 -0.004209 -0.000020 -0.001580 -0.000027
# 2 -0.003382 0.021725 0.000946 -0.000001 0.000882 0.000006
# 3 -0.004209 0.000946 0.009799 0.000040 -0.001077 0.000070
# 4 -0.000020 -0.000001 0.000040 0.124136 -0.000075 0.174367
# 5 -0.001580 0.000882 -0.001077 -0.000075 0.024644 -0.000133
# 6 -0.000027 0.000006 0.000070 0.174367 -0.000133 0.511403
#
#
# Mechanical properties :
#
#
# Convention : Reuss Voigt Hill
#
# Bulk Modulus (GPa) = 32.36462 41.78355 37.07409
# Shear Modulus (GPa) = 6.86850 26.16874 16.51862
#
# Velocity S-wave (km/s) = 1.80257 3.51846 2.79543
# Velocity P-wave (km/s) = 4.43204 6.02267 5.28751
#
# Compressibility (1/GPa) = 0.03089793
#
# Stress axis : x y z
#
# Youngs Moduli (GPa) = 78.96397 46.02946 102.05301
#
# Poissons Ratio (x) = 0.15567 0.42959
# Poissons Ratio (y) = 0.26705 -0.09657
# Poissons Ratio (z) = 0.33240 -0.04356
#
# Static dielectric constant tensor:
#      x y z
#    x 4.187510 -0.000010 0.112040 
#    y -0.000010 3.393990 0.000010 
#    z 0.112040 0.000010 4.089030 
# 
# 
# High freq. dielectric constant tensor:
#      x y z
#    x 1.847610 0.000000 0.005420 
#    y 0.000000 1.768760 0.000000 
#    z 0.005420 0.000000 1.840750 
# 
# From -- ./inp_files/209127.got.cif
#   From: 2010.06.25/outbox.cif.g09.slc.cpg/sg12_105_cif.got.tgz:209127.got - 2010.06.28 00:19:55.
