data_PCOD8086213
_publ_section_title
;
Structure prediction by ZEFSAII (Michael W. Deem and Ramdas Pophale) SiO2 
 PCOD8086213
Probable space group: C 2/M
;
_chemical_formula_sum "Si O2"
_cell_formula_units_Z 64
_cell_length_a 33.112127
_cell_length_b 9.094723
_cell_length_c 25.337682
_cell_angle_alpha 90.000000
_cell_angle_beta 153.730177
_cell_angle_gamma 90.000000
_cell_volume 3377.177027
_symmetry_space_group_name_H-M "C 2/M"
_symmetry_group_IT_number 12
_symmetry_cell_setting 'monoclinic'
loop_
_space_group_symop_operation_xyz
x,y,z
-x,y,-z
-x,-y,-z
x,-y,z
1/2+x,1/2+y,z
1/2-x,1/2+y,-z
1/2-x,1/2-y,-z
1/2+x,1/2-y,z
loop_
_atom_site_type_symbol
_atom_site_label
_atom_site_fract_x
_atom_site_fract_y
_atom_site_fract_z
Si Si1 0.595286 0.841205 0.133571
Si Si2 0.792694 0.328926 0.897313
Si Si3 0.866241 0.174343 0.722146
Si Si4 0.760586 0.173962 0.756189
Si Si5 0.178182 0.673552 0.549893
Si Si6 0.987298 0.330264 0.167811
Si Si7 0.691279 0.671718 0.886856
Si Si8 0.983189 0.670788 0.285560
O O1 0.578040 0.740900 0.164123
O O2 0.642933 0.743461 0.145055
O O3 0.645212 0.000000 0.203892
O O4 0.500000 0.887486 0.000000
O O5 0.791999 0.500000 0.881653
O O6 0.738656 0.240894 0.787954
O O7 0.735489 0.296773 0.882419
O O8 0.898127 0.277337 0.030246
O O9 0.760944 0.227686 0.608251
O O10 0.919055 0.239908 0.733403
O O11 0.872915 0.000000 0.728280
O O12 0.692802 0.220787 0.628493
O O13 0.766576 0.000000 0.767970
O O14 0.177502 0.500000 0.545482
O O15 0.082687 0.736534 0.417055
O O16 0.008478 0.500000 0.180363
O O17 0.963233 0.307516 0.200650
O O18 0.688197 0.500000 0.896353
O O19 0.589613 0.737159 0.766461
O O20 0.750000 0.750000 0.000000
O O21 0.975709 0.500000 0.292818
#
# Coordination Sequence:
#
# PCOD8086213 Si02
#       8
#     8   8   8   8   8   8   8   8
#     4  10  19  31  48  71 103 145 186 227 277 331
#     4  10  21  37  55  81 115 146 178 222 279 341
#     4  10  20  33  50  77 110 146 187 232 271 320
#     4  10  20  34  54  81 108 143 186 229 272 322
#     4   8  18  37  57  77 110 149 189 229 274 325
#     4  10  20  34  53  80 111 146 185 225 282 339
#     4  11  22  39  61  87 115 143 180 227 280 337
#     4  10  20  39  62  81 107 149 187 229 281 333
#
# _framework density 18.950738000000001
#
# number of rings (size 3 to 8) (size 9 to 14) (size 15 to 20)
#    0.000    2.125    1.250    3.000    0.000    6.500 
#    0.000    4.375    0.000    3.750    0.000    0.000 
#    0.000    0.000    0.000    0.000    0.000    0.000 
#
# Total GULP energy -396536.479750 kJ/mol
# GULP energy per Si atom -12391.764992 kJ/mol
# Density = 1.890760 g / cm^3
# Si number density = 18.950738 Si / 1000 Ang^3
#
#
#
# Elastic Constant Matrix: (Units=GPa)
#
#
# Indices 1 2 3 4 5 6 
#
# 1 87.6966 45.5416 34.0911 0.0000 10.2991 0.0000
# 2 45.5416 76.8383 25.5319 0.0000 6.4090 0.0000
# 3 34.0911 25.5319 89.0198 0.0000 16.9895 0.0000
# 4 0.0000 0.0000 0.0000 23.3957 0.0000 3.0035
# 5 10.2991 6.4090 16.9895 0.0000 24.4618 0.0000
# 6 0.0000 0.0000 0.0000 3.0035 0.0000 19.5107
#
#
#
# Elastic Compliance Matrix: (Units=1/GPa)
#
#
# Indices 1 2 3 4 5 6 
#
# 1 0.017916 -0.009161 -0.003749 0.000000 -0.002539 0.000000
# 2 -0.009161 0.019093 -0.002016 0.000000 0.000255 0.000000
# 3 -0.003749 -0.002016 0.014808 0.000000 -0.008178 0.000000
# 4 0.000000 0.000000 0.000000 0.043605 0.000000 -0.006712
# 5 -0.002539 0.000255 -0.008178 0.000000 0.047562 0.000000
# 6 0.000000 0.000000 0.000000 -0.006712 0.000000 0.052287
#
#
# Mechanical properties :
#
#
# Convention : Reuss Voigt Hill
#
# Bulk Modulus (GPa) = 45.52910 51.54267 48.53588
# Shear Modulus (GPa) = 21.51039 23.36630 22.43835
#
# Velocity S-wave (km/s) = 3.37273 3.51522 3.44471
# Velocity P-wave (km/s) = 6.26452 6.61309 6.44117
#
# Compressibility (1/GPa) = 0.02196398
#
# Stress axis : x y z
#
# Youngs Moduli (GPa) = 55.81591 52.37564 67.52970
#
# Poissons Ratio (x) = 0.47982 0.25317
# Poissons Ratio (y) = 0.51134 0.13617
# Poissons Ratio (z) = 0.20925 0.10561
#
# Static dielectric constant tensor:
#      x y z
#    x 2.900850 0.000000 0.009700 
#    y 0.000000 3.395340 0.000000 
#    z 0.009700 0.000000 3.577190 
# 
# 
# High freq. dielectric constant tensor:
#      x y z
#    x 1.737140 0.000000 -0.000760 
#    y 0.000000 1.732260 0.000000 
#    z -0.000760 0.000000 1.723420 
# 
# From -- ./inp_files/353495.got.cif
#   From: 2010.06.25/outbox.cif.g09.slc.cpg/sg12_177_cif.got.tgz:353495.got - 2010.06.28 00:19:55.
