data_PCOD8086986
_publ_section_title
;
Structure prediction by ZEFSAII (Michael W. Deem and Ramdas Pophale) SiO2 
 PCOD8086986
Probable space group: C 2/M
;
_chemical_formula_sum "Si O2"
_cell_formula_units_Z 64
_cell_length_a 23.254167
_cell_length_b 9.180165
_cell_length_c 20.613621
_cell_angle_alpha 90.000000
_cell_angle_beta 51.575966
_cell_angle_gamma 90.000000
_cell_volume 3447.524253
_symmetry_space_group_name_H-M "C 2/M"
_symmetry_group_IT_number 12
_symmetry_cell_setting 'monoclinic'
loop_
_space_group_symop_operation_xyz
x,y,z
-x,y,-z
-x,-y,-z
x,-y,z
1/2+x,1/2+y,z
1/2-x,1/2+y,-z
1/2-x,1/2-y,-z
1/2+x,1/2-y,z
loop_
_atom_site_type_symbol
_atom_site_label
_atom_site_fract_x
_atom_site_fract_y
_atom_site_fract_z
Si Si1 0.507576 0.669895 0.322857
Si Si2 0.947527 0.171852 0.092736
Si Si3 0.348061 0.833137 0.757327
Si Si4 0.679965 0.834462 0.072525
Si Si5 0.223376 0.831946 0.614023
Si Si6 0.537891 0.332071 0.153647
Si Si7 0.712602 0.326753 0.768818
Si Si8 0.136324 0.668095 0.568029
O O1 0.504815 0.500000 0.341084
O O2 0.579867 0.736698 0.305547
O O3 0.505924 0.700877 0.247032
O O4 0.436980 0.748667 0.402838
O O5 0.864152 0.233371 0.147149
O O6 0.977238 0.211287 0.143296
O O7 0.945353 0.000000 0.084247
O O8 0.000000 0.240755 0.000000
O O9 0.323143 0.821380 0.848437
O O10 0.281698 0.767067 0.761049
O O11 0.365750 0.000000 0.725854
O O12 0.608975 0.764029 0.089185
O O13 0.685150 0.000000 0.045457
O O14 0.750000 0.750000 0.000000
O O15 0.220928 0.774277 0.689043
O O16 0.167210 0.736106 0.612420
O O17 0.305993 0.812558 0.530510
O O18 0.197807 0.000000 0.626614
O O19 0.561451 0.500000 0.130730
O O20 0.712404 0.500000 0.772103
O O21 0.117948 0.500000 0.594045
#
# Coordination Sequence:
#
# PCOD8086986 Si02
#       8
#     8   8   8   8   8   8   8   8
#     4  10  19  33  53  75 102 136 171 214 262 307
#     4   9  17  27  47  77 102 126 162 207 251 299
#     4   9  19  34  53  75  99 133 177 218 255 302
#     4  10  20  32  50  74  98 129 168 213 258 299
#     4   9  18  33  53  78 106 137 172 211 257 305
#     4   9  18  32  50  73  99 128 166 208 253 302
#     4   9  17  32  52  74 103 137 171 210 257 306
#     4  10  19  31  52  80 107 134 170 214 256 305
#
# _framework density 18.564046000000001
#
# number of rings (size 3 to 8) (size 9 to 14) (size 15 to 20)
#    0.000    2.625    0.000    1.875    1.750    3.500 
#    0.000    1.250    0.000    4.875    0.000    0.000 
#    0.000    0.000    0.000    0.000    0.000    0.000 
#
# Total GULP energy -396814.092552 kJ/mol
# GULP energy per Si atom -12400.440392 kJ/mol
# Density = 1.852179 g / cm^3
# Si number density = 18.564046 Si / 1000 Ang^3
#
#
#
# Elastic Constant Matrix: (Units=GPa)
#
#
# Indices 1 2 3 4 5 6 
#
# 1 133.7539 43.1292 57.8402 -0.0003 -21.8770 0.0009
# 2 43.1292 78.7057 34.9356 -0.0012 -21.4115 0.0024
# 3 57.8402 34.9356 84.9467 0.0002 -20.0004 -0.0002
# 4 -0.0003 -0.0012 0.0002 22.3791 0.0002 -6.1534
# 5 -21.8770 -21.4115 -20.0004 0.0002 32.9172 -0.0005
# 6 0.0009 0.0024 -0.0002 -6.1534 -0.0005 28.0206
#
#
#
# Elastic Compliance Matrix: (Units=1/GPa)
#
#
# Indices 1 2 3 4 5 6 
#
# 1 0.011385 -0.003030 -0.006055 0.000000 0.001917 0.000000
# 2 -0.003030 0.017996 -0.003566 0.000001 0.007525 -0.000001
# 3 -0.006055 -0.003566 0.018517 0.000000 0.004907 0.000001
# 4 0.000000 0.000001 0.000000 0.047556 0.000000 0.010443
# 5 0.001917 0.007525 0.004907 0.000000 0.039530 0.000000
# 6 0.000000 -0.000001 0.000001 0.010443 0.000000 0.037981
#
#
# Mechanical properties :
#
#
# Convention : Reuss Voigt Hill
#
# Bulk Modulus (GPa) = 44.25518 63.24625 53.75071
# Shear Modulus (GPa) = 24.29550 27.43013 25.86281
#
# Velocity S-wave (km/s) = 3.62157 3.84812 3.73656
# Velocity P-wave (km/s) = 6.43263 7.34079 6.90166
#
# Compressibility (1/GPa) = 0.02259623
#
# Stress axis : x y z
#
# Youngs Moduli (GPa) = 87.83283 55.56763 54.00494
#
# Poissons Ratio (x) = 0.16836 0.32699
# Poissons Ratio (y) = 0.26612 0.19260
# Poissons Ratio (z) = 0.53181 0.19817
#
# Static dielectric constant tensor:
#      x y z
#    x 3.656650 0.000000 -0.146650 
#    y 0.000000 3.318910 0.000010 
#    z -0.146650 0.000010 3.513050 
# 
# 
# High freq. dielectric constant tensor:
#      x y z
#    x 1.722150 0.000000 -0.015480 
#    y 0.000000 1.694700 0.000000 
#    z -0.015480 0.000000 1.718030 
# 
# From -- ./inp_files/324099.got.cif
#   From: 2010.06.25/outbox.cif.g09.slc.cpg/sg12_163_cif.got.tgz:324099.got - 2010.06.28 00:19:55.
