data_PCOD8086054
_publ_section_title
;
Structure prediction by ZEFSAII (Michael W. Deem and Ramdas Pophale) SiO2 
 PCOD8086054
Probable space group: C 2/M
;
_chemical_formula_sum "Si O2"
_cell_formula_units_Z 64
_cell_length_a 28.689555
_cell_length_b 9.229640
_cell_length_c 14.279419
_cell_angle_alpha 90.000000
_cell_angle_beta 87.022629
_cell_angle_gamma 90.000000
_cell_volume 3776.004234
_symmetry_space_group_name_H-M "C 2/M"
_symmetry_group_IT_number 12
_symmetry_cell_setting 'monoclinic'
loop_
_space_group_symop_operation_xyz
x,y,z
-x,y,-z
-x,-y,-z
x,-y,z
1/2+x,1/2+y,z
1/2-x,1/2+y,-z
1/2-x,1/2-y,-z
1/2+x,1/2-y,z
loop_
_atom_site_type_symbol
_atom_site_label
_atom_site_fract_x
_atom_site_fract_y
_atom_site_fract_z
Si Si1 0.550905 0.327356 0.524857
Si Si2 0.903114 0.331814 0.941634
Si Si3 0.972734 0.170172 0.817000
Si Si4 0.636968 0.832751 0.854465
Si Si5 0.428336 0.670792 0.270751
Si Si6 0.333741 0.332203 0.817830
Si Si7 0.596156 0.330415 0.337571
Si Si8 0.762804 0.668072 0.092498
O O1 0.500000 0.270181 0.500000
O O2 0.549910 0.500000 0.531275
O O3 0.565368 0.266481 0.624881
O O4 0.587718 0.266806 0.442767
O O5 0.905283 0.500000 0.914544
O O6 0.951819 0.255264 0.908417
O O7 0.858842 0.262236 0.894163
O O8 0.896007 0.308807 0.052538
O O9 0.944106 0.223096 0.728884
O O10 0.026470 0.211409 0.796013
O O11 0.966167 0.000000 0.835462
O O12 0.616854 0.744203 0.769442
O O13 0.689047 0.772775 0.869418
O O14 0.639191 0.000000 0.825248
O O15 0.420389 0.500000 0.273281
O O16 0.346293 0.500000 0.836979
O O17 0.353374 0.288839 0.712249
O O18 0.278270 0.306339 0.827036
O O19 0.590479 0.500000 0.349651
O O20 0.768490 0.500000 0.065567
O O21 0.750000 0.750000 0.000000
#
# Coordination Sequence:
#
# PCOD8086054 Si02
#       8
#     8   8   8   8   8   8   8   8
#     4   9  14  25  48  75  99 121 152 202 251 283
#     4  10  19  31  47  68  96 131 165 192 234 292
#     4   9  17  30  47  70  98 126 161 200 237 279
#     4  10  22  36  47  65  99 136 163 194 242 296
#     4  10  20  32  50  74  96 127 168 205 240 280
#     4   9  17  29  50  76  97 120 156 203 245 282
#     4   8  13  24  45  73  99 119 146 194 249 288
#     4  10  19  33  52  73  96 126 164 202 243 286
#
# _framework density 16.949134000000001
#
# number of rings (size 3 to 8) (size 9 to 14) (size 15 to 20)
#    0.000    2.625    2.500    1.125    0.000    2.500 
#    0.000    2.500    0.000    4.125    0.000    0.000 
#    0.000    0.000    0.000    0.000    0.000    0.000 
#
# Total GULP energy -396639.855636 kJ/mol
# GULP energy per Si atom -12394.995489 kJ/mol
# Density = 1.691056 g / cm^3
# Si number density = 16.949134 Si / 1000 Ang^3
#
#
#
# Elastic Constant Matrix: (Units=GPa)
#
#
# Indices 1 2 3 4 5 6 
#
# 1 118.4959 31.5152 66.8283 0.0000 1.2498 0.0000
# 2 31.5152 39.3954 32.8595 0.0000 1.4624 0.0000
# 3 66.8283 32.8595 106.6245 0.0000 1.7301 0.0000
# 4 0.0000 0.0000 0.0000 14.1855 0.0000 4.8917
# 5 1.2498 1.4624 1.7301 0.0000 25.4816 0.0000
# 6 0.0000 0.0000 0.0000 4.8917 0.0000 22.0109
#
#
#
# Elastic Compliance Matrix: (Units=1/GPa)
#
#
# Indices 1 2 3 4 5 6 
#
# 1 0.013786 -0.005147 -0.007056 0.000000 0.000098 0.000000
# 2 -0.005147 0.036127 -0.007887 0.000000 -0.001285 0.000000
# 3 -0.007056 -0.007887 0.016237 0.000000 -0.000304 0.000000
# 4 0.000000 0.000000 0.000000 0.076346 0.000000 -0.016967
# 5 0.000098 -0.001285 -0.000304 0.000000 0.039334 0.000000
# 6 0.000000 0.000000 0.000000 -0.016967 0.000000 0.049203
#
#
# Mechanical properties :
#
#
# Convention : Reuss Voigt Hill
#
# Bulk Modulus (GPa) = 38.50547 58.54686 48.52616
# Shear Modulus (GPa) = 17.86547 21.22311 19.54429
#
# Velocity S-wave (km/s) = 3.25016 3.54243 3.39944
# Velocity P-wave (km/s) = 6.07061 7.16585 6.64085
#
# Compressibility (1/GPa) = 0.02597034
#
# Stress axis : x y z
#
# Youngs Moduli (GPa) = 72.53486 27.68003 61.58822
#
# Poissons Ratio (x) = 0.14246 0.43459
# Poissons Ratio (y) = 0.37332 0.48574
# Poissons Ratio (z) = 0.51183 0.21831
#
# Static dielectric constant tensor:
#      x y z
#    x 3.339550 0.000000 -0.291480 
#    y 0.000000 2.904810 0.000000 
#    z -0.291480 0.000000 3.252250 
# 
# 
# High freq. dielectric constant tensor:
#      x y z
#    x 1.651080 0.000000 -0.018760 
#    y 0.000000 1.624490 0.000000 
#    z -0.018760 0.000000 1.640590 
# 
# From -- ./inp_files/244099.got.cif
#   From: 2010.06.25/outbox.cif.g09.slc.cpg/sg12_123_cif.got.tgz:244099.got - 2010.06.28 00:19:55.
