data_PCOD8086840
_publ_section_title
;
Structure prediction by ZEFSAII (Michael W. Deem and Ramdas Pophale) SiO2 
 PCOD8086840
Probable space group: C 2/M
;
_chemical_formula_sum "Si O2"
_cell_formula_units_Z 48
_cell_length_a 21.943342
_cell_length_b 8.980402
_cell_length_c 15.753668
_cell_angle_alpha 90.000000
_cell_angle_beta 58.892023
_cell_angle_gamma 90.000000
_cell_volume 2657.987952
_symmetry_space_group_name_H-M "C 2/M"
_symmetry_group_IT_number 12
_symmetry_cell_setting 'monoclinic'
loop_
_space_group_symop_operation_xyz
x,y,z
-x,y,-z
-x,-y,-z
x,-y,z
1/2+x,1/2+y,z
1/2-x,1/2+y,-z
1/2-x,1/2-y,-z
1/2+x,1/2-y,z
loop_
_atom_site_type_symbol
_atom_site_label
_atom_site_fract_x
_atom_site_fract_y
_atom_site_fract_z
Si Si1 0.267263 0.826963 0.356581
Si Si2 0.996233 0.173689 0.404630
Si Si3 0.645207 0.172921 0.538773
Si Si4 0.623081 0.831469 0.227368
Si Si5 0.818108 0.671962 0.988956
Si Si6 0.783083 0.827073 0.173132
O O1 0.323036 0.797564 0.391344
O O2 0.190832 0.757579 0.434636
O O3 0.299556 0.748081 0.251101
O O4 0.255528 0.000000 0.346712
O O5 0.070352 0.214334 0.307320
O O6 0.000000 0.219151 0.500000
O O7 0.934406 0.265820 0.403378
O O8 0.981016 0.000000 0.403763
O O9 0.645857 0.000000 0.514476
O O10 0.701619 0.797297 0.205919
O O11 0.600907 0.000000 0.267714
O O12 0.620131 0.812293 0.126713
O O13 0.800821 0.500000 0.019070
O O14 0.836081 0.752661 0.065198
O O15 0.750000 0.750000 0.000000
O O16 0.801383 0.000000 0.165427
#
# Coordination Sequence:
#
# PCOD8086840 Si02
#       6
#     8   8   8   8   8   8
#     4  10  20  34  53  76 101 130 166 208 250 293
#     4  11  23  35  50  74 102 133 168 205 246 294
#     4  10  21  36  53  73 100 134 168 204 249 298
#     4   9  19  33  49  72 102 135 167 201 247 298
#     4   9  17  30  48  72 102 133 167 208 252 297
#     4  10  19  31  51  78 104 133 168 205 250 300
#
# _framework density 18.058772000000001
#
# number of rings (size 3 to 8) (size 9 to 14) (size 15 to 20)
#    0.000    2.167    0.000    4.500    0.000   10.000 
#    0.000    0.000    0.000    1.000    0.000    7.000 
#    0.000    0.000    0.000    0.000    0.000    0.000 
#
# Total GULP energy -297624.629030 kJ/mol
# GULP energy per Si atom -12401.026210 kJ/mol
# Density = 1.801767 g / cm^3
# Si number density = 18.058772 Si / 1000 Ang^3
#
#
#
# Elastic Constant Matrix: (Units=GPa)
#
#
# Indices 1 2 3 4 5 6 
#
# 1 45.4369 32.4674 21.3111 0.0000 -0.5383 0.0000
# 2 32.4674 118.3251 62.8309 0.0000 10.0564 0.0000
# 3 21.3111 62.8309 125.3788 0.0000 14.2109 0.0000
# 4 0.0000 0.0000 0.0000 36.7451 0.0000 0.5557
# 5 -0.5383 10.0564 14.2109 0.0000 20.3039 0.0000
# 6 0.0000 0.0000 0.0000 0.5557 0.0000 26.8760
#
#
#
# Elastic Compliance Matrix: (Units=1/GPa)
#
#
# Indices 1 2 3 4 5 6 
#
# 1 0.028077 -0.007233 -0.001779 0.000000 0.005572 0.000000
# 2 -0.007233 0.013440 -0.005137 0.000000 -0.003253 0.000000
# 3 -0.001779 -0.005137 0.011480 0.000000 -0.005538 0.000000
# 4 0.000000 0.000000 0.000000 0.027223 0.000000 -0.000563
# 5 0.005572 -0.003253 -0.005538 0.000000 0.054887 0.000000
# 6 0.000000 0.000000 0.000000 -0.000563 0.000000 0.037220
#
#
# Mechanical properties :
#
#
# Convention : Reuss Voigt Hill
#
# Bulk Modulus (GPa) = 40.48727 58.03996 49.26361
# Shear Modulus (GPa) = 23.93953 28.28708 26.11331
#
# Velocity S-wave (km/s) = 3.64489 3.96206 3.80678
# Velocity P-wave (km/s) = 6.33893 7.28970 6.83088
#
# Compressibility (1/GPa) = 0.02469912
#
# Stress axis : x y z
#
# Youngs Moduli (GPa) = 35.61571 74.40306 87.10526
#
# Poissons Ratio (x) = 0.53816 0.15499
# Poissons Ratio (y) = 0.25761 0.44748
# Poissons Ratio (z) = 0.06337 0.38222
#
# Static dielectric constant tensor:
#      x y z
#    x 2.972970 0.000000 0.144250 
#    y 0.000000 3.503750 0.000000 
#    z 0.144250 0.000000 3.656510 
# 
# 
# High freq. dielectric constant tensor:
#      x y z
#    x 1.658190 0.000000 0.013530 
#    y 0.000000 1.717100 0.000000 
#    z 0.013530 0.000000 1.710390 
# 
# From -- ./inp_files/229855.got.cif
#   From: 2010.06.25/outbox.cif.g09.slc.cpg/sg12_115_cif.got.tgz:229855.got - 2010.06.28 00:19:55.
