data_PCOD8086762
_publ_section_title
;
Structure prediction by ZEFSAII (Michael W. Deem and Ramdas Pophale) SiO2 
 PCOD8086762
Probable space group: C 2/M
;
_chemical_formula_sum "Si O2"
_cell_formula_units_Z 52
_cell_length_a 9.311437
_cell_length_b 26.513726
_cell_length_c 24.015204
_cell_angle_alpha 90.000000
_cell_angle_beta 151.519322
_cell_angle_gamma 90.000000
_cell_volume 2827.266868
_symmetry_space_group_name_H-M "C 2/M"
_symmetry_group_IT_number 12
_symmetry_cell_setting 'monoclinic'
loop_
_space_group_symop_operation_xyz
x,y,z
-x,y,-z
-x,-y,-z
x,-y,z
1/2+x,1/2+y,z
1/2-x,1/2+y,-z
1/2-x,1/2-y,-z
1/2+x,1/2-y,z
loop_
_atom_site_type_symbol
_atom_site_label
_atom_site_fract_x
_atom_site_fract_y
_atom_site_fract_z
Si Si1 0.000000 0.279905 0.000000
Si Si2 0.818407 0.441455 0.494127
Si Si3 0.385642 0.943017 0.289625
Si Si4 0.751635 0.154631 0.989784
Si Si5 0.233942 0.445598 0.031201
Si Si6 0.628177 0.190290 0.833596
Si Si7 0.341130 0.629263 0.388449
O O1 0.197772 0.314633 0.027712
O O2 0.767031 0.247122 0.882165
O O3 0.698813 0.500000 0.449845
O O4 0.555514 0.400123 0.417170
O O5 0.000000 0.426930 0.500000
O O6 0.051216 0.435594 0.623787
O O7 0.589694 0.910510 0.318840
O O8 0.042224 0.927539 0.164504
O O9 0.450351 0.000000 0.293492
O O10 0.557382 0.178055 0.873791
O O11 0.636852 0.097032 0.954603
O O12 0.108450 0.154192 0.099507
O O13 0.263815 0.500000 0.010880
O O14 0.000000 0.450623 0.000000
O O15 0.320751 0.179020 0.694210
O O16 0.500000 0.647496 0.500000
#
# Coordination Sequence:
#
# PCOD8086762 Si02
#       7
#     4   8   8   8   8   8   8
#     4  10  20  38  63  80 103 144 190 228 280 326
#     4   9  18  32  50  74 105 147 197 230 261 320
#     4   9  17  31  50  72 104 150 189 220 262 326
#     4  10  19  36  57  79 108 144 182 227 275 321
#     4  10  19  31  50  81 115 145 179 217 275 339
#     4  10  20  34  55  85 107 134 188 236 266 325
#     4  10  19  33  54  78 109 146 178 229 277 324
#
# _framework density 18.392320999999999
#
# number of rings (size 3 to 8) (size 9 to 14) (size 15 to 20)
#    0.000    2.462    2.308    2.308    0.000    3.077 
#    0.000    4.615    0.000    3.692    0.000    0.000 
#    0.000    0.000    0.000    0.000    0.000    0.000 
#
# Total GULP energy -322097.527510 kJ/mol
# GULP energy per Si atom -12388.366443 kJ/mol
# Density = 1.835046 g / cm^3
# Si number density = 18.392321 Si / 1000 Ang^3
#
#
#
# Elastic Constant Matrix: (Units=GPa)
#
#
# Indices 1 2 3 4 5 6 
#
# 1 99.1330 29.6955 23.1190 0.0080 4.2761 0.0267
# 2 29.6955 84.9991 22.1773 0.0015 -1.5228 0.0099
# 3 23.1190 22.1773 83.8586 0.0119 3.2741 0.0518
# 4 0.0080 0.0015 0.0119 23.5538 0.0048 -9.1491
# 5 4.2761 -1.5228 3.2741 0.0048 18.3512 0.0041
# 6 0.0267 0.0099 0.0518 -9.1491 0.0041 -18.6951
#
#
#
# Elastic Compliance Matrix: (Units=1/GPa)
#
#
# Indices 1 2 3 4 5 6 
#
# 1 0.011791 -0.003594 -0.002197 0.000001 -0.002654 0.000008
# 2 -0.003594 0.013782 -0.002751 -0.000001 0.002472 -0.000005
# 3 -0.002197 -0.002751 0.013340 0.000006 -0.002096 0.000029
# 4 0.000001 -0.000001 0.000006 0.035674 -0.000007 -0.017459
# 5 -0.002654 0.002472 -0.002096 -0.000007 0.055690 0.000007
# 6 0.000008 -0.000005 0.000029 -0.017459 0.000007 -0.044946
#
#
# Mechanical properties :
#
#
# Convention : Reuss Voigt Hill
#
# Bulk Modulus (GPa) = 45.80671 46.44161 46.12416
# Shear Modulus (GPa) = 45.58306 17.50857 31.54581
#
# Velocity S-wave (km/s) = 4.98373 3.08872 4.14594
# Velocity P-wave (km/s) = 7.62077 6.16649 6.93187
#
# Compressibility (1/GPa) = 0.02183086
#
# Stress axis : x y z
#
# Youngs Moduli (GPa) = 84.81272 72.55695 74.96429
#
# Poissons Ratio (x) = 0.26074 0.16467
# Poissons Ratio (y) = 0.30479 0.20620
# Poissons Ratio (z) = 0.18630 0.19958
#
# Static dielectric constant tensor:
#      x y z
#    x 4.376960 0.000010 0.017680 
#    y 0.000010 3.465490 -0.000010 
#    z 0.017680 -0.000010 3.421930 
# 
# 
# High freq. dielectric constant tensor:
#      x y z
#    x 1.717840 0.000000 0.004710 
#    y 0.000000 1.703810 0.000000 
#    z 0.004710 0.000000 1.691170 
# 
# From -- ./inp_files/334205.got.cif
#   From: 2010.06.25/outbox.cif.g09.slc.cpg/sg12_168_cif.got.tgz:334205.got - 2010.06.28 00:19:55.
