data_PCOD8086280
_publ_section_title
;
Structure prediction by ZEFSAII (Michael W. Deem and Ramdas Pophale) SiO2 
 PCOD8086280
Probable space group: C 2/M
;
_chemical_formula_sum "Si O2"
_cell_formula_units_Z 64
_cell_length_a 14.237232
_cell_length_b 8.954927
_cell_length_c 29.486923
_cell_angle_alpha 90.000000
_cell_angle_beta 75.238870
_cell_angle_gamma 90.000000
_cell_volume 3635.314202
_symmetry_space_group_name_H-M "C 2/M"
_symmetry_group_IT_number 12
_symmetry_cell_setting 'monoclinic'
loop_
_space_group_symop_operation_xyz
x,y,z
-x,y,-z
-x,-y,-z
x,-y,z
1/2+x,1/2+y,z
1/2-x,1/2+y,-z
1/2-x,1/2-y,-z
1/2+x,1/2-y,z
loop_
_atom_site_type_symbol
_atom_site_label
_atom_site_fract_x
_atom_site_fract_y
_atom_site_fract_z
Si Si1 0.602469 0.323938 0.005615
Si Si2 0.718329 0.675210 0.751409
Si Si3 0.089371 0.322434 0.320703
Si Si4 0.491941 0.678341 0.248871
Si Si5 0.039116 0.323097 0.426157
Si Si6 0.335982 0.823339 0.822343
Si Si7 0.792133 0.675145 0.929181
Si Si8 0.149701 0.323372 0.499835
O O1 0.597873 0.500000 0.012588
O O2 0.623893 0.253680 0.051990
O O3 0.500000 0.261586 0.000000
O O4 0.685891 0.275787 0.959812
O O5 0.705906 0.500000 0.752491
O O6 0.800099 0.723424 0.704898
O O7 0.614233 0.743543 0.751224
O O8 0.752168 0.726896 0.797378
O O9 0.074595 0.500000 0.318590
O O10 0.066379 0.258910 0.373537
O O11 0.016186 0.243152 0.295220
O O12 0.496117 0.500000 0.249827
O O13 0.564991 0.738282 0.201649
O O14 0.043013 0.500000 0.424525
O O15 0.116608 0.267129 0.454052
O O16 0.931028 0.271551 0.453617
O O17 0.301406 0.773349 0.876187
O O18 0.355309 0.000000 0.816406
O O19 0.807014 0.500000 0.932552
O O20 0.161761 0.500000 0.498977
O O21 0.250000 0.250000 0.500000
#
# Coordination Sequence:
#
# PCOD8086280 Si02
#       8
#     8   8   8   8   8   8   8   8
#     4   9  18  32  50  72  97 125 156 191 234 281
#     4   8  16  30  48  67  90 120 153 188 231 281
#     4   9  17  33  52  67  89 127 163 189 227 284
#     4  10  19  31  48  73  98 119 151 199 241 272
#     4   8  16  31  50  68  92 127 162 189 225 284
#     4   9  18  34  51  67  92 129 163 187 224 284
#     4   9  18  32  50  71  95 123 158 197 231 270
#     4   9  17  31  49  71  96 124 158 195 232 275
#
# _framework density 17.605080000000001
#
# number of rings (size 3 to 8) (size 9 to 14) (size 15 to 20)
#    0.000    3.125    0.000    1.875    0.000    2.750 
#    0.000   11.250    0.000    0.000    0.000    0.000 
#    0.000    0.000    0.000    0.000    0.000    0.000 
#
# Total GULP energy -396695.314192 kJ/mol
# GULP energy per Si atom -12396.728569 kJ/mol
# Density = 1.756501 g / cm^3
# Si number density = 17.605080 Si / 1000 Ang^3
#
#
#
# Elastic Constant Matrix: (Units=GPa)
#
#
# Indices 1 2 3 4 5 6 
#
# 1 177.6547 33.9329 84.4801 0.0000 8.4454 0.0000
# 2 33.9329 28.6114 31.1293 0.0000 2.2896 0.0000
# 3 84.4801 31.1293 172.8675 0.0000 3.2661 0.0000
# 4 0.0000 0.0000 0.0000 22.0010 0.0000 2.7770
# 5 8.4454 2.2896 3.2661 0.0000 13.8074 0.0000
# 6 0.0000 0.0000 0.0000 2.7770 0.0000 28.0867
#
#
#
# Elastic Compliance Matrix: (Units=1/GPa)
#
#
# Indices 1 2 3 4 5 6 
#
# 1 0.008407 -0.006592 -0.002858 0.000000 -0.003373 0.000000
# 2 -0.006592 0.049037 -0.005556 0.000000 -0.002785 0.000000
# 3 -0.002858 -0.005556 0.008168 0.000000 0.000737 0.000000
# 4 0.000000 0.000000 0.000000 0.046027 0.000000 -0.004551
# 5 -0.003373 -0.002785 0.000737 0.000000 0.074776 0.000000
# 6 0.000000 0.000000 0.000000 -0.004551 0.000000 0.036054
#
#
# Mechanical properties :
#
#
# Convention : Reuss Voigt Hill
#
# Bulk Modulus (GPa) = 28.08954 75.35758 51.72356
# Shear Modulus (GPa) = 18.91447 28.08510 23.49979
#
# Velocity S-wave (km/s) = 3.28132 3.99843 3.65750
# Velocity P-wave (km/s) = 5.50873 8.01336 6.87605
#
# Compressibility (1/GPa) = 0.03560044
#
# Stress axis : x y z
#
# Youngs Moduli (GPa) = 118.94404 20.39276 122.42770
#
# Poissons Ratio (x) = 0.13442 0.34989
# Poissons Ratio (y) = 0.78403 0.68026
# Poissons Ratio (z) = 0.33993 0.11331
#
# Static dielectric constant tensor:
#      x y z
#    x 3.511910 0.000000 0.033660 
#    y 0.000000 2.954550 0.000000 
#    z 0.033660 0.000000 3.555660 
# 
# 
# High freq. dielectric constant tensor:
#      x y z
#    x 1.684760 0.000000 0.001670 
#    y 0.000000 1.651530 0.000000 
#    z 0.001670 0.000000 1.686490 
# 
# From -- ./inp_files/374804.got.cif
#   From: 2010.06.25/outbox.cif.g09.slc.cpg/sg12_188_cif.got.tgz:374804.got - 2010.06.28 00:19:55.
