data_PCOD8086758
_publ_section_title
;
Structure prediction by ZEFSAII (Michael W. Deem and Ramdas Pophale) SiO2 
 PCOD8086758
Probable space group: C 2/M
;
_chemical_formula_sum "Si O2"
_cell_formula_units_Z 64
_cell_length_a 24.823271
_cell_length_b 9.143158
_cell_length_c 31.598837
_cell_angle_alpha 90.000000
_cell_angle_beta 27.287060
_cell_angle_gamma 90.000000
_cell_volume 3287.889566
_symmetry_space_group_name_H-M "C 2/M"
_symmetry_group_IT_number 12
_symmetry_cell_setting 'monoclinic'
loop_
_space_group_symop_operation_xyz
x,y,z
-x,y,-z
-x,-y,-z
x,-y,z
1/2+x,1/2+y,z
1/2-x,1/2+y,-z
1/2-x,1/2-y,-z
1/2+x,1/2-y,z
loop_
_atom_site_type_symbol
_atom_site_label
_atom_site_fract_x
_atom_site_fract_y
_atom_site_fract_z
Si Si1 0.382613 0.167950 0.313096
Si Si2 0.770841 0.836705 0.720392
Si Si3 0.064036 0.827731 0.317694
Si Si4 0.549804 0.834944 0.827466
Si Si5 0.166888 0.325768 0.489234
Si Si6 0.618799 0.165899 0.196624
Si Si7 0.376574 0.827940 0.573961
Si Si8 0.812950 0.831209 0.993956
O O1 0.380586 0.214385 0.264554
O O2 0.297849 0.260732 0.404810
O O3 0.514138 0.197818 0.237054
O O4 0.344703 0.000000 0.344913
O O5 0.834888 0.783351 0.718539
O O6 0.628511 0.835684 0.816058
O O7 0.788975 0.721721 0.670737
O O8 0.817308 0.000000 0.677386
O O9 0.117017 0.779496 0.236247
O O10 0.939561 0.744568 0.410111
O O11 0.040295 0.000000 0.334809
O O12 0.442561 0.728860 0.911588
O O13 0.503708 0.000000 0.850890
O O14 0.165134 0.500000 0.497466
O O15 0.151504 0.268129 0.452382
O O16 0.610009 0.000000 0.220235
O O17 0.740640 0.191745 0.087474
O O18 0.500000 0.757384 0.500000
O O19 0.380564 0.000000 0.569489
O O20 0.821595 0.000000 0.975434
O O21 0.750000 0.750000 0.000000
#
# Coordination Sequence:
#
# PCOD8086758 Si02
#       8
#     8   8   8   8   8   8   8   8
#     4  10  20  37  60  86 118 154 192 240 295 347
#     4  10  21  36  57  84 118 155 195 240 291 342
#     4  11  24  40  59  84 114 160 208 240 282 346
#     4  10  20  37  60  91 124 152 185 242 302 346
#     4  11  22  35  55  86 121 157 196 242 293 344
#     4  10  23  43  62  83 115 154 194 239 292 349
#     4  10  19  31  50  80 115 150 193 239 286 339
#     4  11  22  39  65  95 121 149 189 239 297 355
#
# _framework density 19.465373
#
# number of rings (size 3 to 8) (size 9 to 14) (size 15 to 20)
#    0.000    1.625    3.750    1.125    0.000    4.250 
#    0.000    0.625    0.000    3.750    0.000    0.000 
#    0.000    0.000    0.000    0.000    0.000    0.000 
#
# Total GULP energy -396527.222530 kJ/mol
# GULP energy per Si atom -12391.475704 kJ/mol
# Density = 1.942107 g / cm^3
# Si number density = 19.465373 Si / 1000 Ang^3
#
#
#
# Elastic Constant Matrix: (Units=GPa)
#
#
# Indices 1 2 3 4 5 6 
#
# 1 63.8728 26.5608 28.2366 0.0092 0.1859 -0.0543
# 2 26.5608 76.7684 53.9136 0.0207 -0.6840 -0.0673
# 3 28.2366 53.9136 106.5453 -0.0024 -5.5996 -0.0120
# 4 0.0092 0.0207 -0.0024 39.0297 0.0122 -12.6008
# 5 0.1859 -0.6840 -5.5996 0.0122 26.1715 -0.0163
# 6 -0.0543 -0.0673 -0.0120 -12.6008 -0.0163 68.8588
#
#
#
# Elastic Compliance Matrix: (Units=1/GPa)
#
#
# Indices 1 2 3 4 5 6 
#
# 1 0.018763 -0.004617 -0.002680 0.000001 -0.000827 0.000010
# 2 -0.004617 0.021417 -0.009691 -0.000006 -0.001481 0.000014
# 3 -0.002680 -0.009691 0.015158 0.000003 0.003009 -0.000008
# 4 0.000001 -0.000006 0.000003 0.027230 -0.000009 0.004983
# 5 -0.000827 -0.001481 0.003009 -0.000009 0.038820 0.000006
# 6 0.000010 0.000014 -0.000008 0.004983 0.000006 0.015434
#
#
# Mechanical properties :
#
#
# Convention : Reuss Voigt Hill
#
# Bulk Modulus (GPa) = 46.81373 51.62314 49.21843
# Shear Modulus (GPa) = 28.10257 36.04371 32.07314
#
# Velocity S-wave (km/s) = 3.80375 4.30779 4.06359
# Velocity P-wave (km/s) = 6.58736 7.16385 6.88165
#
# Compressibility (1/GPa) = 0.02136125
#
# Stress axis : x y z
#
# Youngs Moduli (GPa) = 53.29584 46.69271 65.97202
#
# Poissons Ratio (x) = 0.21559 0.17678
# Poissons Ratio (y) = 0.24608 0.63936
# Poissons Ratio (z) = 0.14282 0.45251
#
# Static dielectric constant tensor:
#      x y z
#    x 3.553390 -0.000170 -0.288390 
#    y -0.000170 3.523060 -0.000070 
#    z -0.288390 -0.000070 3.505560 
# 
# 
# High freq. dielectric constant tensor:
#      x y z
#    x 1.756660 0.000000 -0.015730 
#    y 0.000000 1.758380 0.000000 
#    z -0.015730 0.000000 1.748730 
# 
# From -- ./inp_files/382277.got.cif
#   From: 2010.06.25/outbox.cif.g09.slc.cpg/sg12_192_cif.got.tgz:382277.got - 2010.06.28 00:19:55.
