data_PCOD8086483
_publ_section_title
;
Structure prediction by ZEFSAII (Michael W. Deem and Ramdas Pophale) SiO2 
 PCOD8086483
Probable space group: C 2/M
;
_chemical_formula_sum "Si O2"
_cell_formula_units_Z 64
_cell_length_a 20.453821
_cell_length_b 18.245810
_cell_length_c 24.839589
_cell_angle_alpha 90.000000
_cell_angle_beta 157.988262
_cell_angle_gamma 90.000000
_cell_volume 3474.382041
_symmetry_space_group_name_H-M "C 2/M"
_symmetry_group_IT_number 12
_symmetry_cell_setting 'monoclinic'
loop_
_space_group_symop_operation_xyz
x,y,z
-x,y,-z
-x,-y,-z
x,-y,z
1/2+x,1/2+y,z
1/2-x,1/2+y,-z
1/2-x,1/2-y,-z
1/2+x,1/2-y,z
loop_
_atom_site_type_symbol
_atom_site_label
_atom_site_fract_x
_atom_site_fract_y
_atom_site_fract_z
Si Si1 0.324529 0.084002 0.892536
Si Si2 0.681918 0.799975 0.658860
Si Si3 0.911402 0.270666 0.214154
Si Si4 0.422733 0.417763 0.885052
Si Si5 0.834168 0.712918 0.682506
Si Si6 0.754942 0.916290 0.944835
Si Si7 0.952974 0.805392 0.356989
Si Si8 0.335818 0.853836 0.015371
O O1 0.149078 0.121517 0.736933
O O2 0.307267 0.000000 0.862874
O O3 0.500000 0.118231 0.000000
O O4 0.339782 0.091898 0.968162
O O5 0.500000 0.831552 0.500000
O O6 0.760879 0.866190 0.751821
O O7 0.801469 0.778149 0.699611
O O8 0.653511 0.729927 0.675319
O O9 0.870577 0.357746 0.180932
O O10 0.957737 0.250269 0.310370
O O11 0.078591 0.253376 0.304511
O O12 0.747029 0.224405 0.065339
O O13 0.352034 0.500000 0.837858
O O14 0.500000 0.389437 0.000000
O O15 0.557073 0.412111 0.938773
O O16 0.649888 0.674712 0.525963
O O17 0.967494 0.655907 0.812095
O O18 0.776963 0.892883 0.024045
O O19 0.680953 0.000000 0.883447
#
# Coordination Sequence:
#
# PCOD8086483 Si02
#       8
#     8   8   8   8   8   8   8   8
#     4  10  21  37  55  76 102 133 169 210 256 306
#     4  10  20  33  51  74 101 132 167 205 247 296
#     4  10  19  33  54  77 101 135 172 207 247 299
#     4  10  20  33  50  73 101 132 167 208 249 291
#     4  10  19  33  53  78 104 130 167 211 252 296
#     4  10  19  31  49  75 103 129 164 209 250 289
#     4  10  21  35  53  76 103 133 167 209 254 300
#     4  10  19  33  56  79 101 132 172 210 248 300
#
# _framework density 18.420541
#
# number of rings (size 3 to 8) (size 9 to 14) (size 15 to 20)
#    0.000    2.000    0.000    5.250    0.000    2.750 
#    0.000    3.125    0.000    5.625    0.000    3.500 
#    0.000    0.000    0.000    0.000    0.000    0.000 
#
# Total GULP energy -396765.726205 kJ/mol
# GULP energy per Si atom -12398.928944 kJ/mol
# Density = 1.837862 g / cm^3
# Si number density = 18.420541 Si / 1000 Ang^3
#
#
#
# Elastic Constant Matrix: (Units=GPa)
#
#
# Indices 1 2 3 4 5 6 
#
# 1 91.8035 26.8609 41.1429 0.0626 -1.2831 -0.0016
# 2 26.8609 90.1678 49.4740 0.1003 -5.2867 0.0119
# 3 41.1429 49.4740 111.2425 0.1255 -10.6360 -0.0023
# 4 0.0626 0.1003 0.1255 21.7630 -0.0215 -4.3540
# 5 -1.2831 -5.2867 -10.6360 -0.0215 28.0003 0.0026
# 6 -0.0016 0.0119 -0.0023 -4.3540 0.0026 19.2123
#
#
#
# Elastic Compliance Matrix: (Units=1/GPa)
#
#
# Indices 1 2 3 4 5 6 
#
# 1 0.013291 -0.001681 -0.004296 -0.000007 -0.001340 0.000000
# 2 -0.001681 0.014885 -0.005953 -0.000032 0.000472 -0.000018
# 3 -0.004296 -0.005953 0.013594 -0.000036 0.003843 -0.000004
# 4 -0.000007 -0.000032 -0.000036 0.048132 0.000016 0.010908
# 5 -0.001340 0.000472 0.003843 0.000016 0.037201 -0.000001
# 6 0.000000 -0.000018 -0.000004 0.010908 -0.000001 0.054522
#
#
# Mechanical properties :
#
#
# Convention : Reuss Voigt Hill
#
# Bulk Modulus (GPa) = 55.83688 58.68548 57.26118
# Shear Modulus (GPa) = 23.64554 25.51087 24.57821
#
# Velocity S-wave (km/s) = 3.58669 3.72548 3.65675
# Velocity P-wave (km/s) = 6.89424 7.10165 6.99872
#
# Compressibility (1/GPa) = 0.01790931
#
# Stress axis : x y z
#
# Youngs Moduli (GPa) = 75.23680 67.18019 73.56421
#
# Poissons Ratio (x) = 0.11290 0.31607
# Poissons Ratio (y) = 0.12644 0.43795
# Poissons Ratio (z) = 0.32325 0.39995
#
# Static dielectric constant tensor:
#      x y z
#    x 3.715670 -0.000070 0.045180 
#    y -0.000070 3.224910 -0.000170 
#    z 0.045180 -0.000170 3.316860 
# 
# 
# High freq. dielectric constant tensor:
#      x y z
#    x 1.739640 0.000000 0.001930 
#    y 0.000000 1.696510 -0.000020 
#    z 0.001930 -0.000020 1.704100 
# 
# From -- ./inp_files/366823.got.cif
#   From: 2010.06.25/outbox.cif.g09.slc.cpg/sg12_184_cif.got.tgz:366823.got - 2010.06.28 00:19:55.
