data_PCOD8086742
_publ_section_title
;
Structure prediction by ZEFSAII (Michael W. Deem and Ramdas Pophale) SiO2 
 PCOD8086742
Probable space group: C 2/M
;
_chemical_formula_sum "Si O2"
_cell_formula_units_Z 56
_cell_length_a 25.232944
_cell_length_b 9.020816
_cell_length_c 17.435589
_cell_angle_alpha 90.000000
_cell_angle_beta 133.154105
_cell_angle_gamma 90.000000
_cell_volume 2895.247042
_symmetry_space_group_name_H-M "C 2/M"
_symmetry_group_IT_number 12
_symmetry_cell_setting 'monoclinic'
loop_
_space_group_symop_operation_xyz
x,y,z
-x,y,-z
-x,-y,-z
x,-y,z
1/2+x,1/2+y,z
1/2-x,1/2+y,-z
1/2-x,1/2-y,-z
1/2+x,1/2-y,z
loop_
_atom_site_type_symbol
_atom_site_label
_atom_site_fract_x
_atom_site_fract_y
_atom_site_fract_z
Si Si1 0.083082 0.173026 0.179668
Si Si2 0.176874 0.176179 0.706610
Si Si3 0.325889 0.673677 0.583869
Si Si4 0.072202 0.175188 0.904270
Si Si5 0.069200 0.824029 0.727422
Si Si6 0.841191 0.676074 0.883671
Si Si7 0.414441 0.676207 0.526358
O O1 0.140437 0.217039 0.301484
O O2 0.102346 0.265567 0.123547
O O3 0.003560 0.216589 0.130386
O O4 0.086762 0.000000 0.162529
O O5 0.139593 0.228955 0.749272
O O6 0.259638 0.233657 0.784627
O O7 0.130192 0.243198 0.589719
O O8 0.176109 0.000000 0.701318
O O9 0.314851 0.500000 0.565161
O O10 0.250000 0.750000 0.500000
O O11 0.378041 0.732159 0.568630
O O12 0.072587 0.236879 0.817565
O O13 0.085907 0.000000 0.920160
O O14 0.136723 0.258436 0.012176
O O15 0.997476 0.765893 0.611357
O O16 0.064359 0.000000 0.727323
O O17 0.844587 0.500000 0.889906
O O18 0.413373 0.500000 0.519493
#
# Coordination Sequence:
#
# PCOD8086742 Si02
#       7
#     8   8   8   8   8   8   8
#     4  10  20  36  55  76 104 139 182 223 258 305
#     4   9  18  30  48  77 110 137 167 214 267 313
#     4  10  19  31  50  78 110 141 172 211 259 312
#     4  10  20  36  57  79 102 136 182 225 259 304
#     4   9  16  30  53  78 102 134 176 218 260 307
#     4  11  23  36  51  78 111 141 173 216 271 324
#     4   9  15  28  50  76 104 133 170 215 260 306
#
# _framework density 19.342044999999999
#
# number of rings (size 3 to 8) (size 9 to 14) (size 15 to 20)
#    0.000    2.286    1.429    2.143    0.000    6.286 
#    0.000    0.000    0.000    0.857    0.000    0.000 
#    0.000    9.143    0.000    0.000    0.000    0.000 
#
# Total GULP energy -347171.403121 kJ/mol
# GULP energy per Si atom -12398.978683 kJ/mol
# Density = 1.929802 g / cm^3
# Si number density = 19.342045 Si / 1000 Ang^3
#
#
#
# Elastic Constant Matrix: (Units=GPa)
#
#
# Indices 1 2 3 4 5 6 
#
# 1 94.4978 18.7381 35.2969 0.0000 -11.4927 0.0000
# 2 18.7381 22.1140 27.1463 0.0000 -2.0376 0.0000
# 3 35.2969 27.1463 127.0008 0.0000 -14.3072 0.0000
# 4 0.0000 0.0000 0.0000 26.4451 0.0000 3.9530
# 5 -11.4927 -2.0376 -14.3072 0.0000 29.8809 0.0000
# 6 0.0000 0.0000 0.0000 3.9530 0.0000 13.4196
#
#
#
# Elastic Compliance Matrix: (Units=1/GPa)
#
#
# Indices 1 2 3 4 5 6 
#
# 1 0.013402 -0.009441 -0.001267 0.000000 0.003904 0.000000
# 2 -0.009441 0.068096 -0.012491 0.000000 -0.004969 0.000000
# 3 -0.001267 -0.012491 0.011358 0.000000 0.004099 0.000000
# 4 0.000000 0.000000 0.000000 0.039556 0.000000 -0.011652
# 5 0.003904 -0.004969 0.004099 0.000000 0.036592 0.000000
# 6 0.000000 0.000000 0.000000 -0.011652 0.000000 0.077950
#
#
# Mechanical properties :
#
#
# Convention : Reuss Voigt Hill
#
# Bulk Modulus (GPa) = 21.52515 45.10836 33.31675
# Shear Modulus (GPa) = 16.18963 24.77788 20.48376
#
# Velocity S-wave (km/s) = 2.89626 3.58304 3.25780
# Velocity P-wave (km/s) = 4.72624 6.36314 5.60477
#
# Compressibility (1/GPa) = 0.04645729
#
# Stress axis : x y z
#
# Youngs Moduli (GPa) = 74.61295 14.68511 88.04475
#
# Poissons Ratio (x) = 0.13865 0.11155
# Poissons Ratio (y) = 0.70445 1.09979
# Poissons Ratio (z) = 0.09453 0.18343
#
# Static dielectric constant tensor:
#      x y z
#    x 3.776450 0.000000 -0.064270 
#    y 0.000000 3.010760 0.000000 
#    z -0.064270 0.000000 3.810140 
# 
# 
# High freq. dielectric constant tensor:
#      x y z
#    x 1.763040 0.000000 -0.002670 
#    y 0.000000 1.693400 0.000000 
#    z -0.002670 0.000000 1.770920 
# 
# From -- ./inp_files/288400.got.cif
#   From: 2010.06.25/outbox.cif.g09.slc.cpg/sg12_145_cif.got.tgz:288400.got - 2010.06.28 00:19:55.
