data_PCOD8086415
_publ_section_title
;
Structure prediction by ZEFSAII (Michael W. Deem and Ramdas Pophale) SiO2 
 PCOD8086415
Probable space group: C 2/M
;
_chemical_formula_sum "Si O2"
_cell_formula_units_Z 56
_cell_length_a 21.835813
_cell_length_b 18.253005
_cell_length_c 14.592236
_cell_angle_alpha 90.000000
_cell_angle_beta 31.326293
_cell_angle_gamma 90.000000
_cell_volume 3023.811611
_symmetry_space_group_name_H-M "C 2/M"
_symmetry_group_IT_number 12
_symmetry_cell_setting 'monoclinic'
loop_
_space_group_symop_operation_xyz
x,y,z
-x,y,-z
-x,-y,-z
x,-y,z
1/2+x,1/2+y,z
1/2-x,1/2+y,-z
1/2-x,1/2-y,-z
1/2+x,1/2-y,z
loop_
_atom_site_type_symbol
_atom_site_label
_atom_site_fract_x
_atom_site_fract_y
_atom_site_fract_z
Si Si1 0.890797 0.847757 0.451068
Si Si2 0.214494 0.334401 0.532163
Si Si3 0.611372 0.816004 0.483618
Si Si4 0.147340 0.311761 0.229300
Si Si5 0.002468 0.582897 0.888785
Si Si6 0.148841 0.852823 0.155680
Si Si7 0.758208 0.082943 0.789103
O O1 0.822094 0.875406 0.447225
O O2 0.898534 0.760861 0.451906
O O3 0.823772 0.873225 0.626870
O O4 0.024038 0.876779 0.272444
O O5 0.250000 0.250000 0.500000
O O6 0.194218 0.359805 0.451429
O O7 0.094191 0.356387 0.737428
O O8 0.671194 0.815456 0.307827
O O9 0.478063 0.847040 0.640922
O O10 0.148308 0.226933 0.201969
O O11 0.251529 0.357552 0.049551
O O12 0.030022 0.500000 0.816515
O O13 0.873926 0.611628 0.021698
O O14 0.000000 0.581357 0.000000
O O15 0.171585 0.911300 0.206031
O O16 0.751716 0.000000 0.763204
#
# Coordination Sequence:
#
# PCOD8086415 Si02
#       7
#     8   8   8   8   8   8   8
#     4  10  19  32  45  72 110 139 171 220 276 333
#     4  10  20  34  51  79 113 142 183 235 278 324
#     4   9  17  32  50  73 100 137 179 228 275 323
#     4   9  17  31  53  71  97 138 181 222 280 323
#     4  10  20  35  55  77 107 147 185 223 274 333
#     4  10  19  31  49  73 102 139 180 220 271 333
#     4  11  21  33  53  78 106 144 179 218 271 328
#
# _framework density 18.519672
#
# number of rings (size 3 to 8) (size 9 to 14) (size 15 to 20)
#    0.000    2.143    2.857    1.286    0.000    2.286 
#    0.000    0.714    0.000    0.857    0.000    4.000 
#    0.000    6.286    0.000    0.000    0.000    0.000 
#
# Total GULP energy -346909.434716 kJ/mol
# GULP energy per Si atom -12389.622668 kJ/mol
# Density = 1.847752 g / cm^3
# Si number density = 18.519672 Si / 1000 Ang^3
#
#
#
# Elastic Constant Matrix: (Units=GPa)
#
#
# Indices 1 2 3 4 5 6 
#
# 1 175.7325 1.4435 70.1681 0.0000 -8.8383 0.0000
# 2 1.4435 27.1999 29.0283 0.0000 -2.7088 0.0000
# 3 70.1681 29.0283 119.8090 -0.0001 -13.2111 0.0000
# 4 0.0000 0.0000 -0.0001 33.6846 0.0000 -8.9666
# 5 -8.8383 -2.7088 -13.2111 0.0000 32.5765 0.0000
# 6 0.0000 0.0000 0.0000 -8.9666 0.0000 11.0401
#
#
#
# Elastic Compliance Matrix: (Units=1/GPa)
#
#
# Indices 1 2 3 4 5 6 
#
# 1 0.008155 0.006287 -0.006279 0.000000 0.000189 0.000000
# 2 0.006287 0.054452 -0.016946 0.000000 -0.000639 0.000000
# 3 -0.006279 -0.016946 0.016525 0.000000 0.003589 0.000000
# 4 0.000000 0.000000 0.000000 0.037876 0.000000 0.030762
# 5 0.000189 -0.000639 0.003589 0.000000 0.032151 0.000000
# 6 0.000000 0.000000 0.000000 0.030762 0.000000 0.115563
#
#
# Mechanical properties :
#
#
# Convention : Reuss Voigt Hill
#
# Bulk Modulus (GPa) = 22.09552 58.22457 40.16004
# Shear Modulus (GPa) = 15.93965 30.26700 23.10333
#
# Velocity S-wave (km/s) = 2.93693 4.04705 3.53583
# Velocity P-wave (km/s) = 4.84329 7.30382 6.19690
#
# Compressibility (1/GPa) = 0.04525805
#
# Stress axis : x y z
#
# Youngs Moduli (GPa) = 122.61896 18.36472 60.51327
#
# Poissons Ratio (x) = -0.11545 0.37994
# Poissons Ratio (y) = -0.77088 1.02543
# Poissons Ratio (z) = 0.76988 0.31120
#
# Static dielectric constant tensor:
#      x y z
#    x 3.974230 0.000000 -0.341730 
#    y 0.000000 3.044470 0.000000 
#    z -0.341730 0.000000 3.628940 
# 
# 
# High freq. dielectric constant tensor:
#      x y z
#    x 1.737850 0.000000 -0.014710 
#    y 0.000000 1.668680 0.000000 
#    z -0.014710 0.000000 1.713800 
# 
# From -- ./inp_files/169503.got.cif
#   From: 2010.06.25/outbox.cif.g09.slc.cpg/sg12_85_cif.got.tgz:169503.got - 2010.06.28 00:19:55.
