data_PCOD8086580
_publ_section_title
;
Structure prediction by ZEFSAII (Michael W. Deem and Ramdas Pophale) SiO2 
 PCOD8086580
Probable space group: C 2/M
;
_chemical_formula_sum "Si O2"
_cell_formula_units_Z 64
_cell_length_a 19.676097
_cell_length_b 9.283802
_cell_length_c 23.720679
_cell_angle_alpha 90.000000
_cell_angle_beta 52.764357
_cell_angle_gamma 90.000000
_cell_volume 3449.759597
_symmetry_space_group_name_H-M "C 2/M"
_symmetry_group_IT_number 12
_symmetry_cell_setting 'monoclinic'
loop_
_space_group_symop_operation_xyz
x,y,z
-x,y,-z
-x,-y,-z
x,-y,z
1/2+x,1/2+y,z
1/2-x,1/2+y,-z
1/2-x,1/2-y,-z
1/2+x,1/2-y,z
loop_
_atom_site_type_symbol
_atom_site_label
_atom_site_fract_x
_atom_site_fract_y
_atom_site_fract_z
Si Si1 0.035009 0.834386 0.631675
Si Si2 0.656196 0.329130 0.276421
Si Si3 0.922720 0.669846 0.000892
Si Si4 0.194975 0.832942 0.482292
Si Si5 0.439794 0.833415 0.270626
Si Si6 0.231196 0.170672 0.121025
Si Si7 0.253725 0.832307 0.333354
Si Si8 0.902290 0.671412 0.883810
O O1 0.094779 0.812655 0.547014
O O2 0.940597 0.777677 0.665060
O O3 0.073325 0.748467 0.664607
O O4 0.031334 0.000000 0.652155
O O5 0.665500 0.500000 0.271698
O O6 0.690707 0.271013 0.199506
O O7 0.710519 0.259961 0.300270
O O8 0.933981 0.500000 0.995425
O O9 0.830902 0.713367 0.072469
O O10 0.926499 0.724530 0.934443
O O11 0.000000 0.737434 0.000000
O O12 0.250000 0.750000 0.500000
O O13 0.213940 0.767185 0.410943
O O14 0.222128 0.000000 0.471189
O O15 0.354695 0.805513 0.277080
O O16 0.520615 0.776970 0.195045
O O17 0.450882 0.000000 0.279681
O O18 0.184167 0.250830 0.093062
O O19 0.219283 0.000000 0.118546
O O20 0.231229 0.000000 0.344656
O O21 0.888164 0.500000 0.889280
#
# Coordination Sequence:
#
# PCOD8086580 Si02
#       8
#     8   8   8   8   8   8   8   8
#     4  10  19  32  51  75 101 129 164 208 251 294
#     4   9  18  31  49  75 102 128 165 208 248 291
#     4   9  19  33  51  79 107 130 165 210 250 289
#     4  10  19  31  50  73  99 131 165 205 250 295
#     4  10  19  31  51  75  99 130 167 207 248 293
#     4  10  19  33  55  76 100 136 168 203 248 295
#     4   9  18  31  48  73 100 129 166 206 249 295
#     4  10  20  33  52  77 103 133 167 206 247 293
#
# _framework density 18.552018
#
# number of rings (size 3 to 8) (size 9 to 14) (size 15 to 20)
#    0.000    2.375    2.500    0.375    1.750    0.500 
#    0.000    2.500    0.000    4.500    0.000    1.750 
#    0.000    0.000    0.000    0.000    0.000    0.000 
#
# Total GULP energy -396737.350551 kJ/mol
# GULP energy per Si atom -12398.042205 kJ/mol
# Density = 1.850979 g / cm^3
# Si number density = 18.552018 Si / 1000 Ang^3
#
#
#
# Elastic Constant Matrix: (Units=GPa)
#
#
# Indices 1 2 3 4 5 6 
#
# 1 146.8751 26.1645 59.8225 0.0000 6.5694 -0.0002
# 2 26.1645 22.5694 17.6596 -0.0001 -0.1082 -0.0009
# 3 59.8225 17.6596 106.0463 0.0000 -2.0064 -0.0001
# 4 0.0000 -0.0001 0.0000 16.4873 0.0000 0.7203
# 5 6.5694 -0.1082 -2.0064 0.0000 36.1581 0.0000
# 6 -0.0002 -0.0009 -0.0001 0.7203 0.0000 21.5421
#
#
#
# Elastic Compliance Matrix: (Units=1/GPa)
#
#
# Indices 1 2 3 4 5 6 
#
# 1 0.010184 -0.008382 -0.004389 0.000000 -0.002119 0.000000
# 2 -0.008382 0.057849 -0.004878 0.000000 0.001425 0.000002
# 3 -0.004389 -0.004878 0.012746 0.000000 0.001490 0.000000
# 4 0.000000 0.000000 0.000000 0.060742 0.000000 -0.002031
# 5 -0.002119 0.001425 0.001490 0.000000 0.028128 0.000000
# 6 0.000000 0.000002 0.000000 -0.002031 0.000000 0.046489
#
#
# Mechanical properties :
#
#
# Convention : Reuss Voigt Hill
#
# Bulk Modulus (GPa) = 21.98742 53.64266 37.81504
# Shear Modulus (GPa) = 18.75492 26.29379 22.52436
#
# Velocity S-wave (km/s) = 3.18297 3.76879 3.48820
# Velocity P-wave (km/s) = 5.03844 6.92213 6.05400
#
# Compressibility (1/GPa) = 0.04548055
#
# Stress axis : x y z
#
# Youngs Moduli (GPa) = 98.19042 17.28649 78.45323
#
# Poissons Ratio (x) = 0.14490 0.34436
# Poissons Ratio (y) = 0.82305 0.38268
# Poissons Ratio (z) = 0.43099 0.08432
#
# Static dielectric constant tensor:
#      x y z
#    x 3.617690 0.000000 -0.010040 
#    y 0.000000 2.972050 0.000000 
#    z -0.010040 0.000000 3.715220 
# 
# 
# High freq. dielectric constant tensor:
#      x y z
#    x 1.726890 0.000000 -0.007130 
#    y 0.000000 1.666980 0.000000 
#    z -0.007130 0.000000 1.734710 
# 
# From -- ./inp_files/315303.got.cif
#   From: 2010.06.25/outbox.cif.g09.slc.cpg/sg12_158_cif.got.tgz:315303.got - 2010.06.28 00:19:55.
