data_PCOD8086912
_publ_section_title
;
Structure prediction by ZEFSAII (Michael W. Deem and Ramdas Pophale) SiO2 
 PCOD8086912
Probable space group: C 2/M
;
_chemical_formula_sum "Si O2"
_cell_formula_units_Z 64
_cell_length_a 18.749069
_cell_length_b 13.357757
_cell_length_c 23.463718
_cell_angle_alpha 90.000000
_cell_angle_beta 148.392355
_cell_angle_gamma 90.000000
_cell_volume 3079.809549
_symmetry_space_group_name_H-M "C 2/M"
_symmetry_group_IT_number 12
_symmetry_cell_setting 'monoclinic'
loop_
_space_group_symop_operation_xyz
x,y,z
-x,y,-z
-x,-y,-z
x,-y,z
1/2+x,1/2+y,z
1/2-x,1/2+y,-z
1/2-x,1/2-y,-z
1/2+x,1/2-y,z
loop_
_atom_site_type_symbol
_atom_site_label
_atom_site_fract_x
_atom_site_fract_y
_atom_site_fract_z
Si Si1 0.639435 0.613606 0.988196
Si Si2 0.264482 0.383312 0.537122
Si Si3 0.591319 0.881416 0.887241
Si Si4 0.778712 0.702648 0.183420
Si Si5 0.559753 0.794875 0.319389
Si Si6 0.340604 0.615106 0.788515
Si Si7 0.621147 0.113595 0.547986
Si Si8 0.120730 0.614414 0.037925
O O1 0.620859 0.500000 0.958509
O O2 0.757135 0.658024 0.027169
O O3 0.682196 0.627284 0.082733
O O4 0.490256 0.663362 0.879650
O O5 0.301341 0.500000 0.568009
O O6 0.402645 0.321814 0.644289
O O7 0.193862 0.359645 0.428273
O O8 0.150928 0.344281 0.505519
O O9 0.480028 0.821903 0.773090
O O10 0.575794 0.000000 0.864082
O O11 0.570657 0.856794 0.939957
O O12 0.746185 0.682702 0.226967
O O13 0.746393 0.816680 0.142423
O O14 0.934569 0.677815 0.275646
O O15 0.348968 0.500000 0.816250
O O16 0.264416 0.621240 0.677153
O O17 0.500000 0.171003 0.500000
O O18 0.571842 0.000000 0.506416
O O19 0.171361 0.500000 0.073868
O O20 0.000000 0.633480 0.000000
#
# Coordination Sequence:
#
# PCOD8086912 Si02
#       8
#     8   8   8   8   8   8   8   8
#     4   9  18  31  50  79 108 136 172 215 271 332
#     4  10  21  38  56  79 113 141 175 231 277 320
#     4   9  19  37  58  78 106 142 182 229 273 323
#     4  11  21  33  52  76 109 144 180 224 266 317
#     4  10  22  36  57  84 104 142 190 221 272 333
#     4  10  19  31  51  81 114 146 177 211 266 338
#     4   9  18  32  52  77 105 139 174 214 272 332
#     4  10  22  38  54  75 106 147 191 230 268 309
#
# _framework density 20.780505000000002
#
# number of rings (size 3 to 8) (size 9 to 14) (size 15 to 20)
#    0.000    2.250    0.000    2.625    0.000    9.000 
#    0.000    2.500    0.000    0.750    0.000    0.000 
#    0.000   13.000    0.000    0.000    0.000    0.000 
#
# Total GULP energy -396590.782388 kJ/mol
# GULP energy per Si atom -12393.461950 kJ/mol
# Density = 2.073321 g / cm^3
# Si number density = 20.780505 Si / 1000 Ang^3
#
#
#
# Elastic Constant Matrix: (Units=GPa)
#
#
# Indices 1 2 3 4 5 6 
#
# 1 82.5362 13.4162 19.9010 0.0004 -9.6354 0.0003
# 2 13.4162 80.1287 25.4384 -0.0009 -6.6374 0.0003
# 3 19.9010 25.4384 74.6595 -0.0018 7.2563 0.0003
# 4 0.0004 -0.0009 -0.0018 28.3606 -0.0008 -0.5245
# 5 -9.6354 -6.6374 7.2563 -0.0008 26.5685 0.0002
# 6 0.0003 0.0003 0.0003 -0.5245 0.0002 14.4696
#
#
#
# Elastic Compliance Matrix: (Units=1/GPa)
#
#
# Indices 1 2 3 4 5 6 
#
# 1 0.013897 -0.000521 -0.004113 0.000000 0.006033 0.000000
# 2 -0.000521 0.014671 -0.005339 0.000000 0.004934 0.000000
# 3 -0.004113 -0.005339 0.017037 0.000001 -0.007479 0.000000
# 4 0.000000 0.000000 0.000001 0.035284 0.000001 0.001279
# 5 0.006033 0.004934 -0.007479 0.000001 0.043102 -0.000001
# 6 0.000000 0.000000 0.000000 0.001279 -0.000001 0.069157
#
#
# Mechanical properties :
#
#
# Convention : Reuss Voigt Hill
#
# Bulk Modulus (GPa) = 38.97584 39.42617 39.20101
# Shear Modulus (GPa) = 22.55848 25.78434 24.17141
#
# Velocity S-wave (km/s) = 3.29836 3.52631 3.41424
# Velocity P-wave (km/s) = 5.77081 5.96605 5.86924
#
# Compressibility (1/GPa) = 0.02565692
#
# Stress axis : x y z
#
# Youngs Moduli (GPa) = 71.95986 68.16148 58.69713
#
# Poissons Ratio (x) = 0.03553 0.24142
# Poissons Ratio (y) = 0.03751 0.31341
# Poissons Ratio (z) = 0.29597 0.36394
#
# Static dielectric constant tensor:
#      x y z
#    x 3.820410 0.000000 0.104330 
#    y 0.000000 3.658730 0.000000 
#    z 0.104330 0.000000 3.703800 
# 
# 
# High freq. dielectric constant tensor:
#      x y z
#    x 1.812310 0.000000 -0.002970 
#    y 0.000000 1.798240 0.000000 
#    z -0.002970 0.000000 1.808280 
# 
# From -- ./inp_files/344092.got.cif
#   From: 2010.06.25/outbox.cif.g09.slc.cpg/sg12_173_cif.got.tgz:344092.got - 2010.06.28 00:19:55.
