data_PCOD8086765
_publ_section_title
;
Structure prediction by ZEFSAII (Michael W. Deem and Ramdas Pophale) SiO2 
 PCOD8086765
Probable space group: C 2/M
;
_chemical_formula_sum "Si O2"
_cell_formula_units_Z 64
_cell_length_a 24.311140
_cell_length_b 9.199659
_cell_length_c 15.247087
_cell_angle_alpha 90.000000
_cell_angle_beta 72.864396
_cell_angle_gamma 90.000000
_cell_volume 3258.702164
_symmetry_space_group_name_H-M "C 2/M"
_symmetry_group_IT_number 12
_symmetry_cell_setting 'monoclinic'
loop_
_space_group_symop_operation_xyz
x,y,z
-x,y,-z
-x,-y,-z
x,-y,z
1/2+x,1/2+y,z
1/2-x,1/2+y,-z
1/2-x,1/2-y,-z
1/2+x,1/2-y,z
loop_
_atom_site_type_symbol
_atom_site_label
_atom_site_fract_x
_atom_site_fract_y
_atom_site_fract_z
Si Si1 0.121910 0.834012 0.048045
Si Si2 0.680550 0.167716 0.865844
Si Si3 0.686465 0.331912 0.193022
Si Si4 0.992487 0.165293 0.810058
Si Si5 0.633022 0.834212 0.379002
Si Si6 0.603771 0.329697 0.554716
Si Si7 0.122185 0.833674 0.745982
Si Si8 0.490301 0.165680 0.640848
O O1 0.151830 0.779879 0.123635
O O2 0.052638 0.818573 0.089187
O O3 0.139784 0.000000 0.020592
O O4 0.141021 0.737702 0.958374
O O5 0.746710 0.194558 0.858275
O O6 0.666848 0.234989 0.777412
O O7 0.664928 0.000000 0.868886
O O8 0.672933 0.500000 0.220456
O O9 0.668747 0.236883 0.284167
O O10 0.972144 0.274715 0.744275
O O11 0.057314 0.201226 0.810235
O O12 0.991159 0.000000 0.772974
O O13 0.645019 0.747857 0.464025
O O14 0.564953 0.826099 0.394855
O O15 0.653867 0.000000 0.379389
O O16 0.600940 0.500000 0.535949
O O17 0.628474 0.298189 0.640012
O O18 0.539894 0.264754 0.576639
O O19 0.137850 0.000000 0.757886
O O20 0.512452 0.000000 0.638573
#
# Coordination Sequence:
#
# PCOD8086765 Si02
#       8
#     8   8   8   8   8   8   8   8
#     4  10  20  37  62  86 112 146 185 234 285 336
#     4  11  24  39  58  84 112 148 191 236 285 336
#     4  10  22  40  60  83 113 149 191 233 278 337
#     4   9  18  34  58  85 112 149 191 228 276 335
#     4  11  22  34  54  86 118 148 183 230 287 338
#     4  10  21  36  57  82 111 152 195 230 270 332
#     4   9  20  39  59  81 111 149 194 234 272 328
#     4  10  19  31  50  82 121 151 179 224 283 338
#
# _framework density 19.639721000000002
#
# number of rings (size 3 to 8) (size 9 to 14) (size 15 to 20)
#    0.000    2.000    1.250    3.000    0.000    8.000 
#    0.000    3.125    0.000    0.000    0.000    0.000 
#    0.000    0.000    0.000    0.000    0.000    0.000 
#
# Total GULP energy -396864.677240 kJ/mol
# GULP energy per Si atom -12402.021164 kJ/mol
# Density = 1.959502 g / cm^3
# Si number density = 19.639721 Si / 1000 Ang^3
#
#
#
# Elastic Constant Matrix: (Units=GPa)
#
#
# Indices 1 2 3 4 5 6 
#
# 1 33.6812 15.3642 4.3482 0.0000 11.3506 0.0000
# 2 15.3642 101.5213 48.6879 0.0000 6.2354 0.0000
# 3 4.3482 48.6879 95.4270 0.0000 4.1154 0.0000
# 4 0.0000 0.0000 0.0000 34.8344 0.0000 0.9719
# 5 11.3506 6.2354 4.1154 0.0000 14.8097 0.0000
# 6 0.0000 0.0000 0.0000 0.9719 0.0000 28.2027
#
#
#
# Elastic Compliance Matrix: (Units=1/GPa)
#
#
# Indices 1 2 3 4 5 6 
#
# 1 0.042293 -0.005595 0.002251 0.000000 -0.030684 0.000000
# 2 -0.005595 0.013983 -0.006893 0.000000 0.000317 0.000000
# 3 0.002251 -0.006893 0.014011 0.000000 -0.002716 0.000000
# 4 0.000000 0.000000 0.000000 0.028735 0.000000 -0.000990
# 5 -0.030684 0.000317 -0.002716 0.000000 0.091662 0.000000
# 6 0.000000 0.000000 0.000000 -0.000990 0.000000 0.035492
#
#
# Mechanical properties :
#
#
# Convention : Reuss Voigt Hill
#
# Bulk Modulus (GPa) = 20.07567 40.82558 30.45062
# Shear Modulus (GPa) = 18.99302 26.38463 22.68882
#
# Velocity S-wave (km/s) = 3.11315 3.66926 3.40259
# Velocity P-wave (km/s) = 4.81315 6.22766 5.56552
#
# Compressibility (1/GPa) = 0.04981154
#
# Stress axis : x y z
#
# Youngs Moduli (GPa) = 23.64479 71.51356 71.37377
#
# Poissons Ratio (x) = 0.40015 -0.16067
# Poissons Ratio (y) = 0.13230 0.49199
# Poissons Ratio (z) = -0.05323 0.49295
#
# Static dielectric constant tensor:
#      x y z
#    x 3.418780 0.000000 -0.006570 
#    y 0.000000 3.654950 0.000000 
#    z -0.006570 0.000000 3.524130 
# 
# 
# High freq. dielectric constant tensor:
#      x y z
#    x 1.746500 0.000000 -0.002290 
#    y 0.000000 1.768630 0.000000 
#    z -0.002290 0.000000 1.767800 
# 
# From -- ./inp_files/243879.got.cif
#   From: 2010.06.25/outbox.cif.g09.slc.cpg/sg12_122_cif.got.tgz:243879.got - 2010.06.28 00:19:55.
