data_PCOD8086243
_publ_section_title
;
Structure prediction by ZEFSAII (Michael W. Deem and Ramdas Pophale) SiO2 
 PCOD8086243
Probable space group: C 2/M
;
_chemical_formula_sum "Si O2"
_cell_formula_units_Z 56
_cell_length_a 21.435977
_cell_length_b 9.394939
_cell_length_c 19.211621
_cell_angle_alpha 90.000000
_cell_angle_beta 126.637333
_cell_angle_gamma 90.000000
_cell_volume 3104.615153
_symmetry_space_group_name_H-M "C 2/M"
_symmetry_group_IT_number 12
_symmetry_cell_setting 'monoclinic'
loop_
_space_group_symop_operation_xyz
x,y,z
-x,y,-z
-x,-y,-z
x,-y,z
1/2+x,1/2+y,z
1/2-x,1/2+y,-z
1/2-x,1/2-y,-z
1/2+x,1/2-y,z
loop_
_atom_site_type_symbol
_atom_site_label
_atom_site_fract_x
_atom_site_fract_y
_atom_site_fract_z
Si Si1 0.198093 0.336264 0.519991
Si Si2 0.525910 0.830487 0.441057
Si Si3 0.256176 0.662221 0.712853
Si Si4 0.373022 0.168231 0.266930
Si Si5 0.562894 0.833882 0.955146
Si Si6 0.680331 0.832061 0.917628
Si Si7 0.392984 0.168168 0.867749
O O1 0.194586 0.500000 0.492866
O O2 0.250000 0.250000 0.500000
O O3 0.110070 0.273915 0.470562
O O4 0.240355 0.322196 0.621437
O O5 0.500000 0.771738 0.500000
O O6 0.460698 0.778860 0.341931
O O7 0.531154 0.000000 0.449993
O O8 0.274132 0.500000 0.745672
O O9 0.181847 0.717709 0.706571
O O10 0.329116 0.757691 0.778829
O O11 0.338416 0.229229 0.171581
O O12 0.375726 0.000000 0.262121
O O13 0.604072 0.794868 0.911085
O O14 0.475755 0.773290 0.894873
O O15 0.553549 0.000000 0.960857
O O16 0.612877 0.780928 0.055302
O O17 0.699227 0.000000 0.930295
O O18 0.750000 0.750000 0.000000
O O19 0.382126 0.000000 0.851419
#
# Coordination Sequence:
#
# PCOD8086243 Si02
#       7
#     8   8   8   8   8   8   8
#     4  10  21  35  54  78 106 135 166 212 265 313
#     4   9  15  30  55  78  99 131 176 218 252 297
#     4  10  19  32  49  74 103 127 158 208 262 303
#     4   9  17  29  50  76  98 127 171 215 252 293
#     4   8  16  31  48  68  97 132 168 206 245 286
#     4  10  19  31  48  72 101 129 162 207 251 294
#     4   9  17  31  51  70  94 133 172 202 240 301
#
# _framework density 18.037662999999998
#
# number of rings (size 3 to 8) (size 9 to 14) (size 15 to 20)
#    0.000    2.714    1.429    1.714    0.000    1.714 
#    0.000    5.000    0.000    2.143    0.000    0.000 
#    0.000    0.000    0.000    0.000    0.000    0.000 
#
# Total GULP energy -347018.254206 kJ/mol
# GULP energy per Si atom -12393.509079 kJ/mol
# Density = 1.799661 g / cm^3
# Si number density = 18.037663 Si / 1000 Ang^3
#
#
#
# Elastic Constant Matrix: (Units=GPa)
#
#
# Indices 1 2 3 4 5 6 
#
# 1 130.9118 37.5605 59.2512 0.0000 -0.3807 0.0000
# 2 37.5605 33.1842 34.5640 0.0000 3.7402 0.0000
# 3 59.2512 34.5640 127.9461 0.0000 12.3406 0.0000
# 4 0.0000 0.0000 0.0000 27.2063 0.0000 1.7603
# 5 -0.3807 3.7402 12.3406 0.0000 34.2108 0.0000
# 6 0.0000 0.0000 0.0000 1.7603 0.0000 20.1459
#
#
#
# Elastic Compliance Matrix: (Units=1/GPa)
#
#
# Indices 1 2 3 4 5 6 
#
# 1 0.012088 -0.010966 -0.002864 0.000000 0.002366 0.000000
# 2 -0.010966 0.051891 -0.008683 0.000000 -0.002663 0.000000
# 3 -0.002864 -0.008683 0.011810 0.000000 -0.003343 0.000000
# 4 0.000000 0.000000 0.000000 0.036965 0.000000 -0.003230
# 5 0.002366 -0.002663 -0.003343 0.000000 0.030754 0.000000
# 6 0.000000 0.000000 0.000000 -0.003230 0.000000 0.049920
#
#
# Mechanical properties :
#
#
# Convention : Reuss Voigt Hill
#
# Bulk Modulus (GPa) = 32.50577 61.64371 47.07474
# Shear Modulus (GPa) = 20.10382 27.02369 23.56376
#
# Velocity S-wave (km/s) = 3.34211 3.87483 3.61829
# Velocity P-wave (km/s) = 5.74048 7.36670 6.60384
#
# Compressibility (1/GPa) = 0.03076377
#
# Stress axis : x y z
#
# Youngs Moduli (GPa) = 82.72599 19.27104 84.67369
#
# Poissons Ratio (x) = 0.21133 0.24248
# Poissons Ratio (y) = 0.90719 0.73522
# Poissons Ratio (z) = 0.23690 0.16733
#
# Static dielectric constant tensor:
#      x y z
#    x 2.620750 0.000000 -0.073980 
#    y 0.000000 2.878750 0.000000 
#    z -0.073980 0.000000 3.457360 
# 
# 
# High freq. dielectric constant tensor:
#      x y z
#    x 1.708490 0.000000 0.002970 
#    y 0.000000 1.642720 0.000000 
#    z 0.002970 0.000000 1.710500 
# 
# From -- ./inp_files/320225.got.cif
#   From: 2010.06.25/outbox.cif.g09.slc.cpg/sg12_161_cif.got.tgz:320225.got - 2010.06.28 00:19:55.
