data_PCOD8086561
_publ_section_title
;
Structure prediction by ZEFSAII (Michael W. Deem and Ramdas Pophale) SiO2 
 PCOD8086561
Probable space group: C 2/M
;
_chemical_formula_sum "Si O2"
_cell_formula_units_Z 64
_cell_length_a 31.665542
_cell_length_b 9.237509
_cell_length_c 14.160617
_cell_angle_alpha 90.000000
_cell_angle_beta 63.436247
_cell_angle_gamma 90.000000
_cell_volume 3704.877822
_symmetry_space_group_name_H-M "C 2/M"
_symmetry_group_IT_number 12
_symmetry_cell_setting 'monoclinic'
loop_
_space_group_symop_operation_xyz
x,y,z
-x,y,-z
-x,-y,-z
x,-y,z
1/2+x,1/2+y,z
1/2-x,1/2+y,-z
1/2-x,1/2-y,-z
1/2+x,1/2-y,z
loop_
_atom_site_type_symbol
_atom_site_label
_atom_site_fract_x
_atom_site_fract_y
_atom_site_fract_z
Si Si1 0.385981 0.170056 0.634300
Si Si2 0.070597 0.169415 0.570443
Si Si3 0.885981 0.670056 0.093737
Si Si4 0.976401 0.334341 0.664862
Si Si5 0.523599 0.165659 0.117664
Si Si6 0.203101 0.669683 0.938873
Si Si7 0.070597 0.169415 0.788364
Si Si8 0.203101 0.669683 0.154925
O O1 0.388588 0.255947 0.532832
O O2 0.431134 0.213647 0.651165
O O3 0.339700 0.221771 0.736447
O O4 0.384314 0.000000 0.615391
O O5 0.081942 0.203899 0.668058
O O6 0.020227 0.235536 0.590996
O O7 0.069333 0.000000 0.551402
O O8 0.884314 0.500000 0.115980
O O9 0.839700 0.721771 0.084152
O O10 0.888588 0.755947 0.189992
O O11 0.931134 0.713648 0.986568
O O12 0.990707 0.500000 0.629432
O O13 0.962846 0.312434 0.787154
O O14 0.479773 0.264464 0.131450
O O15 0.509293 0.000000 0.110847
O O16 0.211782 0.500000 0.920349
O O17 0.250000 0.750000 0.856845
O O18 0.190992 0.711448 0.059008
O O19 0.069334 0.000000 0.809931
O O20 0.211782 0.500000 0.156086
#
# Coordination Sequence:
#
# PCOD8086561 Si02
#       8
#     8   8   8   8   8   8   8   8
#     4  10  19  31  50  73  95 124 162 198 232 276
#     4  10  21  34  46  65  96 130 162 199 240 278
#     4  10  19  31  50  73  95 124 162 198 232 276
#     4   9  17  30  48  70  97 128 160 193 231 278
#     4   9  17  30  48  70  97 128 160 193 231 278
#     4   9  18  33  52  75 102 127 152 187 233 284
#     4  10  21  34  46  65  96 130 162 199 240 278
#     4   9  18  33  52  75 102 127 152 187 233 284
#
# _framework density 17.274525000000001
#
# number of rings (size 3 to 8) (size 9 to 14) (size 15 to 20)
#    0.000    2.500    0.000    2.250    0.000    9.500 
#    0.000    0.000    0.000    8.250    0.000    0.000 
#    0.000    0.000    0.000    0.000    0.000    0.000 
#
# Total GULP energy -396884.064527 kJ/mol
# GULP energy per Si atom -12402.627016 kJ/mol
# Density = 1.723521 g / cm^3
# Si number density = 17.274525 Si / 1000 Ang^3
#
#
#
# Elastic Constant Matrix: (Units=GPa)
#
#
# Indices 1 2 3 4 5 6 
#
# 1 131.1236 56.6561 69.5628 0.0000 1.9360 0.0000
# 2 56.6561 62.6306 53.5929 0.0000 -2.6528 0.0000
# 3 69.5628 53.5929 118.0698 0.0000 -13.2409 0.0000
# 4 0.0000 0.0000 0.0000 26.9735 0.0000 -0.2529
# 5 1.9360 -2.6528 -13.2409 0.0000 18.7546 0.0000
# 6 0.0000 0.0000 0.0000 -0.2529 0.0000 27.2655
#
#
#
# Elastic Compliance Matrix: (Units=1/GPa)
#
#
# Indices 1 2 3 4 5 6 
#
# 1 0.014211 -0.008752 -0.005108 0.000000 -0.006311 0.000000
# 2 -0.008752 0.031949 -0.009489 0.000000 -0.001277 0.000000
# 3 -0.005108 -0.009489 0.017044 0.000000 0.011218 0.000000
# 4 0.000000 0.000000 0.000000 0.037077 0.000000 0.000344
# 5 -0.006311 -0.001277 0.011218 0.000000 0.061711 0.000000
# 6 0.000000 0.000000 0.000000 0.000344 0.000000 0.036680
#
#
# Mechanical properties :
#
#
# Convention : Reuss Voigt Hill
#
# Bulk Modulus (GPa) = 60.58005 74.60529 67.59267
# Shear Modulus (GPa) = 19.93057 23.39954 21.66505
#
# Velocity S-wave (km/s) = 3.40038 3.68444 3.54526
# Velocity P-wave (km/s) = 7.11069 7.83466 7.48144
#
# Compressibility (1/GPa) = 0.01650708
#
# Stress axis : x y z
#
# Youngs Moduli (GPa) = 70.36901 31.29976 58.67147
#
# Poissons Ratio (x) = 0.27393 0.29968
# Poissons Ratio (y) = 0.61586 0.55673
# Poissons Ratio (z) = 0.35943 0.29700
#
# Static dielectric constant tensor:
#      x y z
#    x 3.192880 0.000000 0.089960 
#    y 0.000000 3.149310 0.000000 
#    z 0.089960 0.000000 3.296760 
# 
# 
# High freq. dielectric constant tensor:
#      x y z
#    x 1.653750 0.000000 0.010060 
#    y 0.000000 1.662160 0.000000 
#    z 0.010060 0.000000 1.665370 
# 
# From -- ./inp_files/104648.got.cif
#   From: 2010.06.25/outbox.cif.g09.slc.cpg/sg12_53_cif.got.tgz:104648.got - 2010.06.28 00:19:55.
