data_PCOD8086226
_publ_section_title
;
Structure prediction by ZEFSAII (Michael W. Deem and Ramdas Pophale) SiO2 
 PCOD8086226
Probable space group: C 2/M
;
_chemical_formula_sum "Si O2"
_cell_formula_units_Z 56
_cell_length_a 28.696658
_cell_length_b 8.751997
_cell_length_c 17.346192
_cell_angle_alpha 90.000000
_cell_angle_beta 131.673153
_cell_angle_gamma 90.000000
_cell_volume 3254.123643
_symmetry_space_group_name_H-M "C 2/M"
_symmetry_group_IT_number 12
_symmetry_cell_setting 'monoclinic'
loop_
_space_group_symop_operation_xyz
x,y,z
-x,y,-z
-x,-y,-z
x,-y,z
1/2+x,1/2+y,z
1/2-x,1/2+y,-z
1/2-x,1/2-y,-z
1/2+x,1/2-y,z
loop_
_atom_site_type_symbol
_atom_site_label
_atom_site_fract_x
_atom_site_fract_y
_atom_site_fract_z
Si Si1 0.240224 0.322295 0.871344
Si Si2 0.785093 0.819570 0.610597
Si Si3 0.040006 0.177426 0.863194
Si Si4 0.847390 0.323027 0.087735
Si Si5 0.581750 0.823030 0.228224
Si Si6 0.263933 0.174104 0.744883
Si Si7 0.909876 0.329522 0.934933
O O1 0.257954 0.500000 0.889076
O O2 0.178911 0.292685 0.855664
O O3 0.225494 0.260491 0.769735
O O4 0.298525 0.231738 0.970064
O O5 0.750000 0.750000 0.500000
O O6 0.857427 0.774391 0.685864
O O7 0.751312 0.755938 0.649912
O O8 0.778959 0.000000 0.603164
O O9 0.087701 0.233621 0.849842
O O10 0.974755 0.266292 0.780285
O O11 0.027232 0.000000 0.838423
O O12 0.068325 0.206663 0.979032
O O13 0.859909 0.500000 0.085624
O O14 0.559351 0.797885 0.114819
O O15 0.597464 0.000000 0.260840
O O16 0.336353 0.184461 0.843853
O O17 0.240783 0.000000 0.713988
O O18 0.927938 0.500000 0.983901
#
# Coordination Sequence:
#
# PCOD8086226 Si02
#       7
#     8   8   8   8   8   8   8
#     4  10  19  31  48  71  97 132 177 218 253 294
#     4  11  22  38  58  80 105 129 165 209 254 304
#     4  12  22  30  45  70 100 135 175 211 248 296
#     4  10  20  32  46  66  99 139 176 214 254 295
#     4  10  21  36  52  70  97 132 169 207 254 303
#     4  10  19  32  52  75 103 136 169 207 257 304
#     4   9  18  31  46  66  96 134 170 204 246 298
#
# _framework density 17.208936000000001
#
# number of rings (size 3 to 8) (size 9 to 14) (size 15 to 20)
#    0.000    1.714    1.429    5.571    0.000    6.286 
#    0.000    0.000    0.000    0.000    0.000    1.000 
#    0.000    8.000    0.000    0.000    0.000    0.000 
#
# Total GULP energy -347271.301681 kJ/mol
# GULP energy per Si atom -12402.546489 kJ/mol
# Density = 1.716977 g / cm^3
# Si number density = 17.208936 Si / 1000 Ang^3
#
#
#
# Elastic Constant Matrix: (Units=GPa)
#
#
# Indices 1 2 3 4 5 6 
#
# 1 102.4597 33.3432 30.4582 0.0000 -20.6463 0.0000
# 2 33.3432 98.7087 29.0159 0.0000 -14.2415 0.0000
# 3 30.4582 29.0159 66.5267 0.0000 -17.8426 0.0000
# 4 0.0000 0.0000 0.0000 25.5908 0.0000 -1.4171
# 5 -20.6463 -14.2415 -17.8426 0.0000 18.5695 0.0000
# 6 0.0000 0.0000 0.0000 -1.4171 0.0000 28.9046
#
#
#
# Elastic Compliance Matrix: (Units=1/GPa)
#
#
# Indices 1 2 3 4 5 6 
#
# 1 0.013371 -0.002289 -0.002165 0.000000 0.011031 0.000000
# 2 -0.002289 0.012436 -0.003369 0.000000 0.003756 0.000000
# 3 -0.002165 -0.003369 0.021762 0.000000 0.015919 0.000000
# 4 0.000000 0.000000 0.000000 0.039183 0.000000 0.001921
# 5 0.011031 0.003756 0.015919 0.000000 0.084293 0.000000
# 6 0.000000 0.000000 0.000000 0.001921 0.000000 0.034691
#
#
# Mechanical properties :
#
#
# Convention : Reuss Voigt Hill
#
# Bulk Modulus (GPa) = 31.32459 50.36996 40.84728
# Shear Modulus (GPa) = 21.54968 26.27151 23.91060
#
# Velocity S-wave (km/s) = 3.54254 3.91144 3.73155
# Velocity P-wave (km/s) = 5.91395 7.05211 6.50796
#
# Compressibility (1/GPa) = 0.03192380
#
# Stress axis : x y z
#
# Youngs Moduli (GPa) = 74.78779 80.41086 45.95248
#
# Poissons Ratio (x) = 0.18404 0.09949
# Poissons Ratio (y) = 0.17117 0.15481
# Poissons Ratio (z) = 0.16191 0.27089
#
# Static dielectric constant tensor:
#      x y z
#    x 3.434150 0.000000 -0.202360 
#    y 0.000000 3.322710 0.000000 
#    z -0.202360 0.000000 2.864880 
# 
# 
# High freq. dielectric constant tensor:
#      x y z
#    x 1.669940 0.000000 -0.012960 
#    y 0.000000 1.680450 0.000000 
#    z -0.012960 0.000000 1.614830 
# 
# From -- ./inp_files/244298.got.cif
#   From: 2010.06.25/outbox.cif.g09.slc.cpg/sg12_123_cif.got.tgz:244298.got - 2010.06.28 00:19:55.
