data_PCOD8086230
_publ_section_title
;
Structure prediction by ZEFSAII (Michael W. Deem and Ramdas Pophale) SiO2 
 PCOD8086230
Probable space group: C 2/M
;
_chemical_formula_sum "Si O2"
_cell_formula_units_Z 64
_cell_length_a 18.865411
_cell_length_b 9.328250
_cell_length_c 25.848609
_cell_angle_alpha 90.000000
_cell_angle_beta 127.776040
_cell_angle_gamma 90.000000
_cell_volume 3595.478845
_symmetry_space_group_name_H-M "C 2/M"
_symmetry_group_IT_number 12
_symmetry_cell_setting 'monoclinic'
loop_
_space_group_symop_operation_xyz
x,y,z
-x,y,-z
-x,-y,-z
x,-y,z
1/2+x,1/2+y,z
1/2-x,1/2+y,-z
1/2-x,1/2-y,-z
1/2+x,1/2-y,z
loop_
_atom_site_type_symbol
_atom_site_label
_atom_site_fract_x
_atom_site_fract_y
_atom_site_fract_z
Si Si1 0.942984 0.330498 0.127487
Si Si2 0.993254 0.330024 0.335601
Si Si3 0.698303 0.168709 0.777862
Si Si4 0.589168 0.831944 0.278432
Si Si5 0.544685 0.829848 0.571195
Si Si6 0.744597 0.167168 0.687037
Si Si7 0.755604 0.329966 0.091195
Si Si8 0.942120 0.830142 0.024629
O O1 0.944759 0.500000 0.118223
O O2 0.841913 0.277452 0.096848
O O3 0.978400 0.249772 0.091951
O O4 0.009211 0.287055 0.203892
O O5 0.982662 0.500000 0.331396
O O6 0.899555 0.263214 0.274328
O O7 0.011536 0.278491 0.402932
O O8 0.067780 0.283136 0.327752
O O9 0.757821 0.201625 0.753935
O O10 0.740741 0.234487 0.848872
O O11 0.688014 0.000000 0.781045
O O12 0.681191 0.753972 0.309483
O O13 0.605270 0.000000 0.281491
O O14 0.500000 0.760237 0.500000
O O15 0.647680 0.780642 0.623281
O O16 0.541624 0.000000 0.565717
O O17 0.757541 0.000000 0.681814
O O18 0.756636 0.500000 0.093730
O O19 0.661059 0.277274 0.026180
O O20 0.950056 0.000000 0.036561
O O21 0.000000 0.784782 0.000000
#
# Coordination Sequence:
#
# PCOD8086230 Si02
#       8
#     8   8   8   8   8   8   8   8
#     4  10  20  34  52  69  90 127 165 198 237 286
#     4   8  13  25  45  69  93 123 163 197 227 274
#     4   8  13  25  47  70  88 116 161 199 226 272
#     4  10  19  31  48  71  98 126 160 200 240 284
#     4   8  14  27  49  76 101 126 163 204 233 268
#     4   9  18  29  48  75 100 127 157 197 244 279
#     4   9  16  30  50  69  91 120 157 197 237 285
#     4  10  22  35  49  72  98 123 154 199 251 296
#
# _framework density 17.800132999999999
#
# number of rings (size 3 to 8) (size 9 to 14) (size 15 to 20)
#    0.000    3.000    1.250    1.875    1.750    0.750 
#    0.000    0.625    0.000    4.125    0.000    0.000 
#    0.000    0.000    0.000    0.000    0.000    0.000 
#
# Total GULP energy -396491.729393 kJ/mol
# GULP energy per Si atom -12390.366544 kJ/mol
# Density = 1.775962 g / cm^3
# Si number density = 17.800133 Si / 1000 Ang^3
#
#
#
# Elastic Constant Matrix: (Units=GPa)
#
#
# Indices 1 2 3 4 5 6 
#
# 1 141.1765 33.6765 66.4327 0.0000 -15.9784 0.0000
# 2 33.6765 19.0343 25.5759 0.0000 -4.6847 0.0000
# 3 66.4327 25.5759 108.6569 0.0000 -24.1980 0.0000
# 4 0.0000 0.0000 0.0000 13.6514 0.0000 1.8459
# 5 -15.9784 -4.6847 -24.1980 0.0000 29.5044 0.0000
# 6 0.0000 0.0000 0.0000 1.8459 0.0000 24.7234
#
#
#
# Elastic Compliance Matrix: (Units=1/GPa)
#
#
# Indices 1 2 3 4 5 6 
#
# 1 0.013284 -0.018525 -0.003443 0.000000 0.001429 0.000000
# 2 -0.018525 0.102923 -0.014064 0.000000 -0.005224 0.000000
# 3 -0.003443 -0.014064 0.016769 0.000000 0.009655 0.000000
# 4 0.000000 0.000000 0.000000 0.074000 0.000000 -0.005525
# 5 0.001429 -0.005224 0.009655 0.000000 0.041756 0.000000
# 6 0.000000 0.000000 0.000000 -0.005525 0.000000 0.040860
#
#
# Mechanical properties :
#
#
# Convention : Reuss Voigt Hill
#
# Bulk Modulus (GPa) = 16.41697 57.80419 37.11058
# Shear Modulus (GPa) = 13.09037 23.12135 18.10586
#
# Velocity S-wave (km/s) = 2.71478 3.60799 3.19278
# Velocity P-wave (km/s) = 4.36689 7.06409 5.87244
#
# Compressibility (1/GPa) = 0.06091258
#
# Stress axis : x y z
#
# Youngs Moduli (GPa) = 75.27666 9.71601 59.63321
#
# Poissons Ratio (x) = 0.17999 0.20534
# Poissons Ratio (y) = 1.39449 0.83866
# Poissons Ratio (z) = 0.25921 0.13664
#
# Static dielectric constant tensor:
#      x y z
#    x 3.428540 0.000000 -0.204550 
#    y 0.000000 2.702100 0.000000 
#    z -0.204550 0.000000 3.665280 
# 
# 
# High freq. dielectric constant tensor:
#      x y z
#    x 1.697250 0.000000 -0.013430 
#    y 0.000000 1.626460 0.000000 
#    z -0.013430 0.000000 1.688600 
# 
# From -- ./inp_files/343074.got.cif
#   From: 2010.06.25/outbox.cif.g09.slc.cpg/sg12_172_cif.got.tgz:343074.got - 2010.06.28 00:19:55.
