data_PCOD8086637
_publ_section_title
;
Structure prediction by ZEFSAII (Michael W. Deem and Ramdas Pophale) SiO2 
 PCOD8086637
Probable space group: C 2/M
;
_chemical_formula_sum "Si O2"
_cell_formula_units_Z 64
_cell_length_a 17.895548
_cell_length_b 9.169733
_cell_length_c 33.926767
_cell_angle_alpha 90.000000
_cell_angle_beta 37.470799
_cell_angle_gamma 90.000000
_cell_volume 3386.902451
_symmetry_space_group_name_H-M "C 2/M"
_symmetry_group_IT_number 12
_symmetry_cell_setting 'monoclinic'
loop_
_space_group_symop_operation_xyz
x,y,z
-x,y,-z
-x,-y,-z
x,-y,z
1/2+x,1/2+y,z
1/2-x,1/2+y,-z
1/2-x,1/2-y,-z
1/2+x,1/2-y,z
loop_
_atom_site_type_symbol
_atom_site_label
_atom_site_fract_x
_atom_site_fract_y
_atom_site_fract_z
Si Si1 0.930280 0.672179 0.989957
Si Si2 0.844679 0.826735 0.882548
Si Si3 0.057991 0.173578 0.241679
Si Si4 0.306663 0.168363 0.745266
Si Si5 0.821820 0.672880 0.504704
Si Si6 0.899624 0.672889 0.622506
Si Si7 0.780863 0.826727 0.368771
Si Si8 0.976805 0.168009 0.124243
O O1 0.933096 0.500000 0.983054
O O2 0.791245 0.731519 0.050735
O O3 0.000000 0.720703 0.000000
O O4 0.002018 0.742349 0.923978
O O5 0.888674 0.766585 0.821895
O O6 0.935683 0.768590 0.878177
O O7 0.847048 0.000000 0.879975
O O8 0.140772 0.237181 0.241452
O O9 0.918665 0.230324 0.304134
O O10 0.064304 0.000000 0.241513
O O11 0.362499 0.230292 0.681221
O O12 0.161230 0.188356 0.803380
O O13 0.342726 0.000000 0.736874
O O14 0.809704 0.500000 0.504590
O O15 0.750000 0.750000 0.500000
O O16 0.765201 0.727949 0.569508
O O17 0.962990 0.723776 0.444790
O O18 0.888387 0.500000 0.626494
O O19 0.807693 0.738648 0.628070
O O20 0.776505 0.000000 0.368956
O O21 0.007740 0.000000 0.102656
#
# Coordination Sequence:
#
# PCOD8086637 Si02
#       8
#     8   8   8   8   8   8   8   8
#     4  10  20  34  52  74 100 128 159 197 244 296
#     4   9  18  33  52  73  97 128 164 199 239 289
#     4  10  19  33  54  75  98 129 163 202 245 289
#     4  10  20  33  50  73 100 129 162 201 244 290
#     4  10  19  31  50  75 102 131 164 204 246 289
#     4   9  17  31  51  73  99 132 167 203 243 286
#     4   9  17  30  51  77  98 124 169 211 238 279
#     4  10  20  34  52  73  97 127 165 204 239 282
#
# _framework density 18.896321
#
# number of rings (size 3 to 8) (size 9 to 14) (size 15 to 20)
#    0.000    2.375    0.000    3.000    0.000    6.250 
#    0.000    1.250    0.000    5.250    0.000    0.000 
#    0.000    0.000    0.000    0.000    0.000    0.000 
#
# Total GULP energy -396866.778607 kJ/mol
# GULP energy per Si atom -12402.086831 kJ/mol
# Density = 1.885331 g / cm^3
# Si number density = 18.896321 Si / 1000 Ang^3
#
#
#
# Elastic Constant Matrix: (Units=GPa)
#
#
# Indices 1 2 3 4 5 6 
#
# 1 117.5081 23.9849 17.7041 -0.0022 7.3027 0.0003
# 2 23.9849 18.0784 17.3928 0.0046 2.9543 -0.0002
# 3 17.7041 17.3928 100.1944 -0.0060 11.0065 -0.0007
# 4 -0.0022 0.0046 -0.0060 20.4117 0.0039 2.5879
# 5 7.3027 2.9543 11.0065 0.0039 41.3438 0.0017
# 6 0.0003 -0.0002 -0.0007 2.5879 0.0017 26.0464
#
#
#
# Elastic Compliance Matrix: (Units=1/GPa)
#
#
# Indices 1 2 3 4 5 6 
#
# 1 0.011770 -0.016265 0.000870 0.000005 -0.001148 -0.000001
# 2 -0.016265 0.089000 -0.012560 -0.000026 -0.000143 0.000003
# 3 0.000870 -0.012560 0.012285 0.000007 -0.002527 0.000000
# 4 0.000005 -0.000026 0.000007 0.049617 -0.000006 -0.004930
# 5 -0.001148 -0.000143 -0.002527 -0.000006 0.025073 -0.000001
# 6 -0.000001 0.000003 0.000000 -0.004930 -0.000001 0.038883
#
#
# Mechanical properties :
#
#
# Convention : Reuss Voigt Hill
#
# Bulk Modulus (GPa) = 17.49925 39.32718 28.41321
# Shear Modulus (GPa) = 16.57899 29.34031 22.95965
#
# Velocity S-wave (km/s) = 2.96525 3.94471 3.48951
# Velocity P-wave (km/s) = 4.58305 6.45018 5.59505
#
# Compressibility (1/GPa) = 0.05714532
#
# Stress axis : x y z
#
# Youngs Moduli (GPa) = 84.95994 11.23590 81.40185
#
# Poissons Ratio (x) = 0.18275 -0.07080
# Poissons Ratio (y) = 1.38187 1.02240
# Poissons Ratio (z) = -0.07390 0.14112
#
# Static dielectric constant tensor:
#      x y z
#    x 3.662230 -0.000020 -0.051550 
#    y -0.000020 2.981980 -0.000020 
#    z -0.051550 -0.000020 3.753620 
# 
# 
# High freq. dielectric constant tensor:
#      x y z
#    x 1.753060 0.000000 -0.000900 
#    y 0.000000 1.681140 0.000000 
#    z -0.000900 0.000000 1.754760 
# 
# From -- ./inp_files/378149.got.cif
#   From: 2010.06.25/outbox.cif.g09.slc.cpg/sg12_190_cif.got.tgz:378149.got - 2010.06.28 00:19:55.
