data_PCOD8086488
_publ_section_title
;
Structure prediction by ZEFSAII (Michael W. Deem and Ramdas Pophale) SiO2 
 PCOD8086488
Probable space group: C 2/M
;
_chemical_formula_sum "Si O2"
_cell_formula_units_Z 64
_cell_length_a 19.664044
_cell_length_b 8.958680
_cell_length_c 21.220017
_cell_angle_alpha 90.000000
_cell_angle_beta 90.999207
_cell_angle_gamma 90.000000
_cell_volume 3737.632036
_symmetry_space_group_name_H-M "C 2/M"
_symmetry_group_IT_number 12
_symmetry_cell_setting 'monoclinic'
loop_
_space_group_symop_operation_xyz
x,y,z
-x,y,-z
-x,-y,-z
x,-y,z
1/2+x,1/2+y,z
1/2-x,1/2+y,-z
1/2-x,1/2-y,-z
1/2+x,1/2-y,z
loop_
_atom_site_type_symbol
_atom_site_label
_atom_site_fract_x
_atom_site_fract_y
_atom_site_fract_z
Si Si1 0.433263 0.673351 0.104375
Si Si2 0.229278 0.167974 0.562602
Si Si3 0.073242 0.670742 0.091126
Si Si4 0.557692 0.326941 0.752561
Si Si5 0.838888 0.674900 0.333254
Si Si6 0.675947 0.324404 0.000093
Si Si7 0.578461 0.170756 0.237301
Si Si8 0.710949 0.832018 0.310013
O O1 0.452935 0.500000 0.098684
O O2 0.497598 0.764300 0.078105
O O3 0.417979 0.716287 0.176565
O O4 0.364981 0.712220 0.064885
O O5 0.250000 0.250000 0.500000
O O6 0.166080 0.250081 0.596994
O O7 0.292900 0.169382 0.613142
O O8 0.207154 0.000000 0.545338
O O9 0.073237 0.500000 0.067747
O O10 0.130889 0.762742 0.056292
O O11 0.094548 0.682747 0.164020
O O12 0.569974 0.500000 0.738225
O O13 0.594516 0.227870 0.701332
O O14 0.479122 0.286548 0.744205
O O15 0.840242 0.500000 0.342117
O O16 0.773859 0.726736 0.290013
O O17 0.686099 0.500000 0.009226
O O18 0.750000 0.250000 0.000000
O O19 0.642561 0.228603 0.278162
O O20 0.558819 0.000000 0.254622
O O21 0.725707 0.000000 0.285764
#
# Coordination Sequence:
#
# PCOD8086488 Si02
#       8
#     8   8   8   8   8   8   8   8
#     4   9  20  37  55  72  96 134 172 207 254 312
#     4   9  17  31  52  77 104 137 172 208 248 292
#     4  10  20  34  55  78 100 129 168 211 254 306
#     4  10  19  33  52  75 102 132 169 212 257 302
#     4  10  19  31  49  75 104 135 171 208 249 296
#     4  11  23  38  53  72 100 133 169 212 261 309
#     4   9  18  34  53  75 103 135 168 205 254 309
#     4   8  17  32  50  72 101 135 168 203 248 298
#
# _framework density 17.123141
#
# number of rings (size 3 to 8) (size 9 to 14) (size 15 to 20)
#    0.750    1.750    0.000    2.625    0.000    5.000 
#    0.000    5.000    0.000    0.750    0.000    5.250 
#    0.000    0.000    0.000    0.000    0.000    0.000 
#
# Total GULP energy -396622.682654 kJ/mol
# GULP energy per Si atom -12394.458833 kJ/mol
# Density = 1.708417 g / cm^3
# Si number density = 17.123141 Si / 1000 Ang^3
#
#
#
# Elastic Constant Matrix: (Units=GPa)
#
#
# Indices 1 2 3 4 5 6 
#
# 1 68.5633 35.9823 24.1781 0.0000 -13.4179 0.0000
# 2 35.9823 104.3231 29.8222 0.0000 -17.0110 0.0000
# 3 24.1781 29.8222 48.7194 0.0000 -21.0724 0.0000
# 4 0.0000 0.0000 0.0000 27.4713 0.0000 -5.9729
# 5 -13.4179 -17.0110 -21.0724 0.0000 25.7012 0.0000
# 6 0.0000 0.0000 0.0000 -5.9729 0.0000 33.3985
#
#
#
# Elastic Compliance Matrix: (Units=1/GPa)
#
#
# Indices 1 2 3 4 5 6 
#
# 1 0.019562 -0.004703 -0.005823 0.000000 0.002325 0.000000
# 2 -0.004703 0.012889 -0.004536 0.000000 0.002356 0.000000
# 3 -0.005823 -0.004536 0.036535 0.000000 0.023913 0.000000
# 4 0.000000 0.000000 0.000000 0.037874 0.000000 0.006773
# 5 0.002325 0.002356 0.023913 0.000000 0.061288 0.000000
# 6 0.000000 0.000000 0.000000 0.006773 0.000000 0.031153
#
#
# Mechanical properties :
#
#
# Convention : Reuss Voigt Hill
#
# Bulk Modulus (GPa) = 25.73345 44.61903 35.17624
# Shear Modulus (GPa) = 20.62873 26.08909 23.35891
#
# Velocity S-wave (km/s) = 3.47468 3.90759 3.69748
# Velocity P-wave (km/s) = 5.58202 6.81713 6.23026
#
# Compressibility (1/GPa) = 0.03885993
#
# Stress axis : x y z
#
# Youngs Moduli (GPa) = 51.11961 77.58686 27.37076
#
# Poissons Ratio (x) = 0.36492 0.15939
# Poissons Ratio (y) = 0.24043 0.12416
# Poissons Ratio (z) = 0.29769 0.35196
#
# Static dielectric constant tensor:
#      x y z
#    x 3.061040 0.000000 0.047560 
#    y 0.000000 3.316480 0.000000 
#    z 0.047560 0.000000 3.106060 
# 
# 
# High freq. dielectric constant tensor:
#      x y z
#    x 1.644910 0.000000 -0.002350 
#    y 0.000000 1.672130 0.000000 
#    z -0.002350 0.000000 1.649890 
# 
# From -- ./inp_files/319145.got.cif
#   From: 2010.06.25/outbox.cif.g09.slc.cpg/sg12_160_cif.got.tgz:319145.got - 2010.06.28 00:19:55.
