data_PCOD8086132
_publ_section_title
;
Structure prediction by ZEFSAII (Michael W. Deem and Ramdas Pophale) SiO2 
 PCOD8086132
Probable space group: C 2/M
;
_chemical_formula_sum "Si O2"
_cell_formula_units_Z 64
_cell_length_a 19.059775
_cell_length_b 9.020868
_cell_length_c 21.430491
_cell_angle_alpha 90.000000
_cell_angle_beta 89.095908
_cell_angle_gamma 90.000000
_cell_volume 3684.208069
_symmetry_space_group_name_H-M "C 2/M"
_symmetry_group_IT_number 12
_symmetry_cell_setting 'monoclinic'
loop_
_space_group_symop_operation_xyz
x,y,z
-x,y,-z
-x,-y,-z
x,-y,z
1/2+x,1/2+y,z
1/2-x,1/2+y,-z
1/2-x,1/2-y,-z
1/2+x,1/2-y,z
loop_
_atom_site_type_symbol
_atom_site_label
_atom_site_fract_x
_atom_site_fract_y
_atom_site_fract_z
Si Si1 0.486256 0.174546 0.870245
Si Si2 0.588276 0.822164 0.372048
Si Si3 0.622074 0.674243 0.043794
Si Si4 0.877906 0.170627 0.100172
Si Si5 0.175128 0.677301 0.489539
Si Si6 0.544185 0.161474 0.561775
Si Si7 0.777058 0.672187 0.866254
Si Si8 0.116132 0.673940 0.235688
O O1 0.448687 0.251539 0.929462
O O2 0.566102 0.227182 0.865754
O O3 0.448888 0.224289 0.806589
O O4 0.481657 0.000000 0.880061
O O5 0.646482 0.772898 0.421892
O O6 0.509563 0.756942 0.389293
O O7 0.610705 0.754227 0.304601
O O8 0.583039 0.000000 0.372406
O O9 0.616787 0.500000 0.054339
O O10 0.690633 0.735010 0.077565
O O11 0.629845 0.716619 0.971571
O O12 0.805322 0.201502 0.136835
O O13 0.900834 0.000000 0.105639
O O14 0.181422 0.500000 0.493291
O O15 0.250000 0.750000 0.500000
O O16 0.119041 0.737897 0.542895
O O17 0.500000 0.140481 0.500000
O O18 0.562925 0.000000 0.589141
O O19 0.794204 0.500000 0.879597
O O20 0.811805 0.721671 0.799959
O O21 0.114440 0.500000 0.245451
#
# Coordination Sequence:
#
# PCOD8086132 Si02
#       8
#     8   8   8   8   8   8   8   8
#     4  10  20  32  47  67  90 115 147 190 231 266
#     4   8  13  25  47  67  83 113 155 186 208 249
#     4  10  19  31  48  68  89 116 150 184 224 276
#     4  10  20  32  46  66  92 119 146 182 229 276
#     4   9  16  26  43  68  95 118 140 175 221 260
#     4   7  11  21  39  63  85 108 144 180 204 235
#     4   9  18  32  48  67  92 119 148 185 226 267
#     4   8  15  29  47  65  84 112 152 188 216 255
#
# _framework density 17.371441000000001
#
# number of rings (size 3 to 8) (size 9 to 14) (size 15 to 20)
#    0.000    3.125    0.000    3.750    0.000    3.000 
#    0.000    1.250    0.000    7.125    0.000    0.000 
#    0.000    0.000    0.000    0.000    0.000    0.000 
#
# Total GULP energy -396492.192715 kJ/mol
# GULP energy per Si atom -12390.381022 kJ/mol
# Density = 1.733190 g / cm^3
# Si number density = 17.371441 Si / 1000 Ang^3
#
#
#
# Elastic Constant Matrix: (Units=GPa)
#
#
# Indices 1 2 3 4 5 6 
#
# 1 149.5562 35.7963 71.5202 0.0000 -13.7479 0.0000
# 2 35.7963 34.9204 26.4234 0.0000 -0.3551 0.0000
# 3 71.5202 26.4234 123.0478 0.0000 -17.9225 0.0000
# 4 0.0000 0.0000 0.0000 10.4385 0.0000 2.5218
# 5 -13.7479 -0.3551 -17.9225 0.0000 17.0272 0.0000
# 6 0.0000 0.0000 0.0000 2.5218 0.0000 28.2686
#
#
#
# Elastic Compliance Matrix: (Units=1/GPa)
#
#
# Indices 1 2 3 4 5 6 
#
# 1 0.010950 -0.008192 -0.003948 0.000000 0.004515 0.000000
# 2 -0.008192 0.041340 -0.005851 0.000000 -0.011910 0.000000
# 3 -0.003948 -0.005851 0.013223 0.000000 0.010609 0.000000
# 4 0.000000 0.000000 0.000000 0.097910 0.000000 -0.008734
# 5 0.004515 -0.011910 0.010609 0.000000 0.073293 0.000000
# 6 0.000000 0.000000 0.000000 -0.008734 0.000000 0.036154
#
#
# Mechanical properties :
#
#
# Convention : Reuss Voigt Hill
#
# Bulk Modulus (GPa) = 33.86120 63.88934 48.87527
# Shear Modulus (GPa) = 15.68898 22.73249 19.21073
#
# Velocity S-wave (km/s) = 3.00850 3.62140 3.32909
# Velocity P-wave (km/s) = 5.62164 7.37186 6.55542
#
# Compressibility (1/GPa) = 0.02953232
#
# Stress axis : x y z
#
# Youngs Moduli (GPa) = 91.32337 24.18983 75.62408
#
# Poissons Ratio (x) = 0.19815 0.29856
# Poissons Ratio (y) = 0.74808 0.44247
# Poissons Ratio (z) = 0.36054 0.14153
#
# Static dielectric constant tensor:
#      x y z
#    x 3.433350 0.000000 -0.283140 
#    y 0.000000 2.875990 0.000000 
#    z -0.283140 0.000000 3.391270 
# 
# 
# High freq. dielectric constant tensor:
#      x y z
#    x 1.678190 0.000000 -0.016150 
#    y 0.000000 1.631710 0.000000 
#    z -0.016150 0.000000 1.655930 
# 
# From -- ./inp_files/319151.got.cif
#   From: 2010.06.25/outbox.cif.g09.slc.cpg/sg12_160_cif.got.tgz:319151.got - 2010.06.28 00:19:55.
