data_PCOD8086358
_publ_section_title
;
Structure prediction by ZEFSAII (Michael W. Deem and Ramdas Pophale) SiO2 
 PCOD8086358
Probable space group: C 2/M
;
_chemical_formula_sum "Si O2"
_cell_formula_units_Z 64
_cell_length_a 23.353355
_cell_length_b 8.937245
_cell_length_c 23.893967
_cell_angle_alpha 90.000000
_cell_angle_beta 136.084240
_cell_angle_gamma 90.000000
_cell_volume 3458.997822
_symmetry_space_group_name_H-M "C 2/M"
_symmetry_group_IT_number 12
_symmetry_cell_setting 'monoclinic'
loop_
_space_group_symop_operation_xyz
x,y,z
-x,y,-z
-x,-y,-z
x,-y,z
1/2+x,1/2+y,z
1/2-x,1/2+y,-z
1/2-x,1/2-y,-z
1/2+x,1/2-y,z
loop_
_atom_site_type_symbol
_atom_site_label
_atom_site_fract_x
_atom_site_fract_y
_atom_site_fract_z
Si Si1 0.461312 0.177510 0.226933
Si Si2 0.985918 0.825452 0.847430
Si Si3 0.161903 0.173498 0.177780
Si Si4 0.830993 0.175745 0.322482
Si Si5 0.222387 0.325512 0.924300
Si Si6 0.618061 0.674270 0.027492
Si Si7 0.489186 0.676339 0.361860
Si Si8 0.581474 0.831808 0.520519
O O1 0.510711 0.234814 0.207729
O O2 0.366774 0.234097 0.157098
O O3 0.500511 0.248841 0.309623
O O4 0.468298 0.000000 0.235629
O O5 0.894506 0.802208 0.807708
O O6 0.004045 0.000000 0.848324
O O7 0.052059 0.753567 0.938041
O O8 0.242978 0.273679 0.237633
O O9 0.108711 0.224422 0.085568
O O10 0.188405 0.000000 0.189910
O O11 0.901064 0.221767 0.326855
O O12 0.845956 0.255229 0.392665
O O13 0.832215 0.000000 0.333785
O O14 0.218584 0.500000 0.933455
O O15 0.288311 0.284156 0.923132
O O16 0.250000 0.250000 0.000000
O O17 0.599954 0.500000 0.010225
O O18 0.498275 0.500000 0.362493
O O19 0.564336 0.737292 0.452545
O O20 0.500000 0.832813 0.500000
O O21 0.608504 0.000000 0.523517
#
# Coordination Sequence:
#
# PCOD8086358 Si02
#       8
#     8   8   8   8   8   8   8   8
#     4  11  22  34  51  77 107 140 178 221 266 315
#     4  10  20  35  54  73  99 140 184 224 267 314
#     4  10  20  34  54  77 101 136 183 226 263 311
#     4  10  20  34  53  80 112 142 171 211 263 314
#     4  10  19  31  49  72 100 133 169 213 264 313
#     4   9  17  32  53  75  99 131 175 224 268 313
#     4  10  20  34  54  81 111 142 174 210 257 317
#     4   9  17  31  54  82 111 140 169 208 256 310
#
# _framework density 18.502468
#
# number of rings (size 3 to 8) (size 9 to 14) (size 15 to 20)
#    0.000    2.125    1.250    2.625    0.000    6.500 
#    0.000    1.250    0.000    2.250    0.000    0.000 
#    0.000    0.000    0.000    0.000    0.000    0.000 
#
# Total GULP energy -396803.718492 kJ/mol
# GULP energy per Si atom -12400.116203 kJ/mol
# Density = 1.846036 g / cm^3
# Si number density = 18.502468 Si / 1000 Ang^3
#
#
#
# Elastic Constant Matrix: (Units=GPa)
#
#
# Indices 1 2 3 4 5 6 
#
# 1 62.4460 31.1272 36.4553 0.0000 -19.2419 0.0000
# 2 31.1272 67.9847 38.0353 0.0000 -11.5165 0.0000
# 3 36.4553 38.0353 115.4434 0.0000 -25.9056 0.0000
# 4 0.0000 0.0000 0.0000 31.2235 0.0000 -1.4648
# 5 -19.2419 -11.5165 -25.9056 0.0000 26.1751 0.0000
# 6 0.0000 0.0000 0.0000 -1.4648 0.0000 23.9679
#
#
#
# Elastic Compliance Matrix: (Units=1/GPa)
#
#
# Indices 1 2 3 4 5 6 
#
# 1 0.025406 -0.008080 -0.002529 0.000000 0.012618 0.000000
# 2 -0.008080 0.020746 -0.004587 0.000000 -0.001352 0.000000
# 3 -0.002529 -0.004587 0.012986 0.000000 0.008975 0.000000
# 4 0.000000 0.000000 0.000000 0.032119 0.000000 0.001963
# 5 0.012618 -0.001352 0.008975 0.000000 0.055768 0.000000
# 6 0.000000 0.000000 0.000000 0.001963 0.000000 0.041843
#
#
# Mechanical properties :
#
#
# Convention : Reuss Voigt Hill
#
# Bulk Modulus (GPa) = 34.78722 50.78997 42.78860
# Shear Modulus (GPa) = 21.84911 25.62372 23.73641
#
# Velocity S-wave (km/s) = 3.44011 3.72544 3.58561
# Velocity P-wave (km/s) = 5.88399 6.78345 6.34967
#
# Compressibility (1/GPa) = 0.02874619
#
# Stress axis : x y z
#
# Youngs Moduli (GPa) = 39.36070 48.20226 77.00449
#
# Poissons Ratio (x) = 0.38946 0.19476
# Poissons Ratio (y) = 0.31803 0.35322
# Poissons Ratio (z) = 0.09955 0.22111
#
# Static dielectric constant tensor:
#      x y z
#    x 4.848170 0.000000 1.377610 
#    y 0.000000 3.292970 0.000000 
#    z 1.377610 0.000000 4.745420 
# 
# 
# High freq. dielectric constant tensor:
#      x y z
#    x 1.695160 0.000000 -0.010480 
#    y 0.000000 1.706580 0.000000 
#    z -0.010480 0.000000 1.722580 
# 
# From -- ./inp_files/324320.got.cif
#   From: 2010.06.25/outbox.cif.g09.slc.cpg/sg12_163_cif.got.tgz:324320.got - 2010.06.28 00:19:55.
