data_PCOD8086857
_publ_section_title
;
Structure prediction by ZEFSAII (Michael W. Deem and Ramdas Pophale) SiO2 
 PCOD8086857
Probable space group: C 2/M
;
_chemical_formula_sum "Si O2"
_cell_formula_units_Z 56
_cell_length_a 19.068840
_cell_length_b 8.784754
_cell_length_c 28.389737
_cell_angle_alpha 90.000000
_cell_angle_beta 38.809398
_cell_angle_gamma 90.000000
_cell_volume 2980.553111
_symmetry_space_group_name_H-M "C 2/M"
_symmetry_group_IT_number 12
_symmetry_cell_setting 'monoclinic'
loop_
_space_group_symop_operation_xyz
x,y,z
-x,y,-z
-x,-y,-z
x,-y,z
1/2+x,1/2+y,z
1/2-x,1/2+y,-z
1/2-x,1/2-y,-z
1/2+x,1/2-y,z
loop_
_atom_site_type_symbol
_atom_site_label
_atom_site_fract_x
_atom_site_fract_y
_atom_site_fract_z
Si Si1 0.097835 0.676121 0.546573
Si Si2 0.405918 0.675551 0.085461
Si Si3 0.809288 0.323595 0.398885
Si Si4 0.373857 0.177050 0.200237
Si Si5 0.029937 0.821233 0.759907
Si Si6 0.154460 0.324256 0.200683
Si Si7 0.120874 0.177240 0.316977
O O1 0.106256 0.500000 0.529185
O O2 0.128556 0.708251 0.584669
O O3 0.181540 0.767149 0.468741
O O4 0.972082 0.735702 0.603355
O O5 0.423587 0.500000 0.090789
O O6 0.415390 0.778751 0.126619
O O7 0.286255 0.697931 0.122748
O O8 0.500000 0.731372 0.000000
O O9 0.810430 0.500000 0.384489
O O10 0.870709 0.231134 0.326126
O O11 0.441559 0.277098 0.201756
O O12 0.242207 0.213922 0.275020
O O13 0.398042 0.000000 0.196083
O O14 0.912860 0.739782 0.808654
O O15 0.013622 0.000000 0.764432
O O16 0.123082 0.500000 0.225365
O O17 0.113844 0.232562 0.267207
O O18 0.093341 0.000000 0.332239
#
# Coordination Sequence:
#
# PCOD8086857 Si02
#       7
#     8   8   8   8   8   8   8
#     4  10  19  31  51  78 108 143 184 231 277 322
#     4   9  19  38  63  89 115 143 178 220 267 322
#     4  10  20  33  51  76 109 145 182 230 280 323
#     4  10  22  38  57  82 113 147 183 224 274 327
#     4  12  23  36  55  80 112 147 186 229 274 326
#     4  10  19  33  56  83 111 144 181 222 268 322
#     4  10  19  33  54  79 107 142 185 231 273 323
#
# _framework density 18.788460000000001
#
# number of rings (size 3 to 8) (size 9 to 14) (size 15 to 20)
#    0.000    1.857    1.429    3.429    0.000    3.714 
#    0.000    1.429    0.000    4.286    0.000    0.000 
#    0.000    0.000    0.000    0.000    0.000    0.000 
#
# Total GULP energy -347318.035860 kJ/mol
# GULP energy per Si atom -12404.215566 kJ/mol
# Density = 1.874570 g / cm^3
# Si number density = 18.788460 Si / 1000 Ang^3
#
#
#
# Elastic Constant Matrix: (Units=GPa)
#
#
# Indices 1 2 3 4 5 6 
#
# 1 85.8662 20.8811 26.0984 -0.0001 -4.1518 0.0036
# 2 20.8811 33.2177 8.3665 -0.0006 0.9223 0.0113
# 3 26.0984 8.3665 90.5866 0.0000 -13.0962 0.0001
# 4 -0.0001 -0.0006 0.0000 28.9670 -0.0003 0.4564
# 5 -4.1518 0.9223 -13.0962 -0.0003 19.9138 0.0001
# 6 0.0036 0.0113 0.0001 0.4564 0.0001 28.6900
#
#
#
# Elastic Compliance Matrix: (Units=1/GPa)
#
#
# Indices 1 2 3 4 5 6 
#
# 1 0.014773 -0.008497 -0.003281 0.000000 0.001316 0.000001
# 2 -0.008497 0.035950 -0.001513 0.000001 -0.004431 -0.000013
# 3 -0.003281 -0.001513 0.013300 0.000000 0.008133 0.000001
# 4 0.000000 0.000001 0.000000 0.034531 0.000001 -0.000549
# 5 0.001316 -0.004431 0.008133 0.000001 0.056044 0.000001
# 6 0.000001 -0.000013 0.000001 -0.000549 0.000001 0.034864
#
#
# Mechanical properties :
#
#
# Convention : Reuss Voigt Hill
#
# Bulk Modulus (GPa) = 26.70874 35.59583 31.15228
# Shear Modulus (GPa) = 21.87952 25.80247 23.84099
#
# Velocity S-wave (km/s) = 3.41621 3.70985 3.56605
# Velocity P-wave (km/s) = 5.45958 6.11043 5.79415
#
# Compressibility (1/GPa) = 0.03744092
#
# Stress axis : x y z
#
# Youngs Moduli (GPa) = 67.69010 27.81665 75.18800
#
# Poissons Ratio (x) = 0.23635 0.24671
# Poissons Ratio (y) = 0.57514 0.11376
# Poissons Ratio (z) = 0.22211 0.04209
#
# Static dielectric constant tensor:
#      x y z
#    x 3.351660 0.000000 -0.229450 
#    y 0.000000 3.520140 0.000000 
#    z -0.229450 0.000000 3.417460 
# 
# 
# High freq. dielectric constant tensor:
#      x y z
#    x 1.713990 0.000000 -0.016960 
#    y 0.000000 1.743200 0.000000 
#    z -0.016960 0.000000 1.720340 
# 
# From -- ./inp_files/342556.got.cif
#   From: 2010.06.25/outbox.cif.g09.slc.cpg/sg12_172_cif.got.tgz:342556.got - 2010.06.28 00:19:55.
