data_PCOD8086412
_publ_section_title
;
Structure prediction by ZEFSAII (Michael W. Deem and Ramdas Pophale) SiO2 
 PCOD8086412
Probable space group: C 2/M
;
_chemical_formula_sum "Si O2"
_cell_formula_units_Z 56
_cell_length_a 18.743509
_cell_length_b 9.103302
_cell_length_c 27.622767
_cell_angle_alpha 90.000000
_cell_angle_beta 142.820291
_cell_angle_gamma 90.000000
_cell_volume 2848.274450
_symmetry_space_group_name_H-M "C 2/M"
_symmetry_group_IT_number 12
_symmetry_cell_setting 'monoclinic'
loop_
_space_group_symop_operation_xyz
x,y,z
-x,y,-z
-x,-y,-z
x,-y,z
1/2+x,1/2+y,z
1/2-x,1/2+y,-z
1/2-x,1/2-y,-z
1/2+x,1/2-y,z
loop_
_atom_site_type_symbol
_atom_site_label
_atom_site_fract_x
_atom_site_fract_y
_atom_site_fract_z
Si Si1 0.402463 0.663896 0.905743
Si Si2 0.531858 0.165363 0.810315
Si Si3 0.317163 0.823490 0.490995
Si Si4 0.265873 0.827060 0.651000
Si Si5 0.266269 0.328983 0.122280
Si Si6 0.462399 0.664142 0.424037
Si Si7 0.075012 0.665674 0.941618
O O1 0.361665 0.500000 0.871547
O O2 0.288159 0.755252 0.859548
O O3 0.461033 0.734720 0.890312
O O4 0.500000 0.669282 0.000000
O O5 0.395674 0.211572 0.740594
O O6 0.600431 0.271513 0.810850
O O7 0.598410 0.178835 0.897540
O O8 0.542233 0.000000 0.796013
O O9 0.250000 0.750000 0.500000
O O10 0.255116 0.768782 0.408388
O O11 0.455492 0.772261 0.563720
O O12 0.311890 0.000000 0.492314
O O13 0.175600 0.786008 0.646453
O O14 0.251254 0.000000 0.629955
O O15 0.270308 0.500000 0.133461
O O16 0.190680 0.284010 0.033805
O O17 0.500000 0.664122 0.500000
O O18 0.474153 0.500000 0.408262
O O19 0.042809 0.500000 0.939727
#
# Coordination Sequence:
#
# PCOD8086412 Si02
#       7
#     8   8   8   8   8   8   8
#     4   9  17  30  49  70  92 123 166 215 263 309
#     4  10  20  34  52  74 103 137 171 211 259 308
#     4  11  21  34  56  83 108 135 170 209 248 296
#     4   9  19  36  55  76 105 138 169 206 256 308
#     4  10  19  31  49  73 102 136 175 218 262 308
#     4   8  15  31  54  77 102 132 164 199 244 297
#     4   9  18  32  50  73 100 133 174 218 263 311
#
# _framework density 19.661027000000001
#
# number of rings (size 3 to 8) (size 9 to 14) (size 15 to 20)
#    0.000    2.571    0.000    3.429    0.000    6.000 
#    0.000    1.429    0.000    5.143    0.000    0.000 
#    0.000    0.000    0.000    0.000    0.000    0.000 
#
# Total GULP energy -347040.575741 kJ/mol
# GULP energy per Si atom -12394.306276 kJ/mol
# Density = 1.961628 g / cm^3
# Si number density = 19.661027 Si / 1000 Ang^3
#
#
#
# Elastic Constant Matrix: (Units=GPa)
#
#
# Indices 1 2 3 4 5 6 
#
# 1 126.1303 74.1973 27.4584 0.0000 35.2437 0.0000
# 2 74.1973 121.9783 26.0685 0.0001 20.0929 -0.0001
# 3 27.4584 26.0685 41.4123 0.0000 23.0165 0.0000
# 4 0.0000 0.0001 0.0000 18.9525 0.0000 6.1134
# 5 35.2437 20.0929 23.0165 0.0000 33.4369 0.0000
# 6 0.0000 -0.0001 0.0000 6.1134 0.0000 40.0284
#
#
#
# Elastic Compliance Matrix: (Units=1/GPa)
#
#
# Indices 1 2 3 4 5 6 
#
# 1 0.015847 -0.007842 0.001771 0.000000 -0.013210 0.000000
# 2 -0.007842 0.013492 -0.005476 0.000000 0.003928 0.000000
# 3 0.001771 -0.005476 0.041510 0.000000 -0.027149 0.000000
# 4 0.000000 0.000000 0.000000 0.055498 0.000000 -0.008476
# 5 -0.013210 0.003928 -0.027149 0.000000 0.060159 0.000000
# 6 0.000000 0.000000 0.000000 -0.008476 0.000000 0.026277
#
#
# Mechanical properties :
#
#
# Convention : Reuss Voigt Hill
#
# Bulk Modulus (GPa) = 20.94065 60.55214 40.74640
# Shear Modulus (GPa) = 19.85747 29.27000 24.56374
#
# Velocity S-wave (km/s) = 3.18148 3.86259 3.53847
# Velocity P-wave (km/s) = 4.91627 7.12445 6.12076
#
# Compressibility (1/GPa) = 0.04775401
#
# Stress axis : x y z
#
# Youngs Moduli (GPa) = 63.10324 74.12002 24.09073
#
# Poissons Ratio (x) = 0.58124 -0.04267
# Poissons Ratio (y) = 0.49485 0.13193
# Poissons Ratio (z) = -0.11176 0.40591
#
# Static dielectric constant tensor:
#      x y z
#    x 3.713760 0.000000 0.377600 
#    y 0.000000 3.584070 0.000000 
#    z 0.377600 0.000000 3.404110 
# 
# 
# High freq. dielectric constant tensor:
#      x y z
#    x 1.770490 0.000000 0.024630 
#    y 0.000000 1.763110 0.000000 
#    z 0.024630 0.000000 1.729330 
# 
# From -- ./inp_files/363186.got.cif
#   From: 2010.06.25/outbox.cif.g09.slc.cpg/sg12_182_cif.got.tgz:363186.got - 2010.06.28 00:19:55.
