data_PCOD8086071
_publ_section_title
;
Structure prediction by ZEFSAII (Michael W. Deem and Ramdas Pophale) SiO2 
 PCOD8086071
Probable space group: C 2/M
;
_chemical_formula_sum "Si O2"
_cell_formula_units_Z 48
_cell_length_a 22.811265
_cell_length_b 8.896152
_cell_length_c 19.626054
_cell_angle_alpha 90.000000
_cell_angle_beta 43.874705
_cell_angle_gamma 90.000000
_cell_volume 2760.388494
_symmetry_space_group_name_H-M "C 2/M"
_symmetry_group_IT_number 12
_symmetry_cell_setting 'monoclinic'
loop_
_space_group_symop_operation_xyz
x,y,z
-x,y,-z
-x,-y,-z
x,-y,z
1/2+x,1/2+y,z
1/2-x,1/2+y,-z
1/2-x,1/2-y,-z
1/2+x,1/2-y,z
loop_
_atom_site_type_symbol
_atom_site_label
_atom_site_fract_x
_atom_site_fract_y
_atom_site_fract_z
Si Si1 0.121986 0.321266 0.354026
Si Si2 0.910185 0.826352 0.217347
Si Si3 0.694042 0.674169 0.831964
Si Si4 0.947183 0.321606 0.446151
Si Si5 0.052868 0.331023 0.024603
Si Si6 0.839760 0.678489 0.409798
O O1 0.127860 0.500000 0.352158
O O2 0.210964 0.258624 0.251350
O O3 0.104808 0.260104 0.444909
O O4 0.045240 0.268476 0.369079
O O5 0.848794 0.800994 0.205141
O O6 0.873184 0.728709 0.309062
O O7 0.004563 0.768642 0.121233
O O8 0.914785 0.000000 0.234800
O O9 0.692787 0.500000 0.853271
O O10 0.645167 0.762509 0.932487
O O11 0.944585 0.500000 0.449942
O O12 0.905233 0.261053 0.412173
O O13 0.063059 0.500000 0.044036
O O14 0.000000 0.328300 0.000000
O O15 0.831100 0.500000 0.419261
O O16 0.750000 0.750000 0.500000
#
# Coordination Sequence:
#
# PCOD8086071 Si02
#       6
#     8   8   8   8   8   8
#     4   8  13  25  46  69  91 116 150 192 231 267
#     4  10  19  31  47  69  96 124 153 187 228 273
#     4   9  16  27  47  72  94 118 152 192 232 274
#     4   8  15  27  44  67  93 120 152 189 227 268
#     4   9  17  29  45  67  95 124 152 186 230 275
#     4  11  21  32  47  69  96 125 155 186 224 272
#
# _framework density 17.388857999999999
#
# number of rings (size 3 to 8) (size 9 to 14) (size 15 to 20)
#    0.000    2.833    0.000    3.500    0.000    5.333 
#    0.000    0.000    0.000    3.000    0.000    7.000 
#    0.000    0.000    0.000    0.000    0.000    0.000 
#
# Total GULP energy -297511.737386 kJ/mol
# GULP energy per Si atom -12396.322391 kJ/mol
# Density = 1.734928 g / cm^3
# Si number density = 17.388858 Si / 1000 Ang^3
#
#
#
# Elastic Constant Matrix: (Units=GPa)
#
#
# Indices 1 2 3 4 5 6 
#
# 1 77.0369 33.0557 53.0720 0.0018 -19.4297 -0.0012
# 2 33.0557 57.9379 37.5612 0.0067 -5.1287 -0.0082
# 3 53.0720 37.5612 134.9177 0.0008 -30.7952 -0.0013
# 4 0.0018 0.0067 0.0008 30.3742 -0.0016 -0.5687
# 5 -19.4297 -5.1287 -30.7952 -0.0016 31.4544 0.0016
# 6 -0.0012 -0.0082 -0.0013 -0.5687 0.0016 13.1675
#
#
#
# Elastic Compliance Matrix: (Units=1/GPa)
#
#
# Indices 1 2 3 4 5 6 
#
# 1 0.021724 -0.008927 -0.004287 0.000001 0.007766 -0.000005
# 2 -0.008927 0.024947 -0.004847 -0.000005 -0.006192 0.000015
# 3 -0.004287 -0.004847 0.012444 0.000001 0.008744 -0.000003
# 4 0.000001 -0.000005 0.000001 0.032949 0.000003 0.001423
# 5 0.007766 -0.006192 0.008744 0.000003 0.044140 -0.000008
# 6 -0.000005 0.000015 -0.000003 0.001423 -0.000008 0.076006
#
#
# Mechanical properties :
#
#
# Convention : Reuss Voigt Hill
#
# Bulk Modulus (GPa) = 43.49459 57.47446 50.48453
# Shear Modulus (GPa) = 19.53142 24.74614 22.13878
#
# Velocity S-wave (km/s) = 3.35508 3.77650 3.57201
# Velocity P-wave (km/s) = 6.33055 7.22081 6.79029
#
# Compressibility (1/GPa) = 0.02299137
#
# Stress axis : x y z
#
# Youngs Moduli (GPa) = 46.03277 40.08433 80.36128
#
# Poissons Ratio (x) = 0.35784 0.34455
# Poissons Ratio (y) = 0.41094 0.38952
# Poissons Ratio (z) = 0.19736 0.19429
#
# Static dielectric constant tensor:
#      x y z
#    x 3.287600 0.000000 -0.204860 
#    y 0.000000 3.042660 0.000000 
#    z -0.204860 0.000000 3.499540 
# 
# 
# High freq. dielectric constant tensor:
#      x y z
#    x 1.646620 0.000000 -0.017460 
#    y 0.000000 1.647740 0.000000 
#    z -0.017460 0.000000 1.678980 
# 
# From -- ./inp_files/280802.got.cif
#   From: 2010.06.25/outbox.cif.g09.slc.cpg/sg12_141_cif.got.tgz:280802.got - 2010.06.28 00:19:55.
