data_PCOD8086865
_publ_section_title
;
Structure prediction by ZEFSAII (Michael W. Deem and Ramdas Pophale) SiO2 
 PCOD8086865
Probable space group: C 2/M
;
_chemical_formula_sum "Si O2"
_cell_formula_units_Z 48
_cell_length_a 5.239990
_cell_length_b 15.381969
_cell_length_c 28.679585
_cell_angle_alpha 90.000000
_cell_angle_beta 106.215781
_cell_angle_gamma 90.000000
_cell_volume 2219.650289
_symmetry_space_group_name_H-M "C 2/M"
_symmetry_group_IT_number 12
_symmetry_cell_setting 'monoclinic'
loop_
_space_group_symop_operation_xyz
x,y,z
-x,y,-z
-x,-y,-z
x,-y,z
1/2+x,1/2+y,z
1/2-x,1/2+y,-z
1/2-x,1/2-y,-z
1/2+x,1/2-y,z
loop_
_atom_site_type_symbol
_atom_site_label
_atom_site_fract_x
_atom_site_fract_y
_atom_site_fract_z
Si Si1 0.218005 0.347196 0.479068
Si Si2 0.447556 0.896551 0.629603
Si Si3 0.465374 0.603018 0.313422
Si Si4 0.788657 0.898045 0.849208
Si Si5 0.207297 0.895921 0.795990
Si Si6 0.111638 0.804909 0.053666
O O1 0.500000 0.396301 0.500000
O O2 0.250000 0.250000 0.500000
O O3 0.000000 0.396300 0.500000
O O4 0.129509 0.346731 0.421209
O O5 0.244021 0.864496 0.658805
O O6 0.740021 0.864500 0.659027
O O7 0.434657 0.000000 0.621042
O O8 0.461629 0.500000 0.311099
O O9 0.381641 0.640288 0.258867
O O10 0.499514 0.858553 0.822523
O O11 0.872462 0.878404 0.906321
O O12 0.004275 0.858564 0.824365
O O13 0.778564 0.000000 0.841931
O O14 0.208389 0.000000 0.796610
O O15 0.408182 0.769452 0.060098
O O16 0.000000 0.846995 0.000000
#
# Coordination Sequence:
#
# PCOD8086865 Si02
#       6
#     8   8   8   8   8   8
#     4  10  21  36  52  73  95 132 172 201 250 309
#     4  10  19  31  51  79 105 130 166 211 257 300
#     4   9  17  30  49  78 110 135 163 208 260 312
#     4  10  19  32  54  84 110 143 184 228 274 322
#     4   9  17  30  50  80 113 138 172 215 268 329
#     4  10  21  37  55  78 107 150 193 228 279 332
#
# _framework density 21.625031
#
# number of rings (size 3 to 8) (size 9 to 14) (size 15 to 20)
#    0.000    2.333    0.000    3.000    0.000    5.000 
#    0.000    0.000    0.000    6.000   86.667    0.000 
#    0.000    0.000    0.000    0.000    0.000    0.000 
#
# Total GULP energy -297573.313903 kJ/mol
# GULP energy per Si atom -12398.888079 kJ/mol
# Density = 2.157581 g / cm^3
# Si number density = 21.625031 Si / 1000 Ang^3
#
#
#
# Elastic Constant Matrix: (Units=GPa)
#
#
# Indices 1 2 3 4 5 6 
#
# 1 223.6084 8.7121 99.5427 0.0000 -5.5948 0.0000
# 2 8.7121 14.8254 20.7132 0.0000 0.3338 0.0000
# 3 99.5427 20.7132 219.0331 0.0000 -6.6388 0.0000
# 4 0.0000 0.0000 0.0000 25.8634 0.0000 -1.6688
# 5 -5.5948 0.3338 -6.6388 0.0000 44.6895 0.0000
# 6 0.0000 0.0000 0.0000 -1.6688 0.0000 3.3378
#
#
#
# Elastic Compliance Matrix: (Units=1/GPa)
#
#
# Indices 1 2 3 4 5 6 
#
# 1 0.005612 0.000282 -0.002567 0.000000 0.000319 0.000000
# 2 0.000282 0.077860 -0.007542 0.000000 -0.001667 0.000000
# 3 -0.002567 -0.007542 0.006467 0.000000 0.000696 0.000000
# 4 0.000000 0.000000 0.000000 0.039954 0.000000 0.019976
# 5 0.000319 -0.001667 0.000696 0.000000 0.022532 0.000000
# 6 0.000000 0.000000 0.000000 0.019976 0.000000 0.309588
#
#
# Mechanical properties :
#
#
# Convention : Reuss Voigt Hill
#
# Bulk Modulus (GPa) = 14.22783 79.48919 46.85851
# Shear Modulus (GPa) = 9.89913 36.67807 23.28860
#
# Velocity S-wave (km/s) = 2.14186 4.12283 3.28522
# Velocity P-wave (km/s) = 3.56516 7.71372 6.00882
#
# Compressibility (1/GPa) = 0.07028478
#
# Stress axis : x y z
#
# Youngs Moduli (GPa) = 178.18803 12.84351 154.64045
#
# Poissons Ratio (x) = -0.00362 0.39704
# Poissons Ratio (y) = -0.05026 1.16625
# Poissons Ratio (z) = 0.45749 0.09686
#
# Static dielectric constant tensor:
#      x y z
#    x -162.855130 0.000000 2.968420 
#    y 0.000000 3.118070 0.000000 
#    z 2.968420 0.000000 3.989450 
# 
# 
# High freq. dielectric constant tensor:
#      x y z
#    x 1.878450 0.000000 -0.001580 
#    y 0.000000 1.793650 0.000000 
#    z -0.001580 0.000000 1.864110 
# 
# From -- ./inp_files/331051.got.cif
#   From: 2010.06.25/outbox.cif.g09.slc.cpg/sg12_166_cif.got.tgz:331051.got - 2010.06.28 00:19:55.
