data_PCOD8086224
_publ_section_title
;
Structure prediction by ZEFSAII (Michael W. Deem and Ramdas Pophale) SiO2 
 PCOD8086224
Probable space group: C 2/M
;
_chemical_formula_sum "Si O2"
_cell_formula_units_Z 56
_cell_length_a 16.959543
_cell_length_b 14.036788
_cell_length_c 18.497866
_cell_angle_alpha 90.000000
_cell_angle_beta 132.677663
_cell_angle_gamma 90.000000
_cell_volume 3237.401493
_symmetry_space_group_name_H-M "C 2/M"
_symmetry_group_IT_number 12
_symmetry_cell_setting 'monoclinic'
loop_
_space_group_symop_operation_xyz
x,y,z
-x,y,-z
-x,-y,-z
x,-y,z
1/2+x,1/2+y,z
1/2-x,1/2+y,-z
1/2-x,1/2-y,-z
1/2+x,1/2-y,z
loop_
_atom_site_type_symbol
_atom_site_label
_atom_site_fract_x
_atom_site_fract_y
_atom_site_fract_z
Si Si1 0.223853 0.605116 0.515308
Si Si2 0.237633 0.890228 0.860607
Si Si3 0.615235 0.109503 0.916784
Si Si4 0.983889 0.605597 0.410516
Si Si5 0.926467 0.272908 0.246866
Si Si6 0.123056 0.609308 0.190676
Si Si7 0.828300 0.727734 0.644845
O O1 0.277517 0.500000 0.547333
O O2 0.242905 0.660038 0.451642
O O3 0.274882 0.667165 0.612341
O O4 0.097832 0.593611 0.444286
O O5 0.131788 0.828308 0.781269
O O6 0.328829 0.869459 0.857810
O O7 0.201540 0.000000 0.835279
O O8 0.288279 0.864104 0.969542
O O9 0.629166 0.168960 0.852311
O O10 0.503757 0.130249 0.888986
O O11 0.620363 0.000000 0.896457
O O12 0.930588 0.500000 0.385211
O O13 0.911115 0.671430 0.313492
O O14 0.000000 0.652084 0.500000
O O15 0.050762 0.257884 0.307189
O O16 0.144704 0.500000 0.228062
O O17 0.179507 0.681014 0.281509
#
# Coordination Sequence:
#
# PCOD8086224 Si02
#       7
#     8   8   8   8   8   8   8
#     4   9  17  30  47  66  90 120 158 195 229 271
#     4  10  20  31  47  72 100 128 155 191 237 283
#     4   9  17  32  52  72  93 121 161 200 236 276
#     4   9  18  31  48  70  92 117 152 197 240 271
#     4  10  19  31  48  71  97 125 154 192 235 284
#     4   9  17  30  49  70  94 121 156 197 235 274
#     4   9  18  30  47  69  90 125 159 190 230 279
#
# _framework density 17.297823999999999
#
# number of rings (size 3 to 8) (size 9 to 14) (size 15 to 20)
#    0.000    2.714    0.000    1.714    2.000    5.714 
#    0.000    0.000    0.000    0.429    0.000    0.000 
#    0.000   11.429    0.000    0.000    0.000    0.000 
#
# Total GULP energy -347110.260812 kJ/mol
# GULP energy per Si atom -12396.795029 kJ/mol
# Density = 1.725845 g / cm^3
# Si number density = 17.297824 Si / 1000 Ang^3
#
#
#
# Elastic Constant Matrix: (Units=GPa)
#
#
# Indices 1 2 3 4 5 6 
#
# 1 42.5317 27.7565 24.1051 0.0000 -15.3778 0.0000
# 2 27.7565 116.3379 63.6818 0.0000 -7.8171 0.0000
# 3 24.1051 63.6818 94.8622 0.0000 -17.4296 0.0000
# 4 0.0000 0.0000 0.0000 29.4628 0.0000 1.3894
# 5 -15.3778 -7.8171 -17.4296 0.0000 24.4902 0.0000
# 6 0.0000 0.0000 0.0000 1.3894 0.0000 22.2837
#
#
#
# Elastic Compliance Matrix: (Units=1/GPa)
#
#
# Indices 1 2 3 4 5 6 
#
# 1 0.035401 -0.006593 -0.001004 0.000000 0.019410 0.000000
# 2 -0.006593 0.014949 -0.009484 0.000000 -0.006118 0.000000
# 3 -0.001004 -0.009484 0.018972 0.000000 0.009845 0.000000
# 4 0.000000 0.000000 0.000000 0.034041 0.000000 -0.002123
# 5 0.019410 -0.006118 0.009845 0.000000 0.058075 0.000000
# 6 0.000000 0.000000 0.000000 -0.002123 0.000000 0.045008
#
#
# Mechanical properties :
#
#
# Convention : Reuss Voigt Hill
#
# Bulk Modulus (GPa) = 28.44008 53.86873 41.15441
# Shear Modulus (GPa) = 19.81546 24.45989 22.13767
#
# Velocity S-wave (km/s) = 3.38826 3.76446 3.58130
# Velocity P-wave (km/s) = 5.63775 7.07844 6.39877
#
# Compressibility (1/GPa) = 0.03516164
#
# Stress axis : x y z
#
# Youngs Moduli (GPa) = 28.24768 66.89396 52.70813
#
# Poissons Ratio (x) = 0.44100 0.05290
# Poissons Ratio (y) = 0.18622 0.49990
# Poissons Ratio (z) = 0.02835 0.63444
#
# Static dielectric constant tensor:
#      x y z
#    x 2.955180 0.000000 -0.142610 
#    y 0.000000 3.347890 0.000000 
#    z -0.142610 0.000000 3.233490 
# 
# 
# High freq. dielectric constant tensor:
#      x y z
#    x 1.644700 0.000000 -0.014920 
#    y 0.000000 1.666240 0.000000 
#    z -0.014920 0.000000 1.665570 
# 
# From -- ./inp_files/155954.got.cif
#   From: 2010.06.25/outbox.cif.g09.slc.cpg/sg12_78_cif.got.tgz:155954.got - 2010.06.28 00:19:55.
