data_PCOD8086278
_publ_section_title
;
Structure prediction by ZEFSAII (Michael W. Deem and Ramdas Pophale) SiO2 
 PCOD8086278
Probable space group: C 2/M
;
_chemical_formula_sum "Si O2"
_cell_formula_units_Z 64
_cell_length_a 24.997837
_cell_length_b 8.616351
_cell_length_c 23.545633
_cell_angle_alpha 90.000000
_cell_angle_beta 46.289743
_cell_angle_gamma 90.000000
_cell_volume 3665.898506
_symmetry_space_group_name_H-M "C 2/M"
_symmetry_group_IT_number 12
_symmetry_cell_setting 'monoclinic'
loop_
_space_group_symop_operation_xyz
x,y,z
-x,y,-z
-x,-y,-z
x,-y,z
1/2+x,1/2+y,z
1/2-x,1/2+y,-z
1/2-x,1/2-y,-z
1/2+x,1/2-y,z
loop_
_atom_site_type_symbol
_atom_site_label
_atom_site_fract_x
_atom_site_fract_y
_atom_site_fract_z
Si Si1 0.582541 0.317467 0.581545
Si Si2 0.307366 0.316985 0.692495
Si Si3 0.113157 0.317379 0.677388
Si Si4 0.833139 0.182006 0.152764
Si Si5 0.725100 0.683546 0.409246
Si Si6 0.553655 0.318829 0.832352
Si Si7 0.941771 0.325461 0.992214
Si Si8 0.964799 0.318033 0.585203
O O1 0.570490 0.500000 0.580905
O O2 0.578484 0.275142 0.650416
O O3 0.661621 0.261142 0.499010
O O4 0.519026 0.223276 0.596481
O O5 0.296380 0.500000 0.702674
O O6 0.250296 0.239426 0.777955
O O7 0.292552 0.249257 0.640242
O O8 0.389313 0.273381 0.651729
O O9 0.112492 0.500000 0.665260
O O10 0.196270 0.252776 0.626689
O O11 0.063369 0.280627 0.768424
O O12 0.881749 0.232607 0.171580
O O13 0.835910 0.000000 0.142306
O O14 0.864577 0.257367 0.071876
O O15 0.728124 0.500000 0.403195
O O16 0.557467 0.500000 0.815368
O O17 0.473392 0.277604 0.917324
O O18 0.929066 0.500000 0.979779
O O19 0.000000 0.319076 0.000000
O O20 0.948318 0.500000 0.596239
O O21 0.000000 0.261486 0.500000
#
# Coordination Sequence:
#
# PCOD8086278 Si02
#       8
#     8   8   8   8   8   8   8   8
#     4  11  22  38  55  75 101 138 181 222 266 315
#     4  11  20  34  55  78 103 138 179 218 263 316
#     4  11  21  35  52  76 107 141 178 219 261 313
#     4  10  19  31  48  75 108 138 172 216 261 311
#     4   9  19  33  52  75 103 137 175 215 262 313
#     4  10  19  31  48  73 105 141 175 212 259 312
#     4   9  17  29  47  71 101 139 175 210 255 312
#     4  11  23  38  55  77 102 133 175 224 272 315
#
# _framework density 17.458203999999999
#
# number of rings (size 3 to 8) (size 9 to 14) (size 15 to 20)
#    0.000    1.750    2.500    3.000    0.000    3.000 
#    0.000    1.875    0.000    0.000    0.000    0.875 
#    0.000    0.000    0.000    0.000    0.000    0.000 
#
# Total GULP energy -396936.052946 kJ/mol
# GULP energy per Si atom -12404.251655 kJ/mol
# Density = 1.741847 g / cm^3
# Si number density = 17.458204 Si / 1000 Ang^3
#
#
#
# Elastic Constant Matrix: (Units=GPa)
#
#
# Indices 1 2 3 4 5 6 
#
# 1 72.5982 4.9873 33.2459 -0.0024 1.6238 -0.0003
# 2 4.9873 41.5825 13.4889 -0.0121 -0.7768 0.0019
# 3 33.2459 13.4889 112.2824 -0.0033 -11.5259 0.0021
# 4 -0.0024 -0.0121 -0.0033 30.6004 0.0031 -0.5522
# 5 1.6238 -0.7768 -11.5259 0.0031 18.4738 -0.0010
# 6 -0.0003 0.0019 0.0021 -0.5522 -0.0010 21.7937
#
#
#
# Elastic Compliance Matrix: (Units=1/GPa)
#
#
# Indices 1 2 3 4 5 6 
#
# 1 0.016321 -0.000334 -0.005279 0.000001 -0.004742 0.000001
# 2 -0.000334 0.025044 -0.002990 0.000010 -0.000783 -0.000002
# 3 -0.005279 -0.002990 0.011607 -0.000001 0.007580 -0.000001
# 4 0.000001 0.000010 -0.000001 0.032694 -0.000006 0.000828
# 5 -0.004742 -0.000783 0.007580 -0.000006 0.059244 0.000002
# 6 0.000001 -0.000002 -0.000001 0.000828 0.000002 0.045906
#
#
# Mechanical properties :
#
#
# Convention : Reuss Voigt Hill
#
# Bulk Modulus (GPa) = 27.96000 36.65636 32.30818
# Shear Modulus (GPa) = 22.73313 25.82298 24.27805
#
# Velocity S-wave (km/s) = 3.61244 3.85012 3.73317
# Velocity P-wave (km/s) = 5.78358 6.38802 6.09330
#
# Compressibility (1/GPa) = 0.03576538
#
# Stress axis : x y z
#
# Youngs Moduli (GPa) = 61.27062 39.92982 86.15815
#
# Poissons Ratio (x) = 0.01332 0.45485
# Poissons Ratio (y) = 0.02044 0.25763
# Poissons Ratio (z) = 0.32346 0.11940
#
# Static dielectric constant tensor:
#      x y z
#    x 2.961110 -0.000010 -0.080240 
#    y -0.000010 3.177640 0.000010 
#    z -0.080240 0.000010 3.346530 
# 
# 
# High freq. dielectric constant tensor:
#      x y z
#    x 1.635160 0.000000 -0.007470 
#    y 0.000000 1.679750 0.000000 
#    z -0.007470 0.000000 1.680600 
# 
# From -- ./inp_files/324106.got.cif
#   From: 2010.06.25/outbox.cif.g09.slc.cpg/sg12_163_cif.got.tgz:324106.got - 2010.06.28 00:19:55.
