data_PCOD8086339
_publ_section_title
;
Structure prediction by ZEFSAII (Michael W. Deem and Ramdas Pophale) SiO2 
 PCOD8086339
Probable space group: C 2/M
;
_chemical_formula_sum "Si O2"
_cell_formula_units_Z 56
_cell_length_a 27.563355
_cell_length_b 8.996979
_cell_length_c 13.784841
_cell_angle_alpha 90.000000
_cell_angle_beta 60.026763
_cell_angle_gamma 90.000000
_cell_volume 2961.271564
_symmetry_space_group_name_H-M "C 2/M"
_symmetry_group_IT_number 12
_symmetry_cell_setting 'monoclinic'
loop_
_space_group_symop_operation_xyz
x,y,z
-x,y,-z
-x,-y,-z
x,-y,z
1/2+x,1/2+y,z
1/2-x,1/2+y,-z
1/2-x,1/2-y,-z
1/2+x,1/2-y,z
loop_
_atom_site_type_symbol
_atom_site_label
_atom_site_fract_x
_atom_site_fract_y
_atom_site_fract_z
Si Si1 0.157240 0.676643 0.236318
Si Si2 0.012376 0.322587 0.095293
Si Si3 0.704499 0.824838 0.612814
Si Si4 0.729835 0.175225 0.807150
Si Si5 0.868086 0.676564 0.954022
Si Si6 0.059740 0.323021 0.475283
Si Si7 0.583653 0.177008 0.666329
O O1 0.161780 0.500000 0.234248
O O2 0.214366 0.743101 0.217645
O O3 0.107200 0.734436 0.354555
O O4 0.145425 0.735869 0.139923
O O5 0.012697 0.500000 0.095494
O O6 0.964545 0.260871 0.214789
O O7 0.072155 0.259607 0.071013
O O8 0.000000 0.262348 0.000000
O O9 0.750000 0.750000 0.500000
O O10 0.715084 0.778995 0.712765
O O11 0.643466 0.764603 0.643706
O O12 0.708393 0.000000 0.593947
O O13 0.679687 0.233275 0.925296
O O14 0.738498 0.000000 0.809580
O O15 0.870696 0.500000 0.951704
O O16 0.058329 0.500000 0.477889
O O17 0.072860 0.260857 0.569226
O O18 0.000000 0.259827 0.500000
O O19 0.582438 0.000000 0.668064
#
# Coordination Sequence:
#
# PCOD8086339 Si02
#       7
#     8   8   8   8   8   8   8
#     4  10  19  31  49  71  95 125 161 197 232 277
#     4   9  15  24  41  65  93 123 153 189 237 287
#     4  10  20  33  49  70  96 126 158 193 234 279
#     4  10  20  33  48  68  97 128 157 193 236 279
#     4   9  17  29  45  68  97 126 157 194 236 281
#     4   9  16  26  42  66  93 117 145 188 237 275
#     4   9  16  26  41  63  91 119 149 188 232 276
#
# _framework density 18.910795
#
# number of rings (size 3 to 8) (size 9 to 14) (size 15 to 20)
#    0.000    2.571    0.000    3.000    0.000    8.571 
#    0.000    0.000    0.000    0.429    0.000    4.000 
#    0.000    5.143    0.000    0.000    0.000    0.000 
#
# Total GULP energy -347217.616117 kJ/mol
# GULP energy per Si atom -12400.629147 kJ/mol
# Density = 1.886775 g / cm^3
# Si number density = 18.910795 Si / 1000 Ang^3
#
#
#
# Elastic Constant Matrix: (Units=GPa)
#
#
# Indices 1 2 3 4 5 6 
#
# 1 217.5762 22.5620 120.4715 0.0000 -2.6522 0.0000
# 2 22.5620 7.9698 21.3986 0.0000 0.3423 0.0000
# 3 120.4715 21.3986 219.4394 0.0000 -1.8477 0.0000
# 4 0.0000 0.0000 0.0000 15.3063 0.0000 -2.7345
# 5 -2.6522 0.3423 -1.8477 0.0000 46.4703 0.0000
# 6 0.0000 0.0000 0.0000 -2.7345 0.0000 23.0940
#
#
#
# Elastic Compliance Matrix: (Units=1/GPa)
#
#
# Indices 1 2 3 4 5 6 
#
# 1 0.007610 -0.014025 -0.002806 0.000000 0.000426 0.000000
# 2 -0.014025 0.195998 -0.011436 0.000000 -0.002699 0.000000
# 3 -0.002806 -0.011436 0.007215 0.000000 0.000211 0.000000
# 4 0.000000 0.000000 0.000000 0.066745 0.000000 0.007903
# 5 0.000426 -0.002699 0.000211 0.000000 0.021572 0.000000
# 6 0.000000 0.000000 0.000000 0.007903 0.000000 0.044237
#
#
# Mechanical properties :
#
#
# Convention : Reuss Voigt Hill
#
# Bulk Modulus (GPa) = 6.48140 85.98330 46.23235
# Shear Modulus (GPa) = 11.07813 35.67768 23.37791
#
# Velocity S-wave (km/s) = 2.42298 4.34825 3.51981
# Velocity P-wave (km/s) = 3.35597 8.41286 6.40464
#
# Compressibility (1/GPa) = 0.15428764
#
# Stress axis : x y z
#
# Youngs Moduli (GPa) = 131.41389 5.10209 138.60696
#
# Poissons Ratio (x) = 0.07156 0.38898
# Poissons Ratio (y) = 1.84314 1.58504
# Poissons Ratio (z) = 0.36879 0.05835
#
# Static dielectric constant tensor:
#      x y z
#    x 3.690560 0.000000 0.001870 
#    y 0.000000 2.780920 0.000000 
#    z 0.001870 0.000000 3.752710 
# 
# 
# High freq. dielectric constant tensor:
#      x y z
#    x 1.756870 0.000000 0.000660 
#    y 0.000000 1.658330 0.000000 
#    z 0.000660 0.000000 1.757870 
# 
# From -- ./inp_files/174454.got.cif
#   From: 2010.06.25/outbox.cif.g09.slc.cpg/sg12_88_cif.got.tgz:174454.got - 2010.06.28 00:19:55.
