data_PCOD8086109
_publ_section_title
;
Structure prediction by ZEFSAII (Michael W. Deem and Ramdas Pophale) SiO2 
 PCOD8086109
Probable space group: C 2/M
;
_chemical_formula_sum "Si O2"
_cell_formula_units_Z 56
_cell_length_a 29.291979
_cell_length_b 9.695365
_cell_length_c 12.509762
_cell_angle_alpha 90.000000
_cell_angle_beta 106.371496
_cell_angle_gamma 90.000000
_cell_volume 3408.679953
_symmetry_space_group_name_H-M "C 2/M"
_symmetry_group_IT_number 12
_symmetry_cell_setting 'monoclinic'
loop_
_space_group_symop_operation_xyz
x,y,z
-x,y,-z
-x,-y,-z
x,-y,z
1/2+x,1/2+y,z
1/2-x,1/2+y,-z
1/2-x,1/2-y,-z
1/2+x,1/2-y,z
loop_
_atom_site_type_symbol
_atom_site_label
_atom_site_fract_x
_atom_site_fract_y
_atom_site_fract_z
Si Si1 0.445477 0.340884 0.586546
Si Si2 0.865038 0.658871 0.208503
Si Si3 0.210259 0.341270 0.264066
Si Si4 0.364078 0.158620 0.607029
Si Si5 0.699972 0.838905 0.636009
Si Si6 0.708115 0.158409 0.017944
Si Si7 0.553942 0.340881 0.659294
O O1 0.431775 0.500000 0.592869
O O2 0.411707 0.249198 0.638472
O O3 0.499647 0.314723 0.658339
O O4 0.438866 0.297264 0.458948
O O5 0.879595 0.500000 0.233143
O O6 0.828728 0.704627 0.277315
O O7 0.912657 0.748972 0.243756
O O8 0.840387 0.686872 0.078479
O O9 0.226455 0.500000 0.287146
O O10 0.162625 0.312948 0.299593
O O11 0.251713 0.246457 0.337394
O O12 0.198274 0.303692 0.134119
O O13 0.330330 0.202616 0.487159
O O14 0.379302 0.000000 0.605221
O O15 0.713027 0.000000 0.645524
O O16 0.723870 0.000000 0.014202
O O17 0.750000 0.250000 0.000000
O O18 0.567684 0.500000 0.684220
#
# Coordination Sequence:
#
# PCOD8086109 Si02
#       7
#     8   8   8   8   8   8   8
#     4   9  18  32  50  73 100 127 156 194 240 290
#     4  10  19  31  49  73 100 126 157 200 244 281
#     4  10  21  34  49  69  96 132 169 198 231 282
#     4  10  20  33  48  71 101 130 160 196 238 287
#     4  10  19  31  47  71 102 129 157 197 240 283
#     4  10  20  34  50  69  95 128 165 203 237 275
#     4   9  18  32  50  74 100 125 157 196 240 290
#
# _framework density 16.428647999999999
#
# number of rings (size 3 to 8) (size 9 to 14) (size 15 to 20)
#    0.000    2.286    2.857    1.286    0.000    2.857 
#    0.000    1.429    0.000    0.857    0.000    6.000 
#    0.000    0.000    0.000    0.000    0.000    0.000 
#
# Total GULP energy -347283.311545 kJ/mol
# GULP energy per Si atom -12402.975412 kJ/mol
# Density = 1.639126 g / cm^3
# Si number density = 16.428648 Si / 1000 Ang^3
#
#
#
# Elastic Constant Matrix: (Units=GPa)
#
#
# Indices 1 2 3 4 5 6 
#
# 1 106.9230 63.8593 47.2273 0.0000 2.0126 0.0000
# 2 63.8593 70.3470 36.8263 0.0000 7.4264 0.0000
# 3 47.2273 36.8263 75.9773 0.0000 -5.2151 0.0000
# 4 0.0000 0.0000 0.0000 20.9731 0.0000 5.7910
# 5 2.0126 7.4264 -5.2151 0.0000 24.3810 0.0000
# 6 0.0000 0.0000 0.0000 5.7910 0.0000 37.3504
#
#
#
# Elastic Compliance Matrix: (Units=1/GPa)
#
#
# Indices 1 2 3 4 5 6 
#
# 1 0.022070 -0.017698 -0.004968 0.000000 0.002506 0.000000
# 2 -0.017698 0.034866 -0.006624 0.000000 -0.010576 0.000000
# 3 -0.004968 -0.006624 0.019920 0.000000 0.006689 0.000000
# 4 0.000000 0.000000 0.000000 0.049813 0.000000 -0.007723
# 5 0.002506 -0.010576 0.006689 0.000000 0.045461 0.000000
# 6 0.000000 0.000000 0.000000 -0.007723 0.000000 0.027971
#
#
# Mechanical properties :
#
#
# Convention : Reuss Voigt Hill
#
# Bulk Modulus (GPa) = 54.72212 61.00813 57.86513
# Shear Modulus (GPa) = 18.88413 23.56320 21.22367
#
# Velocity S-wave (km/s) = 3.39405 3.79129 3.59816
# Velocity P-wave (km/s) = 6.98146 7.50873 7.24989
#
# Compressibility (1/GPa) = 0.01827415
#
# Stress axis : x y z
#
# Youngs Moduli (GPa) = 45.31013 28.68155 50.20124
#
# Poissons Ratio (x) = 0.50762 0.24941
# Poissons Ratio (y) = 0.80192 0.33253
# Poissons Ratio (z) = 0.22511 0.18999
#
# Static dielectric constant tensor:
#      x y z
#    x 2.967370 0.000000 -0.028370 
#    y 0.000000 3.078490 0.000000 
#    z -0.028370 0.000000 3.097300 
# 
# 
# High freq. dielectric constant tensor:
#      x y z
#    x 1.623030 0.000000 0.003140 
#    y 0.000000 1.634930 0.000000 
#    z 0.003140 0.000000 1.620390 
# 
# From -- ./inp_files/181056.got.cif
#   From: 2010.06.25/outbox.cif.g09.slc.cpg/sg12_91_cif.got.tgz:181056.got - 2010.06.28 00:19:55.
