data_PCOD8086336
_publ_section_title
;
Structure prediction by ZEFSAII (Michael W. Deem and Ramdas Pophale) SiO2 
 PCOD8086336
Probable space group: C 2/M
;
_chemical_formula_sum "Si O2"
_cell_formula_units_Z 64
_cell_length_a 22.750315
_cell_length_b 9.187965
_cell_length_c 17.033145
_cell_angle_alpha 90.000000
_cell_angle_beta 103.399687
_cell_angle_gamma 90.000000
_cell_volume 3463.498055
_symmetry_space_group_name_H-M "C 2/M"
_symmetry_group_IT_number 12
_symmetry_cell_setting 'monoclinic'
loop_
_space_group_symop_operation_xyz
x,y,z
-x,y,-z
-x,-y,-z
x,-y,z
1/2+x,1/2+y,z
1/2-x,1/2+y,-z
1/2-x,1/2-y,-z
1/2+x,1/2-y,z
loop_
_atom_site_type_symbol
_atom_site_label
_atom_site_fract_x
_atom_site_fract_y
_atom_site_fract_z
Si Si1 0.104125 0.834387 0.817689
Si Si2 0.251910 0.664626 0.380517
Si Si3 0.160277 0.164142 0.444206
Si Si4 0.511279 0.163644 0.877109
Si Si5 0.153436 0.329998 0.684436
Si Si6 0.568639 0.831464 0.512225
Si Si7 0.596180 0.163125 0.053884
Si Si8 0.688855 0.335085 0.994514
O O1 0.037785 0.773176 0.820179
O O2 0.131285 0.734817 0.758815
O O3 0.148801 0.824391 0.904616
O O4 0.096622 0.000000 0.786177
O O5 0.237851 0.500000 0.348893
O O6 0.189241 0.745822 0.381249
O O7 0.293944 0.664304 0.469416
O O8 0.284566 0.750504 0.320462
O O9 0.097956 0.239590 0.450811
O O10 0.146943 0.000000 0.412083
O O11 0.444173 0.214559 0.883808
O O12 0.508432 0.000000 0.841281
O O13 0.554473 0.164282 0.965022
O O14 0.167127 0.500000 0.698624
O O15 0.101990 0.300897 0.604238
O O16 0.500000 0.779596 0.500000
O O17 0.573130 0.000000 0.489845
O O18 0.620612 0.000000 0.076224
O O19 0.653130 0.268550 0.058172
O O20 0.704861 0.500000 0.020837
O O21 0.750000 0.250000 0.000000
#
# Coordination Sequence:
#
# PCOD8086336 Si02
#       8
#     8   8   8   8   8   8   8   8
#     4  10  20  32  47  70  98 126 156 192 234 278
#     4   9  16  27  44  66  93 122 153 193 236 276
#     4   9  16  26  43  68  94 120 154 194 234 276
#     4   8  14  26  45  68  92 120 153 189 230 274
#     4  10  19  31  49  71  95 125 158 192 233 280
#     4   9  18  32  49  70  96 125 157 193 234 279
#     4   8  14  26  45  68  93 119 151 192 233 273
#     4  10  20  32  48  70  96 126 158 193 234 278
#
# _framework density 18.478428000000001
#
# number of rings (size 3 to 8) (size 9 to 14) (size 15 to 20)
#    0.000    2.875    0.000    2.625    0.000    5.750 
#    0.000    2.500    0.000    1.500    0.000    7.000 
#    0.000    0.000    0.000    0.000    0.000    0.000 
#
# Total GULP energy -396720.177266 kJ/mol
# GULP energy per Si atom -12397.505540 kJ/mol
# Density = 1.843637 g / cm^3
# Si number density = 18.478428 Si / 1000 Ang^3
#
#
#
# Elastic Constant Matrix: (Units=GPa)
#
#
# Indices 1 2 3 4 5 6 
#
# 1 137.5915 81.7327 29.7221 0.0000 -42.5363 0.0000
# 2 81.7327 150.5028 37.8871 0.0000 -34.2802 0.0000
# 3 29.7221 37.8871 40.3688 0.0000 -29.5022 0.0000
# 4 0.0000 0.0000 0.0000 25.0493 0.0000 -12.5172
# 5 -42.5363 -34.2802 -29.5022 0.0000 33.0680 0.0000
# 6 0.0000 0.0000 0.0000 -12.5172 0.0000 36.2897
#
#
#
# Elastic Compliance Matrix: (Units=1/GPa)
#
#
# Indices 1 2 3 4 5 6 
#
# 1 0.016063 -0.006056 0.012556 0.000000 0.025586 0.000000
# 2 -0.006056 0.011279 -0.009411 0.000000 -0.004494 0.000000
# 3 0.012556 -0.009411 0.083431 0.000000 0.080831 0.000000
# 4 0.000000 0.000000 0.000000 0.048235 0.000000 0.016637
# 5 0.025586 -0.004494 0.080831 0.000000 0.130609 0.000000
# 6 0.000000 0.000000 0.000000 0.016637 0.000000 0.033295
#
#
# Mechanical properties :
#
#
# Convention : Reuss Voigt Hill
#
# Bulk Modulus (GPa) = 9.52818 69.68299 39.60558
# Shear Modulus (GPa) = 13.74693 30.82281 22.28487
#
# Velocity S-wave (km/s) = 2.73049 4.08860 3.47651
# Velocity P-wave (km/s) = 3.88695 7.75120 6.13146
#
# Compressibility (1/GPa) = 0.10495188
#
# Stress axis : x y z
#
# Youngs Moduli (GPa) = 62.25423 88.66219 11.98589
#
# Poissons Ratio (x) = 0.53697 -0.15050
# Poissons Ratio (y) = 0.37703 0.11280
# Poissons Ratio (z) = -0.78169 0.83438
#
# Static dielectric constant tensor:
#      x y z
#    x 3.534150 0.000000 -0.394880 
#    y 0.000000 3.626990 0.000000 
#    z -0.394880 0.000000 3.019620 
# 
# 
# High freq. dielectric constant tensor:
#      x y z
#    x 1.714910 0.000000 -0.037800 
#    y 0.000000 1.726840 0.000000 
#    z -0.037800 0.000000 1.671340 
# 
# From -- ./inp_files/287663.got.cif
#   From: 2010.06.25/outbox.cif.g09.slc.cpg/sg12_144_cif.got.tgz:287663.got - 2010.06.28 00:19:55.
