data_PCOD8086788
_publ_section_title
;
Structure prediction by ZEFSAII (Michael W. Deem and Ramdas Pophale) SiO2 
 PCOD8086788
Probable space group: C 2/M
;
_chemical_formula_sum "Si O2"
_cell_formula_units_Z 56
_cell_length_a 9.997260
_cell_length_b 18.251029
_cell_length_c 19.726297
_cell_angle_alpha 90.000000
_cell_angle_beta 59.368403
_cell_angle_gamma 90.000000
_cell_volume 3097.028405
_symmetry_space_group_name_H-M "C 2/M"
_symmetry_group_IT_number 12
_symmetry_cell_setting 'monoclinic'
loop_
_space_group_symop_operation_xyz
x,y,z
-x,y,-z
-x,-y,-z
x,-y,z
1/2+x,1/2+y,z
1/2-x,1/2+y,-z
1/2-x,1/2-y,-z
1/2+x,1/2-y,z
loop_
_atom_site_type_symbol
_atom_site_label
_atom_site_fract_x
_atom_site_fract_y
_atom_site_fract_z
Si Si1 0.918907 0.161662 0.816097
Si Si2 0.341975 0.419108 0.501040
Si Si3 0.309518 0.177833 0.350887
Si Si4 0.918799 0.158230 0.090531
Si Si5 0.515429 0.677895 0.647157
Si Si6 0.571608 0.836127 0.183390
Si Si7 0.075822 0.666817 0.913304
O O1 0.990605 0.136469 0.725608
O O2 0.925288 0.248901 0.814985
O O3 0.744968 0.132636 0.863340
O O4 0.998040 0.128909 0.863029
O O5 0.500000 0.428024 0.500000
O O6 0.275792 0.500000 0.500380
O O7 0.220617 0.376863 0.579607
O O8 0.373963 0.374702 0.424353
O O9 0.383241 0.249660 0.365990
O O10 0.151705 0.194830 0.347255
O O11 0.441643 0.138159 0.270959
O O12 0.742902 0.130231 0.148211
O O13 0.921188 0.245476 0.086320
O O14 0.000000 0.127773 0.000000
O O15 0.524132 0.864117 0.122106
O O16 0.000000 0.634829 0.000000
#
# Coordination Sequence:
#
# PCOD8086788 Si02
#       7
#     8   8   8   8   8   8   8
#     4   9  16  24  37  60  90 125 161 196 233 284
#     4   9  19  36  55  75 100 127 162 204 246 297
#     4  10  19  31  51  76 100 131 165 200 246 292
#     4   9  16  24  36  57  89 130 166 193 235 283
#     4  10  19  31  51  76 100 131 165 200 246 292
#     4   9  16  24  37  60  90 125 161 196 233 284
#     4   9  14  22  34  53  87 124 156 191 235 281
#
# _framework density 18.081849999999999
#
# number of rings (size 3 to 8) (size 9 to 14) (size 15 to 20)
#    0.000    2.714    1.429    1.286    6.000    3.429 
#    0.000    0.000    0.000    1.714    0.000    0.000 
#    0.000    6.857    0.000    0.000    0.000    0.000 
#
# Total GULP energy -346879.174633 kJ/mol
# GULP energy per Si atom -12388.541951 kJ/mol
# Density = 1.804069 g / cm^3
# Si number density = 18.081850 Si / 1000 Ang^3
#
#
#
# Elastic Constant Matrix: (Units=GPa)
#
#
# Indices 1 2 3 4 5 6 
#
# 1 70.0079 10.8437 18.1572 0.0000 9.9148 0.0000
# 2 10.8437 39.5636 33.1534 0.0000 3.1184 0.0000
# 3 18.1572 33.1534 149.5777 0.0000 12.7412 0.0000
# 4 0.0000 0.0000 0.0000 5.7553 0.0000 0.4195
# 5 9.9148 3.1184 12.7412 0.0000 32.3754 0.0000
# 6 0.0000 0.0000 0.0000 0.4195 0.0000 5.8768
#
#
#
# Elastic Compliance Matrix: (Units=1/GPa)
#
#
# Indices 1 2 3 4 5 6 
#
# 1 0.015587 -0.003262 -0.000817 0.000000 -0.004138 0.000000
# 2 -0.003262 0.031726 -0.006685 0.000000 0.000574 0.000000
# 3 -0.000817 -0.006685 0.008474 0.000000 -0.002441 0.000000
# 4 0.000000 0.000000 0.000000 0.174662 0.000000 -0.012469
# 5 -0.004138 0.000574 -0.002441 0.000000 0.033060 0.000000
# 6 0.000000 0.000000 0.000000 -0.012469 0.000000 0.171051
#
#
# Mechanical properties :
#
#
# Convention : Reuss Voigt Hill
#
# Bulk Modulus (GPa) = 29.18761 42.60642 35.89702
# Shear Modulus (GPa) = 10.69501 21.93449 16.31475
#
# Velocity S-wave (km/s) = 2.43467 3.48669 3.00704
# Velocity P-wave (km/s) = 4.90719 6.31059 5.65261
#
# Compressibility (1/GPa) = 0.03426111
#
# Stress axis : x y z
#
# Youngs Moduli (GPa) = 64.15538 31.51951 118.00430
#
# Poissons Ratio (x) = 0.10280 0.09638
# Poissons Ratio (y) = 0.20925 0.78886
# Poissons Ratio (z) = 0.05240 0.21071
#
# Static dielectric constant tensor:
#      x y z
#    x 3.525310 0.000000 0.017040 
#    y 0.000000 2.759350 0.000000 
#    z 0.017040 0.000000 3.767320 
# 
# 
# High freq. dielectric constant tensor:
#      x y z
#    x 1.703230 0.000000 0.001620 
#    y 0.000000 1.619760 0.000000 
#    z 0.001620 0.000000 1.727730 
# 
# From -- ./inp_files/300687.got.cif
#   From: 2010.06.25/outbox.cif.g09.slc.cpg/sg12_151_cif.got.tgz:300687.got - 2010.06.28 00:19:55.
