data_PCOD8086682
_publ_section_title
;
Structure prediction by ZEFSAII (Michael W. Deem and Ramdas Pophale) SiO2 
 PCOD8086682
Probable space group: C 2/M
;
_chemical_formula_sum "Si O2"
_cell_formula_units_Z 56
_cell_length_a 29.306187
_cell_length_b 9.347353
_cell_length_c 21.442903
_cell_angle_alpha 90.000000
_cell_angle_beta 148.868692
_cell_angle_gamma 90.000000
_cell_volume 3036.847908
_symmetry_space_group_name_H-M "C 2/M"
_symmetry_group_IT_number 12
_symmetry_cell_setting 'monoclinic'
loop_
_space_group_symop_operation_xyz
x,y,z
-x,y,-z
-x,-y,-z
x,-y,z
1/2+x,1/2+y,z
1/2-x,1/2+y,-z
1/2-x,1/2-y,-z
1/2+x,1/2-y,z
loop_
_atom_site_type_symbol
_atom_site_label
_atom_site_fract_x
_atom_site_fract_y
_atom_site_fract_z
Si Si1 0.245076 0.335317 0.402624
Si Si2 0.117269 0.333167 0.362240
Si Si3 0.733627 0.336487 0.710088
Si Si4 0.971325 0.834821 0.533724
Si Si5 0.720753 0.329989 0.115665
Si Si6 0.584540 0.165335 0.876748
Si Si7 0.888531 0.664624 0.232217
O O1 0.271912 0.500000 0.442753
O O2 0.161262 0.294461 0.347109
O O3 0.331160 0.245730 0.522179
O O4 0.217907 0.305639 0.299032
O O5 0.122762 0.500000 0.383706
O O6 0.016464 0.281922 0.243065
O O7 0.748509 0.500000 0.750064
O O8 0.631321 0.307167 0.577402
O O9 0.771245 0.228426 0.805006
O O10 0.000000 0.775026 0.500000
O O11 0.023755 0.750373 0.647936
O O12 0.997435 0.000000 0.570714
O O13 0.711893 0.500000 0.106765
O O14 0.804916 0.279001 0.173654
O O15 0.633409 0.263757 0.983702
O O16 0.629900 0.187137 0.862484
O O17 0.590563 0.000000 0.904862
O O18 0.906980 0.500000 0.269249
#
# Coordination Sequence:
#
# PCOD8086682 Si02
#       7
#     8   8   8   8   8   8   8
#     4   9  18  33  56  83 107 133 166 206 255 308
#     4   9  18  34  56  82 107 131 166 211 256 304
#     4  10  20  35  53  75 106 141 172 205 253 307
#     4  10  19  31  50  76 104 135 170 205 247 301
#     4  11  23  36  51  74 103 136 177 217 253 299
#     4  10  21  37  55  74 101 137 174 211 257 306
#     4  10  21  35  52  76 103 135 172 213 259 304
#
# _framework density 18.440172
#
# number of rings (size 3 to 8) (size 9 to 14) (size 15 to 20)
#    0.000    2.143    1.429    1.714    0.000    3.143 
#    0.000    0.714    0.000    4.286    0.000    0.000 
#    0.000    0.000    0.000    0.000    0.000    0.000 
#
# Total GULP energy -347290.960253 kJ/mol
# GULP energy per Si atom -12403.248580 kJ/mol
# Density = 1.839820 g / cm^3
# Si number density = 18.440172 Si / 1000 Ang^3
#
#
#
# Elastic Constant Matrix: (Units=GPa)
#
#
# Indices 1 2 3 4 5 6 
#
# 1 89.2116 30.3347 39.6758 0.0000 -9.6417 0.0000
# 2 30.3347 64.0639 54.0858 0.0000 -8.1552 0.0000
# 3 39.6758 54.0858 104.4679 0.0000 -8.6910 0.0000
# 4 0.0000 0.0000 0.0000 38.2237 0.0000 -4.5896
# 5 -9.6417 -8.1552 -8.6910 0.0000 21.6638 0.0000
# 6 0.0000 0.0000 0.0000 -4.5896 0.0000 22.6782
#
#
#
# Elastic Compliance Matrix: (Units=1/GPa)
#
#
# Indices 1 2 3 4 5 6 
#
# 1 0.014267 -0.003498 -0.003299 0.000000 0.003709 0.000000
# 2 -0.003498 0.029087 -0.013396 0.000000 0.004019 0.000000
# 3 -0.003299 -0.013396 0.017813 0.000000 0.000635 0.000000
# 4 0.000000 0.000000 0.000000 0.026813 0.000000 0.005427
# 5 0.003709 0.004019 0.000635 0.000000 0.049578 0.000000
# 6 0.000000 0.000000 0.000000 0.005427 0.000000 0.045193
#
#
# Mechanical properties :
#
#
# Convention : Reuss Voigt Hill
#
# Bulk Modulus (GPa) = 48.12074 56.21510 52.16792
# Shear Modulus (GPa) = 21.73288 25.42295 23.57792
#
# Velocity S-wave (km/s) = 3.43674 3.71708 3.57965
# Velocity P-wave (km/s) = 6.47306 6.99811 6.74070
#
# Compressibility (1/GPa) = 0.02078106
#
# Stress axis : x y z
#
# Youngs Moduli (GPa) = 70.09299 34.37935 56.13722
#
# Poissons Ratio (x) = 0.12027 0.18517
# Poissons Ratio (y) = 0.24522 0.75203
# Poissons Ratio (z) = 0.23120 0.46055
#
# Static dielectric constant tensor:
#      x y z
#    x 3.606350 0.000000 -0.009190 
#    y 0.000000 3.311050 0.000000 
#    z -0.009190 0.000000 3.195530 
# 
# 
# High freq. dielectric constant tensor:
#      x y z
#    x 1.722210 0.000000 -0.004740 
#    y 0.000000 1.710030 0.000000 
#    z -0.004740 0.000000 1.702290 
# 
# From -- ./inp_files/237385.got.cif
#   From: 2010.06.25/outbox.cif.g09.slc.cpg/sg12_119_cif.got.tgz:237385.got - 2010.06.28 00:19:55.
