data_PCOD8086375
_publ_section_title
;
Structure prediction by ZEFSAII (Michael W. Deem and Ramdas Pophale) SiO2 
 PCOD8086375
Probable space group: C 2/M
;
_chemical_formula_sum "Si O2"
_cell_formula_units_Z 48
_cell_length_a 17.946534
_cell_length_b 9.149029
_cell_length_c 29.189682
_cell_angle_alpha 90.000000
_cell_angle_beta 148.569431
_cell_angle_gamma 90.000000
_cell_volume 2499.252175
_symmetry_space_group_name_H-M "C 2/M"
_symmetry_group_IT_number 12
_symmetry_cell_setting 'monoclinic'
loop_
_space_group_symop_operation_xyz
x,y,z
-x,y,-z
-x,-y,-z
x,-y,z
1/2+x,1/2+y,z
1/2-x,1/2+y,-z
1/2-x,1/2-y,-z
1/2+x,1/2-y,z
loop_
_atom_site_type_symbol
_atom_site_label
_atom_site_fract_x
_atom_site_fract_y
_atom_site_fract_z
Si Si1 0.426263 0.832575 0.185770
Si Si2 0.318132 0.664594 0.646752
Si Si3 0.035988 0.329247 0.143306
Si Si4 0.559892 0.334725 0.480226
Si Si5 0.898886 0.831123 0.988882
Si Si6 0.300588 0.165454 0.313228
O O1 0.524397 0.735140 0.270538
O O2 0.453987 0.795038 0.147301
O O3 0.466495 0.000000 0.216685
O O4 0.262460 0.798301 0.111531
O O5 0.328648 0.500000 0.633493
O O6 0.213604 0.755829 0.558825
O O7 0.255984 0.667467 0.664988
O O8 0.064650 0.500000 0.151682
O O9 0.188201 0.247128 0.221504
O O10 0.935312 0.270732 0.050561
O O11 0.500000 0.333709 0.500000
O O12 0.576708 0.500000 0.471136
O O13 0.451836 0.248766 0.390108
O O14 0.916541 0.000000 0.012896
O O15 0.000000 0.789448 0.000000
O O16 0.321063 0.000000 0.306317
#
# Coordination Sequence:
#
# PCOD8086375 Si02
#       6
#     8   8   8   8   8   8
#     4   9  18  32  49  70  96 126 160 198 240 284
#     4   9  16  25  40  64  93 125 159 194 234 279
#     4  10  19  31  49  72  97 125 159 199 241 284
#     4   9  15  23  37  60  93 128 158 191 233 278
#     4  10  21  36  52  70  94 125 160 198 242 290
#     4   9  16  26  41  63  93 126 159 194 233 279
#
# _framework density 19.205745
#
# number of rings (size 3 to 8) (size 9 to 14) (size 15 to 20)
#    0.000    2.667    0.000    2.500    0.000    7.667 
#    0.000    0.000    0.000    0.000    0.000    1.167 
#    0.000    0.000    0.000    0.000    0.000    0.000 
#
# Total GULP energy -297633.936265 kJ/mol
# GULP energy per Si atom -12401.414011 kJ/mol
# Density = 1.916203 g / cm^3
# Si number density = 19.205745 Si / 1000 Ang^3
#
#
#
# Elastic Constant Matrix: (Units=GPa)
#
#
# Indices 1 2 3 4 5 6 
#
# 1 35.1953 27.3926 33.8975 0.0000 17.5750 0.0000
# 2 27.3926 138.5970 68.9928 0.0000 20.2580 0.0000
# 3 33.8975 68.9928 125.7486 0.0001 36.2888 0.0000
# 4 0.0000 0.0000 0.0001 45.2968 0.0000 1.5323
# 5 17.5750 20.2580 36.2888 0.0000 15.4432 0.0000
# 6 0.0000 0.0000 0.0000 1.5323 0.0000 10.9376
#
#
#
# Elastic Compliance Matrix: (Units=1/GPa)
#
#
# Indices 1 2 3 4 5 6 
#
# 1 0.075956 -0.006221 0.017175 0.000000 -0.118640 0.000000
# 2 -0.006221 0.010438 -0.006653 0.000000 0.009022 0.000000
# 3 0.017175 -0.006653 0.031362 0.000000 -0.084513 0.000000
# 4 0.000000 0.000000 0.000000 0.022182 0.000000 -0.003107
# 5 -0.118640 0.009022 -0.084513 0.000000 0.386526 0.000000
# 6 0.000000 0.000000 0.000000 -0.003107 0.000000 0.091863
#
#
# Mechanical properties :
#
#
# Convention : Reuss Voigt Hill
#
# Bulk Modulus (GPa) = 7.91403 62.23407 35.07405
# Shear Modulus (GPa) = 7.67054 25.61939 16.64496
#
# Velocity S-wave (km/s) = 2.00064 3.65628 2.94711
# Velocity P-wave (km/s) = 3.07674 7.09216 5.46649
#
# Compressibility (1/GPa) = 0.12635792
#
# Stress axis : x y z
#
# Youngs Moduli (GPa) = 13.16544 95.80305 31.88580
#
# Poissons Ratio (x) = 0.59598 -0.54764
# Poissons Ratio (y) = 0.08190 0.21215
# Poissons Ratio (z) = -0.22612 0.63742
#
# Static dielectric constant tensor:
#      x y z
#    x 2.884220 0.000000 0.201050 
#    y 0.000000 3.654740 0.000000 
#    z 0.201050 0.000000 3.626810 
# 
# 
# High freq. dielectric constant tensor:
#      x y z
#    x 1.680900 0.000000 0.015950 
#    y 0.000000 1.757690 0.000000 
#    z 0.015950 0.000000 1.761150 
# 
# From -- ./inp_files/244906.got.cif
#   From: 2010.06.25/outbox.cif.g09.slc.cpg/sg12_123_cif.got.tgz:244906.got - 2010.06.28 00:19:55.
