data_PCOD8086695
_publ_section_title
;
Structure prediction by ZEFSAII (Michael W. Deem and Ramdas Pophale) SiO2 
 PCOD8086695
Probable space group: C 2/M
;
_chemical_formula_sum "Si O2"
_cell_formula_units_Z 64
_cell_length_a 25.259170
_cell_length_b 17.962888
_cell_length_c 12.882156
_cell_angle_alpha 90.000000
_cell_angle_beta 145.338987
_cell_angle_gamma 90.000000
_cell_volume 3324.162643
_symmetry_space_group_name_H-M "C 2/M"
_symmetry_group_IT_number 12
_symmetry_cell_setting 'monoclinic'
loop_
_space_group_symop_operation_xyz
x,y,z
-x,y,-z
-x,-y,-z
x,-y,z
1/2+x,1/2+y,z
1/2-x,1/2+y,-z
1/2-x,1/2-y,-z
1/2+x,1/2-y,z
loop_
_atom_site_type_symbol
_atom_site_label
_atom_site_fract_x
_atom_site_fract_y
_atom_site_fract_z
Si Si1 0.090958 0.913088 0.356890
Si Si2 0.882302 0.914328 0.994271
Si Si3 0.609067 0.675738 0.188611
Si Si4 0.377234 0.911563 0.124314
Si Si5 0.105607 0.344588 0.207643
Si Si6 0.690486 0.914087 0.768411
Si Si7 0.766055 0.586718 0.754479
Si Si8 0.415424 0.088263 0.603746
O O1 0.137338 0.870018 0.335741
O O2 0.156929 0.892197 0.561305
O O3 0.097884 0.000000 0.342400
O O4 0.983123 0.890093 0.203519
O O5 0.848121 0.863469 0.843575
O O6 0.802723 0.904047 0.952941
O O7 0.886807 0.000000 0.963323
O O8 0.642094 0.760309 0.253768
O O9 0.500000 0.670863 0.000000
O O10 0.352467 0.876524 0.197243
O O11 0.479775 0.888252 0.254943
O O12 0.367498 0.000000 0.115692
O O13 0.305715 0.876331 0.924113
O O14 0.171727 0.394427 0.244378
O O15 0.116469 0.368829 0.344533
O O16 0.000000 0.354859 0.000000
O O17 0.647491 0.881231 0.592840
O O18 0.661498 0.000000 0.721605
O O19 0.776552 0.500000 0.787617
O O20 0.405601 0.000000 0.606759
#
# Coordination Sequence:
#
# PCOD8086695 Si02
#       8
#     8   8   8   8   8   8   8   8
#     4   9  18  33  52  74 100 135 172 210 261 308
#     4   9  17  33  54  76 103 132 170 221 261 296
#     4   9  19  33  50  74 102 138 168 212 260 308
#     4   9  17  32  51  74 105 137 169 213 256 298
#     4  11  21  33  49  76 107 143 170 203 258 314
#     4   9  18  31  52  79 100 128 177 221 255 297
#     4  10  20  32  50  75 107 141 173 205 249 313
#     4  10  19  31  50  76 108 140 172 210 254 303
#
# _framework density 19.252969
#
# number of rings (size 3 to 8) (size 9 to 14) (size 15 to 20)
#    0.000    2.500    1.250    1.125    1.750    4.000 
#    0.000    0.625    0.000    4.500    0.000    0.000 
#    0.000    0.000    0.000    0.000    0.000    0.500 
#
# Total GULP energy -396611.235303 kJ/mol
# GULP energy per Si atom -12394.101103 kJ/mol
# Density = 1.920915 g / cm^3
# Si number density = 19.252969 Si / 1000 Ang^3
#
#
#
# Elastic Constant Matrix: (Units=GPa)
#
#
# Indices 1 2 3 4 5 6 
#
# 1 103.6767 15.3072 57.5539 0.0000 -18.7734 0.0000
# 2 15.3072 18.0519 22.1738 0.0000 0.9760 0.0000
# 3 57.5539 22.1738 141.2674 0.0000 -10.3569 0.0000
# 4 0.0000 0.0000 0.0000 12.5672 0.0000 1.7047
# 5 -18.7734 0.9760 -10.3569 0.0000 27.7736 0.0000
# 6 0.0000 0.0000 0.0000 1.7047 0.0000 5.3079
#
#
#
# Elastic Compliance Matrix: (Units=1/GPa)
#
#
# Indices 1 2 3 4 5 6 
#
# 1 0.014647 -0.007850 -0.004101 0.000000 0.008647 0.000000
# 2 -0.007850 0.074035 -0.009256 0.000000 -0.011359 0.000000
# 3 -0.004101 -0.009256 0.010305 0.000000 0.001396 0.000000
# 4 0.000000 0.000000 0.000000 0.083197 0.000000 -0.026720
# 5 0.008647 -0.011359 0.001396 0.000000 0.042770 0.000000
# 6 0.000000 0.000000 0.000000 -0.026720 0.000000 0.196980
#
#
# Mechanical properties :
#
#
# Convention : Reuss Voigt Hill
#
# Bulk Modulus (GPa) = 17.67602 50.34066 34.00834
# Shear Modulus (GPa) = 10.34760 20.32713 15.33737
#
# Velocity S-wave (km/s) = 2.32082 3.25282 2.82551
# Velocity P-wave (km/s) = 4.04753 6.34913 5.32419
#
# Compressibility (1/GPa) = 0.05657384
#
# Stress axis : x y z
#
# Youngs Moduli (GPa) = 68.27449 13.50710 97.04239
#
# Poissons Ratio (x) = 0.10603 0.39799
# Poissons Ratio (y) = 0.53593 0.89818
# Poissons Ratio (z) = 0.28001 0.12502
#
# Static dielectric constant tensor:
#      x y z
#    x 3.529730 0.000000 -0.064840 
#    y 0.000000 3.301910 0.000000 
#    z -0.064840 0.000000 3.852390 
# 
# 
# High freq. dielectric constant tensor:
#      x y z
#    x 1.737280 0.000000 0.006380 
#    y 0.000000 1.706200 0.000000 
#    z 0.006380 0.000000 1.762820 
# 
# From -- ./inp_files/177747.got.cif
#   From: 2010.06.25/outbox.cif.g09.slc.cpg/sg12_89_cif.got.tgz:177747.got - 2010.06.28 00:19:55.
