data_PCOD8086969
_publ_section_title
;
Structure prediction by ZEFSAII (Michael W. Deem and Ramdas Pophale) SiO2 
 PCOD8086969
Probable space group: C 2/M
;
_chemical_formula_sum "Si O2"
_cell_formula_units_Z 64
_cell_length_a 24.370718
_cell_length_b 10.345775
_cell_length_c 17.618725
_cell_angle_alpha 90.000000
_cell_angle_beta 128.457889
_cell_angle_gamma 90.000000
_cell_volume 3478.595325
_symmetry_space_group_name_H-M "C 2/M"
_symmetry_group_IT_number 12
_symmetry_cell_setting 'monoclinic'
loop_
_space_group_symop_operation_xyz
x,y,z
-x,y,-z
-x,-y,-z
x,-y,z
1/2+x,1/2+y,z
1/2-x,1/2+y,-z
1/2-x,1/2-y,-z
1/2+x,1/2-y,z
loop_
_atom_site_type_symbol
_atom_site_label
_atom_site_fract_x
_atom_site_fract_y
_atom_site_fract_z
Si Si1 0.699823 0.351805 0.578882
Si Si2 0.847183 0.767796 0.736531
Si Si3 0.561870 0.648070 0.744300
Si Si4 0.591838 0.351116 0.366258
Si Si5 0.582916 0.353222 0.928985
Si Si6 0.981240 0.357207 0.896997
Si Si7 0.323152 0.650599 0.270286
Si Si8 0.797643 0.144787 0.849292
O O1 0.713901 0.500000 0.571006
O O2 0.774692 0.284363 0.641315
O O3 0.649075 0.286586 0.472106
O O4 0.661984 0.335999 0.627641
O O5 0.885580 0.842061 0.701722
O O6 0.832766 0.859858 0.796178
O O7 0.897801 0.653661 0.810558
O O8 0.548552 0.500000 0.713240
O O9 0.484725 0.714589 0.685040
O O10 0.605396 0.661952 0.860368
O O11 0.609100 0.704702 0.716693
O O12 0.586322 0.500000 0.383608
O O13 0.556375 0.500000 0.921771
O O14 0.518896 0.255659 0.883724
O O15 0.646365 0.317711 0.038383
O O16 0.005360 0.500000 0.890719
O O17 0.000000 0.336903 0.000000
O O18 0.305600 0.500000 0.234465
O O19 0.259295 0.742942 0.192474
O O20 0.767401 0.000000 0.838625
#
# Coordination Sequence:
#
# PCOD8086969 Si02
#       8
#     8   8   8   8   8   8   8   8
#     4   9  19  33  50  76 104 136 176 223 270 313
#     4  11  19  33  52  75 108 145 174 215 260 322
#     4   9  18  33  54  78 104 136 177 226 267 309
#     4  10  19  31  52  79 105 133 177 225 266 312
#     4  10  20  35  53  78 108 140 179 221 260 309
#     4  11  22  34  51  79 112 147 179 213 259 318
#     4   9  19  36  56  77 105 140 177 221 273 315
#     4  10  21  34  53  79 107 140 178 217 260 317
#
# _framework density 18.398230999999999
#
# number of rings (size 3 to 8) (size 9 to 14) (size 15 to 20)
#    0.000    2.125    2.500    1.125    0.000    2.750 
#    0.000    3.125    0.000    0.750    0.000    3.500 
#    0.000    0.000    0.000    0.000    0.000    0.000 
#
# Total GULP energy -396574.892951 kJ/mol
# GULP energy per Si atom -12392.965405 kJ/mol
# Density = 1.835636 g / cm^3
# Si number density = 18.398231 Si / 1000 Ang^3
#
#
#
# Elastic Constant Matrix: (Units=GPa)
#
#
# Indices 1 2 3 4 5 6 
#
# 1 115.2875 27.6295 46.9901 0.0000 5.2024 0.0000
# 2 27.6295 60.3894 24.3413 0.0000 5.5817 0.0000
# 3 46.9901 24.3413 130.9791 0.0000 9.4234 0.0000
# 4 0.0000 0.0000 0.0000 19.7355 0.0000 2.4412
# 5 5.2024 5.5817 9.4234 0.0000 19.0806 0.0000
# 6 0.0000 0.0000 0.0000 2.4412 0.0000 20.1937
#
#
#
# Elastic Compliance Matrix: (Units=1/GPa)
#
#
# Indices 1 2 3 4 5 6 
#
# 1 0.010867 -0.003654 -0.003197 0.000000 -0.000315 0.000000
# 2 -0.003654 0.019388 -0.002028 0.000000 -0.003674 0.000000
# 3 -0.003197 -0.002028 0.009387 0.000000 -0.003171 0.000000
# 4 0.000000 0.000000 0.000000 0.051439 0.000000 -0.006219
# 5 -0.000315 -0.003674 -0.003171 0.000000 0.055136 0.000000
# 6 0.000000 0.000000 0.000000 -0.006219 0.000000 0.050272
#
#
# Mechanical properties :
#
#
# Convention : Reuss Voigt Hill
#
# Bulk Modulus (GPa) = 45.69554 56.06418 50.87986
# Shear Modulus (GPa) = 22.56914 25.64830 24.10872
#
# Velocity S-wave (km/s) = 3.50623 3.73777 3.62385
# Velocity P-wave (km/s) = 6.42514 7.01189 6.72492
#
# Compressibility (1/GPa) = 0.02188398
#
# Stress axis : x y z
#
# Youngs Moduli (GPa) = 92.02207 51.57832 106.53366
#
# Poissons Ratio (x) = 0.18848 0.34057
# Poissons Ratio (y) = 0.33627 0.21603
# Poissons Ratio (z) = 0.29418 0.10459
#
# Static dielectric constant tensor:
#      x y z
#    x 3.483920 0.000000 0.052330 
#    y 0.000000 3.151870 0.000000 
#    z 0.052330 0.000000 3.645790 
# 
# 
# High freq. dielectric constant tensor:
#      x y z
#    x 1.705340 0.000000 -0.003910 
#    y 0.000000 1.684020 0.000000 
#    z -0.003910 0.000000 1.727910 
# 
# From -- ./inp_files/283327.got.cif
#   From: 2010.06.25/outbox.cif.g09.slc.cpg/sg12_142_cif.got.tgz:283327.got - 2010.06.28 00:19:55.
