data_PCOD8086398
_publ_section_title
;
Structure prediction by ZEFSAII (Michael W. Deem and Ramdas Pophale) SiO2 
 PCOD8086398
Probable space group: C 2/M
;
_chemical_formula_sum "Si O2"
_cell_formula_units_Z 56
_cell_length_a 18.943335
_cell_length_b 9.186186
_cell_length_c 29.895334
_cell_angle_alpha 90.000000
_cell_angle_beta 142.335009
_cell_angle_gamma 90.000000
_cell_volume 3178.829187
_symmetry_space_group_name_H-M "C 2/M"
_symmetry_group_IT_number 12
_symmetry_cell_setting 'monoclinic'
loop_
_space_group_symop_operation_xyz
x,y,z
-x,y,-z
-x,-y,-z
x,-y,z
1/2+x,1/2+y,z
1/2-x,1/2+y,-z
1/2-x,1/2-y,-z
1/2+x,1/2-y,z
loop_
_atom_site_type_symbol
_atom_site_label
_atom_site_fract_x
_atom_site_fract_y
_atom_site_fract_z
Si Si1 0.176512 0.327290 0.000911
Si Si2 0.579437 0.664431 0.714246
Si Si3 0.769792 0.333182 0.277224
Si Si4 0.022903 0.331593 0.562025
Si Si5 0.263959 0.833242 0.872542
Si Si6 0.411072 0.828723 0.862422
Si Si7 0.631571 0.333038 0.444937
O O1 0.194606 0.500000 0.006166
O O2 0.217669 0.261942 0.069609
O O3 0.250000 0.250000 0.000000
O O4 0.043617 0.281815 0.928276
O O5 0.614907 0.500000 0.716033
O O6 0.640001 0.787103 0.715472
O O7 0.628779 0.684952 0.789562
O O8 0.441216 0.682436 0.638438
O O9 0.735106 0.500000 0.253562
O O10 0.839853 0.307538 0.358800
O O11 0.652188 0.240416 0.212920
O O12 0.989284 0.500000 0.553918
O O13 0.000000 0.285059 0.500000
O O14 0.943378 0.229879 0.552324
O O15 0.349365 0.769068 0.876962
O O16 0.299777 0.000000 0.896614
O O17 0.395994 0.000000 0.851375
O O18 0.659388 0.500000 0.469388
O O19 0.750000 0.250000 0.500000
#
# Coordination Sequence:
#
# PCOD8086398 Si02
#       7
#     8   8   8   8   8   8   8
#     4  10  20  33  49  69  95 125 153 186 231 279
#     4   8  15  29  49  70  91 119 157 198 235 272
#     4   9  16  27  47  73  96 119 151 194 240 278
#     4   9  18  33  51  71  97 128 162 201 242 283
#     4   8  14  29  53  73  86 112 159 200 225 263
#     4   9  17  31  51  71  91 119 157 195 228 270
#     4  10  19  31  49  73 100 129 161 198 241 288
#
# _framework density 17.616548999999999
#
# number of rings (size 3 to 8) (size 9 to 14) (size 15 to 20)
#    0.000    3.000    0.000    2.143    0.000    3.714 
#    0.000    4.286    0.000   11.143    0.000    0.000 
#    0.000    0.000    0.000    0.000    0.000    0.000 
#
# Total GULP energy -346881.706160 kJ/mol
# GULP energy per Si atom -12388.632363 kJ/mol
# Density = 1.757645 g / cm^3
# Si number density = 17.616549 Si / 1000 Ang^3
#
#
#
# Elastic Constant Matrix: (Units=GPa)
#
#
# Indices 1 2 3 4 5 6 
#
# 1 77.3481 34.1681 73.8709 0.0000 2.3290 -0.0001
# 2 34.1681 59.3536 57.9378 0.0000 2.2913 -0.0003
# 3 73.8709 57.9378 187.3550 0.0000 1.6444 0.0000
# 4 0.0000 0.0000 0.0000 27.6046 0.0000 4.0332
# 5 2.3290 2.2913 1.6444 0.0000 25.6510 0.0000
# 6 -0.0001 -0.0003 0.0000 4.0332 0.0000 24.2450
#
#
#
# Elastic Compliance Matrix: (Units=1/GPa)
#
#
# Indices 1 2 3 4 5 6 
#
# 1 0.022187 -0.006019 -0.006878 0.000000 -0.001036 0.000000
# 2 -0.006019 0.025838 -0.005605 0.000000 -0.001402 0.000000
# 3 -0.006878 -0.005605 0.009778 0.000000 0.000498 0.000000
# 4 0.000000 0.000000 0.000000 0.037128 0.000000 -0.006176
# 5 -0.001036 -0.001402 0.000498 0.000000 0.039172 0.000000
# 6 0.000000 0.000000 0.000000 -0.006176 0.000000 0.042273
#
#
# Mechanical properties :
#
#
# Convention : Reuss Voigt Hill
#
# Bulk Modulus (GPa) = 48.07509 72.89005 60.48257
# Shear Modulus (GPa) = 22.69498 26.03877 24.36688
#
# Velocity S-wave (km/s) = 3.59315 3.84876 3.72315
# Velocity P-wave (km/s) = 6.67557 7.82409 7.27254
#
# Compressibility (1/GPa) = 0.02080079
#
# Stress axis : x y z
#
# Youngs Moduli (GPa) = 45.07153 38.70223 102.27001
#
# Poissons Ratio (x) = 0.23294 0.70337
# Poissons Ratio (y) = 0.27128 0.57320
# Poissons Ratio (z) = 0.30998 0.21692
#
# Static dielectric constant tensor:
#      x y z
#    x 2.897500 0.000000 -0.063080 
#    y 0.000000 3.165700 0.000000 
#    z -0.063080 0.000000 3.884790 
# 
# 
# High freq. dielectric constant tensor:
#      x y z
#    x 1.629310 0.000000 0.000130 
#    y 0.000000 1.668600 0.000000 
#    z 0.000130 0.000000 1.710050 
# 
# From -- ./inp_files/377762.got.cif
#   From: 2010.06.25/outbox.cif.g09.slc.cpg/sg12_189_cif.got.tgz:377762.got - 2010.06.28 00:19:55.
