data_PCOD8086107
_publ_section_title
;
Structure prediction by ZEFSAII (Michael W. Deem and Ramdas Pophale) SiO2 
 PCOD8086107
Probable space group: C 2/M
;
_chemical_formula_sum "Si O2"
_cell_formula_units_Z 64
_cell_length_a 30.166482
_cell_length_b 8.680723
_cell_length_c 14.946850
_cell_angle_alpha 90.000000
_cell_angle_beta 100.702722
_cell_angle_gamma 90.000000
_cell_volume 3845.995368
_symmetry_space_group_name_H-M "C 2/M"
_symmetry_group_IT_number 12
_symmetry_cell_setting 'monoclinic'
loop_
_space_group_symop_operation_xyz
x,y,z
-x,y,-z
-x,-y,-z
x,-y,z
1/2+x,1/2+y,z
1/2-x,1/2+y,-z
1/2-x,1/2-y,-z
1/2+x,1/2-y,z
loop_
_atom_site_type_symbol
_atom_site_label
_atom_site_fract_x
_atom_site_fract_y
_atom_site_fract_z
Si Si1 0.377027 0.180155 0.760021
Si Si2 0.036626 0.179309 0.709545
Si Si3 0.694905 0.678663 0.555930
Si Si4 0.056484 0.678558 0.376840
Si Si5 0.439913 0.680519 0.918559
Si Si6 0.792274 0.318712 0.627828
Si Si7 0.903009 0.821512 0.433899
Si Si8 0.532141 0.819186 0.894054
O O1 0.407737 0.219760 0.686131
O O2 0.393406 0.275877 0.852225
O O3 0.326102 0.238812 0.718636
O O4 0.378893 0.000000 0.784173
O O5 0.073817 0.224372 0.650127
O O6 0.049498 0.275231 0.802523
O O7 0.987663 0.219581 0.653572
O O8 0.038016 0.000000 0.734023
O O9 0.700542 0.500000 0.535765
O O10 0.740418 0.736208 0.624659
O O11 0.689353 0.762970 0.460148
O O12 0.650537 0.711075 0.598353
O O13 0.042742 0.500000 0.368247
O O14 0.077228 0.716372 0.480692
O O15 0.449371 0.500000 0.916419
O O16 0.480033 0.769980 0.883286
O O17 0.437436 0.732302 0.020898
O O18 0.796428 0.500000 0.627273
O O19 0.912084 0.000000 0.461445
O O20 0.536319 0.000000 0.911284
#
# Coordination Sequence:
#
# PCOD8086107 Si02
#       8
#     8   8   8   8   8   8   8   8
#     4  10  19  31  47  71 101 131 160 195 239 284
#     4  11  22  35  49  67  95 131 169 204 239 280
#     4   9  17  30  48  69  93 124 161 199 241 284
#     4  11  21  32  47  68  98 132 169 202 234 279
#     4  11  21  33  52  74  97 126 158 194 240 291
#     4   9  17  30  48  69  95 125 158 197 240 286
#     4  10  21  34  48  68  97 131 167 205 241 281
#     4  11  21  35  52  71  96 125 159 201 242 283
#
# _framework density 16.640685999999999
#
# number of rings (size 3 to 8) (size 9 to 14) (size 15 to 20)
#    0.000    1.750    2.500    4.125    0.000    3.500 
#    0.000    0.000    0.000    0.000    0.000    0.875 
#    0.000    0.000    0.000    0.000    0.000    0.000 
#
# Total GULP energy -396795.421188 kJ/mol
# GULP energy per Si atom -12399.856912 kJ/mol
# Density = 1.660281 g / cm^3
# Si number density = 16.640686 Si / 1000 Ang^3
#
#
#
# Elastic Constant Matrix: (Units=GPa)
#
#
# Indices 1 2 3 4 5 6 
#
# 1 86.4178 17.8853 53.9497 0.0000 14.2295 0.0000
# 2 17.8853 43.4615 22.7506 0.0000 6.2783 0.0000
# 3 53.9497 22.7506 102.6916 0.0000 16.3036 0.0000
# 4 0.0000 0.0000 0.0000 27.8146 0.0000 2.4092
# 5 14.2295 6.2783 16.3036 0.0000 25.9946 0.0000
# 6 0.0000 0.0000 0.0000 2.4092 0.0000 15.9729
#
#
#
# Elastic Compliance Matrix: (Units=1/GPa)
#
#
# Indices 1 2 3 4 5 6 
#
# 1 0.017867 -0.002479 -0.008196 0.000000 -0.004041 0.000000
# 2 -0.002479 0.026579 -0.004201 0.000000 -0.002428 0.000000
# 3 -0.008196 -0.004201 0.015660 0.000000 -0.004321 0.000000
# 4 0.000000 0.000000 0.000000 0.036428 0.000000 -0.005494
# 5 -0.004041 -0.002428 -0.004321 0.000000 0.043978 0.000000
# 6 0.000000 0.000000 0.000000 -0.005494 0.000000 0.063435
#
#
# Mechanical properties :
#
#
# Convention : Reuss Voigt Hill
#
# Bulk Modulus (GPa) = 32.94288 46.86022 39.90155
# Shear Modulus (GPa) = 20.50740 23.15545 21.83142
#
# Velocity S-wave (km/s) = 3.51431 3.73432 3.62599
# Velocity P-wave (km/s) = 6.02551 6.84213 6.44676
#
# Compressibility (1/GPa) = 0.03035557
#
# Stress axis : x y z
#
# Youngs Moduli (GPa) = 55.97066 37.62435 63.85637
#
# Poissons Ratio (x) = 0.09325 0.52334
# Poissons Ratio (y) = 0.13873 0.26824
# Poissons Ratio (z) = 0.45871 0.15805
#
# Static dielectric constant tensor:
#      x y z
#    x 3.246420 0.000000 0.219480 
#    y 0.000000 3.150480 0.000000 
#    z 0.219480 0.000000 3.109670 
# 
# 
# High freq. dielectric constant tensor:
#      x y z
#    x 1.623710 0.000000 0.016850 
#    y 0.000000 1.647840 0.000000 
#    z 0.016850 0.000000 1.627780 
# 
# From -- ./inp_files/248462.got.cif
#   From: 2010.06.25/outbox.cif.g09.slc.cpg/sg12_125_cif.got.tgz:248462.got - 2010.06.28 00:19:55.
