data_PCOD8086737
_publ_section_title
;
Structure prediction by ZEFSAII (Michael W. Deem and Ramdas Pophale) SiO2 
 PCOD8086737
Probable space group: C 2/M
;
_chemical_formula_sum "Si O2"
_cell_formula_units_Z 56
_cell_length_a 34.180314
_cell_length_b 9.085583
_cell_length_c 10.230950
_cell_angle_alpha 90.000000
_cell_angle_beta 74.698551
_cell_angle_gamma 90.000000
_cell_volume 3064.572437
_symmetry_space_group_name_H-M "C 2/M"
_symmetry_group_IT_number 12
_symmetry_cell_setting 'monoclinic'
loop_
_space_group_symop_operation_xyz
x,y,z
-x,y,-z
-x,-y,-z
x,-y,z
1/2+x,1/2+y,z
1/2-x,1/2+y,-z
1/2-x,1/2-y,-z
1/2+x,1/2-y,z
loop_
_atom_site_type_symbol
_atom_site_label
_atom_site_fract_x
_atom_site_fract_y
_atom_site_fract_z
Si Si1 0.084494 0.172715 0.053985
Si Si2 0.204229 0.669660 0.294088
Si Si3 0.995586 0.333738 0.849235
Si Si4 0.924281 0.827615 0.241520
Si Si5 0.348503 0.829134 0.411371
Si Si6 0.712548 0.827131 0.758283
Si Si7 0.834768 0.326524 0.942745
O O1 0.123331 0.239516 0.090609
O O2 0.045169 0.247558 0.153929
O O3 0.082076 0.000000 0.082229
O O4 0.086985 0.209052 0.898113
O O5 0.216674 0.500000 0.279618
O O6 0.168962 0.698867 0.429605
O O7 0.243778 0.757412 0.300831
O O8 0.188345 0.722107 0.167604
O O9 0.993575 0.500000 0.796513
O O10 0.033966 0.250619 0.752966
O O11 0.000000 0.333037 0.000000
O O12 0.889210 0.765315 0.364912
O O13 0.929522 0.000000 0.259958
O O14 0.316350 0.772311 0.332661
O O15 0.358909 0.000000 0.377416
O O16 0.718485 0.000000 0.747122
O O17 0.693419 0.776782 0.912383
O O18 0.844202 0.500000 0.938396
#
# Coordination Sequence:
#
# PCOD8086737 Si02
#       7
#     8   8   8   8   8   8   8
#     4  10  19  31  50  78 107 135 171 215 257 301
#     4  10  22  36  52  75 104 137 174 216 261 308
#     4   9  17  29  49  76 107 140 169 206 256 308
#     4  10  19  31  50  78 107 135 171 215 257 301
#     4  10  20  35  53  75 104 138 174 213 258 310
#     4  10  20  34  54  75 100 135 176 218 259 308
#     4  10  20  35  53  75 104 138 174 213 258 310
#
# _framework density 18.273347999999999
#
# number of rings (size 3 to 8) (size 9 to 14) (size 15 to 20)
#    0.000    2.143    1.429    2.143    0.000    5.143 
#    0.000    0.000    0.000    0.857    0.000    6.000 
#    0.000    0.000    0.000    0.000    0.000    0.000 
#
# Total GULP energy -347316.989354 kJ/mol
# GULP energy per Si atom -12404.178191 kJ/mol
# Density = 1.823176 g / cm^3
# Si number density = 18.273348 Si / 1000 Ang^3
#
#
#
# Elastic Constant Matrix: (Units=GPa)
#
#
# Indices 1 2 3 4 5 6 
#
# 1 73.9284 39.1866 18.9233 0.0000 -30.8280 0.0000
# 2 39.1866 71.6886 20.1481 0.0000 -16.3274 0.0000
# 3 18.9233 20.1481 63.8040 0.0000 -3.7659 0.0000
# 4 0.0000 0.0000 0.0000 17.6845 0.0000 -8.9302
# 5 -30.8280 -16.3274 -3.7659 0.0000 26.8363 0.0000
# 6 0.0000 0.0000 0.0000 -8.9302 0.0000 37.4587
#
#
#
# Elastic Compliance Matrix: (Units=1/GPa)
#
#
# Indices 1 2 3 4 5 6 
#
# 1 0.032834 -0.009443 -0.004910 0.000000 0.031283 0.000000
# 2 -0.009443 0.020348 -0.003564 0.000000 0.001032 0.000000
# 3 -0.004910 -0.003564 0.017942 0.000000 -0.005290 0.000000
# 4 0.000000 0.000000 0.000000 0.064286 0.000000 0.015326
# 5 0.031283 0.001032 -0.005290 0.000000 0.073085 0.000000
# 6 0.000000 0.000000 0.000000 0.015326 0.000000 0.030350
#
#
# Mechanical properties :
#
#
# Convention : Reuss Voigt Hill
#
# Bulk Modulus (GPa) = 28.33595 40.65967 34.49781
# Shear Modulus (GPa) = 17.45561 25.14008 21.29785
#
# Velocity S-wave (km/s) = 3.09406 3.71317 3.41767
# Velocity P-wave (km/s) = 5.32022 6.37829 5.87313
#
# Compressibility (1/GPa) = 0.03529085
#
# Stress axis : x y z
#
# Youngs Moduli (GPa) = 30.45648 49.14582 55.73432
#
# Poissons Ratio (x) = 0.46408 0.27363
# Poissons Ratio (y) = 0.28760 0.19863
# Poissons Ratio (z) = 0.14953 0.17515
#
# Static dielectric constant tensor:
#      x y z
#    x 3.343040 0.000000 -0.098760 
#    y 0.000000 3.338790 0.000000 
#    z -0.098760 0.000000 3.233620 
# 
# 
# High freq. dielectric constant tensor:
#      x y z
#    x 1.710920 0.000000 -0.018460 
#    y 0.000000 1.709960 0.000000 
#    z -0.018460 0.000000 1.686440 
# 
# From -- ./inp_files/186490.got.cif
#   From: 2010.06.25/outbox.cif.g09.slc.cpg/sg12_94_cif.got.tgz:186490.got - 2010.06.28 00:19:55.
