data_PCOD8086711
_publ_section_title
;
Structure prediction by ZEFSAII (Michael W. Deem and Ramdas Pophale) SiO2 
 PCOD8086711
Probable space group: C 2/M
;
_chemical_formula_sum "Si O2"
_cell_formula_units_Z 48
_cell_length_a 18.591874
_cell_length_b 9.064213
_cell_length_c 18.964243
_cell_angle_alpha 90.000000
_cell_angle_beta 61.805020
_cell_angle_gamma 90.000000
_cell_volume 2816.661472
_symmetry_space_group_name_H-M "C 2/M"
_symmetry_group_IT_number 12
_symmetry_cell_setting 'monoclinic'
loop_
_space_group_symop_operation_xyz
x,y,z
-x,y,-z
-x,-y,-z
x,-y,z
1/2+x,1/2+y,z
1/2-x,1/2+y,-z
1/2-x,1/2-y,-z
1/2+x,1/2-y,z
loop_
_atom_site_type_symbol
_atom_site_label
_atom_site_fract_x
_atom_site_fract_y
_atom_site_fract_z
Si Si1 0.558514 0.167026 0.759495
Si Si2 0.689481 0.674888 0.775760
Si Si3 0.157823 0.827628 0.344705
Si Si4 0.940210 0.332437 0.086868
Si Si5 0.490573 0.671864 0.348939
Si Si6 0.825757 0.826225 0.501693
O O1 0.643591 0.259117 0.727371
O O2 0.514846 0.169640 0.857037
O O3 0.500070 0.241135 0.729027
O O4 0.579854 0.000000 0.727039
O O5 0.688190 0.500000 0.774774
O O6 0.781514 0.734658 0.733051
O O7 0.642515 0.734522 0.867940
O O8 0.168145 0.776049 0.420230
O O9 0.066259 0.789359 0.363756
O O10 0.177150 0.000000 0.326320
O O11 0.916099 0.500000 0.077145
O O12 0.000000 0.264130 0.000000
O O13 0.487945 0.500000 0.332452
O O14 0.408713 0.725457 0.425470
O O15 0.750000 0.750000 0.500000
O O16 0.814747 0.000000 0.500791
#
# Coordination Sequence:
#
# PCOD8086711 Si02
#       6
#     8   8   8   8   8   8
#     4   9  18  32  51  75 102 132 167 206 253 304
#     4  10  19  31  50  77 105 131 168 212 251 296
#     4  10  20  35  52  71 101 140 175 209 255 305
#     4   8  16  32  54  78 103 132 166 205 252 304
#     4  10  20  34  52  74 101 135 174 215 256 299
#     4  10  21  35  52  73  99 133 175 217 254 297
#
# _framework density 17.041450999999999
#
# number of rings (size 3 to 8) (size 9 to 14) (size 15 to 20)
#    1.000    1.500    0.000    3.000    0.000    7.000 
#    0.000    0.000    0.000    4.000    0.000    0.000 
#    0.000    0.000    0.000    0.000    0.000    0.000 
#
# Total GULP energy -297451.923363 kJ/mol
# GULP energy per Si atom -12393.830140 kJ/mol
# Density = 1.700266 g / cm^3
# Si number density = 17.041451 Si / 1000 Ang^3
#
#
#
# Elastic Constant Matrix: (Units=GPa)
#
#
# Indices 1 2 3 4 5 6 
#
# 1 111.4563 50.1776 59.1960 0.0000 -10.6041 -0.0001
# 2 50.1776 82.9074 49.4387 -0.0001 -8.7681 -0.0002
# 3 59.1960 49.4387 118.3833 0.0000 -11.5328 0.0000
# 4 0.0000 -0.0001 0.0000 18.5766 0.0000 1.2038
# 5 -10.6041 -8.7681 -11.5328 0.0000 16.5624 0.0000
# 6 -0.0001 -0.0002 0.0000 1.2038 0.0000 28.3740
#
#
#
# Elastic Compliance Matrix: (Units=1/GPa)
#
#
# Indices 1 2 3 4 5 6 
#
# 1 0.014131 -0.005588 -0.004441 0.000000 0.002997 0.000000
# 2 -0.005588 0.018536 -0.004655 0.000000 0.002994 0.000000
# 3 -0.004441 -0.004655 0.012975 0.000000 0.003727 0.000000
# 4 0.000000 0.000000 0.000000 0.053979 0.000000 -0.002290
# 5 0.002997 0.002994 0.003727 0.000000 0.066477 0.000000
# 6 0.000000 0.000000 0.000000 -0.002290 0.000000 0.035341
#
#
# Mechanical properties :
#
#
# Convention : Reuss Voigt Hill
#
# Bulk Modulus (GPa) = 61.44373 70.04128 65.74251
# Shear Modulus (GPa) = 21.16568 22.96493 22.06530
#
# Velocity S-wave (km/s) = 3.52804 3.67494 3.60224
# Velocity P-wave (km/s) = 7.26153 7.69394 7.48086
#
# Compressibility (1/GPa) = 0.01627505
#
# Stress axis : x y z
#
# Youngs Moduli (GPa) = 70.76451 53.94906 77.07216
#
# Poissons Ratio (x) = 0.30145 0.34226
# Poissons Ratio (y) = 0.39540 0.35879
# Poissons Ratio (z) = 0.31425 0.25115
#
# Static dielectric constant tensor:
#      x y z
#    x 3.000130 0.000000 -0.005820 
#    y 0.000000 3.075890 0.000000 
#    z -0.005820 0.000000 3.163090 
# 
# 
# High freq. dielectric constant tensor:
#      x y z
#    x 1.636040 0.000000 -0.001920 
#    y 0.000000 1.655870 0.000000 
#    z -0.001920 0.000000 1.649680 
# 
# From -- ./inp_files/313218.got.cif
#   From: 2010.06.25/outbox.cif.g09.slc.cpg/sg12_157_cif.got.tgz:313218.got - 2010.06.28 00:19:55.
