data_PCOD8086786
_publ_section_title
;
Structure prediction by ZEFSAII (Michael W. Deem and Ramdas Pophale) SiO2 
 PCOD8086786
Probable space group: C 2/M
;
_chemical_formula_sum "Si O2"
_cell_formula_units_Z 56
_cell_length_a 28.712791
_cell_length_b 9.606217
_cell_length_c 16.830543
_cell_angle_alpha 90.000000
_cell_angle_beta 138.396639
_cell_angle_gamma 90.000000
_cell_volume 3082.296680
_symmetry_space_group_name_H-M "C 2/M"
_symmetry_group_IT_number 12
_symmetry_cell_setting 'monoclinic'
loop_
_space_group_symop_operation_xyz
x,y,z
-x,y,-z
-x,-y,-z
x,-y,z
1/2+x,1/2+y,z
1/2-x,1/2+y,-z
1/2-x,1/2-y,-z
1/2+x,1/2-y,z
loop_
_atom_site_type_symbol
_atom_site_label
_atom_site_fract_x
_atom_site_fract_y
_atom_site_fract_z
Si Si1 0.667869 0.836982 0.701889
Si Si2 0.274854 0.155470 0.461578
Si Si3 0.412058 0.165528 0.547904
Si Si4 0.444775 0.163577 0.996463
Si Si5 0.692482 0.342702 0.198045
Si Si6 0.456683 0.836017 0.191048
Si Si7 0.319804 0.836360 0.103440
O O1 0.606062 0.778705 0.564732
O O2 0.745110 0.779362 0.777439
O O3 0.650226 0.803586 0.770311
O O4 0.672852 0.000000 0.690271
O O5 0.250000 0.250000 0.500000
O O6 0.348712 0.213007 0.523697
O O7 0.216516 0.157430 0.319368
O O8 0.284941 0.000000 0.507639
O O9 0.483810 0.230528 0.675301
O O10 0.418430 0.000000 0.555150
O O11 0.473266 0.202431 0.120775
O O12 0.429851 0.000000 0.970185
O O13 0.500000 0.212432 0.000000
O O14 0.372856 0.242202 0.892003
O O15 0.671853 0.500000 0.145387
O O16 0.379467 0.782822 0.118613
O O17 0.457018 0.000000 0.203953
O O18 0.302720 0.000000 0.072066
O O19 0.250000 0.750000 0.000000
#
# Coordination Sequence:
#
# PCOD8086786 Si02
#       7
#     8   8   8   8   8   8   8
#     4   8  15  29  49  73  97 124 157 195 243 293
#     4   9  18  30  49  72  94 125 162 200 241 287
#     4   8  15  29  48  70  99 127 154 198 248 284
#     4  10  21  33  47  69  96 129 167 201 239 289
#     4   9  18  33  49  69  96 125 160 198 240 291
#     4   9  18  31  47  72 101 126 160 205 244 285
#     4  10  19  31  51  76 100 126 161 200 239 289
#
# _framework density 18.168272000000002
#
# number of rings (size 3 to 8) (size 9 to 14) (size 15 to 20)
#    0.000    3.000    0.000    2.571    2.000    1.429 
#    0.000    2.857    0.000    1.714    0.000    1.000 
#    0.000    0.000    0.000    0.000    0.000    0.000 
#
# Total GULP energy -347013.786121 kJ/mol
# GULP energy per Si atom -12393.349504 kJ/mol
# Density = 1.812692 g / cm^3
# Si number density = 18.168272 Si / 1000 Ang^3
#
#
#
# Elastic Constant Matrix: (Units=GPa)
#
#
# Indices 1 2 3 4 5 6 
#
# 1 112.2018 22.3840 63.8271 0.0000 -7.9691 0.0000
# 2 22.3840 26.9328 26.8619 0.0000 -0.7645 0.0000
# 3 63.8271 26.8619 127.3264 0.0000 12.7394 0.0000
# 4 0.0000 0.0000 0.0000 22.5455 0.0000 3.5850
# 5 -7.9691 -0.7645 12.7394 0.0000 27.3008 0.0000
# 6 0.0000 0.0000 0.0000 3.5850 0.0000 18.8097
#
#
#
# Elastic Compliance Matrix: (Units=1/GPa)
#
#
# Indices 1 2 3 4 5 6 
#
# 1 0.014301 -0.004821 -0.006877 0.000000 0.007249 0.000000
# 2 -0.004821 0.049684 -0.008458 0.000000 0.003931 0.000000
# 3 -0.006877 -0.008458 0.013962 0.000000 -0.008760 0.000000
# 4 0.000000 0.000000 0.000000 0.045741 0.000000 -0.008718
# 5 0.007249 0.003931 -0.008760 0.000000 0.042942 0.000000
# 6 0.000000 0.000000 0.000000 -0.008718 0.000000 0.054826
#
#
# Mechanical properties :
#
#
# Convention : Reuss Voigt Hill
#
# Bulk Modulus (GPa) = 26.57156 54.73412 40.65284
# Shear Modulus (GPa) = 18.22725 23.95706 21.09216
#
# Velocity S-wave (km/s) = 3.17084 3.63522 3.41094
# Velocity P-wave (km/s) = 5.29742 6.91458 6.15930
#
# Compressibility (1/GPa) = 0.03763423
#
# Stress axis : x y z
#
# Youngs Moduli (GPa) = 69.92364 20.12720 71.62210
#
# Poissons Ratio (x) = 0.09703 0.49256
# Poissons Ratio (y) = 0.33710 0.60581
# Poissons Ratio (z) = 0.48088 0.17024
#
# Static dielectric constant tensor:
#      x y z
#    x 3.489340 0.000000 -0.074020 
#    y 0.000000 2.937420 0.000000 
#    z -0.074020 0.000000 3.634340 
# 
# 
# High freq. dielectric constant tensor:
#      x y z
#    x 1.710100 0.000000 -0.005600 
#    y 0.000000 1.648310 0.000000 
#    z -0.005600 0.000000 1.714010 
# 
# From -- ./inp_files/223929.got.cif
#   From: 2010.06.25/outbox.cif.g09.slc.cpg/sg12_112_cif.got.tgz:223929.got - 2010.06.28 00:19:55.
