data_PCOD8086434
_publ_section_title
;
Structure prediction by ZEFSAII (Michael W. Deem and Ramdas Pophale) SiO2 
 PCOD8086434
Probable space group: C 2/M
;
_chemical_formula_sum "Si O2"
_cell_formula_units_Z 64
_cell_length_a 14.182290
_cell_length_b 8.982623
_cell_length_c 29.005394
_cell_angle_alpha 90.000000
_cell_angle_beta 77.463160
_cell_angle_gamma 90.000000
_cell_volume 3607.013900
_symmetry_space_group_name_H-M "C 2/M"
_symmetry_group_IT_number 12
_symmetry_cell_setting 'monoclinic'
loop_
_space_group_symop_operation_xyz
x,y,z
-x,y,-z
-x,-y,-z
x,-y,z
1/2+x,1/2+y,z
1/2-x,1/2+y,-z
1/2-x,1/2-y,-z
1/2+x,1/2-y,z
loop_
_atom_site_type_symbol
_atom_site_label
_atom_site_fract_x
_atom_site_fract_y
_atom_site_fract_z
Si Si1 0.029548 0.175478 0.945954
Si Si2 0.458926 0.675202 0.383482
Si Si3 0.654221 0.326024 0.694988
Si Si4 0.592920 0.676436 0.802104
Si Si5 0.195454 0.677669 0.874074
Si Si6 0.593810 0.674559 0.126206
Si Si7 0.177247 0.825967 0.370614
Si Si8 0.210444 0.674951 0.549675
O O1 0.125677 0.262533 0.921483
O O2 0.942811 0.221396 0.920737
O O3 0.051055 0.000000 0.940716
O O4 0.000000 0.226148 0.000000
O O5 0.450580 0.500000 0.394059
O O6 0.422824 0.717572 0.336169
O O7 0.568177 0.732859 0.377259
O O8 0.395064 0.759942 0.428118
O O9 0.673589 0.500000 0.693441
O O10 0.611468 0.270995 0.748023
O O11 0.757082 0.249503 0.675304
O O12 0.605958 0.500000 0.807248
O O13 0.668561 0.758969 0.826934
O O14 0.484588 0.726741 0.827425
O O15 0.191148 0.500000 0.873460
O O16 0.301661 0.743478 0.874378
O O17 0.605633 0.500000 0.127706
O O18 0.215831 0.784417 0.417135
O O19 0.181863 0.000000 0.360793
O O20 0.201619 0.500000 0.542946
O O21 0.250000 0.750000 0.500000
#
# Coordination Sequence:
#
# PCOD8086434 Si02
#       8
#     8   8   8   8   8   8   8   8
#     4   9  18  34  53  70  93 128 162 192 236 293
#     4   9  18  34  53  73  97 128 163 198 240 291
#     4   9  18  32  52  74  96 125 162 200 237 281
#     4   9  18  34  51  69  97 131 162 193 234 288
#     4  10  19  31  49  73  98 125 159 201 241 277
#     4   8  16  31  49  69  96 127 158 193 236 285
#     4   9  19  34  52  73  99 128 159 198 243 287
#     4  10  20  34  51  73 100 130 162 200 242 284
#
# _framework density 17.743207999999999
#
# number of rings (size 3 to 8) (size 9 to 14) (size 15 to 20)
#    0.000    2.875    0.000    1.500    0.000    3.750 
#    0.000   10.000    0.000    0.000    0.000    0.000 
#    0.000    0.000    0.000    0.000    0.000    0.000 
#
# Total GULP energy -396788.012380 kJ/mol
# GULP energy per Si atom -12399.625387 kJ/mol
# Density = 1.770282 g / cm^3
# Si number density = 17.743208 Si / 1000 Ang^3
#
#
#
# Elastic Constant Matrix: (Units=GPa)
#
#
# Indices 1 2 3 4 5 6 
#
# 1 167.4438 39.3769 72.9014 0.0000 -7.7361 0.0000
# 2 39.3769 41.3755 41.8057 0.0000 -4.6925 0.0000
# 3 72.9014 41.8057 156.2257 0.0000 -14.2688 0.0000
# 4 0.0000 0.0000 0.0000 28.2761 0.0000 -3.7931
# 5 -7.7361 -4.6925 -14.2688 0.0000 13.7006 0.0000
# 6 0.0000 0.0000 0.0000 -3.7931 0.0000 27.1786
#
#
#
# Elastic Compliance Matrix: (Units=1/GPa)
#
#
# Indices 1 2 3 4 5 6 
#
# 1 0.008311 -0.005460 -0.002386 0.000000 0.000337 0.000000
# 2 -0.005460 0.036780 -0.007101 0.000000 0.002119 0.000000
# 3 -0.002386 -0.007101 0.010023 0.000000 0.006659 0.000000
# 4 0.000000 0.000000 0.000000 0.036040 0.000000 0.005030
# 5 0.000337 0.002119 0.006659 0.000000 0.080841 0.000000
# 6 0.000000 0.000000 0.000000 0.005030 0.000000 0.037496
#
#
# Mechanical properties :
#
#
# Convention : Reuss Voigt Hill
#
# Bulk Modulus (GPa) = 39.65179 74.80145 57.22662
# Shear Modulus (GPa) = 20.17830 27.89515 24.03672
#
# Velocity S-wave (km/s) = 3.37596 3.96935 3.68462
# Velocity P-wave (km/s) = 6.13125 7.95342 7.10103
#
# Compressibility (1/GPa) = 0.02521954
#
# Stress axis : x y z
#
# Youngs Moduli (GPa) = 120.32787 27.18860 99.77161
#
# Poissons Ratio (x) = 0.14845 0.23808
# Poissons Ratio (y) = 0.65698 0.70847
# Poissons Ratio (z) = 0.28713 0.19306
#
# Static dielectric constant tensor:
#      x y z
#    x 3.531600 0.000000 -0.020090 
#    y 0.000000 3.125500 0.000000 
#    z -0.020090 0.000000 3.394840 
# 
# 
# High freq. dielectric constant tensor:
#      x y z
#    x 1.690220 0.000000 -0.003290 
#    y 0.000000 1.672230 0.000000 
#    z -0.003290 0.000000 1.689680 
# 
# From -- ./inp_files/359798.got.cif
#   From: 2010.06.25/outbox.cif.g09.slc.cpg/sg12_180_cif.got.tgz:359798.got - 2010.06.28 00:19:55.
