data_PCOD8086888
_publ_section_title
;
Structure prediction by ZEFSAII (Michael W. Deem and Ramdas Pophale) SiO2 
 PCOD8086888
Probable space group: C 2/M
;
_chemical_formula_sum "Si O2"
_cell_formula_units_Z 56
_cell_length_a 24.243913
_cell_length_b 13.553928
_cell_length_c 23.360321
_cell_angle_alpha 90.000000
_cell_angle_beta 154.809016
_cell_angle_gamma 90.000000
_cell_volume 3267.277129
_symmetry_space_group_name_H-M "C 2/M"
_symmetry_group_IT_number 12
_symmetry_cell_setting 'monoclinic'
loop_
_space_group_symop_operation_xyz
x,y,z
-x,y,-z
-x,-y,-z
x,-y,z
1/2+x,1/2+y,z
1/2-x,1/2+y,-z
1/2-x,1/2-y,-z
1/2+x,1/2-y,z
loop_
_atom_site_type_symbol
_atom_site_label
_atom_site_fract_x
_atom_site_fract_y
_atom_site_fract_z
Si Si1 0.972180 0.607048 0.187730
Si Si2 0.965411 0.816309 0.151833
Si Si3 0.311115 0.388533 0.110069
Si Si4 0.763830 0.711978 0.143242
Si Si5 0.346779 0.614476 0.852998
Si Si6 0.217475 0.113246 0.332844
Si Si7 0.469378 0.111921 0.629238
O O1 0.008618 0.500000 0.193645
O O2 0.010471 0.701665 0.185621
O O3 0.044956 0.617146 0.316047
O O4 0.816361 0.611718 0.050014
O O5 0.926873 0.839081 0.181719
O O6 0.087624 0.880159 0.248617
O O7 0.841200 0.842007 0.996162
O O8 0.349492 0.500000 0.163885
O O9 0.280321 0.326421 0.139006
O O10 0.714421 0.694124 0.161103
O O11 0.904818 0.666843 0.273671
O O12 0.303511 0.500000 0.824030
O O13 0.302178 0.655555 0.749241
O O14 0.500000 0.620807 0.000000
O O15 0.341143 0.162546 0.480781
O O16 0.250125 0.000000 0.356956
O O17 0.483786 0.000000 0.622241
#
# Coordination Sequence:
#
# PCOD8086888 Si02
#       7
#     8   8   8   8   8   8   8
#     4   9  17  30  48  74 106 132 161 205 250 295
#     4  11  18  32  54  76 100 137 171 204 246 301
#     4  10  19  31  51  80 104 128 171 213 246 292
#     4  11  19  33  54  75  98 137 173 204 247 300
#     4  10  20  34  53  77 101 129 168 212 252 295
#     4  10  22  34  48  77 109 133 165 208 253 300
#     4  10  19  32  49  75 107 135 163 203 253 303
#
# _framework density 17.139654
#
# number of rings (size 3 to 8) (size 9 to 14) (size 15 to 20)
#    0.000    1.857    4.286    1.714    0.000    2.286 
#    0.000    2.143    0.000    1.286    0.000    1.000 
#    0.000    0.000    0.000    0.000    0.000    0.000 
#
# Total GULP energy -346940.883990 kJ/mol
# GULP energy per Si atom -12390.745857 kJ/mol
# Density = 1.710064 g / cm^3
# Si number density = 17.139654 Si / 1000 Ang^3
#
#
#
# Elastic Constant Matrix: (Units=GPa)
#
#
# Indices 1 2 3 4 5 6 
#
# 1 79.4720 31.3744 36.0315 -0.0001 -4.2370 -0.0001
# 2 31.3744 66.0694 31.8103 0.0000 -4.7364 0.0000
# 3 36.0315 31.8103 110.0407 -0.0001 3.2894 -0.0003
# 4 -0.0001 0.0000 -0.0001 15.5694 0.0000 -2.5364
# 5 -4.2370 -4.7364 3.2894 0.0000 21.6100 -0.0001
# 6 -0.0001 0.0000 -0.0003 -2.5364 -0.0001 22.0421
#
#
#
# Elastic Compliance Matrix: (Units=1/GPa)
#
#
# Indices 1 2 3 4 5 6 
#
# 1 0.016819 -0.005940 -0.003867 0.000000 0.002585 0.000000
# 2 -0.005940 0.020158 -0.003998 0.000000 0.003862 0.000000
# 3 -0.003867 -0.003998 0.011611 0.000000 -0.003402 0.000000
# 4 0.000000 0.000000 0.000000 0.065455 0.000000 0.007532
# 5 0.002585 0.003862 -0.003402 0.000000 0.048146 0.000000
# 6 0.000000 0.000000 0.000000 0.007532 0.000000 0.046234
#
#
# Mechanical properties :
#
#
# Convention : Reuss Voigt Hill
#
# Bulk Modulus (GPa) = 47.66776 50.44609 49.05693
# Shear Modulus (GPa) = 20.57388 22.26870 21.42129
#
# Velocity S-wave (km/s) = 3.46839 3.60842 3.53910
# Velocity P-wave (km/s) = 6.62657 6.84523 6.73679
#
# Compressibility (1/GPa) = 0.02097854
#
# Stress axis : x y z
#
# Youngs Moduli (GPa) = 59.45598 49.60861 86.12322
#
# Poissons Ratio (x) = 0.29465 0.33308
# Poissons Ratio (y) = 0.35314 0.34430
# Poissons Ratio (z) = 0.22995 0.19832
#
# Static dielectric constant tensor:
#      x y z
#    x 3.024150 0.000000 -0.099450 
#    y 0.000000 3.287390 0.000000 
#    z -0.099450 0.000000 3.440980 
# 
# 
# High freq. dielectric constant tensor:
#      x y z
#    x 1.633310 0.000000 0.005060 
#    y 0.000000 1.645850 0.000000 
#    z 0.005060 0.000000 1.659200 
# 
# From -- ./inp_files/86343.got.cif
#   From: 2010.06.25/outbox.cif.g09.slc.cpg/sg12_44_cif.got.tgz:86343.got - 2010.06.28 00:19:55.
