data_PCOD8086963
_publ_section_title
;
Structure prediction by ZEFSAII (Michael W. Deem and Ramdas Pophale) SiO2 
 PCOD8086963
Probable space group: C 2/M
;
_chemical_formula_sum "Si O2"
_cell_formula_units_Z 64
_cell_length_a 20.787179
_cell_length_b 9.129568
_cell_length_c 27.082684
_cell_angle_alpha 90.000000
_cell_angle_beta 137.648402
_cell_angle_gamma 90.000000
_cell_volume 3462.502189
_symmetry_space_group_name_H-M "C 2/M"
_symmetry_group_IT_number 12
_symmetry_cell_setting 'monoclinic'
loop_
_space_group_symop_operation_xyz
x,y,z
-x,y,-z
-x,-y,-z
x,-y,z
1/2+x,1/2+y,z
1/2-x,1/2+y,-z
1/2-x,1/2-y,-z
1/2+x,1/2-y,z
loop_
_atom_site_type_symbol
_atom_site_label
_atom_site_fract_x
_atom_site_fract_y
_atom_site_fract_z
Si Si1 0.920501 0.326455 0.567097
Si Si2 0.585874 0.338449 0.087139
Si Si3 0.770883 0.673248 0.398812
Si Si4 0.928682 0.673358 0.418979
Si Si5 0.080738 0.169199 0.821901
Si Si6 0.413411 0.174204 0.673544
Si Si7 0.431528 0.327399 0.072065
Si Si8 0.798329 0.331135 0.920809
O O1 0.919992 0.500000 0.568986
O O2 0.836707 0.275441 0.482359
O O3 0.903315 0.263602 0.611925
O O4 0.026765 0.273015 0.608218
O O5 0.631675 0.500000 0.119680
O O6 0.537228 0.284799 0.110942
O O7 0.667233 0.230203 0.112958
O O8 0.500000 0.345581 0.000000
O O9 0.751203 0.500000 0.389914
O O10 0.821668 0.719045 0.375142
O O11 0.672205 0.759595 0.343021
O O12 0.933374 0.500000 0.423616
O O13 0.000000 0.738688 0.500000
O O14 0.074800 0.222192 0.875070
O O15 0.185983 0.193655 0.860620
O O16 0.013010 0.271365 0.751451
O O17 0.049138 0.000000 0.799607
O O18 0.409718 0.000000 0.673667
O O19 0.414110 0.500000 0.055815
O O20 0.347764 0.248367 0.994718
O O21 0.826743 0.500000 0.939732
#
# Coordination Sequence:
#
# PCOD8086963 Si02
#       8
#     8   8   8   8   8   8   8   8
#     4   8  15  29  50  76  99 122 160 203 240 283
#     4   8  15  29  50  75 100 125 156 196 239 284
#     4   9  16  30  54  76  96 125 159 200 245 287
#     4   7  11  23  47  75  95 116 155 201 237 276
#     4  10  22  38  51  67  96 133 170 202 237 285
#     4  11  22  33  47  70 101 132 162 200 242 287
#     4   9  18  34  55  75  96 126 164 202 237 282
#     4  10  19  31  52  79 102 125 156 199 247 292
#
# _framework density 18.483744000000002
#
# number of rings (size 3 to 8) (size 9 to 14) (size 15 to 20)
#    0.000    3.000    0.000    3.750    0.000    3.750 
#    0.000    1.875    0.000   10.875    0.000    0.000 
#    0.000    0.000    0.000    0.000    0.000    0.000 
#
# Total GULP energy -396480.867123 kJ/mol
# GULP energy per Si atom -12390.027098 kJ/mol
# Density = 1.844167 g / cm^3
# Si number density = 18.483744 Si / 1000 Ang^3
#
#
#
# Elastic Constant Matrix: (Units=GPa)
#
#
# Indices 1 2 3 4 5 6 
#
# 1 124.7026 36.4679 24.1638 0.0000 14.4164 0.0000
# 2 36.4679 55.2251 26.7676 0.0000 8.6802 0.0001
# 3 24.1638 26.7676 46.6249 0.0000 13.9181 0.0000
# 4 0.0000 0.0000 0.0000 21.8271 0.0000 -0.5885
# 5 14.4164 8.6802 13.9181 0.0000 10.8620 0.0000
# 6 0.0000 0.0001 0.0000 -0.5885 0.0000 16.3426
#
#
#
# Elastic Compliance Matrix: (Units=1/GPa)
#
#
# Indices 1 2 3 4 5 6 
#
# 1 0.010818 -0.005942 0.001091 0.000000 -0.011007 0.000000
# 2 -0.005942 0.028398 -0.014257 0.000000 0.003461 0.000000
# 3 0.001091 -0.014257 0.042265 0.000000 -0.044211 0.000000
# 4 0.000000 0.000000 0.000000 0.045859 0.000000 0.001651
# 5 -0.011007 0.003461 -0.044211 0.000000 0.160557 0.000000
# 6 0.000000 0.000000 0.000000 0.001651 0.000000 0.061249
#
#
# Mechanical properties :
#
#
# Convention : Reuss Voigt Hill
#
# Bulk Modulus (GPa) = 23.11411 44.59459 33.85435
# Shear Modulus (GPa) = 12.44448 19.08323 15.76385
#
# Velocity S-wave (km/s) = 2.59755 3.21664 2.92353
# Velocity P-wave (km/s) = 4.63989 6.16234 5.45450
#
# Compressibility (1/GPa) = 0.04326361
#
# Stress axis : x y z
#
# Youngs Moduli (GPa) = 92.43903 35.21371 23.66021
#
# Poissons Ratio (x) = 0.20925 -0.02580
# Poissons Ratio (y) = 0.54929 0.33733
# Poissons Ratio (z) = -0.10082 0.50205
#
# Static dielectric constant tensor:
#      x y z
#    x 4.097950 0.000000 -0.224940 
#    y 0.000000 3.120760 0.000000 
#    z -0.224940 0.000000 3.097020 
# 
# 
# High freq. dielectric constant tensor:
#      x y z
#    x 1.745600 0.000000 -0.001620 
#    y 0.000000 1.687000 0.000000 
#    z -0.001620 0.000000 1.676570 
# 
# From -- ./inp_files/365244.got.cif
#   From: 2010.06.25/outbox.cif.g09.slc.cpg/sg12_183_cif.got.tgz:365244.got - 2010.06.28 00:19:55.
