data_PCOD8086998
_publ_section_title
;
Structure prediction by ZEFSAII (Michael W. Deem and Ramdas Pophale) SiO2 
 PCOD8086998
Probable space group: C 2/M
;
_chemical_formula_sum "Si O2"
_cell_formula_units_Z 48
_cell_length_a 18.551706
_cell_length_b 8.990916
_cell_length_c 24.838193
_cell_angle_alpha 90.000000
_cell_angle_beta 42.332783
_cell_angle_gamma 90.000000
_cell_volume 2789.997801
_symmetry_space_group_name_H-M "C 2/M"
_symmetry_group_IT_number 12
_symmetry_cell_setting 'monoclinic'
loop_
_space_group_symop_operation_xyz
x,y,z
-x,y,-z
-x,-y,-z
x,-y,z
1/2+x,1/2+y,z
1/2-x,1/2+y,-z
1/2-x,1/2-y,-z
1/2+x,1/2-y,z
loop_
_atom_site_type_symbol
_atom_site_label
_atom_site_fract_x
_atom_site_fract_y
_atom_site_fract_z
Si Si1 0.602592 0.830750 0.912895
Si Si2 0.087955 0.826737 0.495853
Si Si3 0.018126 0.173410 0.653068
Si Si4 0.311331 0.674120 0.352244
Si Si5 0.824817 0.668796 0.239106
Si Si6 0.302678 0.824026 0.773994
O O1 0.583515 0.827236 0.858257
O O2 0.709608 0.734283 0.866550
O O3 0.621602 0.000000 0.922180
O O4 0.500000 0.761400 0.000000
O O5 0.044918 0.777642 0.577753
O O6 0.192610 0.733515 0.425149
O O7 0.000000 0.787211 0.500000
O O8 0.118140 0.000000 0.478590
O O9 0.119156 0.215279 0.634073
O O10 0.917518 0.266964 0.730513
O O11 0.989285 0.000000 0.672713
O O12 0.307865 0.500000 0.344041
O O13 0.365974 0.750146 0.269912
O O14 0.790906 0.500000 0.271581
O O15 0.720080 0.753785 0.272864
O O16 0.300455 0.000000 0.772498
#
# Coordination Sequence:
#
# PCOD8086998 Si02
#       6
#     8   8   8   8   8   8
#     4   8  16  32  55  80 105 136 171 209 258 312
#     4  10  21  36  55  74  98 137 182 221 261 309
#     4  10  21  36  51  73 107 144 177 213 261 312
#     4  11  22  34  51  76 106 139 177 220 262 304
#     4   9  18  33  53  75 103 136 172 211 257 312
#     4  10  19  31  52  81 107 133 171 216 259 303
#
# _framework density 17.204315000000001
#
# number of rings (size 3 to 8) (size 9 to 14) (size 15 to 20)
#    1.000    1.333    0.000    3.500    0.000    4.000 
#    0.000    0.000    0.000    1.000    0.000    0.000 
#    0.000    0.000    0.000    0.000    0.000    0.000 
#
# Total GULP energy -297465.462646 kJ/mol
# GULP energy per Si atom -12394.394277 kJ/mol
# Density = 1.716516 g / cm^3
# Si number density = 17.204315 Si / 1000 Ang^3
#
#
#
# Elastic Constant Matrix: (Units=GPa)
#
#
# Indices 1 2 3 4 5 6 
#
# 1 99.8554 53.9077 53.1308 0.0000 -1.8600 0.0001
# 2 53.9077 99.3140 48.9400 0.0000 -5.4410 0.0002
# 3 53.1308 48.9400 112.2592 0.0000 -9.9459 0.0000
# 4 0.0000 0.0000 0.0000 22.6411 0.0000 1.1854
# 5 -1.8600 -5.4410 -9.9459 0.0000 14.0168 0.0000
# 6 0.0001 0.0002 0.0000 1.1854 0.0000 25.3297
#
#
#
# Elastic Compliance Matrix: (Units=1/GPa)
#
#
# Indices 1 2 3 4 5 6 
#
# 1 0.016190 -0.006441 -0.005214 0.000000 -0.004051 0.000000
# 2 -0.006441 0.015402 -0.003428 0.000000 0.002692 0.000000
# 3 -0.005214 -0.003428 0.013542 0.000000 0.007587 0.000000
# 4 0.000000 0.000000 0.000000 0.044276 0.000000 -0.002072
# 5 -0.004051 0.002692 0.007587 0.000000 0.077233 0.000000
# 6 0.000000 0.000000 0.000000 -0.002072 0.000000 0.039576
#
#
# Mechanical properties :
#
#
# Convention : Reuss Voigt Hill
#
# Bulk Modulus (GPa) = 66.80153 69.26506 68.03329
# Shear Modulus (GPa) = 20.71480 22.76088 21.73784
#
# Velocity S-wave (km/s) = 3.47370 3.64122 3.55845
# Velocity P-wave (km/s) = 7.41630 7.61746 7.51755
#
# Compressibility (1/GPa) = 0.01496972
#
# Stress axis : x y z
#
# Youngs Moduli (GPa) = 61.76574 64.92794 73.84479
#
# Poissons Ratio (x) = 0.41819 0.38500
# Poissons Ratio (y) = 0.39782 0.25311
# Poissons Ratio (z) = 0.32202 0.22255
#
# Static dielectric constant tensor:
#      x y z
#    x 3.071620 0.000000 0.080120 
#    y 0.000000 3.154140 0.000000 
#    z 0.080120 0.000000 3.192240 
# 
# 
# High freq. dielectric constant tensor:
#      x y z
#    x 1.643060 0.000000 0.000110 
#    y 0.000000 1.668010 0.000000 
#    z 0.000110 0.000000 1.656250 
# 
# From -- ./inp_files/273655.got.cif
#   From: 2010.06.25/outbox.cif.g09.slc.cpg/sg12_137_cif.got.tgz:273655.got - 2010.06.28 00:19:55.
