data_PCOD8086921
_publ_section_title
;
Structure prediction by ZEFSAII (Michael W. Deem and Ramdas Pophale) SiO2 
 PCOD8086921
Probable space group: C 2/M
;
_chemical_formula_sum "Si O2"
_cell_formula_units_Z 48
_cell_length_a 18.077063
_cell_length_b 17.489328
_cell_length_c 11.508264
_cell_angle_alpha 90.000000
_cell_angle_beta 136.041654
_cell_angle_gamma 90.000000
_cell_volume 2525.543747
_symmetry_space_group_name_H-M "C 2/M"
_symmetry_group_IT_number 12
_symmetry_cell_setting 'monoclinic'
loop_
_space_group_symop_operation_xyz
x,y,z
-x,y,-z
-x,-y,-z
x,-y,z
1/2+x,1/2+y,z
1/2-x,1/2+y,-z
1/2-x,1/2-y,-z
1/2+x,1/2-y,z
loop_
_atom_site_type_symbol
_atom_site_label
_atom_site_fract_x
_atom_site_fract_y
_atom_site_fract_z
Si Si1 0.366364 0.634373 0.457394
Si Si2 0.272585 0.087266 0.489974
Si Si3 0.150689 0.778374 0.957289
Si Si4 0.575439 0.223516 0.338382
Si Si5 0.880362 0.820864 0.830367
Si Si6 0.600106 0.586023 0.750321
O O1 0.274314 0.599373 0.433949
O O2 0.388353 0.723143 0.513027
O O3 0.472840 0.584263 0.593672
O O4 0.338303 0.625910 0.289211
O O5 0.377914 0.139011 0.590496
O O6 0.184667 0.106555 0.291655
O O7 0.308351 0.000000 0.514710
O O8 0.125300 0.865618 0.893630
O O9 0.052499 0.721767 0.815833
O O10 0.250000 0.750000 0.000000
O O11 0.175448 0.780776 0.122442
O O12 0.623676 0.257391 0.274400
O O13 0.000000 0.846650 0.000000
O O14 0.642551 0.500000 0.814538
#
# Coordination Sequence:
#
# PCOD8086921 Si02
#       6
#     8   8   8   8   8   8
#     4   9  17  32  54  81 107 138 177 223 278 329
#     4  11  21  33  57  84 112 148 185 230 284 327
#     4  10  22  36  56  78 104 152 188 218 277 341
#     4   9  20  37  56  79 109 143 188 236 267 331
#     4   9  19  36  56  80 110 144 186 233 272 323
#     4  10  19  31  51  82 113 133 173 234 280 319
#
# _framework density 19.005807999999998
#
# number of rings (size 3 to 8) (size 9 to 14) (size 15 to 20)
#    0.000    2.333    0.000    5.000    4.667    1.000 
#    0.000    0.833    0.000    5.500    0.000    0.000 
#    0.000    0.000    0.000    0.000    0.000    0.000 
#
# Total GULP energy -297574.841957 kJ/mol
# GULP energy per Si atom -12398.951748 kJ/mol
# Density = 1.896255 g / cm^3
# Si number density = 19.005808 Si / 1000 Ang^3
#
#
#
# Elastic Constant Matrix: (Units=GPa)
#
#
# Indices 1 2 3 4 5 6 
#
# 1 106.1395 41.2736 25.7894 0.0000 1.9421 0.0000
# 2 41.2736 130.2572 34.7322 0.0000 11.8284 0.0000
# 3 25.7894 34.7322 59.4328 0.0000 -1.7528 0.0000
# 4 0.0000 0.0000 0.0000 15.8538 0.0000 3.7013
# 5 1.9421 11.8284 -1.7528 0.0000 18.0200 0.0000
# 6 0.0000 0.0000 0.0000 3.7013 0.0000 24.5845
#
#
#
# Elastic Compliance Matrix: (Units=1/GPa)
#
#
# Indices 1 2 3 4 5 6 
#
# 1 0.011274 -0.002715 -0.003298 0.000000 0.000247 0.000000
# 2 -0.002715 0.010578 -0.005214 0.000000 -0.007158 0.000000
# 3 -0.003298 -0.005214 0.021477 0.000000 0.005867 0.000000
# 4 0.000000 0.000000 0.000000 0.065374 0.000000 -0.009842
# 5 0.000247 -0.007158 0.005867 0.000000 0.060736 0.000000
# 6 0.000000 0.000000 0.000000 -0.009842 0.000000 0.042158
#
#
# Mechanical properties :
#
#
# Convention : Reuss Voigt Hill
#
# Bulk Modulus (GPa) = 47.90762 55.49109 51.69935
# Shear Modulus (GPa) = 20.74588 24.62730 22.68659
#
# Velocity S-wave (km/s) = 3.30745 3.60360 3.45870
# Velocity P-wave (km/s) = 6.31246 6.82458 6.57351
#
# Compressibility (1/GPa) = 0.02087351
#
# Stress axis : x y z
#
# Youngs Moduli (GPa) = 88.69714 94.53650 46.56100
#
# Poissons Ratio (x) = 0.25670 0.15356
# Poissons Ratio (y) = 0.24085 0.24279
# Poissons Ratio (z) = 0.29253 0.49296
#
# Static dielectric constant tensor:
#      x y z
#    x 3.601320 0.000000 -0.282280 
#    y 0.000000 3.247110 0.000000 
#    z -0.282280 0.000000 3.666380 
# 
# 
# High freq. dielectric constant tensor:
#      x y z
#    x 1.741390 0.000000 -0.015190 
#    y 0.000000 1.714690 0.000000 
#    z -0.015190 0.000000 1.724750 
# 
# From -- ./inp_files/158003.got.cif
#   From: 2010.06.25/outbox.cif.g09.slc.cpg/sg12_80_cif.got.tgz:158003.got - 2010.06.28 00:19:55.
