data_PCOD8086930
_publ_section_title
;
Structure prediction by ZEFSAII (Michael W. Deem and Ramdas Pophale) SiO2 
 PCOD8086930
Probable space group: C 2/M
;
_chemical_formula_sum "Si O2"
_cell_formula_units_Z 64
_cell_length_a 27.547062
_cell_length_b 19.555528
_cell_length_c 12.016097
_cell_angle_alpha 90.000000
_cell_angle_beta 28.620232
_cell_angle_gamma 90.000000
_cell_volume 3100.597950
_symmetry_space_group_name_H-M "C 2/M"
_symmetry_group_IT_number 12
_symmetry_cell_setting 'monoclinic'
loop_
_space_group_symop_operation_xyz
x,y,z
-x,y,-z
-x,-y,-z
x,-y,z
1/2+x,1/2+y,z
1/2-x,1/2+y,-z
1/2-x,1/2-y,-z
1/2+x,1/2-y,z
loop_
_atom_site_type_symbol
_atom_site_label
_atom_site_fract_x
_atom_site_fract_y
_atom_site_fract_z
Si Si1 0.817689 0.845757 0.285899
Si Si2 0.897523 0.079058 0.773620
Si Si3 0.670721 0.783508 0.413398
Si Si4 0.530950 0.780169 0.056337
Si Si5 0.029629 0.922108 0.143558
Si Si6 0.821360 0.657959 0.075569
Si Si7 0.786951 0.674278 0.905865
Si Si8 0.811049 0.920613 0.513790
O O1 0.722799 0.835474 0.395968
O O2 0.773243 0.865960 0.495987
O O3 0.894403 0.781842 0.126322
O O4 0.885753 0.912259 0.120924
O O5 0.000000 0.086303 0.500000
O O6 0.924622 0.113327 0.838266
O O7 0.861845 0.000000 0.852615
O O8 0.808185 0.123078 0.901008
O O9 0.567276 0.755537 0.676169
O O10 0.744158 0.720737 0.243089
O O11 0.652646 0.825957 0.333670
O O12 0.500000 0.814449 0.000000
O O13 0.583295 0.833706 0.034444
O O14 0.922272 0.892910 0.321653
O O15 0.011329 0.000000 0.211162
O O16 0.763130 0.589132 0.231438
O O17 0.854469 0.652241 0.878383
O O18 0.750000 0.750000 0.000000
O O19 0.809473 0.000000 0.479424
#
# Coordination Sequence:
#
# PCOD8086930 Si02
#       8
#     8   8   8   8   8   8   8   8
#     4  11  20  35  57  85 120 154 194 242 300 360
#     4  10  20  35  59  88 121 162 202 250 314 377
#     4  10  21  38  59  84 119 156 199 251 306 359
#     4  11  22  36  59  85 115 155 197 247 303 363
#     4  10  19  31  51  83 117 150 187 231 294 358
#     4  10  22  38  57  84 116 154 200 246 308 361
#     4  10  21  40  55  87 125 159 208 255 304 368
#     4  11  22  36  58  87 122 159 197 247 301 367
#
# _framework density 20.641179999999999
#
# number of rings (size 3 to 8) (size 9 to 14) (size 15 to 20)
#    0.000    1.625    1.250    4.500    0.000    6.000 
#    0.000    0.000    0.000    4.875    0.000    1.750 
#    0.000    0.000    0.000    0.000    0.000    0.000 
#
# Total GULP energy -396533.768779 kJ/mol
# GULP energy per Si atom -12391.680274 kJ/mol
# Density = 2.059420 g / cm^3
# Si number density = 20.641180 Si / 1000 Ang^3
#
#
#
# Elastic Constant Matrix: (Units=GPa)
#
#
# Indices 1 2 3 4 5 6 
#
# 1 161.9334 32.7537 29.6510 0.0000 17.2696 0.0000
# 2 32.7537 63.9887 15.8112 0.0000 0.7201 0.0000
# 3 29.6510 15.8112 56.6021 0.0000 11.5719 0.0000
# 4 0.0000 0.0000 0.0000 25.7259 0.0000 5.0527
# 5 17.2696 0.7201 11.5719 0.0000 25.0032 0.0000
# 6 0.0000 0.0000 0.0000 5.0527 0.0000 25.2597
#
#
#
# Elastic Compliance Matrix: (Units=1/GPa)
#
#
# Indices 1 2 3 4 5 6 
#
# 1 0.007710 -0.003344 -0.002249 0.000000 -0.004188 0.000000
# 2 -0.003344 0.018316 -0.004119 0.000000 0.003688 0.000000
# 3 -0.002249 -0.004119 0.021708 0.000000 -0.008375 0.000000
# 4 0.000000 0.000000 0.000000 0.040461 0.000000 -0.008093
# 5 -0.004188 0.003688 -0.008375 0.000000 0.046658 0.000000
# 6 0.000000 0.000000 0.000000 -0.008093 0.000000 0.041208
#
#
# Mechanical properties :
#
#
# Convention : Reuss Voigt Hill
#
# Bulk Modulus (GPa) = 35.32146 48.77287 42.04716
# Shear Modulus (GPa) = 24.39991 28.81833 26.60912
#
# Velocity S-wave (km/s) = 3.44190 3.74057 3.59434
# Velocity P-wave (km/s) = 5.73976 6.50662 6.13518
#
# Compressibility (1/GPa) = 0.02831140
#
# Stress axis : x y z
#
# Youngs Moduli (GPa) = 129.69955 54.59856 46.06631
#
# Poissons Ratio (x) = 0.18257 0.10359
# Poissons Ratio (y) = 0.43369 0.18973
# Poissons Ratio (z) = 0.29165 0.22487
#
# Static dielectric constant tensor:
#      x y z
#    x 4.419210 0.000000 0.352440 
#    y 0.000000 3.426110 0.000000 
#    z 0.352440 0.000000 3.736810 
# 
# 
# High freq. dielectric constant tensor:
#      x y z
#    x 1.829700 0.000000 0.018980 
#    y 0.000000 1.777070 0.000000 
#    z 0.018980 0.000000 1.789840 
# 
# From -- ./inp_files/184689.got.cif
#   From: 2010.06.25/outbox.cif.g09.slc.cpg/sg12_93_cif.got.tgz:184689.got - 2010.06.28 00:19:55.
