data_PCOD8086907
_publ_section_title
;
Structure prediction by ZEFSAII (Michael W. Deem and Ramdas Pophale) SiO2 
 PCOD8086907
Probable space group: C 2/M
;
_chemical_formula_sum "Si O2"
_cell_formula_units_Z 64
_cell_length_a 5.224175
_cell_length_b 26.484840
_cell_length_c 23.200346
_cell_angle_alpha 90.000000
_cell_angle_beta 77.089921
_cell_angle_gamma 90.000000
_cell_volume 3128.889738
_symmetry_space_group_name_H-M "C 2/M"
_symmetry_group_IT_number 12
_symmetry_cell_setting 'monoclinic'
loop_
_space_group_symop_operation_xyz
x,y,z
-x,y,-z
-x,-y,-z
x,-y,z
1/2+x,1/2+y,z
1/2-x,1/2+y,-z
1/2-x,1/2-y,-z
1/2+x,1/2-y,z
loop_
_atom_site_type_symbol
_atom_site_label
_atom_site_fract_x
_atom_site_fract_y
_atom_site_fract_z
Si Si1 0.386017 0.193966 0.063693
Si Si2 0.580083 0.392134 0.381978
Si Si3 0.528890 0.942794 0.430784
Si Si4 0.305977 0.557770 0.183364
Si Si5 0.430294 0.717647 0.568775
Si Si6 0.782885 0.233233 0.177552
Si Si7 0.273891 0.441395 0.741979
Si Si8 0.146171 0.855706 0.898473
O O1 0.321202 0.237057 0.113791
O O2 0.605527 0.154298 0.073567
O O3 0.128587 0.161529 0.059837
O O4 0.500000 0.220459 0.000000
O O5 0.760548 0.419919 0.419699
O O6 0.590383 0.332272 0.391459
O O7 0.692679 0.404696 0.313713
O O8 0.279928 0.410469 0.399742
O O9 0.500000 0.941908 0.500000
O O10 0.563949 0.000000 0.405952
O O11 0.348480 0.500000 0.165381
O O12 0.510682 0.574594 0.221979
O O13 0.363537 0.586362 0.120458
O O14 0.012840 0.569088 0.218759
O O15 0.500000 0.701569 0.500000
O O16 0.652930 0.753651 0.584220
O O17 0.491053 0.246975 0.214235
O O18 0.812825 0.174380 0.164365
O O19 0.307728 0.500000 0.721775
#
# Coordination Sequence:
#
# PCOD8086907 Si02
#       8
#     8   8   8   8   8   8   8   8
#     4  10  19  31  51  81 111 137 168 207 258 318
#     4  12  22  37  60  83 114 148 186 237 289 331
#     4  11  22  34  52  84 123 155 180 214 277 359
#     4  10  21  38  58  78 102 137 185 228 265 315
#     4  10  21  37  57  80 109 149 196 233 262 317
#     4   8  16  27  44  71 102 132 163 201 248 301
#     4  10  21  37  59  84 105 133 177 231 284 331
#     4  10  19  32  52  74 103 139 175 213 256 307
#
# _framework density 20.454540999999999
#
# number of rings (size 3 to 8) (size 9 to 14) (size 15 to 20)
#    0.000    1.875    0.000    4.875    0.000    7.500 
#    0.000    0.000    0.000   15.750    0.000    0.000 
#    0.000    0.000    0.000    0.000    0.000    0.000 
#
# Total GULP energy -396720.293419 kJ/mol
# GULP energy per Si atom -12397.509169 kJ/mol
# Density = 2.040799 g / cm^3
# Si number density = 20.454541 Si / 1000 Ang^3
#
#
#
# Elastic Constant Matrix: (Units=GPa)
#
#
# Indices 1 2 3 4 5 6 
#
# 1 136.4131 3.0131 -11.9539 0.0000 -4.3170 0.0000
# 2 3.0131 98.5139 23.6641 0.0000 2.6585 0.0000
# 3 -11.9539 23.6641 29.0956 0.0000 -1.2556 0.0000
# 4 0.0000 0.0000 0.0000 35.1283 0.0000 -16.3919
# 5 -4.3170 2.6585 -1.2556 0.0000 18.6299 0.0000
# 6 0.0000 0.0000 0.0000 -16.3919 0.0000 75.4919
#
#
#
# Elastic Compliance Matrix: (Units=1/GPa)
#
#
# Indices 1 2 3 4 5 6 
#
# 1 0.007821 -0.001364 0.004422 0.000000 0.002305 0.000000
# 2 -0.001364 0.012970 -0.011235 0.000000 -0.002924 0.000000
# 3 0.004422 -0.011235 0.045570 0.000000 0.005699 0.000000
# 4 0.000000 0.000000 0.000000 0.031677 0.000000 0.006878
# 5 0.002305 -0.002924 0.005699 0.000000 0.055013 0.000000
# 6 0.000000 0.000000 0.000000 0.006878 0.000000 0.014740
#
#
# Mechanical properties :
#
#
# Convention : Reuss Voigt Hill
#
# Bulk Modulus (GPa) = 19.99705 32.60767 26.30236
# Shear Modulus (GPa) = 24.89860 42.47000 33.68430
#
# Velocity S-wave (km/s) = 3.49272 4.56160 4.06247
# Velocity P-wave (km/s) = 5.10519 6.61214 5.90692
#
# Compressibility (1/GPa) = 0.05000737
#
# Stress axis : x y z
#
# Youngs Moduli (GPa) = 127.85722 77.09894 21.94415
#
# Poissons Ratio (x) = 0.10513 -0.09703
# Poissons Ratio (y) = 0.17435 0.24655
# Poissons Ratio (z) = -0.56537 0.86624
#
# Static dielectric constant tensor:
#      x y z
#    x 4.577460 0.000000 -0.073180 
#    y 0.000000 3.665490 0.000000 
#    z -0.073180 0.000000 3.269810 
# 
# 
# High freq. dielectric constant tensor:
#      x y z
#    x 1.836580 0.000000 -0.003060 
#    y 0.000000 1.791810 0.000000 
#    z -0.003060 0.000000 1.756600 
# 
# From -- ./inp_files/331397.got.cif
#   From: 2010.06.25/outbox.cif.g09.slc.cpg/sg12_166_cif.got.tgz:331397.got - 2010.06.28 00:19:55.
