data_PCOD8086060
_publ_section_title
;
Structure prediction by ZEFSAII (Michael W. Deem and Ramdas Pophale) SiO2 
 PCOD8086060
Probable space group: C 2/M
;
_chemical_formula_sum "Si O2"
_cell_formula_units_Z 56
_cell_length_a 28.922946
_cell_length_b 8.745572
_cell_length_c 19.117597
_cell_angle_alpha 90.000000
_cell_angle_beta 40.078598
_cell_angle_gamma 90.000000
_cell_volume 3113.440423
_symmetry_space_group_name_H-M "C 2/M"
_symmetry_group_IT_number 12
_symmetry_cell_setting 'monoclinic'
loop_
_space_group_symop_operation_xyz
x,y,z
-x,y,-z
-x,-y,-z
x,-y,z
1/2+x,1/2+y,z
1/2-x,1/2+y,-z
1/2-x,1/2-y,-z
1/2+x,1/2-y,z
loop_
_atom_site_type_symbol
_atom_site_label
_atom_site_fract_x
_atom_site_fract_y
_atom_site_fract_z
Si Si1 0.710769 0.180061 0.334424
Si Si2 0.950519 0.322720 0.343620
Si Si3 0.449409 0.180201 0.499332
Si Si4 0.658348 0.821868 0.876680
Si Si5 0.470388 0.176072 0.881302
Si Si6 0.299009 0.318683 0.504504
Si Si7 0.432939 0.332063 0.127424
O O1 0.632992 0.232179 0.395908
O O2 0.766386 0.232148 0.209556
O O3 0.728114 0.258641 0.388690
O O4 0.714539 0.000000 0.341388
O O5 0.926443 0.500000 0.373681
O O6 0.975322 0.268161 0.391939
O O7 0.881809 0.228676 0.396398
O O8 0.020237 0.300604 0.212765
O O9 0.500000 0.258232 0.500000
O O10 0.455514 0.000000 0.499863
O O11 0.623012 0.783821 0.842628
O O12 0.674052 0.000000 0.864847
O O13 0.606492 0.763471 0.000375
O O14 0.539165 0.263401 0.832510
O O15 0.476427 0.000000 0.897368
O O16 0.292104 0.500000 0.510762
O O17 0.250000 0.250000 0.500000
O O18 0.397611 0.500000 0.180754
O O19 0.500000 0.350775 0.000000
#
# Coordination Sequence:
#
# PCOD8086060 Si02
#       7
#     8   8   8   8   8   8   8
#     4  10  20  34  52  75 100 128 167 210 252 301
#     4   9  18  33  52  75 101 129 167 209 249 299
#     4   8  15  31  56  80  97 118 158 212 262 306
#     4  10  19  31  47  68  98 136 172 207 245 293
#     4   9  18  31  47  68  98 135 172 206 245 292
#     4  11  22  35  50  70 100 136 169 205 250 297
#     4   9  17  28  42  62  90 128 172 210 240 276
#
# _framework density 17.986533000000001
#
# number of rings (size 3 to 8) (size 9 to 14) (size 15 to 20)
#    0.000    2.571    0.000    3.429    2.000    2.857 
#    0.000    0.000    0.000   11.571    0.000    0.000 
#    0.000    0.000    0.000    0.000    0.000    1.000 
#
# Total GULP energy -347002.970490 kJ/mol
# GULP energy per Si atom -12392.963232 kJ/mol
# Density = 1.794559 g / cm^3
# Si number density = 17.986533 Si / 1000 Ang^3
#
#
#
# Elastic Constant Matrix: (Units=GPa)
#
#
# Indices 1 2 3 4 5 6 
#
# 1 124.1338 27.2144 61.1014 0.0048 5.0718 -0.0012
# 2 27.2144 69.8211 30.8544 0.0095 0.5899 -0.0084
# 3 61.1014 30.8544 138.1821 -0.0063 -1.3152 -0.0023
# 4 0.0048 0.0095 -0.0063 24.3028 -0.0051 -3.6577
# 5 5.0718 0.5899 -1.3152 -0.0051 17.0237 0.0022
# 6 -0.0012 -0.0084 -0.0023 -3.6577 0.0022 14.0489
#
#
#
# Elastic Compliance Matrix: (Units=1/GPa)
#
#
# Indices 1 2 3 4 5 6 
#
# 1 0.010819 -0.002284 -0.004307 -0.000003 -0.003477 -0.000001
# 2 -0.002284 0.016384 -0.002649 -0.000006 -0.000092 0.000008
# 3 -0.004307 -0.002649 0.009753 0.000005 0.002128 0.000001
# 4 -0.000003 -0.000006 0.000005 0.042826 0.000013 0.011150
# 5 -0.003477 -0.000092 0.002128 0.000013 0.059945 -0.000006
# 6 -0.000001 0.000008 0.000001 0.011150 -0.000006 0.074083
#
#
# Mechanical properties :
#
#
# Convention : Reuss Voigt Hill
#
# Bulk Modulus (GPa) = 54.12657 63.38639 58.75648
# Shear Modulus (GPa) = 20.96894 25.27287 23.12090
#
# Velocity S-wave (km/s) = 3.41811 3.75253 3.58922
# Velocity P-wave (km/s) = 6.76285 7.35479 7.06502
#
# Compressibility (1/GPa) = 0.01847522
#
# Stress axis : x y z
#
# Youngs Moduli (GPa) = 92.43377 61.03470 102.53235
#
# Poissons Ratio (x) = 0.13942 0.44159
# Poissons Ratio (y) = 0.21114 0.27163
# Poissons Ratio (z) = 0.39809 0.16169
#
# Static dielectric constant tensor:
#      x y z
#    x 3.300350 -0.000020 -0.007040 
#    y -0.000020 3.296860 0.000040 
#    z -0.007040 0.000040 3.505430 
# 
# 
# High freq. dielectric constant tensor:
#      x y z
#    x 1.657180 0.000000 -0.002540 
#    y 0.000000 1.688510 0.000000 
#    z -0.002540 0.000000 1.703220 
# 
# From -- ./inp_files/291792.got.cif
#   From: 2010.06.25/outbox.cif.g09.slc.cpg/sg12_146_cif.got.tgz:291792.got - 2010.06.28 00:19:55.
