data_PCOD8086454
_publ_section_title
;
Structure prediction by ZEFSAII (Michael W. Deem and Ramdas Pophale) SiO2 
 PCOD8086454
Probable space group: C 2/M
;
_chemical_formula_sum "Si O2"
_cell_formula_units_Z 56
_cell_length_a 19.983623
_cell_length_b 9.144789
_cell_length_c 30.688799
_cell_angle_alpha 90.000000
_cell_angle_beta 145.218337
_cell_angle_gamma 90.000000
_cell_volume 3199.233624
_symmetry_space_group_name_H-M "C 2/M"
_symmetry_group_IT_number 12
_symmetry_cell_setting 'monoclinic'
loop_
_space_group_symop_operation_xyz
x,y,z
-x,y,-z
-x,-y,-z
x,-y,z
1/2+x,1/2+y,z
1/2-x,1/2+y,-z
1/2-x,1/2-y,-z
1/2+x,1/2-y,z
loop_
_atom_site_type_symbol
_atom_site_label
_atom_site_fract_x
_atom_site_fract_y
_atom_site_fract_z
Si Si1 0.231428 0.169050 0.228223
Si Si2 0.467175 0.672201 0.331306
Si Si3 0.906255 0.329831 0.773800
Si Si4 0.321771 0.666285 0.503266
Si Si5 0.132511 0.329900 0.950102
Si Si6 0.997765 0.167733 0.949029
Si Si7 0.383067 0.829225 0.662509
O O1 0.344128 0.248992 0.269656
O O2 0.191421 0.239479 0.252360
O O3 0.132247 0.190756 0.138827
O O4 0.260061 0.000000 0.251848
O O5 0.446967 0.500000 0.313515
O O6 0.540479 0.705063 0.415806
O O7 0.535569 0.735164 0.325993
O O8 0.873351 0.500000 0.760366
O O9 0.905293 0.276469 0.723472
O O10 0.035271 0.297432 0.861386
O O11 0.305654 0.500000 0.507759
O O12 0.250000 0.750000 0.500000
O O13 0.257664 0.696554 0.422559
O O14 0.158555 0.500000 0.968985
O O15 0.089993 0.269174 0.973601
O O16 0.250000 0.250000 0.000000
O O17 0.038259 0.000000 0.965438
O O18 0.000000 0.217981 0.000000
O O19 0.416022 0.000000 0.674539
#
# Coordination Sequence:
#
# PCOD8086454 Si02
#       7
#     8   8   8   8   8   8   8
#     4  10  20  34  52  72  97 130 163 197 241 290
#     4  10  19  31  49  74 102 129 160 199 241 286
#     4   9  19  35  53  72  97 129 162 200 243 285
#     4   8  15  28  47  70  95 125 159 197 240 282
#     4  10  20  34  52  74 100 129 161 197 240 288
#     4   9  19  36  55  73  95 125 162 203 244 285
#     4   9  17  32  53  74  96 125 164 204 241 283
#
# _framework density 17.504192
#
# number of rings (size 3 to 8) (size 9 to 14) (size 15 to 20)
#    0.000    2.714    0.000    1.286    0.000    3.714 
#    0.000    6.429    0.000    4.286    0.000    0.000 
#    0.000    0.000    0.000    0.000    0.000    0.000 
#
# Total GULP energy -347018.560547 kJ/mol
# GULP energy per Si atom -12393.520020 kJ/mol
# Density = 1.746435 g / cm^3
# Si number density = 17.504192 Si / 1000 Ang^3
#
#
#
# Elastic Constant Matrix: (Units=GPa)
#
#
# Indices 1 2 3 4 5 6 
#
# 1 117.5508 63.5447 77.9347 0.0000 -5.0275 0.0000
# 2 63.5447 86.1514 51.0650 0.0000 2.1072 0.0000
# 3 77.9347 51.0650 94.8383 0.0000 -8.9143 0.0000
# 4 0.0000 0.0000 0.0000 25.3168 0.0000 3.6267
# 5 -5.0275 2.1072 -8.9143 0.0000 27.2228 0.0000
# 6 0.0000 0.0000 0.0000 3.6267 0.0000 33.9210
#
#
#
# Elastic Compliance Matrix: (Units=1/GPa)
#
#
# Indices 1 2 3 4 5 6 
#
# 1 0.021947 -0.008100 -0.013654 0.000000 0.000209 0.000000
# 2 -0.008100 0.020580 -0.004865 0.000000 -0.004682 0.000000
# 3 -0.013654 -0.004865 0.024951 0.000000 0.006025 0.000000
# 4 0.000000 0.000000 0.000000 0.040114 0.000000 -0.004289
# 5 0.000209 -0.004682 0.006025 0.000000 0.039108 0.000000
# 6 0.000000 0.000000 0.000000 -0.004289 0.000000 0.029939
#
#
# Mechanical properties :
#
#
# Convention : Reuss Voigt Hill
#
# Bulk Modulus (GPa) = 70.22782 75.95881 73.09331
# Shear Modulus (GPa) = 21.31070 24.35854 22.83462
#
# Velocity S-wave (km/s) = 3.49300 3.73444 3.61574
# Velocity P-wave (km/s) = 7.51503 7.87931 7.69933
#
# Compressibility (1/GPa) = 0.01423937
#
# Stress axis : x y z
#
# Youngs Moduli (GPa) = 45.56418 48.59078 40.07849
#
# Poissons Ratio (x) = 0.39357 0.54725
# Poissons Ratio (y) = 0.36905 0.19499
# Poissons Ratio (z) = 0.62216 0.23641
#
# Static dielectric constant tensor:
#      x y z
#    x 3.064320 0.000000 -0.097900 
#    y 0.000000 3.325880 0.000000 
#    z -0.097900 0.000000 3.782820 
# 
# 
# High freq. dielectric constant tensor:
#      x y z
#    x 1.654690 0.000000 -0.000230 
#    y 0.000000 1.684790 0.000000 
#    z -0.000230 0.000000 1.688440 
# 
# From -- ./inp_files/275706.got.cif
#   From: 2010.06.25/outbox.cif.g09.slc.cpg/sg12_138_cif.got.tgz:275706.got - 2010.06.28 00:19:55.
