data_PCOD8086908
_publ_section_title
;
Structure prediction by ZEFSAII (Michael W. Deem and Ramdas Pophale) SiO2 
 PCOD8086908
Probable space group: C 2/M
;
_chemical_formula_sum "Si O2"
_cell_formula_units_Z 40
_cell_length_a 12.894050
_cell_length_b 22.463321
_cell_length_c 14.595852
_cell_angle_alpha 90.000000
_cell_angle_beta 150.498594
_cell_angle_gamma 90.000000
_cell_volume 2081.854742
_symmetry_space_group_name_H-M "C 2/M"
_symmetry_group_IT_number 12
_symmetry_cell_setting 'monoclinic'
loop_
_space_group_symop_operation_xyz
x,y,z
-x,y,-z
-x,-y,-z
x,-y,z
1/2+x,1/2+y,z
1/2-x,1/2+y,-z
1/2-x,1/2-y,-z
1/2+x,1/2-y,z
loop_
_atom_site_type_symbol
_atom_site_label
_atom_site_fract_x
_atom_site_fract_y
_atom_site_fract_z
Si Si1 0.440345 0.265351 0.713407
Si Si2 0.741188 0.566880 0.972422
Si Si3 0.624945 0.815332 0.004249
Si Si4 0.687860 0.612195 0.313735
Si Si5 0.618614 0.069523 0.715953
O O1 0.250000 0.250000 0.500000
O O2 0.492928 0.208590 0.816265
O O3 0.377168 0.318857 0.732546
O O4 0.646824 0.283820 0.813784
O O5 0.812329 0.500000 0.000667
O O6 0.851632 0.613277 0.988949
O O7 0.801889 0.584132 0.122382
O O8 0.488828 0.571847 0.772965
O O9 0.500000 0.801245 0.000000
O O10 0.711031 0.593590 0.225642
O O11 0.900255 0.603420 0.533899
O O12 0.584062 0.000000 0.671909
#
# Coordination Sequence:
#
# PCOD8086908 Si02
#       5
#     8   8   8   8   8
#     4  10  22  39  58  80 110 146 181 222 274 325
#     4  10  20  35  54  75 106 144 179 220 269 317
#     4  10  23  39  56  82 110 139 183 229 266 320
#     4  10  19  31  52  79 108 140 176 219 267 322
#     4  10  19  31  51  81 112 139 174 219 268 324
#
# _framework density 19.213636000000001
#
# number of rings (size 3 to 8) (size 9 to 14) (size 15 to 20)
#    0.000    2.000    0.000    4.200    0.000   10.800 
#    0.000    0.000    0.000    0.000    0.000   11.200 
#    0.000    0.000    0.000    0.000    0.000    0.000 
#
# Total GULP energy -248044.576746 kJ/mol
# GULP energy per Si atom -12402.228837 kJ/mol
# Density = 1.916991 g / cm^3
# Si number density = 19.213636 Si / 1000 Ang^3
#
#
#
# Elastic Constant Matrix: (Units=GPa)
#
#
# Indices 1 2 3 4 5 6 
#
# 1 96.6309 44.7014 34.9623 0.0000 15.0364 0.0000
# 2 44.7014 101.4631 31.1891 0.0000 10.0283 0.0000
# 3 34.9623 31.1891 93.5484 -0.0002 6.8932 0.0000
# 4 0.0000 0.0000 -0.0002 23.6618 0.0000 -1.7385
# 5 15.0364 10.0283 6.8932 0.0000 22.3811 0.0000
# 6 0.0000 0.0000 0.0000 -1.7385 0.0000 25.0104
#
#
#
# Elastic Compliance Matrix: (Units=1/GPa)
#
#
# Indices 1 2 3 4 5 6 
#
# 1 0.014886 -0.004827 -0.003455 0.000000 -0.006774 0.000000
# 2 -0.004827 0.012886 -0.002359 0.000000 -0.001804 0.000000
# 3 -0.003455 -0.002359 0.012809 0.000000 -0.000567 0.000000
# 4 0.000000 0.000000 0.000000 0.042479 0.000000 0.002953
# 5 -0.006774 -0.001804 -0.000567 0.000000 0.050215 0.000000
# 6 0.000000 0.000000 0.000000 0.002953 0.000000 0.040189
#
#
# Mechanical properties :
#
#
# Convention : Reuss Voigt Hill
#
# Bulk Modulus (GPa) = 51.81621 57.03868 54.42744
# Shear Modulus (GPa) = 24.85366 26.26329 25.55847
#
# Velocity S-wave (km/s) = 3.60049 3.70118 3.65118
# Velocity P-wave (km/s) = 6.65670 6.92936 6.79440
#
# Compressibility (1/GPa) = 0.01929898
#
# Stress axis : x y z
#
# Youngs Moduli (GPa) = 67.17929 77.60472 78.06861
#
# Poissons Ratio (x) = 0.37456 0.26972
# Poissons Ratio (y) = 0.32425 0.18419
# Poissons Ratio (z) = 0.23210 0.18309
#
# Static dielectric constant tensor:
#      x y z
#    x 3.235340 0.000000 0.115250 
#    y 0.000000 3.614220 0.000000 
#    z 0.115250 0.000000 3.567070 
# 
# 
# High freq. dielectric constant tensor:
#      x y z
#    x 1.722520 0.000000 0.008210 
#    y 0.000000 1.758520 0.000000 
#    z 0.008210 0.000000 1.756830 
# 
# From -- ./inp_files/208540.got.cif
#   From: 2010.06.25/outbox.cif.g09.slc.cpg/sg12_105_cif.got.tgz:208540.got - 2010.06.28 00:19:55.
