data_PCOD8086615
_publ_section_title
;
Structure prediction by ZEFSAII (Michael W. Deem and Ramdas Pophale) SiO2 
 PCOD8086615
Probable space group: C 2/M
;
_chemical_formula_sum "Si O2"
_cell_formula_units_Z 48
_cell_length_a 18.308795
_cell_length_b 8.779783
_cell_length_c 18.894410
_cell_angle_alpha 90.000000
_cell_angle_beta 61.899597
_cell_angle_gamma 90.000000
_cell_volume 2679.207173
_symmetry_space_group_name_H-M "C 2/M"
_symmetry_group_IT_number 12
_symmetry_cell_setting 'monoclinic'
loop_
_space_group_symop_operation_xyz
x,y,z
-x,y,-z
-x,-y,-z
x,-y,z
1/2+x,1/2+y,z
1/2-x,1/2+y,-z
1/2-x,1/2-y,-z
1/2+x,1/2-y,z
loop_
_atom_site_type_symbol
_atom_site_label
_atom_site_fract_x
_atom_site_fract_y
_atom_site_fract_z
Si Si1 0.571942 0.177964 0.014620
Si Si2 0.084238 0.319524 0.169402
Si Si3 0.752667 0.822097 0.922277
Si Si4 0.507597 0.319210 0.663846
Si Si5 0.836191 0.320726 0.483488
Si Si6 0.588676 0.332294 0.423760
O O1 0.659864 0.206036 0.934262
O O2 0.554490 0.000000 0.029884
O O3 0.500000 0.255587 0.000000
O O4 0.570487 0.242187 0.095568
O O5 0.080743 0.500000 0.176970
O O6 0.174910 0.261460 0.155018
O O7 0.012710 0.246318 0.249788
O O8 0.773285 0.000000 0.917054
O O9 0.750000 0.750000 0.000000
O O10 0.519362 0.500000 0.660665
O O11 0.592990 0.246358 0.599045
O O12 0.430421 0.274143 0.647256
O O13 0.833095 0.500000 0.475672
O O14 0.750000 0.250000 0.500000
O O15 0.853150 0.281589 0.558544
O O16 0.500000 0.346126 0.500000
O O17 0.630805 0.500000 0.403604
#
# Coordination Sequence:
#
# PCOD8086615 Si02
#       6
#     8   8   8   8   8   8
#     4   8  15  29  49  72  97 128 166 204 246 298
#     4  10  19  31  50  74  99 129 167 211 254 301
#     4   9  16  28  48  70  93 124 161 202 246 297
#     4  10  20  35  54  75 102 134 169 212 260 307
#     4  11  21  34  54  78 105 136 170 208 251 303
#     4   8  16  32  52  73  97 128 166 204 246 299
#
# _framework density 17.915749000000002
#
# number of rings (size 3 to 8) (size 9 to 14) (size 15 to 20)
#    0.000    2.667    0.000    5.000    0.000    3.667 
#    0.000    1.667    0.000   26.000    0.000    0.000 
#    0.000    0.000    0.000    0.000    0.000    0.000 
#
# Total GULP energy -297390.929879 kJ/mol
# GULP energy per Si atom -12391.288745 kJ/mol
# Density = 1.787497 g / cm^3
# Si number density = 17.915749 Si / 1000 Ang^3
#
#
#
# Elastic Constant Matrix: (Units=GPa)
#
#
# Indices 1 2 3 4 5 6 
#
# 1 126.4401 53.8847 51.0786 0.0000 -9.3656 -0.0001
# 2 53.8847 103.6550 40.6486 0.0000 -7.7924 -0.0005
# 3 51.0786 40.6486 91.9217 0.0000 -4.8745 0.0000
# 4 0.0000 0.0000 0.0000 29.8053 0.0000 -4.2907
# 5 -9.3656 -7.7924 -4.8745 0.0000 20.8533 0.0000
# 6 -0.0001 -0.0005 0.0000 -4.2907 0.0000 24.3509
#
#
#
# Elastic Compliance Matrix: (Units=1/GPa)
#
#
# Indices 1 2 3 4 5 6 
#
# 1 0.011685 -0.004094 -0.004542 0.000000 0.002657 0.000000
# 2 -0.004094 0.013319 -0.003492 0.000000 0.002322 0.000000
# 3 -0.004542 -0.003492 0.014955 0.000000 0.000151 0.000000
# 4 0.000000 0.000000 0.000000 0.034424 0.000000 0.006066
# 5 0.002657 0.002322 0.000151 0.000000 0.050050 0.000000
# 6 0.000000 0.000000 0.000000 0.006066 0.000000 0.042135
#
#
# Mechanical properties :
#
#
# Convention : Reuss Voigt Hill
#
# Bulk Modulus (GPa) = 63.67783 68.13785 65.90784
# Shear Modulus (GPa) = 25.50253 26.76224 26.13238
#
# Velocity S-wave (km/s) = 3.77698 3.86914 3.82334
# Velocity P-wave (km/s) = 7.39195 7.62071 7.50720
#
# Compressibility (1/GPa) = 0.01570405
#
# Stress axis : x y z
#
# Youngs Moduli (GPa) = 85.57933 75.07813 66.86744
#
# Poissons Ratio (x) = 0.30734 0.30371
# Poissons Ratio (y) = 0.35032 0.23351
# Poissons Ratio (z) = 0.38870 0.26218
#
# Static dielectric constant tensor:
#      x y z
#    x 3.722020 0.000000 0.022660 
#    y 0.000000 3.305710 0.000000 
#    z 0.022660 0.000000 3.360480 
# 
# 
# High freq. dielectric constant tensor:
#      x y z
#    x 1.685390 0.000000 -0.005730 
#    y 0.000000 1.689880 0.000000 
#    z -0.005730 0.000000 1.675310 
# 
# From -- ./inp_files/318978.got.cif
#   From: 2010.06.25/outbox.cif.g09.slc.cpg/sg12_160_cif.got.tgz:318978.got - 2010.06.28 00:19:55.
