data_PCOD8086257
_publ_section_title
;
Structure prediction by ZEFSAII (Michael W. Deem and Ramdas Pophale) SiO2 
 PCOD8086257
Probable space group: C 2/M
;
_chemical_formula_sum "Si O2"
_cell_formula_units_Z 48
_cell_length_a 5.290689
_cell_length_b 24.810341
_cell_length_c 17.204312
_cell_angle_alpha 90.000000
_cell_angle_beta 78.806623
_cell_angle_gamma 90.000000
_cell_volume 2215.344992
_symmetry_space_group_name_H-M "C 2/M"
_symmetry_group_IT_number 12
_symmetry_cell_setting 'monoclinic'
loop_
_space_group_symop_operation_xyz
x,y,z
-x,y,-z
-x,-y,-z
x,-y,z
1/2+x,1/2+y,z
1/2-x,1/2+y,-z
1/2-x,1/2-y,-z
1/2+x,1/2-y,z
loop_
_atom_site_type_symbol
_atom_site_label
_atom_site_fract_x
_atom_site_fract_y
_atom_site_fract_z
Si Si1 0.664800 0.727568 0.089393
Si Si2 0.016017 0.437965 0.087125
Si Si3 0.688209 0.939673 0.597802
Si Si4 0.004094 0.112535 0.853030
Si Si5 0.735245 0.661062 0.523572
Si Si6 0.141479 0.900680 0.672216
O O1 0.403377 0.758351 0.132283
O O2 0.610386 0.664311 0.095875
O O3 0.750000 0.750000 0.000000
O O4 0.093034 0.500000 0.088316
O O5 0.246099 0.406393 0.114959
O O6 0.730581 0.429904 0.139467
O O7 0.000000 0.417525 0.000000
O O8 0.733164 0.896398 0.525796
O O9 0.406133 0.934624 0.653969
O O10 0.898468 0.934048 0.654033
O O11 0.712581 0.000000 0.560871
O O12 0.092962 0.123185 0.760130
O O13 0.500000 0.694395 0.500000
O O14 0.676922 0.652034 0.616823
O O15 0.000000 0.694499 0.500000
#
# Coordination Sequence:
#
# PCOD8086257 Si02
#       6
#     8   8   8   8   8   8
#     4  10  23  40  64  95 113 138 187 246 318 383
#     4  11  26  43  60  83 116 163 205 231 277 354
#     4  10  19  31  48  72 110 157 201 237 269 322
#     4  12  24  40  65  87 121 152 194 257 303 346
#     4   8  16  29  44  66 103 141 191 228 267 324
#     4  10  21  32  47  77 106 144 185 230 289 332
#
# _framework density 21.667054
#
# number of rings (size 3 to 8) (size 9 to 14) (size 15 to 20)
#    0.000    1.833    0.000    3.500    7.000   11.333 
#    0.000    0.000    0.000    0.000    0.000    0.000 
#    0.000   36.000    0.000    0.000    0.000    0.000 
#
# Total GULP energy -297360.095221 kJ/mol
# GULP energy per Si atom -12390.003968 kJ/mol
# Density = 2.161774 g / cm^3
# Si number density = 21.667054 Si / 1000 Ang^3
#
#
#
# Elastic Constant Matrix: (Units=GPa)
#
#
# Indices 1 2 3 4 5 6 
#
# 1 227.4907 16.1369 44.3496 0.0000 7.9317 0.0000
# 2 16.1369 42.5498 35.3401 0.0000 5.9720 0.0000
# 3 44.3496 35.3401 125.3501 0.0000 0.0170 0.0000
# 4 0.0000 0.0000 0.0000 12.1065 0.0000 -3.0567
# 5 7.9317 5.9720 0.0170 0.0000 27.6430 0.0000
# 6 0.0000 0.0000 0.0000 -3.0567 0.0000 5.7309
#
#
#
# Elastic Compliance Matrix: (Units=1/GPa)
#
#
# Indices 1 2 3 4 5 6 
#
# 1 0.004775 -0.000293 -0.001607 0.000000 -0.001306 0.000000
# 2 -0.000293 0.031969 -0.008908 0.000000 -0.006817 0.000000
# 3 -0.001607 -0.008908 0.011057 0.000000 0.002379 0.000000
# 4 0.000000 0.000000 0.000000 0.095455 0.000000 0.050913
# 5 -0.001306 -0.006817 0.002379 0.000000 0.038021 0.000000
# 6 0.000000 0.000000 0.000000 0.050913 0.000000 0.201649
#
#
# Mechanical properties :
#
#
# Convention : Reuss Voigt Hill
#
# Bulk Modulus (GPa) = 38.19003 65.22711 51.70857
# Shear Modulus (GPa) = 12.09859 29.06701 20.58280
#
# Velocity S-wave (km/s) = 2.36558 3.66666 3.08548
# Velocity P-wave (km/s) = 5.01253 6.93509 6.05066
#
# Compressibility (1/GPa) = 0.02618484
#
# Stress axis : x y z
#
# Youngs Moduli (GPa) = 209.40906 31.28054 90.43795
#
# Poissons Ratio (x) = 0.00918 0.14530
# Poissons Ratio (y) = 0.06142 0.80565
# Poissons Ratio (z) = 0.33645 0.27866
#
# Static dielectric constant tensor:
#      x y z
#    x -3.698290 0.000000 -0.137490 
#    y 0.000000 3.389310 0.000000 
#    z -0.137490 0.000000 3.707670 
# 
# 
# High freq. dielectric constant tensor:
#      x y z
#    x 1.899880 0.000000 -0.001090 
#    y 0.000000 1.810310 0.000000 
#    z -0.001090 0.000000 1.830170 
# 
# From -- ./inp_files/253143.got.cif
#   From: 2010.06.25/outbox.cif.g09.slc.cpg/sg12_127_cif.got.tgz:253143.got - 2010.06.28 00:19:55.
