data_PCOD8086466
_publ_section_title
;
Structure prediction by ZEFSAII (Michael W. Deem and Ramdas Pophale) SiO2 
 PCOD8086466
Probable space group: C 2/M
;
_chemical_formula_sum "Si O2"
_cell_formula_units_Z 64
_cell_length_a 28.679260
_cell_length_b 9.117990
_cell_length_c 15.572473
_cell_angle_alpha 90.000000
_cell_angle_beta 63.156744
_cell_angle_gamma 90.000000
_cell_volume 3633.363465
_symmetry_space_group_name_H-M "C 2/M"
_symmetry_group_IT_number 12
_symmetry_cell_setting 'monoclinic'
loop_
_space_group_symop_operation_xyz
x,y,z
-x,y,-z
-x,-y,-z
x,-y,z
1/2+x,1/2+y,z
1/2-x,1/2+y,-z
1/2-x,1/2-y,-z
1/2+x,1/2-y,z
loop_
_atom_site_type_symbol
_atom_site_label
_atom_site_fract_x
_atom_site_fract_y
_atom_site_fract_z
Si Si1 0.590008 0.670544 0.449053
Si Si2 0.035152 0.329389 0.646958
Si Si3 0.685601 0.830383 0.436349
Si Si4 0.933140 0.830700 0.727904
Si Si5 0.295974 0.328894 0.265406
Si Si6 0.674180 0.328937 0.095434
Si Si7 0.280204 0.828504 0.099916
Si Si8 0.139546 0.331897 0.655230
O O1 0.591108 0.500000 0.471747
O O2 0.550696 0.750878 0.545740
O O3 0.648538 0.733242 0.406913
O O4 0.569688 0.698128 0.370763
O O5 0.028720 0.500000 0.632333
O O6 0.079073 0.302346 0.682717
O O7 0.980815 0.263434 0.726937
O O8 0.744824 0.793267 0.363933
O O9 0.675642 0.790222 0.543804
O O10 0.671403 0.000000 0.431620
O O11 0.879688 0.778568 0.816564
O O12 0.943707 0.000000 0.739503
O O13 0.302918 0.500000 0.242235
O O14 0.293037 0.248100 0.178018
O O15 0.345542 0.270500 0.277381
O O16 0.674441 0.500000 0.070909
O O17 0.720423 0.294091 0.124194
O O18 0.680922 0.235208 0.003937
O O19 0.290744 0.000000 0.100339
O O20 0.148722 0.500000 0.674245
#
# Coordination Sequence:
#
# PCOD8086466 Si02
#       8
#     8   8   8   8   8   8   8   8
#     4  10  19  31  49  74 104 137 171 205 246 297
#     4  10  21  35  50  71 101 136 173 212 251 292
#     4   9  19  33  48  72 105 136 168 207 249 295
#     4  10  20  33  51  75 102 133 169 208 250 297
#     4  11  21  32  51  77 102 132 170 208 249 299
#     4   9  19  36  55  77 105 133 164 203 247 298
#     4  10  20  35  55  78 105 135 164 199 248 300
#     4   9  19  35  50  68  99 135 171 211 250 290
#
# _framework density 17.614533000000002
#
# number of rings (size 3 to 8) (size 9 to 14) (size 15 to 20)
#    0.000    2.250    0.000    3.750    0.000    8.000 
#    0.000    0.000    0.000    0.750    0.000    5.250 
#    0.000    0.000    0.000    0.000    0.000    0.000 
#
# Total GULP energy -396907.177160 kJ/mol
# GULP energy per Si atom -12403.349286 kJ/mol
# Density = 1.757444 g / cm^3
# Si number density = 17.614533 Si / 1000 Ang^3
#
#
#
# Elastic Constant Matrix: (Units=GPa)
#
#
# Indices 1 2 3 4 5 6 
#
# 1 105.0493 61.9524 60.5248 0.0000 -4.3486 0.0000
# 2 61.9524 94.0030 55.5420 0.0000 3.0839 0.0000
# 3 60.5248 55.5420 83.8149 0.0000 -0.3074 0.0000
# 4 0.0000 0.0000 0.0000 28.4786 0.0000 0.1317
# 5 -4.3486 3.0839 -0.3074 0.0000 27.8605 0.0000
# 6 0.0000 0.0000 0.0000 0.1317 0.0000 33.9653
#
#
#
# Elastic Compliance Matrix: (Units=1/GPa)
#
#
# Indices 1 2 3 4 5 6 
#
# 1 0.019248 -0.007566 -0.008872 0.000000 0.003744 0.000000
# 2 -0.007566 0.020577 -0.008185 0.000000 -0.003549 0.000000
# 3 -0.008872 -0.008185 0.023761 0.000000 -0.000217 0.000000
# 4 0.000000 0.000000 0.000000 0.035115 0.000000 -0.000136
# 5 0.003744 -0.003549 -0.000217 0.000000 0.036868 0.000000
# 6 0.000000 0.000000 0.000000 -0.000136 0.000000 0.029442
#
#
# Mechanical properties :
#
#
# Convention : Reuss Voigt Hill
#
# Bulk Modulus (GPa) = 69.73677 70.98949 70.36313
# Shear Modulus (GPa) = 22.82715 25.05074 23.93895
#
# Velocity S-wave (km/s) = 3.60380 3.77525 3.69052
# Velocity P-wave (km/s) = 7.54937 7.70665 7.62842
#
# Compressibility (1/GPa) = 0.01433964
#
# Stress axis : x y z
#
# Youngs Moduli (GPa) = 51.95342 48.59758 42.08598
#
# Poissons Ratio (x) = 0.36770 0.37338
# Poissons Ratio (y) = 0.39309 0.34448
# Poissons Ratio (z) = 0.46092 0.39778
#
# Static dielectric constant tensor:
#      x y z
#    x 3.272380 0.000000 -0.081100 
#    y 0.000000 3.320270 0.000000 
#    z -0.081100 0.000000 3.139790 
# 
# 
# High freq. dielectric constant tensor:
#      x y z
#    x 1.679460 0.000000 -0.002100 
#    y 0.000000 1.689830 0.000000 
#    z -0.002100 0.000000 1.661330 
# 
# From -- ./inp_files/243741.got.cif
#   From: 2010.06.25/outbox.cif.g09.slc.cpg/sg12_122_cif.got.tgz:243741.got - 2010.06.28 00:19:55.
