data_PCOD8086085
_publ_section_title
;
Structure prediction by ZEFSAII (Michael W. Deem and Ramdas Pophale) SiO2 
 PCOD8086085
Probable space group: C 2/M
;
_chemical_formula_sum "Si O2"
_cell_formula_units_Z 56
_cell_length_a 15.092887
_cell_length_b 9.321843
_cell_length_c 20.369740
_cell_angle_alpha 90.000000
_cell_angle_beta 78.255496
_cell_angle_gamma 90.000000
_cell_volume 2805.893072
_symmetry_space_group_name_H-M "C 2/M"
_symmetry_group_IT_number 12
_symmetry_cell_setting 'monoclinic'
loop_
_space_group_symop_operation_xyz
x,y,z
-x,y,-z
-x,-y,-z
x,-y,z
1/2+x,1/2+y,z
1/2-x,1/2+y,-z
1/2-x,1/2-y,-z
1/2+x,1/2-y,z
loop_
_atom_site_type_symbol
_atom_site_label
_atom_site_fract_x
_atom_site_fract_y
_atom_site_fract_z
Si Si1 0.311387 0.340083 0.812375
Si Si2 0.494360 0.841465 0.928784
Si Si3 0.145323 0.169174 0.333807
Si Si4 0.443175 0.329556 0.342965
Si Si5 0.222821 0.328225 0.570209
Si Si6 0.477052 0.342449 0.192278
Si Si7 0.285048 0.840590 0.934306
O O1 0.268770 0.500000 0.822140
O O2 0.306090 0.271625 0.739792
O O3 0.415672 0.349448 0.816754
O O4 0.256885 0.237934 0.870759
O O5 0.551577 0.756759 0.864925
O O6 0.392177 0.851392 0.920906
O O7 0.537827 0.000000 0.927563
O O8 0.500000 0.766543 0.000000
O O9 0.041341 0.219751 0.355448
O O10 0.201069 0.217701 0.388701
O O11 0.143783 0.000000 0.324895
O O12 0.426888 0.500000 0.356416
O O13 0.373132 0.233583 0.393368
O O14 0.434330 0.288057 0.267350
O O15 0.217607 0.500000 0.562056
O O16 0.250000 0.250000 0.500000
O O17 0.439154 0.500000 0.182163
O O18 0.242054 0.000000 0.942341
O O19 0.250000 0.750000 0.000000
#
# Coordination Sequence:
#
# PCOD8086085 Si02
#       7
#     8   8   8   8   8   8   8
#     4   8  14  30  54  74  94 129 176 219 256 308
#     4   9  18  32  48  68  97 133 173 214 257 307
#     4   8  17  36  61  82 106 147 189 219 267 338
#     4   9  18  37  61  83 109 144 185 227 273 327
#     4  11  23  39  58  85 117 148 183 225 274 329
#     4   8  15  29  52  76  98 129 170 216 264 310
#     4  10  19  31  47  69  99 134 171 214 263 313
#
# _framework density 19.957996000000001
#
# number of rings (size 3 to 8) (size 9 to 14) (size 15 to 20)
#    0.000    3.000    0.000    2.571    0.000    2.000 
#    2.571    7.857    0.000    0.000    0.000    0.000 
#    0.000    0.000    0.000    0.000    0.000    0.000 
#
# Total GULP energy -347030.046509 kJ/mol
# GULP energy per Si atom -12393.930232 kJ/mol
# Density = 1.991257 g / cm^3
# Si number density = 19.957996 Si / 1000 Ang^3
#
#
#
# Elastic Constant Matrix: (Units=GPa)
#
#
# Indices 1 2 3 4 5 6 
#
# 1 56.1327 33.2029 51.8861 0.0000 -1.2971 0.0000
# 2 33.2029 106.4186 83.2387 0.0000 -8.7604 0.0000
# 3 51.8861 83.2387 194.6673 0.0000 -4.5339 0.0000
# 4 0.0000 0.0000 0.0000 37.5760 0.0000 -4.1689
# 5 -1.2971 -8.7604 -4.5339 0.0000 30.8918 0.0000
# 6 0.0000 0.0000 0.0000 -4.1689 0.0000 22.1039
#
#
#
# Elastic Compliance Matrix: (Units=1/GPa)
#
#
# Indices 1 2 3 4 5 6 
#
# 1 0.024656 -0.003912 -0.004918 0.000000 -0.000796 0.000000
# 2 -0.003912 0.015048 -0.005314 0.000000 0.003323 0.000000
# 3 -0.004918 -0.005314 0.008710 0.000000 -0.000435 0.000000
# 4 0.000000 0.000000 0.000000 0.027182 0.000000 0.005127
# 5 -0.000796 0.003323 -0.000435 0.000000 0.033216 0.000000
# 6 0.000000 0.000000 0.000000 0.005127 0.000000 0.046208
#
#
# Mechanical properties :
#
#
# Convention : Reuss Voigt Hill
#
# Bulk Modulus (GPa) = 49.68644 77.09708 63.39176
# Shear Modulus (GPa) = 26.31372 30.70706 28.51039
#
# Velocity S-wave (km/s) = 3.63499 3.92673 3.78368
# Velocity P-wave (km/s) = 6.52435 7.69887 7.13581
#
# Compressibility (1/GPa) = 0.02012622
#
# Stress axis : x y z
#
# Youngs Moduli (GPa) = 40.55813 66.45579 114.81183
#
# Poissons Ratio (x) = 0.25996 0.56460
# Poissons Ratio (y) = 0.15865 0.61014
# Poissons Ratio (z) = 0.19945 0.35316
#
# Static dielectric constant tensor:
#      x y z
#    x 3.354460 0.000000 0.115210 
#    y 0.000000 4.109140 0.000000 
#    z 0.115210 0.000000 3.861640 
# 
# 
# High freq. dielectric constant tensor:
#      x y z
#    x 1.754910 0.000000 -0.001150 
#    y 0.000000 1.761910 0.000000 
#    z -0.001150 0.000000 1.788500 
# 
# From -- ./inp_files/308897.got.cif
#   From: 2010.06.25/outbox.cif.g09.slc.cpg/sg12_155_cif.got.tgz:308897.got - 2010.06.28 00:19:55.
