data_PCOD8086599
_publ_section_title
;
Structure prediction by ZEFSAII (Michael W. Deem and Ramdas Pophale) SiO2 
 PCOD8086599
Probable space group: C 2/M
;
_chemical_formula_sum "Si O2"
_cell_formula_units_Z 64
_cell_length_a 23.381979
_cell_length_b 8.928899
_cell_length_c 21.570049
_cell_angle_alpha 90.000000
_cell_angle_beta 51.789027
_cell_angle_gamma 90.000000
_cell_volume 3538.411280
_symmetry_space_group_name_H-M "C 2/M"
_symmetry_group_IT_number 12
_symmetry_cell_setting 'monoclinic'
loop_
_space_group_symop_operation_xyz
x,y,z
-x,y,-z
-x,-y,-z
x,-y,z
1/2+x,1/2+y,z
1/2-x,1/2+y,-z
1/2-x,1/2-y,-z
1/2+x,1/2-y,z
loop_
_atom_site_type_symbol
_atom_site_label
_atom_site_fract_x
_atom_site_fract_y
_atom_site_fract_z
Si Si1 0.426067 0.676061 0.288238
Si Si2 0.768671 0.672936 0.923694
Si Si3 0.226129 0.327394 0.835373
Si Si4 0.863594 0.330627 0.697879
Si Si5 0.315674 0.169756 0.601751
Si Si6 0.432826 0.830255 0.771714
Si Si7 0.827652 0.675082 0.456572
Si Si8 0.171671 0.324356 0.742265
O O1 0.415351 0.500000 0.298613
O O2 0.511216 0.716885 0.234201
O O3 0.386516 0.750779 0.372942
O O4 0.394964 0.736932 0.244280
O O5 0.752857 0.500000 0.942135
O O6 0.714333 0.733246 0.906167
O O7 0.852221 0.706992 0.850314
O O8 0.750000 0.750000 0.000000
O O9 0.220469 0.500000 0.857421
O O10 0.305273 0.293653 0.755023
O O11 0.169900 0.287311 0.817338
O O12 0.833059 0.500000 0.731803
O O13 0.877296 0.311465 0.614679
O O14 0.933642 0.308181 0.695560
O O15 0.352728 0.204361 0.510851
O O16 0.246900 0.276054 0.659454
O O17 0.285069 0.000000 0.622131
O O18 0.455397 0.000000 0.773552
O O19 0.822472 0.500000 0.444174
O O20 0.750000 0.750000 0.500000
O O21 0.162355 0.500000 0.736825
#
# Coordination Sequence:
#
# PCOD8086599 Si02
#       8
#     8   8   8   8   8   8   8   8
#     4  12  24  35  50  72 102 142 181 220 265 312
#     4  10  20  35  59  87 113 140 168 206 253 304
#     4   9  17  29  49  79 108 134 168 210 256 304
#     4   8  15  30  51  73  98 130 169 214 263 312
#     4   9  17  30  50  74  98 128 171 221 268 314
#     4   9  19  36  55  76 104 137 172 210 255 310
#     4  11  21  33  50  73 103 136 176 223 270 316
#     4  10  19  31  50  74 102 136 174 219 264 307
#
# _framework density 18.087212999999998
#
# number of rings (size 3 to 8) (size 9 to 14) (size 15 to 20)
#    0.000    2.250    1.250    3.375    0.000    4.500 
#    0.000    0.625    0.000    4.500    0.000    5.250 
#    0.000    0.000    0.000    0.000    0.000    0.000 
#
# Total GULP energy -396568.690055 kJ/mol
# GULP energy per Si atom -12392.771564 kJ/mol
# Density = 1.804605 g / cm^3
# Si number density = 18.087213 Si / 1000 Ang^3
#
#
#
# Elastic Constant Matrix: (Units=GPa)
#
#
# Indices 1 2 3 4 5 6 
#
# 1 134.4181 66.3329 52.4638 0.0000 27.0864 0.0003
# 2 66.3329 114.4502 43.5269 -0.0009 16.1951 0.0009
# 3 52.4638 43.5269 62.7535 -0.0001 25.0570 0.0001
# 4 0.0000 -0.0009 -0.0001 25.8755 0.0002 2.6335
# 5 27.0864 16.1951 25.0570 0.0002 32.2633 -0.0001
# 6 0.0003 0.0009 0.0001 2.6335 -0.0001 28.9069
#
#
#
# Elastic Compliance Matrix: (Units=1/GPa)
#
#
# Indices 1 2 3 4 5 6 
#
# 1 0.012824 -0.004610 -0.006013 0.000000 -0.003782 0.000000
# 2 -0.004610 0.013534 -0.006329 0.000000 0.001992 0.000000
# 3 -0.006013 -0.006329 0.031988 0.000000 -0.016618 0.000000
# 4 0.000000 0.000000 0.000000 0.039008 0.000000 -0.003554
# 5 -0.003782 0.001992 -0.016618 0.000000 0.046076 0.000000
# 6 0.000000 0.000000 0.000000 -0.003554 0.000000 0.034918
#
#
# Mechanical properties :
#
#
# Convention : Reuss Voigt Hill
#
# Bulk Modulus (GPa) = 40.91426 70.69655 55.80541
# Shear Modulus (GPa) = 22.68616 27.36236 25.02426
#
# Velocity S-wave (km/s) = 3.54540 3.89369 3.72362
# Velocity P-wave (km/s) = 6.27929 7.70622 7.02906
#
# Compressibility (1/GPa) = 0.02444136
#
# Stress axis : x y z
#
# Youngs Moduli (GPa) = 77.98172 73.88532 31.26216
#
# Poissons Ratio (x) = 0.34063 0.18798
# Poissons Ratio (y) = 0.35952 0.19785
# Poissons Ratio (z) = 0.46891 0.46760
#
# Static dielectric constant tensor:
#      x y z
#    x 3.728950 0.000000 0.402170 
#    y 0.000000 3.413670 0.000000 
#    z 0.402170 0.000000 3.188620 
# 
# 
# High freq. dielectric constant tensor:
#      x y z
#    x 1.708960 0.000000 0.035660 
#    y 0.000000 1.710000 0.000000 
#    z 0.035660 0.000000 1.654680 
# 
# From -- ./inp_files/346034.got.cif
#   From: 2010.06.25/outbox.cif.g09.slc.cpg/sg12_174_cif.got.tgz:346034.got - 2010.06.28 00:19:55.
