data_PCOD8086265
_publ_section_title
;
Structure prediction by ZEFSAII (Michael W. Deem and Ramdas Pophale) SiO2 
 PCOD8086265
Probable space group: C 2/M
;
_chemical_formula_sum "Si O2"
_cell_formula_units_Z 56
_cell_length_a 25.208531
_cell_length_b 10.079515
_cell_length_c 13.776137
_cell_angle_alpha 90.000000
_cell_angle_beta 66.130995
_cell_angle_gamma 90.000000
_cell_volume 3200.998783
_symmetry_space_group_name_H-M "C 2/M"
_symmetry_group_IT_number 12
_symmetry_cell_setting 'monoclinic'
loop_
_space_group_symop_operation_xyz
x,y,z
-x,y,-z
-x,-y,-z
x,-y,z
1/2+x,1/2+y,z
1/2-x,1/2+y,-z
1/2-x,1/2-y,-z
1/2+x,1/2-y,z
loop_
_atom_site_type_symbol
_atom_site_label
_atom_site_fract_x
_atom_site_fract_y
_atom_site_fract_z
Si Si1 0.948876 0.844546 0.749191
Si Si2 0.325462 0.145968 0.405866
Si Si3 0.167580 0.152513 0.080025
Si Si4 0.256394 0.149180 0.856108
Si Si5 0.075587 0.157445 0.640870
Si Si6 0.897800 0.848238 0.591431
Si Si7 0.775736 0.746623 0.637473
O O1 0.901460 0.813420 0.868437
O O2 0.926288 0.777322 0.664740
O O3 0.013479 0.795977 0.731138
O O4 0.955417 0.000000 0.727460
O O5 0.372979 0.259387 0.346880
O O6 0.274043 0.157495 0.365946
O O7 0.298751 0.153809 0.533743
O O8 0.353493 0.000000 0.373873
O O9 0.198063 0.246200 0.135940
O O10 0.176457 0.000000 0.107969
O O11 0.193712 0.175317 0.953428
O O12 0.249267 0.161530 0.745720
O O13 0.277630 0.000000 0.865206
O O14 0.073523 0.202333 0.529586
O O15 0.088889 0.000000 0.643843
O O16 0.828644 0.831648 0.640528
O O17 0.912964 0.000000 0.590727
#
# Coordination Sequence:
#
# PCOD8086265 Si02
#       7
#     8   8   8   8   8   8   8
#     4   9  15  27  48  71  96 126 161 198 234 281
#     4  10  21  34  49  72  98 129 167 203 241 289
#     4   9  18  31  49  73 100 129 162 195 235 289
#     4  10  19  31  48  73 102 128 155 197 247 290
#     4   9  18  30  47  69  96 129 164 199 237 282
#     4   9  15  25  45  72  95 121 160 199 236 282
#     4  10  19  31  50  69  99 131 159 197 246 290
#
# _framework density 17.494541000000002
#
# number of rings (size 3 to 8) (size 9 to 14) (size 15 to 20)
#    0.000    2.571    1.429    1.286    0.000    6.286 
#    0.000    0.714    0.000    2.571    0.000    5.000 
#    0.000    0.000    0.000    0.000    0.000    0.000 
#
# Total GULP energy -346911.396249 kJ/mol
# GULP energy per Si atom -12389.692723 kJ/mol
# Density = 1.745472 g / cm^3
# Si number density = 17.494541 Si / 1000 Ang^3
#
#
#
# Elastic Constant Matrix: (Units=GPa)
#
#
# Indices 1 2 3 4 5 6 
#
# 1 99.8613 31.5116 44.9029 0.0000 -24.4015 0.0000
# 2 31.5116 64.4693 28.0142 0.0000 -11.6638 0.0000
# 3 44.9029 28.0142 86.8560 0.0000 -20.7298 0.0000
# 4 0.0000 0.0000 0.0000 14.8178 0.0000 -3.0749
# 5 -24.4015 -11.6638 -20.7298 0.0000 28.1877 0.0000
# 6 0.0000 0.0000 0.0000 -3.0749 0.0000 18.6681
#
#
#
# Elastic Compliance Matrix: (Units=1/GPa)
#
#
# Indices 1 2 3 4 5 6 
#
# 1 0.015400 -0.003993 -0.004714 0.000000 0.008213 0.000000
# 2 -0.003993 0.019429 -0.003770 0.000000 0.001810 0.000000
# 3 -0.004714 -0.003770 0.016762 0.000000 0.006687 0.000000
# 4 0.000000 0.000000 0.000000 0.069875 0.000000 0.011509
# 5 0.008213 0.001810 0.006687 0.000000 0.048253 0.000000
# 6 0.000000 0.000000 0.000000 0.011509 0.000000 0.055463
#
#
# Mechanical properties :
#
#
# Convention : Reuss Voigt Hill
#
# Bulk Modulus (GPa) = 37.54132 51.11601 44.32866
# Shear Modulus (GPa) = 19.30392 22.11856 20.71124
#
# Velocity S-wave (km/s) = 3.32539 3.55957 3.44447
# Velocity P-wave (km/s) = 6.02078 6.79528 6.41972
#
# Compressibility (1/GPa) = 0.02663731
#
# Stress axis : x y z
#
# Youngs Moduli (GPa) = 64.93384 51.46999 59.65878
#
# Poissons Ratio (x) = 0.20554 0.28120
# Poissons Ratio (y) = 0.25930 0.22492
# Poissons Ratio (z) = 0.30607 0.19404
#
# Static dielectric constant tensor:
#      x y z
#    x 3.320350 0.000000 -0.200120 
#    y 0.000000 3.015260 0.000000 
#    z -0.200120 0.000000 3.344670 
# 
# 
# High freq. dielectric constant tensor:
#      x y z
#    x 1.660940 0.000000 -0.018600 
#    y 0.000000 1.648680 0.000000 
#    z -0.018600 0.000000 1.666600 
# 
# From -- ./inp_files/239271.got.cif
#   From: 2010.06.25/outbox.cif.g09.slc.cpg/sg12_120_cif.got.tgz:239271.got - 2010.06.28 00:19:55.
