data_PCOD8086752
_publ_section_title
;
Structure prediction by ZEFSAII (Michael W. Deem and Ramdas Pophale) SiO2 
 PCOD8086752
Probable space group: C 2/M
;
_chemical_formula_sum "Si O2"
_cell_formula_units_Z 48
_cell_length_a 15.348060
_cell_length_b 28.293562
_cell_length_c 10.245178
_cell_angle_alpha 90.000000
_cell_angle_beta 150.867525
_cell_angle_gamma 90.000000
_cell_volume 2165.900236
_symmetry_space_group_name_H-M "C 2/M"
_symmetry_group_IT_number 12
_symmetry_cell_setting 'monoclinic'
loop_
_space_group_symop_operation_xyz
x,y,z
-x,y,-z
-x,-y,-z
x,-y,z
1/2+x,1/2+y,z
1/2-x,1/2+y,-z
1/2-x,1/2-y,-z
1/2+x,1/2-y,z
loop_
_atom_site_type_symbol
_atom_site_label
_atom_site_fract_x
_atom_site_fract_y
_atom_site_fract_z
Si Si1 0.289174 0.553127 0.001455
Si Si2 0.206350 0.884815 0.759543
Si Si3 0.787901 0.295618 0.717018
Si Si4 0.784976 0.947377 0.458604
Si Si5 0.214599 0.907439 0.271374
Si Si6 0.701730 0.692966 0.309575
O O1 0.232193 0.500000 0.969926
O O2 0.210853 0.593082 0.998892
O O3 0.501660 0.556198 0.266381
O O4 0.210478 0.564624 0.755487
O O5 0.227873 0.828493 0.761054
O O6 0.297010 0.912062 0.756560
O O7 0.000000 0.897731 0.500000
O O8 0.715666 0.315164 0.484490
O O9 0.706941 0.242007 0.620519
O O10 0.000000 0.293660 0.000000
O O11 0.708842 0.933251 0.500480
O O12 0.720406 0.000000 0.340515
O O13 0.290020 0.853565 0.361523
O O14 0.000000 0.906452 0.000000
O O15 0.500000 0.695736 0.000000
#
# Coordination Sequence:
#
# PCOD8086752 Si02
#       6
#     8   8   8   8   8   8
#     4   9  17  27  44  74 111 141 174 228 282 316
#     4  10  19  31  50  79 112 145 176 226 279 327
#     4  10  20  36  57  83 110 145 185 228 273 328
#     4   9  15  25  44  73 104 137 182 227 265 315
#     4   9  15  26  47  75 103 137 178 225 267 317
#     4   9  18  33  59  80 105 141 191 226 267 317
#
# _framework density 22.161684999999999
#
# number of rings (size 3 to 8) (size 9 to 14) (size 15 to 20)
#    0.000    2.667    1.667    1.000    2.333    4.000 
#    0.000    0.833    0.000    2.000    0.000    1.167 
#    0.000    0.000    0.000    0.000    0.000    0.000 
#
# Total GULP energy -297314.852927 kJ/mol
# GULP energy per Si atom -12388.118872 kJ/mol
# Density = 2.211124 g / cm^3
# Si number density = 22.161685 Si / 1000 Ang^3
#
#
#
# Elastic Constant Matrix: (Units=GPa)
#
#
# Indices 1 2 3 4 5 6 
#
# 1 72.6489 51.2754 30.7447 0.0000 -41.4618 0.0000
# 2 51.2754 155.5929 8.2803 0.0000 -28.2934 0.0000
# 3 30.7447 8.2803 52.5835 0.0000 -23.9174 0.0000
# 4 0.0000 0.0000 0.0000 25.6575 0.0000 -14.5511
# 5 -41.4618 -28.2934 -23.9174 0.0000 32.2947 0.0000
# 6 0.0000 0.0000 0.0000 -14.5511 0.0000 37.7486
#
#
#
# Elastic Compliance Matrix: (Units=1/GPa)
#
#
# Indices 1 2 3 4 5 6 
#
# 1 0.056678 -0.006721 -0.002505 0.000000 0.065024 0.000000
# 2 -0.006721 0.008721 0.003177 0.000000 0.001365 0.000000
# 3 -0.002505 0.003177 0.029835 0.000000 0.021663 0.000000
# 4 0.000000 0.000000 0.000000 0.049879 0.000000 0.019227
# 5 0.065024 0.001365 0.021663 0.000000 0.131685 0.000000
# 6 0.000000 0.000000 0.000000 0.019227 0.000000 0.033903
#
#
# Mechanical properties :
#
#
# Convention : Reuss Voigt Hill
#
# Bulk Modulus (GPa) = 12.02831 51.26956 31.64894
# Shear Modulus (GPa) = 14.26488 31.84182 23.05335
#
# Velocity S-wave (km/s) = 2.53982 3.79462 3.22877
# Velocity P-wave (km/s) = 3.74703 6.51025 5.31148
#
# Compressibility (1/GPa) = 0.08313717
#
# Stress axis : x y z
#
# Youngs Moduli (GPa) = 17.64344 114.66609 33.51748
#
# Poissons Ratio (x) = 0.77066 0.08395
# Poissons Ratio (y) = 0.11858 -0.10649
# Poissons Ratio (z) = 0.04419 -0.36430
#
# Static dielectric constant tensor:
#      x y z
#    x 3.439270 0.000000 -0.426020 
#    y 0.000000 4.567770 0.000000 
#    z -0.426020 0.000000 3.791470 
# 
# 
# High freq. dielectric constant tensor:
#      x y z
#    x 1.822540 0.000000 -0.033620 
#    y 0.000000 1.891760 0.000000 
#    z -0.033620 0.000000 1.856610 
# 
# From -- ./inp_files/68354.got.cif
#   From: 2010.06.25/outbox.cif.g09.slc.cpg/sg12_35_cif.got.tgz:68354.got - 2010.06.28 00:19:55.
