data_PCOD8086167
_publ_section_title
;
Structure prediction by ZEFSAII (Michael W. Deem and Ramdas Pophale) SiO2 
 PCOD8086167
Probable space group: C 2/M
;
_chemical_formula_sum "Si O2"
_cell_formula_units_Z 56
_cell_length_a 26.990087
_cell_length_b 9.006272
_cell_length_c 14.461409
_cell_angle_alpha 90.000000
_cell_angle_beta 57.192829
_cell_angle_gamma 90.000000
_cell_volume 2954.588814
_symmetry_space_group_name_H-M "C 2/M"
_symmetry_group_IT_number 12
_symmetry_cell_setting 'monoclinic'
loop_
_space_group_symop_operation_xyz
x,y,z
-x,y,-z
-x,-y,-z
x,-y,z
1/2+x,1/2+y,z
1/2-x,1/2+y,-z
1/2-x,1/2-y,-z
1/2+x,1/2-y,z
loop_
_atom_site_type_symbol
_atom_site_label
_atom_site_fract_x
_atom_site_fract_y
_atom_site_fract_z
Si Si1 0.753594 0.323689 0.596024
Si Si2 0.974228 0.328829 0.378420
Si Si3 0.138992 0.330322 0.387644
Si Si4 0.461798 0.674707 0.206141
Si Si5 0.641672 0.676153 0.822351
Si Si6 0.904707 0.825064 0.942547
Si Si7 0.903554 0.823864 0.738812
O O1 0.750795 0.500000 0.585447
O O2 0.750000 0.250000 0.500000
O O3 0.813409 0.272167 0.586337
O O4 0.699951 0.262686 0.713431
O O5 0.991509 0.500000 0.345838
O O6 0.926468 0.311806 0.507083
O O7 0.945184 0.262894 0.315447
O O8 0.031879 0.238620 0.349708
O O9 0.153453 0.500000 0.348346
O O10 0.143336 0.237190 0.288117
O O11 0.457029 0.500000 0.232083
O O12 0.416286 0.726856 0.174341
O O13 0.527381 0.719142 0.107613
O O14 0.644900 0.500000 0.822557
O O15 0.635506 0.741097 0.933530
O O16 0.884412 0.769080 0.861388
O O17 0.898976 0.000000 0.950961
O O18 0.906485 0.000000 0.730447
#
# Coordination Sequence:
#
# PCOD8086167 Si02
#       7
#     8   8   8   8   8   8   8
#     4  10  21  36  54  75  99 130 166 202 239 284
#     4  10  19  31  48  70 101 136 161 192 245 300
#     4  10  21  35  49  69 100 135 165 196 243 295
#     4   9  16  27  48  77 102 126 161 204 244 284
#     4   9  16  29  51  74  97 130 168 202 240 287
#     4   8  15  28  47  74 102 124 156 204 249 287
#     4  10  20  33  52  76  98 123 161 208 247 284
#
# _framework density 18.953568000000001
#
# number of rings (size 3 to 8) (size 9 to 14) (size 15 to 20)
#    0.000    2.571    0.000    3.429    0.000    5.143 
#    0.000    0.714    0.000   12.000    0.000    0.000 
#    0.000    0.000    0.000    0.000    0.000    0.000 
#
# Total GULP energy -347096.190244 kJ/mol
# GULP energy per Si atom -12396.292509 kJ/mol
# Density = 1.891043 g / cm^3
# Si number density = 18.953568 Si / 1000 Ang^3
#
#
#
# Elastic Constant Matrix: (Units=GPa)
#
#
# Indices 1 2 3 4 5 6 
#
# 1 116.2880 37.9667 68.9279 0.0000 27.4500 0.0000
# 2 37.9667 48.5898 36.5487 0.0000 11.5110 0.0001
# 3 68.9279 36.5487 128.5606 0.0000 20.6322 0.0000
# 4 0.0000 0.0000 0.0000 19.1090 0.0000 6.7833
# 5 27.4500 11.5110 20.6322 0.0000 29.1589 0.0000
# 6 0.0000 0.0001 0.0000 6.7833 0.0000 25.1825
#
#
#
# Elastic Compliance Matrix: (Units=1/GPa)
#
#
# Indices 1 2 3 4 5 6 
#
# 1 0.015867 -0.006349 -0.005310 0.000000 -0.008673 0.000000
# 2 -0.006349 0.029592 -0.004617 0.000000 -0.002438 0.000000
# 3 -0.005310 -0.004617 0.012232 0.000000 -0.001834 0.000000
# 4 0.000000 0.000000 0.000000 0.057864 0.000000 -0.015587
# 5 -0.008673 -0.002438 -0.001834 0.000000 0.044720 0.000000
# 6 0.000000 0.000000 0.000000 -0.015587 0.000000 0.043909
#
#
# Mechanical properties :
#
#
# Convention : Reuss Voigt Hill
#
# Bulk Modulus (GPa) = 39.78011 64.48054 52.13033
# Shear Modulus (GPa) = 20.39836 24.68976 22.54406
#
# Velocity S-wave (km/s) = 3.28415 3.61313 3.45256
# Velocity P-wave (km/s) = 5.95102 7.17638 6.59223
#
# Compressibility (1/GPa) = 0.02513819
#
# Stress axis : x y z
#
# Youngs Moduli (GPa) = 63.02312 33.79269 81.74946
#
# Poissons Ratio (x) = 0.21455 0.43411
# Poissons Ratio (y) = 0.40014 0.37748
# Poissons Ratio (z) = 0.33467 0.15604
#
# Static dielectric constant tensor:
#      x y z
#    x 3.543720 0.000000 0.176050 
#    y 0.000000 3.192840 0.000000 
#    z 0.176050 0.000000 3.805380 
# 
# 
# High freq. dielectric constant tensor:
#      x y z
#    x 1.731710 0.000000 0.017290 
#    y 0.000000 1.702420 0.000000 
#    z 0.017290 0.000000 1.740670 
# 
# From -- ./inp_files/243690.got.cif
#   From: 2010.06.25/outbox.cif.g09.slc.cpg/sg12_122_cif.got.tgz:243690.got - 2010.06.28 00:19:55.
