data_PCOD8086376
_publ_section_title
;
Structure prediction by ZEFSAII (Michael W. Deem and Ramdas Pophale) SiO2 
 PCOD8086376
Probable space group: C 2/M
;
_chemical_formula_sum "Si O2"
_cell_formula_units_Z 64
_cell_length_a 18.710783
_cell_length_b 9.146046
_cell_length_c 20.444780
_cell_angle_alpha 90.000000
_cell_angle_beta 92.155064
_cell_angle_gamma 90.000000
_cell_volume 3496.234119
_symmetry_space_group_name_H-M "C 2/M"
_symmetry_group_IT_number 12
_symmetry_cell_setting 'monoclinic'
loop_
_space_group_symop_operation_xyz
x,y,z
-x,y,-z
-x,-y,-z
x,-y,z
1/2+x,1/2+y,z
1/2-x,1/2+y,-z
1/2-x,1/2-y,-z
1/2+x,1/2-y,z
loop_
_atom_site_type_symbol
_atom_site_label
_atom_site_fract_x
_atom_site_fract_y
_atom_site_fract_z
Si Si1 0.323381 0.827960 0.578227
Si Si2 0.071944 0.673556 0.307897
Si Si3 0.177493 0.829141 0.801003
Si Si4 0.661146 0.335079 0.055543
Si Si5 0.656176 0.170337 0.183930
Si Si6 0.589319 0.169976 0.688953
Si Si7 0.319627 0.167704 0.430835
Si Si8 0.831201 0.334740 0.070009
O O1 0.384314 0.764354 0.628370
O O2 0.343821 0.784577 0.504576
O O3 0.247486 0.760972 0.596082
O O4 0.316239 0.000000 0.587473
O O5 0.072344 0.500000 0.310771
O O6 0.108770 0.728174 0.242461
O O7 0.991022 0.731538 0.308093
O O8 0.261507 0.797950 0.796362
O O9 0.139970 0.764558 0.736391
O O10 0.145584 0.750375 0.863941
O O11 0.161218 0.000000 0.806663
O O12 0.631586 0.500000 0.050800
O O13 0.630502 0.258007 0.119225
O O14 0.746339 0.334411 0.060435
O O15 0.634097 0.246704 0.991084
O O16 0.643841 0.000000 0.169304
O O17 0.613801 0.192926 0.614974
O O18 0.594452 0.000000 0.709653
O O19 0.294792 0.000000 0.430350
O O20 0.860832 0.500000 0.074089
#
# Coordination Sequence:
#
# PCOD8086376 Si02
#       8
#     8   8   8   8   8   8   8   8
#     4   9  17  32  53  74  97 127 162 199 241 289
#     4   9  18  32  50  70  94 128 167 202 237 284
#     4  10  19  31  49  72  97 127 163 201 241 287
#     4   9  16  26  43  70 100 126 155 196 244 289
#     4   9  17  30  48  69  93 125 164 201 238 285
#     4  10  20  33  48  69  98 129 162 201 243 287
#     4   9  18  31  50  76 101 125 157 200 246 289
#     4   9  16  27  45  70  99 128 158 196 241 287
#
# _framework density 18.305410999999999
#
# number of rings (size 3 to 8) (size 9 to 14) (size 15 to 20)
#    0.000    2.750    0.000    1.875    0.000    5.500 
#    0.000    4.375    0.000    0.750    0.000    9.625 
#    0.000    0.000    0.000    0.000    0.000    0.000 
#
# Total GULP energy -396806.790529 kJ/mol
# GULP energy per Si atom -12400.212204 kJ/mol
# Density = 1.826375 g / cm^3
# Si number density = 18.305411 Si / 1000 Ang^3
#
#
#
# Elastic Constant Matrix: (Units=GPa)
#
#
# Indices 1 2 3 4 5 6 
#
# 1 71.6216 32.5962 53.6631 0.0000 -16.2339 0.0000
# 2 32.5962 79.2157 51.2111 0.0000 -6.6577 0.0000
# 3 53.6631 51.2111 134.2695 0.0000 -20.0722 0.0000
# 4 0.0000 0.0000 0.0000 29.2736 0.0000 2.3936
# 5 -16.2339 -6.6577 -20.0722 0.0000 11.9732 0.0000
# 6 0.0000 0.0000 0.0000 2.3936 0.0000 15.3298
#
#
#
# Elastic Compliance Matrix: (Units=1/GPa)
#
#
# Indices 1 2 3 4 5 6 
#
# 1 0.025123 -0.005500 -0.004414 0.000000 0.023605 0.000000
# 2 -0.005500 0.017990 -0.005715 0.000000 -0.007035 0.000000
# 3 -0.004414 -0.005715 0.013373 0.000000 0.013256 0.000000
# 4 0.000000 0.000000 0.000000 0.034602 0.000000 -0.005403
# 5 0.023605 -0.007035 0.013256 0.000000 0.133836 0.000000
# 6 0.000000 0.000000 0.000000 -0.005403 0.000000 0.066076
#
#
# Mechanical properties :
#
#
# Convention : Reuss Voigt Hill
#
# Bulk Modulus (GPa) = 39.63870 62.22752 50.93311
# Shear Modulus (GPa) = 15.12080 21.15774 18.13927
#
# Velocity S-wave (km/s) = 2.87719 3.40342 3.15131
# Velocity P-wave (km/s) = 5.72178 7.03649 6.41292
#
# Compressibility (1/GPa) = 0.02522787
#
# Stress axis : x y z
#
# Youngs Moduli (GPa) = 39.80362 55.58516 74.77489
#
# Poissons Ratio (x) = 0.30573 0.33009
# Poissons Ratio (y) = 0.21893 0.42734
# Poissons Ratio (z) = 0.17571 0.31767
#
# Static dielectric constant tensor:
#      x y z
#    x 3.129680 0.000000 -0.061320 
#    y 0.000000 3.312530 0.000000 
#    z -0.061320 0.000000 3.584440 
# 
# 
# High freq. dielectric constant tensor:
#      x y z
#    x 1.671240 0.000000 -0.004980 
#    y 0.000000 1.698620 0.000000 
#    z -0.004980 0.000000 1.726050 
# 
# From -- ./inp_files/314135.got.cif
#   From: 2010.06.25/outbox.cif.g09.slc.cpg/sg12_158_cif.got.tgz:314135.got - 2010.06.28 00:19:55.
