data_PCOD8086513
_publ_section_title
;
Structure prediction by ZEFSAII (Michael W. Deem and Ramdas Pophale) SiO2 
 PCOD8086513
Probable space group: C 2/M
;
_chemical_formula_sum "Si O2"
_cell_formula_units_Z 48
_cell_length_a 31.087646
_cell_length_b 13.496510
_cell_length_c 13.608978
_cell_angle_alpha 90.000000
_cell_angle_beta 156.836419
_cell_angle_gamma 90.000000
_cell_volume 2246.065282
_symmetry_space_group_name_H-M "C 2/M"
_symmetry_group_IT_number 12
_symmetry_cell_setting 'monoclinic'
loop_
_space_group_symop_operation_xyz
x,y,z
-x,y,-z
-x,-y,-z
x,-y,z
1/2+x,1/2+y,z
1/2-x,1/2+y,-z
1/2-x,1/2-y,-z
1/2+x,1/2-y,z
loop_
_atom_site_type_symbol
_atom_site_label
_atom_site_fract_x
_atom_site_fract_y
_atom_site_fract_z
Si Si1 0.952833 0.113685 0.214826
Si Si2 0.368001 0.886984 0.504293
Si Si3 0.299693 0.753701 0.788603
Si Si4 0.569140 0.112125 0.052576
Si Si5 0.759351 0.885436 0.950112
Si Si6 0.705980 0.617145 0.763490
O O1 0.077955 0.143361 0.491914
O O2 0.942548 0.000000 0.158293
O O3 0.905006 0.185465 0.031053
O O4 0.881579 0.130321 0.164184
O O5 0.303274 0.818789 0.447352
O O6 0.495841 0.882005 0.798343
O O7 0.332878 0.845615 0.321664
O O8 0.325366 0.000000 0.424601
O O9 0.274663 0.830128 0.823635
O O10 0.326383 0.817911 0.747057
O O11 0.608671 0.000000 0.155576
O O12 0.500000 0.150475 0.000000
O O13 0.736120 0.000000 0.918289
O O14 0.749702 0.838352 0.039039
O O15 0.724394 0.500000 0.791593
#
# Coordination Sequence:
#
# PCOD8086513 Si02
#       6
#     8   8   8   8   8   8
#     4   9  18  32  50  73 106 144 173 200 243 298
#     4   9  19  36  55  75 103 137 170 204 250 309
#     4  11  20  33  55  80 103 132 172 216 254 293
#     4  10  22  40  58  75  99 132 168 210 265 320
#     4   8  15  30  51  73 103 143 175 200 241 297
#     4  10  19  31  49  76 108 139 174 212 244 284
#
# _framework density 21.370705999999998
#
# number of rings (size 3 to 8) (size 9 to 14) (size 15 to 20)
#    0.000    2.500    0.000    3.500    0.000    5.333 
#    0.000    4.167    0.000    6.000    0.000    0.000 
#    0.000    1.333    0.000    0.000    0.000    0.000 
#
# Total GULP energy -297408.110832 kJ/mol
# GULP energy per Si atom -12392.004618 kJ/mol
# Density = 2.132207 g / cm^3
# Si number density = 21.370706 Si / 1000 Ang^3
#
#
#
# Elastic Constant Matrix: (Units=GPa)
#
#
# Indices 1 2 3 4 5 6 
#
# 1 76.6414 20.6838 -10.6103 0.0000 10.5222 0.0000
# 2 20.6838 59.3250 4.1250 0.0000 15.5360 0.0000
# 3 -10.6103 4.1250 39.0005 0.0000 2.4565 0.0000
# 4 0.0000 0.0000 0.0000 24.4867 0.0000 8.4974
# 5 10.5222 15.5360 2.4565 0.0000 15.2045 0.0000
# 6 0.0000 0.0000 0.0000 8.4974 0.0000 25.4477
#
#
#
# Elastic Compliance Matrix: (Units=1/GPa)
#
#
# Indices 1 2 3 4 5 6 
#
# 1 0.015894 -0.003827 0.005228 0.000000 -0.007933 0.000000
# 2 -0.003827 0.023972 -0.002223 0.000000 -0.021487 0.000000
# 3 0.005228 -0.002223 0.027665 0.000000 -0.005816 0.000000
# 4 0.000000 0.000000 0.000000 0.046191 0.000000 -0.015424
# 5 -0.007933 -0.021487 -0.005816 0.000000 0.094155 0.000000
# 6 0.000000 0.000000 0.000000 -0.015424 0.000000 0.044447
#
#
# Mechanical properties :
#
#
# Convention : Reuss Voigt Hill
#
# Bulk Modulus (GPa) = 15.17777 22.59599 18.88688
# Shear Modulus (GPa) = 18.12054 23.74567 20.93310
#
# Velocity S-wave (km/s) = 2.91506 3.33698 3.13313
# Velocity P-wave (km/s) = 4.29507 5.04416 4.68461
#
# Compressibility (1/GPa) = 0.06588585
#
# Stress axis : x y z
#
# Youngs Moduli (GPa) = 62.91817 41.71472 36.14722
#
# Poissons Ratio (x) = 0.15966 -0.18899
# Poissons Ratio (y) = 0.24082 0.08037
# Poissons Ratio (z) = -0.32896 0.09275
#
# Static dielectric constant tensor:
#      x y z
#    x 3.607780 0.000000 -0.062180 
#    y 0.000000 4.144770 0.000000 
#    z -0.062180 0.000000 3.775110 
# 
# 
# High freq. dielectric constant tensor:
#      x y z
#    x 1.808850 0.000000 0.002100 
#    y 0.000000 1.861080 0.000000 
#    z 0.002100 0.000000 1.818820 
# 
# From -- ./inp_files/183884.got.cif
#   From: 2010.06.25/outbox.cif.g09.slc.cpg/sg12_92_cif.got.tgz:183884.got - 2010.06.28 00:19:55.
