data_PCOD8086244
_publ_section_title
;
Structure prediction by ZEFSAII (Michael W. Deem and Ramdas Pophale) SiO2 
 PCOD8086244
Probable space group: C 2/M
;
_chemical_formula_sum "Si O2"
_cell_formula_units_Z 64
_cell_length_a 15.602298
_cell_length_b 27.233329
_cell_length_c 8.315380
_cell_angle_alpha 90.000000
_cell_angle_beta 73.925074
_cell_angle_gamma 90.000000
_cell_volume 3395.078230
_symmetry_space_group_name_H-M "C 2/M"
_symmetry_group_IT_number 12
_symmetry_cell_setting 'monoclinic'
loop_
_space_group_symop_operation_xyz
x,y,z
-x,y,-z
-x,-y,-z
x,-y,z
1/2+x,1/2+y,z
1/2-x,1/2+y,-z
1/2-x,1/2-y,-z
1/2+x,1/2-y,z
loop_
_atom_site_type_symbol
_atom_site_label
_atom_site_fract_x
_atom_site_fract_y
_atom_site_fract_z
Si Si1 0.091333 0.172098 0.392299
Si Si2 0.752645 0.358482 0.125543
Si Si3 0.546298 0.054600 0.226384
Si Si4 0.366598 0.944900 0.166759
Si Si5 0.042219 0.266947 0.230166
Si Si6 0.865446 0.263908 0.146088
Si Si7 0.845782 0.358068 0.740522
Si Si8 0.223861 0.801899 0.590551
O O1 0.145783 0.145577 0.218255
O O2 0.062678 0.227062 0.355682
O O3 0.153932 0.170963 0.515169
O O4 0.000000 0.144931 0.500000
O O5 0.787233 0.405341 0.209319
O O6 0.799065 0.310125 0.176377
O O7 0.774414 0.363013 0.924765
O O8 0.441092 0.067715 0.263866
O O9 0.600954 0.091055 0.315019
O O10 0.557494 0.000000 0.292625
O O11 0.587125 0.058234 0.029201
O O12 0.328455 0.000000 0.215024
O O13 0.076986 0.319773 0.260539
O O14 0.937469 0.273413 0.249884
O O15 0.091681 0.250281 0.043990
O O16 0.814172 0.213811 0.215462
O O17 0.800147 0.341380 0.596853
O O18 0.250000 0.750000 0.500000
#
# Coordination Sequence:
#
# PCOD8086244 Si02
#       8
#     8   8   8   8   8   8   8   8
#     4  12  23  35  48  65  96 133 176 218 253 291
#     4  10  19  32  50  74 101 132 169 208 252 300
#     4   8  14  27  50  82 112 131 156 200 251 303
#     4   8  14  27  51  81 108 131 160 202 250 303
#     4  10  19  31  48  72 101 132 164 203 250 297
#     4  10  19  31  49  71  99 132 167 205 246 301
#     4  10  19  31  50  76 104 134 165 202 251 305
#     4  12  21  33  48  67  97 135 178 211 248 296
#
# _framework density 18.850816999999999
#
# number of rings (size 3 to 8) (size 9 to 14) (size 15 to 20)
#    0.000    2.000    3.750    2.250    0.000    5.000 
#    0.000    0.000    0.000    1.125    0.000    1.750 
#    0.000    4.000    0.000    0.000    0.000    0.000 
#
# Total GULP energy -396515.449175 kJ/mol
# GULP energy per Si atom -12391.107787 kJ/mol
# Density = 1.880791 g / cm^3
# Si number density = 18.850817 Si / 1000 Ang^3
#
#
#
# Elastic Constant Matrix: (Units=GPa)
#
#
# Indices 1 2 3 4 5 6 
#
# 1 93.0218 38.6441 25.5063 0.0000 6.0547 0.0000
# 2 38.6441 73.3581 21.9093 0.0000 6.0616 0.0000
# 3 25.5063 21.9093 36.1457 0.0000 6.4130 0.0000
# 4 0.0000 0.0000 0.0000 15.2410 0.0000 9.1945
# 5 6.0547 6.0616 6.4130 0.0000 35.3676 0.0000
# 6 0.0000 0.0000 0.0000 9.1945 0.0000 30.6759
#
#
#
# Elastic Compliance Matrix: (Units=1/GPa)
#
#
# Indices 1 2 3 4 5 6 
#
# 1 0.015137 -0.005830 -0.007093 0.000000 -0.000306 0.000000
# 2 -0.005830 0.018929 -0.007192 0.000000 -0.000942 0.000000
# 3 -0.007093 -0.007192 0.037813 0.000000 -0.004409 0.000000
# 4 0.000000 0.000000 0.000000 0.080095 0.000000 -0.024007
# 5 -0.000306 -0.000942 -0.004409 0.000000 0.029288 0.000000
# 6 0.000000 0.000000 0.000000 -0.024007 0.000000 0.039794
#
#
# Mechanical properties :
#
#
# Convention : Reuss Voigt Hill
#
# Bulk Modulus (GPa) = 31.59818 41.62723 36.61271
# Shear Modulus (GPa) = 18.39333 24.02129 21.20731
#
# Velocity S-wave (km/s) = 3.12706 3.57358 3.35775
# Velocity P-wave (km/s) = 5.46229 6.25761 5.87343
#
# Compressibility (1/GPa) = 0.03164739
#
# Stress axis : x y z
#
# Youngs Moduli (GPa) = 66.06283 52.82912 26.44583
#
# Poissons Ratio (x) = 0.30801 0.18759
# Poissons Ratio (y) = 0.38516 0.19021
# Poissons Ratio (z) = 0.46861 0.37996
#
# Static dielectric constant tensor:
#      x y z
#    x 3.653410 0.000000 -0.113010 
#    y 0.000000 3.431430 0.000000 
#    z -0.113010 0.000000 3.526990 
# 
# 
# High freq. dielectric constant tensor:
#      x y z
#    x 1.723980 0.000000 0.000680 
#    y 0.000000 1.699120 0.000000 
#    z 0.000680 0.000000 1.729860 
# 
# From -- ./inp_files/66952.got.cif
#   From: 2010.06.25/outbox.cif.g09.slc.cpg/sg12_34_cif.got.tgz:66952.got - 2010.06.28 00:19:55.
