data_PCOD8086845
_publ_section_title
;
Structure prediction by ZEFSAII (Michael W. Deem and Ramdas Pophale) SiO2 
 PCOD8086845
Probable space group: C 2/M
;
_chemical_formula_sum "Si O2"
_cell_formula_units_Z 56
_cell_length_a 20.923894
_cell_length_b 8.945348
_cell_length_c 15.590885
_cell_angle_alpha 90.000000
_cell_angle_beta 89.033415
_cell_angle_gamma 90.000000
_cell_volume 2917.754294
_symmetry_space_group_name_H-M "C 2/M"
_symmetry_group_IT_number 12
_symmetry_cell_setting 'monoclinic'
loop_
_space_group_symop_operation_xyz
x,y,z
-x,y,-z
-x,-y,-z
x,-y,z
1/2+x,1/2+y,z
1/2-x,1/2+y,-z
1/2-x,1/2-y,-z
1/2+x,1/2-y,z
loop_
_atom_site_type_symbol
_atom_site_label
_atom_site_fract_x
_atom_site_fract_y
_atom_site_fract_z
Si Si1 0.442024 0.823777 0.940872
Si Si2 0.040843 0.176122 0.418544
Si Si3 0.277817 0.666581 0.372084
Si Si4 0.691543 0.668966 0.046029
Si Si5 0.844080 0.333827 0.507888
Si Si6 0.194304 0.169794 0.245286
Si Si7 0.561701 0.175391 0.253363
O O1 0.376362 0.746973 0.972124
O O2 0.460216 0.779569 0.842311
O O3 0.431140 0.000000 0.949025
O O4 0.500000 0.769060 0.000000
O O5 0.112651 0.229824 0.433387
O O6 0.017770 0.246119 0.327600
O O7 0.000000 0.236073 0.500000
O O8 0.036568 0.000000 0.410510
O O9 0.300138 0.500000 0.343521
O O10 0.222996 0.652279 0.443673
O O11 0.336486 0.754886 0.415127
O O12 0.255925 0.760224 0.289968
O O13 0.686601 0.500000 0.011821
O O14 0.708655 0.672404 0.145017
O O15 0.750000 0.750000 0.000000
O O16 0.873533 0.500000 0.494487
O O17 0.133783 0.271735 0.267607
O O18 0.181950 0.000000 0.277596
O O19 0.558386 0.000000 0.267931
#
# Coordination Sequence:
#
# PCOD8086845 Si02
#       7
#     8   8   8   8   8   8   8
#     4   9  19  37  61  87 115 148 187 232 284 345
#     4  11  23  37  53  74 105 145 185 227 274 323
#     4  10  19  31  51  78 105 134 170 215 264 312
#     4  10  21  36  56  84 115 150 187 230 283 337
#     4  10  20  33  51  75 103 136 173 215 263 311
#     4  10  19  32  53  79 108 141 180 224 270 325
#     4  10  19  33  55  81 106 139 184 229 274 326
#
# _framework density 19.192843
#
# number of rings (size 3 to 8) (size 9 to 14) (size 15 to 20)
#    0.000    2.000    1.429    2.571    0.000    4.857 
#    0.000    1.429    0.000    5.143    0.000    0.000 
#    0.000    0.000    0.000    0.000    0.000    0.000 
#
# Total GULP energy -347143.757513 kJ/mol
# GULP energy per Si atom -12397.991340 kJ/mol
# Density = 1.914916 g / cm^3
# Si number density = 19.192843 Si / 1000 Ang^3
#
#
#
# Elastic Constant Matrix: (Units=GPa)
#
#
# Indices 1 2 3 4 5 6 
#
# 1 65.3390 39.7911 55.4025 0.0000 5.9139 0.0000
# 2 39.7911 96.8862 51.3862 0.0000 0.8555 0.0000
# 3 55.4025 51.3862 116.2140 0.0000 8.5205 0.0000
# 4 0.0000 0.0000 0.0000 32.6421 0.0000 -1.0110
# 5 5.9139 0.8555 8.5205 0.0000 35.5923 0.0000
# 6 0.0000 0.0000 0.0000 -1.0110 0.0000 23.3015
#
#
#
# Elastic Compliance Matrix: (Units=1/GPa)
#
#
# Indices 1 2 3 4 5 6 
#
# 1 0.028089 -0.005870 -0.010651 0.000000 -0.001977 0.000000
# 2 -0.005870 0.014754 -0.003838 0.000000 0.001540 0.000000
# 3 -0.010651 -0.003838 0.015515 0.000000 -0.001852 0.000000
# 4 0.000000 0.000000 0.000000 0.030676 0.000000 0.001331
# 5 -0.001977 0.001540 -0.001852 0.000000 0.028831 0.000000
# 6 0.000000 0.000000 0.000000 0.001331 0.000000 0.042973
#
#
# Mechanical properties :
#
#
# Convention : Reuss Voigt Hill
#
# Bulk Modulus (GPa) = 56.68590 63.51099 60.09845
# Shear Modulus (GPa) = 24.10356 27.09779 25.60068
#
# Velocity S-wave (km/s) = 3.54766 3.76156 3.65617
# Velocity P-wave (km/s) = 6.81030 7.21309 7.01459
#
# Compressibility (1/GPa) = 0.01764107
#
# Stress axis : x y z
#
# Youngs Moduli (GPa) = 35.60062 67.77630 64.45262
#
# Poissons Ratio (x) = 0.39785 0.68646
# Poissons Ratio (y) = 0.20898 0.24740
# Poissons Ratio (z) = 0.37917 0.26015
#
# Static dielectric constant tensor:
#      x y z
#    x 3.193090 0.000000 0.130240 
#    y 0.000000 3.755450 0.000000 
#    z 0.130240 0.000000 3.769120 
# 
# 
# High freq. dielectric constant tensor:
#      x y z
#    x 1.708970 0.000000 0.013140 
#    y 0.000000 1.762200 0.000000 
#    z 0.013140 0.000000 1.750600 
# 
# From -- ./inp_files/231059.got.cif
#   From: 2010.06.25/outbox.cif.g09.slc.cpg/sg12_116_cif.got.tgz:231059.got - 2010.06.28 00:19:55.
