data_PCOD8086600
_publ_section_title
;
Structure prediction by ZEFSAII (Michael W. Deem and Ramdas Pophale) SiO2 
 PCOD8086600
Probable space group: C 2/M
;
_chemical_formula_sum "Si O2"
_cell_formula_units_Z 64
_cell_length_a 23.475452
_cell_length_b 8.891854
_cell_length_c 21.406011
_cell_angle_alpha 90.000000
_cell_angle_beta 53.190215
_cell_angle_gamma 90.000000
_cell_volume 3577.448402
_symmetry_space_group_name_H-M "C 2/M"
_symmetry_group_IT_number 12
_symmetry_cell_setting 'monoclinic'
loop_
_space_group_symop_operation_xyz
x,y,z
-x,y,-z
-x,-y,-z
x,-y,z
1/2+x,1/2+y,z
1/2-x,1/2+y,-z
1/2-x,1/2-y,-z
1/2+x,1/2-y,z
loop_
_atom_site_type_symbol
_atom_site_label
_atom_site_fract_x
_atom_site_fract_y
_atom_site_fract_z
Si Si1 0.725489 0.173160 0.824472
Si Si2 0.361777 0.169878 0.695898
Si Si3 0.280491 0.676387 0.918543
Si Si4 0.325543 0.323294 0.463452
Si Si5 0.423014 0.171351 0.781979
Si Si6 0.828808 0.669215 0.586156
Si Si7 0.327614 0.672993 0.255128
Si Si8 0.918834 0.322481 0.296821
O O1 0.805364 0.202227 0.749152
O O2 0.725668 0.216369 0.897930
O O3 0.672126 0.273371 0.817580
O O4 0.705631 0.000000 0.827056
O O5 0.425603 0.185813 0.703938
O O6 0.383579 0.192749 0.608695
O O7 0.327895 0.000000 0.723460
O O8 0.285001 0.500000 0.925262
O O9 0.360231 0.732007 0.853005
O O10 0.250000 0.750000 0.000000
O O11 0.318656 0.500000 0.459459
O O12 0.250000 0.250000 0.500000
O O13 0.349816 0.284089 0.517882
O O14 0.382889 0.262495 0.377721
O O15 0.498549 0.225628 0.758569
O O16 0.408391 0.000000 0.811116
O O17 0.834425 0.500000 0.555806
O O18 0.748988 0.700337 0.663092
O O19 0.350517 0.500000 0.242943
O O20 0.385343 0.771939 0.253491
O O21 0.909397 0.500000 0.312433
#
# Coordination Sequence:
#
# PCOD8086600 Si02
#       8
#     8   8   8   8   8   8   8   8
#     4   9  17  29  48  77 107 133 169 212 254 298
#     4   8  15  30  51  72  98 131 169 212 258 308
#     4  10  20  34  57  86 113 141 170 209 255 303
#     4  12  23  34  49  70 100 136 177 224 271 313
#     4   9  19  36  56  79 106 138 174 212 257 314
#     4   9  17  30  49  72  97 128 171 220 266 308
#     4  10  19  31  50  74 102 137 175 215 261 309
#     4  11  22  35  53  75 103 139 177 218 265 314
#
# _framework density 17.889845999999999
#
# number of rings (size 3 to 8) (size 9 to 14) (size 15 to 20)
#    0.000    2.250    1.250    3.375    0.000    4.500 
#    0.000    0.625    0.000    4.500    0.000    5.250 
#    0.000    0.000    0.000    0.000    0.000    0.000 
#
# Total GULP energy -396614.417327 kJ/mol
# GULP energy per Si atom -12394.200541 kJ/mol
# Density = 1.784913 g / cm^3
# Si number density = 17.889846 Si / 1000 Ang^3
#
#
#
# Elastic Constant Matrix: (Units=GPa)
#
#
# Indices 1 2 3 4 5 6 
#
# 1 112.1690 50.8222 57.6153 -0.0001 17.4341 -0.0016
# 2 50.8222 97.7488 53.6850 -0.0006 10.2357 -0.0018
# 3 57.6153 53.6850 91.4505 -0.0002 20.0291 0.0002
# 4 -0.0001 -0.0006 -0.0002 26.5756 0.0004 4.4287
# 5 17.4341 10.2357 20.0291 0.0004 26.3928 -0.0002
# 6 -0.0016 -0.0018 0.0002 4.4287 -0.0002 26.1721
#
#
#
# Elastic Compliance Matrix: (Units=1/GPa)
#
#
# Indices 1 2 3 4 5 6 
#
# 1 0.014230 -0.003730 -0.006037 0.000000 -0.003372 0.000001
# 2 -0.003730 0.016100 -0.007524 0.000000 0.001930 0.000001
# 3 -0.006037 -0.007524 0.021160 0.000000 -0.009152 -0.000001
# 4 0.000000 0.000000 0.000000 0.038720 -0.000001 -0.006552
# 5 -0.003372 0.001930 -0.009152 -0.000001 0.046313 0.000000
# 6 0.000001 0.000001 -0.000001 -0.006552 0.000000 0.039317
#
#
# Mechanical properties :
#
#
# Convention : Reuss Voigt Hill
#
# Bulk Modulus (GPa) = 59.14506 69.51258 64.32882
# Shear Modulus (GPa) = 23.14192 25.11116 24.12654
#
# Velocity S-wave (km/s) = 3.60054 3.75060 3.67634
# Velocity P-wave (km/s) = 7.10054 7.59581 7.35234
#
# Compressibility (1/GPa) = 0.01690758
#
# Stress axis : x y z
#
# Youngs Moduli (GPa) = 70.27363 62.11283 47.25976
#
# Poissons Ratio (x) = 0.23167 0.28531
# Poissons Ratio (y) = 0.26211 0.35558
# Poissons Ratio (z) = 0.42425 0.46734
#
# Static dielectric constant tensor:
#      x y z
#    x 3.600240 0.000000 0.310890 
#    y 0.000000 3.412430 0.000010 
#    z 0.310890 0.000010 3.304100 
# 
# 
# High freq. dielectric constant tensor:
#      x y z
#    x 1.693590 0.000000 0.035090 
#    y 0.000000 1.700930 0.000000 
#    z 0.035090 0.000000 1.653340 
# 
# From -- ./inp_files/323749.got.cif
#   From: 2010.06.25/outbox.cif.g09.slc.cpg/sg12_162_cif.got.tgz:323749.got - 2010.06.28 00:19:55.
