data_PCOD8086827
_publ_section_title
;
Structure prediction by ZEFSAII (Michael W. Deem and Ramdas Pophale) SiO2 
 PCOD8086827
Probable space group: C 2/M
;
_chemical_formula_sum "Si O2"
_cell_formula_units_Z 56
_cell_length_a 16.240127
_cell_length_b 15.655971
_cell_length_c 12.886537
_cell_angle_alpha 90.000000
_cell_angle_beta 59.307448
_cell_angle_gamma 90.000000
_cell_volume 2817.494084
_symmetry_space_group_name_H-M "C 2/M"
_symmetry_group_IT_number 12
_symmetry_cell_setting 'monoclinic'
loop_
_space_group_symop_operation_xyz
x,y,z
-x,y,-z
-x,-y,-z
x,-y,z
1/2+x,1/2+y,z
1/2-x,1/2+y,-z
1/2-x,1/2-y,-z
1/2+x,1/2-y,z
loop_
_atom_site_type_symbol
_atom_site_label
_atom_site_fract_x
_atom_site_fract_y
_atom_site_fract_z
Si Si1 0.109304 0.905535 0.664579
Si Si2 0.448094 0.821909 0.811973
Si Si3 0.791477 0.900689 0.619740
Si Si4 0.212276 0.672127 0.921049
Si Si5 0.912211 0.836477 0.729578
Si Si6 0.856960 0.500000 0.112430
Si Si7 0.141147 0.261535 0.768949
Si Si8 0.009495 0.500000 0.175078
O O1 0.162886 0.900383 0.521908
O O2 0.151735 0.832354 0.711800
O O3 0.995247 0.897155 0.718374
O O4 0.125559 0.000000 0.703586
O O5 0.450106 0.762567 0.707873
O O6 0.529837 0.790280 0.839795
O O7 0.471327 0.918724 0.763900
O O8 0.344729 0.824021 0.935731
O O9 0.875100 0.864540 0.641559
O O10 0.703598 0.833861 0.669633
O O11 0.763224 0.000000 0.669060
O O12 0.325832 0.671160 0.870613
O O13 0.203846 0.586424 0.855565
O O14 0.176959 0.746840 0.865325
O O15 0.903717 0.500000 0.196347
O O16 0.926065 0.500000 0.969242
#
# Coordination Sequence:
#
# PCOD8086827 Si02
#       8
#     8   8   8   8   8   4   8   4
#     4  10  21  38  54  76 105 135 170 218 264 306
#     4  10  19  32  48  79 110 142 164 213 256 304
#     4  10  21  36  58  80 101 126 172 229 267 298
#     4  10  19  31  51  77 112 134 172 209 256 297
#     4  10  21  31  52  77 103 140 174 204 256 310
#     4   9  16  26  48  78  95 134 166 218 253 286
#     4  10  20  31  56  83 102 133 173 212 259 318
#     4   9  16  28  48  70 105 132 174 206 257 292
#
# _framework density 19.875817999999999
#
# number of rings (size 3 to 8) (size 9 to 14) (size 15 to 20)
#    0.000    2.143    1.429    2.143    6.000    1.143 
#    0.000    0.000    6.286    7.714    0.000    2.000 
#    0.000    0.000    0.000    0.000    0.000    0.000 
#
# Total GULP energy -346902.834889 kJ/mol
# GULP energy per Si atom -12389.386960 kJ/mol
# Density = 1.983058 g / cm^3
# Si number density = 19.875818 Si / 1000 Ang^3
#
#
#
# Elastic Constant Matrix: (Units=GPa)
#
#
# Indices 1 2 3 4 5 6 
#
# 1 41.2217 24.2478 15.8483 0.0000 -11.0737 0.0000
# 2 24.2478 167.7767 36.0117 0.0000 12.7618 0.0000
# 3 15.8483 36.0117 33.8398 0.0000 -3.2092 0.0000
# 4 0.0000 0.0000 0.0000 26.5209 0.0000 3.0262
# 5 -11.0737 12.7618 -3.2092 0.0000 26.8900 0.0000
# 6 0.0000 0.0000 0.0000 3.0262 0.0000 28.3606
#
#
#
# Elastic Compliance Matrix: (Units=1/GPa)
#
#
# Indices 1 2 3 4 5 6 
#
# 1 0.034607 -0.003821 -0.010739 0.000000 0.014783 0.000000
# 2 -0.003821 0.008782 -0.008194 0.000000 -0.006719 0.000000
# 3 -0.010739 -0.008194 0.043745 0.000000 0.004687 0.000000
# 4 0.000000 0.000000 0.000000 0.038171 0.000000 -0.004073
# 5 0.014783 -0.006719 0.004687 0.000000 0.047025 0.000000
# 6 0.000000 0.000000 0.000000 -0.004073 0.000000 0.035695
#
#
# Mechanical properties :
#
#
# Convention : Reuss Voigt Hill
#
# Bulk Modulus (GPa) = 24.02361 43.89489 33.95925
# Shear Modulus (GPa) = 18.69801 27.46966 23.08383
#
# Velocity S-wave (km/s) = 3.07048 3.72165 3.41163
# Velocity P-wave (km/s) = 4.96825 6.37182 5.71330
#
# Compressibility (1/GPa) = 0.04162573
#
# Stress axis : x y z
#
# Youngs Moduli (GPa) = 28.89597 113.86473 22.85989
#
# Poissons Ratio (x) = 0.43507 0.24550
# Poissons Ratio (y) = 0.11041 0.18731
# Poissons Ratio (z) = 0.31033 0.93298
#
# Static dielectric constant tensor:
#      x y z
#    x 3.593140 0.000000 -0.293570 
#    y 0.000000 4.098430 0.000000 
#    z -0.293570 0.000000 3.426870 
# 
# 
# High freq. dielectric constant tensor:
#      x y z
#    x 1.764680 0.000000 -0.033540 
#    y 0.000000 1.788650 0.000000 
#    z -0.033540 0.000000 1.756710 
# 
# From -- ./inp_files/224698.got.cif
#   From: 2010.06.25/outbox.cif.g09.slc.cpg/sg12_113_cif.got.tgz:224698.got - 2010.06.28 00:19:55.
