data_PCOD8086057
_publ_section_title
;
Structure prediction by ZEFSAII (Michael W. Deem and Ramdas Pophale) SiO2 
 PCOD8086057
Probable space group: C 2/M
;
_chemical_formula_sum "Si O2"
_cell_formula_units_Z 56
_cell_length_a 28.480173
_cell_length_b 9.405740
_cell_length_c 18.972627
_cell_angle_alpha 90.000000
_cell_angle_beta 137.773944
_cell_angle_gamma 90.000000
_cell_volume 3415.619115
_symmetry_space_group_name_H-M "C 2/M"
_symmetry_group_IT_number 12
_symmetry_cell_setting 'monoclinic'
loop_
_space_group_symop_operation_xyz
x,y,z
-x,y,-z
-x,-y,-z
x,-y,z
1/2+x,1/2+y,z
1/2-x,1/2+y,-z
1/2-x,1/2-y,-z
1/2+x,1/2-y,z
loop_
_atom_site_type_symbol
_atom_site_label
_atom_site_fract_x
_atom_site_fract_y
_atom_site_fract_z
Si Si1 0.249241 0.165641 0.107953
Si Si2 0.249900 0.663580 0.394990
Si Si3 0.352905 0.835353 0.097750
Si Si4 0.506557 0.164817 0.306873
Si Si5 0.449791 0.665284 0.507752
Si Si6 0.852228 0.336690 0.600955
Si Si7 0.707211 0.664223 0.708256
O O1 0.314747 0.191969 0.129548
O O2 0.266268 0.233824 0.201510
O O3 0.233271 0.000000 0.100360
O O4 0.180534 0.240015 0.000383
O O5 0.269254 0.500000 0.428903
O O6 0.177667 0.705127 0.354809
O O7 0.314582 0.749511 0.498030
O O8 0.242978 0.693220 0.304022
O O9 0.432618 0.784182 0.193962
O O10 0.346996 0.000000 0.068776
O O11 0.525908 0.249171 0.397768
O O12 0.564834 0.192647 0.311040
O O13 0.502168 0.000000 0.323081
O O14 0.500000 0.708999 0.500000
O O15 0.456034 0.500000 0.533284
O O16 0.371402 0.706258 0.399411
O O17 0.835656 0.500000 0.566272
O O18 0.711327 0.500000 0.737472
#
# Coordination Sequence:
#
# PCOD8086057 Si02
#       7
#     8   8   8   8   8   8   8
#     4  10  20  33  51  72  92 121 163 203 235 277
#     4   9  17  30  47  68  96 128 160 193 233 281
#     4   9  19  35  51  69  95 125 157 196 242 285
#     4  10  19  31  49  72  97 125 156 195 241 285
#     4  10  20  31  44  67  99 132 161 189 229 284
#     4   9  17  29  47  71  96 123 159 198 233 278
#     4  10  19  31  47  68  97 130 158 191 237 283
#
# _framework density 16.39527
#
# number of rings (size 3 to 8) (size 9 to 14) (size 15 to 20)
#    0.000    2.429    1.429    1.286    0.000    2.571 
#    0.000    0.000    0.000    0.857    0.000    6.000 
#    0.000    0.000    0.000    0.000    0.000    0.000 
#
# Total GULP energy -347186.008143 kJ/mol
# GULP energy per Si atom -12399.500291 kJ/mol
# Density = 1.635795 g / cm^3
# Si number density = 16.395270 Si / 1000 Ang^3
#
#
#
# Elastic Constant Matrix: (Units=GPa)
#
#
# Indices 1 2 3 4 5 6 
#
# 1 109.8624 46.5724 72.4684 0.0000 7.7582 0.0000
# 2 46.5724 69.3391 64.4593 0.0000 -1.6037 0.0000
# 3 72.4684 64.4593 121.5317 0.0000 7.2980 0.0000
# 4 0.0000 0.0000 0.0000 31.7714 0.0000 -5.7912
# 5 7.7582 -1.6037 7.2980 0.0000 17.4369 0.0000
# 6 0.0000 0.0000 0.0000 -5.7912 0.0000 13.6556
#
#
#
# Elastic Compliance Matrix: (Units=1/GPa)
#
#
# Indices 1 2 3 4 5 6 
#
# 1 0.015769 -0.004361 -0.006816 0.000000 -0.004565 0.000000
# 2 -0.004361 0.031157 -0.014580 0.000000 0.010908 0.000000
# 3 -0.006816 -0.014580 0.020438 0.000000 -0.006862 0.000000
# 4 0.000000 0.000000 0.000000 0.034112 0.000000 0.014466
# 5 -0.004565 0.010908 -0.006862 0.000000 0.063256 0.000000
# 6 0.000000 0.000000 0.000000 0.014466 0.000000 0.079365
#
#
# Mechanical properties :
#
#
# Convention : Reuss Voigt Hill
#
# Bulk Modulus (GPa) = 63.09026 74.19261 68.64144
# Shear Modulus (GPa) = 16.61706 20.38833 18.50270
#
# Velocity S-wave (km/s) = 3.18705 3.53023 3.36302
# Velocity P-wave (km/s) = 7.21854 7.87193 7.55231
#
# Compressibility (1/GPa) = 0.01585031
#
# Stress axis : x y z
#
# Youngs Moduli (GPa) = 63.41419 32.09504 48.92834
#
# Poissons Ratio (x) = 0.13996 0.33350
# Poissons Ratio (y) = 0.27654 0.71339
# Poissons Ratio (z) = 0.43224 0.46796
#
# Static dielectric constant tensor:
#      x y z
#    x 3.425350 0.000000 0.106710 
#    y 0.000000 3.124310 0.000000 
#    z 0.106710 0.000000 2.937990 
# 
# 
# High freq. dielectric constant tensor:
#      x y z
#    x 1.637800 0.000000 0.002470 
#    y 0.000000 1.634300 0.000000 
#    z 0.002470 0.000000 1.608820 
# 
# From -- ./inp_files/288183.got.cif
#   From: 2010.06.25/outbox.cif.g09.slc.cpg/sg12_145_cif.got.tgz:288183.got - 2010.06.28 00:19:55.
