data_PCOD8086166
_publ_section_title
;
Structure prediction by ZEFSAII (Michael W. Deem and Ramdas Pophale) SiO2 
 PCOD8086166
Probable space group: C 2/M
;
_chemical_formula_sum "Si O2"
_cell_formula_units_Z 64
_cell_length_a 32.997307
_cell_length_b 9.159971
_cell_length_c 14.231340
_cell_angle_alpha 90.000000
_cell_angle_beta 116.088131
_cell_angle_gamma 90.000000
_cell_volume 3863.243881
_symmetry_space_group_name_H-M "C 2/M"
_symmetry_group_IT_number 12
_symmetry_cell_setting 'monoclinic'
loop_
_space_group_symop_operation_xyz
x,y,z
-x,y,-z
-x,-y,-z
x,-y,z
1/2+x,1/2+y,z
1/2-x,1/2+y,-z
1/2-x,1/2-y,-z
1/2+x,1/2-y,z
loop_
_atom_site_type_symbol
_atom_site_label
_atom_site_fract_x
_atom_site_fract_y
_atom_site_fract_z
Si Si1 0.882142 0.166930 0.808868
Si Si2 0.048043 0.332526 0.589612
Si Si3 0.040299 0.829520 0.974936
Si Si4 0.520979 0.834099 0.767766
Si Si5 0.875192 0.833444 0.439847
Si Si6 0.065511 0.837963 0.323923
Si Si7 0.701706 0.170137 0.348324
Si Si8 0.706597 0.829319 0.570821
O O1 0.917534 0.195506 0.762503
O O2 0.839954 0.274694 0.756928
O O3 0.864622 0.000000 0.788686
O O4 0.910229 0.201619 0.931658
O O5 0.054927 0.500000 0.564325
O O6 0.051231 0.318232 0.705525
O O7 0.088518 0.234268 0.593381
O O8 0.000000 0.275543 0.500000
O O9 0.041012 0.757880 0.873467
O O10 0.031583 0.000000 0.952102
O O11 0.000000 0.766339 0.000000
O O12 0.471486 0.780795 0.686982
O O13 0.517721 0.000000 0.797920
O O14 0.892876 0.825259 0.563769
O O15 0.828907 0.742175 0.393142
O O16 0.865600 0.000000 0.399411
O O17 0.043917 0.000000 0.306797
O O18 0.692157 0.200762 0.448356
O O19 0.745447 0.256979 0.358876
O O20 0.709467 0.000000 0.337093
O O21 0.709755 0.000000 0.595555
#
# Coordination Sequence:
#
# PCOD8086166 Si02
#       8
#     8   8   8   8   8   8   8   8
#     4  10  19  33  51  71 100 138 172 205 251 302
#     4  10  21  36  50  69 101 136 170 209 255 303
#     4  10  20  35  52  71  99 136 172 208 252 300
#     4  11  22  34  50  71  99 134 172 216 254 291
#     4  11  21  32  51  76 100 132 173 213 249 294
#     4  10  19  31  48  70 101 135 170 208 247 297
#     4  10  20  32  49  74 103 133 169 210 248 294
#     4  10  20  33  50  72 103 138 167 202 253 304
#
# _framework density 16.566388
#
# number of rings (size 3 to 8) (size 9 to 14) (size 15 to 20)
#    0.000    1.750    3.750    1.500    0.000    4.000 
#    0.000    0.000    0.000    0.000    0.000    0.875 
#    0.000    0.000    0.000    0.000    0.000    0.000 
#
# Total GULP energy -396842.319133 kJ/mol
# GULP energy per Si atom -12401.322473 kJ/mol
# Density = 1.652868 g / cm^3
# Si number density = 16.566388 Si / 1000 Ang^3
#
#
#
# Elastic Constant Matrix: (Units=GPa)
#
#
# Indices 1 2 3 4 5 6 
#
# 1 89.2253 61.7939 29.7332 0.0000 8.6480 0.0000
# 2 61.7939 101.0620 37.7547 0.0000 7.6571 0.0000
# 3 29.7332 37.7547 61.9798 0.0000 1.9738 0.0000
# 4 0.0000 0.0000 0.0000 26.9767 0.0000 2.4583
# 5 8.6480 7.6571 1.9738 0.0000 22.9964 0.0000
# 6 0.0000 0.0000 0.0000 2.4583 0.0000 31.6465
#
#
#
# Elastic Compliance Matrix: (Units=1/GPa)
#
#
# Indices 1 2 3 4 5 6 
#
# 1 0.020092 -0.010939 -0.002858 0.000000 -0.003668 0.000000
# 2 -0.010939 0.019071 -0.006315 0.000000 -0.001694 0.000000
# 3 -0.002858 -0.006315 0.021309 0.000000 0.001349 0.000000
# 4 0.000000 0.000000 0.000000 0.037333 0.000000 -0.002900
# 5 -0.003668 -0.001694 0.001349 0.000000 0.045313 0.000000
# 6 0.000000 0.000000 0.000000 -0.002900 0.000000 0.031824
#
#
# Mechanical properties :
#
#
# Convention : Reuss Voigt Hill
#
# Bulk Modulus (GPa) = 49.39025 56.75899 53.07462
# Shear Modulus (GPa) = 22.53088 24.52292 23.52690
#
# Velocity S-wave (km/s) = 3.69187 3.85162 3.77259
# Velocity P-wave (km/s) = 6.93191 7.35635 7.14728
#
# Compressibility (1/GPa) = 0.02024691
#
# Stress axis : x y z
#
# Youngs Moduli (GPa) = 49.77189 52.43438 46.92759
#
# Poissons Ratio (x) = 0.57360 0.13412
# Poissons Ratio (y) = 0.54447 0.29637
# Poissons Ratio (z) = 0.14225 0.33115
#
# Static dielectric constant tensor:
#      x y z
#    x 2.948620 0.000000 0.059350 
#    y 0.000000 3.204620 0.000000 
#    z 0.059350 0.000000 2.987250 
# 
# 
# High freq. dielectric constant tensor:
#      x y z
#    x 1.622530 0.000000 0.006250 
#    y 0.000000 1.647410 0.000000 
#    z 0.006250 0.000000 1.615430 
# 
# From -- ./inp_files/249231.got.cif
#   From: 2010.06.25/outbox.cif.g09.slc.cpg/sg12_125_cif.got.tgz:249231.got - 2010.06.28 00:19:55.
