data_PCOD8086890
_publ_section_title
;
Structure prediction by ZEFSAII (Michael W. Deem and Ramdas Pophale) SiO2 
 PCOD8086890
Probable space group: C 2/M
;
_chemical_formula_sum "Si O2"
_cell_formula_units_Z 56
_cell_length_a 26.558076
_cell_length_b 9.169005
_cell_length_c 14.226254
_cell_angle_alpha 90.000000
_cell_angle_beta 121.828642
_cell_angle_gamma 90.000000
_cell_volume 2943.328857
_symmetry_space_group_name_H-M "C 2/M"
_symmetry_group_IT_number 12
_symmetry_cell_setting 'monoclinic'
loop_
_space_group_symop_operation_xyz
x,y,z
-x,y,-z
-x,-y,-z
x,-y,z
1/2+x,1/2+y,z
1/2-x,1/2+y,-z
1/2-x,1/2-y,-z
1/2+x,1/2-y,z
loop_
_atom_site_type_symbol
_atom_site_label
_atom_site_fract_x
_atom_site_fract_y
_atom_site_fract_z
Si Si1 0.495786 0.827131 0.387604
Si Si2 0.388246 0.668967 0.183671
Si Si3 0.849790 0.167822 0.944531
Si Si4 0.715512 0.835400 0.829142
Si Si5 0.888364 0.329463 0.601383
Si Si6 0.156531 0.670384 0.244826
Si Si7 0.778115 0.333667 0.378721
O O1 0.500000 0.778714 0.500000
O O2 0.437805 0.760241 0.284541
O O3 0.552567 0.763065 0.387532
O O4 0.490450 0.000000 0.372964
O O5 0.394839 0.500000 0.216304
O O6 0.323762 0.722870 0.151492
O O7 0.393177 0.692294 0.075710
O O8 0.783402 0.215804 0.907454
O O9 0.872142 0.260792 0.877322
O O10 0.848167 0.000000 0.910511
O O11 0.696662 0.828118 0.701827
O O12 0.706486 0.000000 0.858795
O O13 0.887960 0.500000 0.578505
O O14 0.888109 0.297632 0.712625
O O15 0.828975 0.264687 0.495243
O O16 0.165258 0.500000 0.236954
O O17 0.219852 0.737319 0.332987
O O18 0.762239 0.500000 0.391270
#
# Coordination Sequence:
#
# PCOD8086890 Si02
#       7
#     8   8   8   8   8   8   8
#     4  10  21  39  60  77  99 137 177 208 247 306
#     4  11  22  35  53  78 106 134 169 218 265 300
#     4   9  20  37  53  73 105 141 173 206 253 313
#     4   9  17  31  53  78 104 139 175 204 247 311
#     4   9  18  33  53  77 104 136 176 215 250 299
#     4  10  19  31  51  80 108 133 169 217 259 296
#     4   9  17  32  53  77 108 141 170 204 253 313
#
# _framework density 19.026076
#
# number of rings (size 3 to 8) (size 9 to 14) (size 15 to 20)
#    0.000    2.429    0.000    3.429    0.000    6.000 
#    0.000    3.571    0.000    4.286    0.000    0.000 
#    0.000    0.000    0.000    0.000    0.000    0.000 
#
# Total GULP energy -347200.059361 kJ/mol
# GULP energy per Si atom -12400.002120 kJ/mol
# Density = 1.898277 g / cm^3
# Si number density = 19.026076 Si / 1000 Ang^3
#
#
#
# Elastic Constant Matrix: (Units=GPa)
#
#
# Indices 1 2 3 4 5 6 
#
# 1 95.6721 39.7399 42.9687 0.0000 -17.9479 0.0000
# 2 39.7399 58.0946 40.4453 0.0000 -9.1611 0.0000
# 3 42.9687 40.4453 119.3910 0.0000 -8.9962 0.0000
# 4 0.0000 0.0000 0.0000 25.8684 0.0000 -2.2080
# 5 -17.9479 -9.1611 -8.9962 0.0000 20.1545 0.0000
# 6 0.0000 0.0000 0.0000 -2.2080 0.0000 21.1849
#
#
#
# Elastic Compliance Matrix: (Units=1/GPa)
#
#
# Indices 1 2 3 4 5 6 
#
# 1 0.016909 -0.008188 -0.002543 0.000000 0.010201 0.000000
# 2 -0.008188 0.027508 -0.006187 0.000000 0.002451 0.000000
# 3 -0.002543 -0.006187 0.011388 0.000000 0.000006 0.000000
# 4 0.000000 0.000000 0.000000 0.039004 0.000000 0.004065
# 5 0.010201 0.002451 0.000006 0.000000 0.059818 0.000000
# 6 0.000000 0.000000 0.000000 0.004065 0.000000 0.047627
#
#
# Mechanical properties :
#
#
# Convention : Reuss Voigt Hill
#
# Bulk Modulus (GPa) = 45.51972 57.71839 51.61906
# Shear Modulus (GPa) = 20.54119 23.44181 21.99150
#
# Velocity S-wave (km/s) = 3.28934 3.51392 3.40348
# Velocity P-wave (km/s) = 6.19703 6.84586 6.52951
#
# Compressibility (1/GPa) = 0.02196850
#
# Stress axis : x y z
#
# Youngs Moduli (GPa) = 59.13917 36.35286 87.81432
#
# Poissons Ratio (x) = 0.29764 0.22334
# Poissons Ratio (y) = 0.48421 0.54334
# Poissons Ratio (z) = 0.15041 0.22493
#
# Static dielectric constant tensor:
#      x y z
#    x 3.419980 0.000000 -0.149060 
#    y 0.000000 3.294220 0.000000 
#    z -0.149060 0.000000 3.562070 
# 
# 
# High freq. dielectric constant tensor:
#      x y z
#    x 1.724590 0.000000 -0.013920 
#    y 0.000000 1.722310 0.000000 
#    z -0.013920 0.000000 1.746350 
# 
# From -- ./inp_files/238923.got.cif
#   From: 2010.06.25/outbox.cif.g09.slc.cpg/sg12_120_cif.got.tgz:238923.got - 2010.06.28 00:19:55.
