data_PCOD8086397
_publ_section_title
;
Structure prediction by ZEFSAII (Michael W. Deem and Ramdas Pophale) SiO2 
 PCOD8086397
Probable space group: C 2/M
;
_chemical_formula_sum "Si O2"
_cell_formula_units_Z 48
_cell_length_a 30.271221
_cell_length_b 9.110133
_cell_length_c 18.447270
_cell_angle_alpha 90.000000
_cell_angle_beta 149.862197
_cell_angle_gamma 90.000000
_cell_volume 2554.235466
_symmetry_space_group_name_H-M "C 2/M"
_symmetry_group_IT_number 12
_symmetry_cell_setting 'monoclinic'
loop_
_space_group_symop_operation_xyz
x,y,z
-x,y,-z
-x,-y,-z
x,-y,z
1/2+x,1/2+y,z
1/2-x,1/2+y,-z
1/2-x,1/2-y,-z
1/2+x,1/2-y,z
loop_
_atom_site_type_symbol
_atom_site_label
_atom_site_fract_x
_atom_site_fract_y
_atom_site_fract_z
Si Si1 0.242758 0.169460 0.881596
Si Si2 0.244992 0.830882 0.719816
Si Si3 0.314642 0.665121 0.689236
Si Si4 0.945429 0.828677 0.612367
Si Si5 0.879213 0.334214 0.651540
Si Si6 0.387675 0.829480 0.204619
O O1 0.262897 0.214537 0.827840
O O2 0.163828 0.269771 0.798592
O O3 0.213077 0.000000 0.845143
O O4 0.330950 0.198990 0.051950
O O5 0.310565 0.736788 0.762946
O O6 0.143813 0.798082 0.557796
O O7 0.267214 0.000000 0.736624
O O8 0.350510 0.500000 0.747171
O O9 0.218779 0.667122 0.518130
O O10 0.381187 0.756271 0.732747
O O11 0.942988 0.753010 0.687768
O O12 0.021977 0.758381 0.673172
O O13 0.963196 0.000000 0.648901
O O14 0.914532 0.500000 0.709896
O O15 0.408222 0.000000 0.245510
#
# Coordination Sequence:
#
# PCOD8086397 Si02
#       6
#     8   8   8   8   8   8
#     4   9  19  36  54  70  92 126 165 199 235 285
#     4   9  18  32  50  72  97 127 162 198 237 281
#     4   9  16  26  43  69  99 128 158 194 237 282
#     4  10  19  31  49  73 100 127 158 198 241 283
#     4   9  16  27  44  67  97 130 162 194 231 280
#     4  10  20  34  52  72  95 125 161 199 240 287
#
# _framework density 18.792316
#
# number of rings (size 3 to 8) (size 9 to 14) (size 15 to 20)
#    0.000    2.667    0.000    2.000    0.000    6.667 
#    0.000    3.333    0.000    1.000    0.000    7.000 
#    0.000    0.000    0.000    0.000    0.000    0.000 
#
# Total GULP energy -297651.383607 kJ/mol
# GULP energy per Si atom -12402.140984 kJ/mol
# Density = 1.874954 g / cm^3
# Si number density = 18.792316 Si / 1000 Ang^3
#
#
#
# Elastic Constant Matrix: (Units=GPa)
#
#
# Indices 1 2 3 4 5 6 
#
# 1 66.5635 29.6902 11.7487 0.0000 -31.5902 0.0000
# 2 29.6902 104.1511 12.1586 0.0000 -12.0645 0.0000
# 3 11.7487 12.1586 17.3406 0.0000 -12.4984 0.0000
# 4 0.0000 0.0000 0.0000 18.2685 0.0000 1.1856
# 5 -31.5902 -12.0645 -12.4984 0.0000 25.5010 0.0000
# 6 0.0000 0.0000 0.0000 1.1856 0.0000 43.3089
#
#
#
# Elastic Compliance Matrix: (Units=1/GPa)
#
#
# Indices 1 2 3 4 5 6 
#
# 1 0.043092 -0.007634 0.018599 0.000000 0.058885 0.000000
# 2 -0.007634 0.011883 -0.009159 0.000000 -0.008325 0.000000
# 3 0.018599 -0.009159 0.100461 0.000000 0.067944 0.000000
# 4 0.000000 0.000000 0.000000 0.054836 0.000000 -0.001501
# 5 0.058885 -0.008325 0.067944 0.000000 0.141522 0.000000
# 6 0.000000 0.000000 0.000000 -0.001501 0.000000 0.023131
#
#
# Mechanical properties :
#
#
# Convention : Reuss Voigt Hill
#
# Bulk Modulus (GPa) = 6.28748 32.80558 19.54653
# Shear Modulus (GPa) = 11.78331 26.37953 19.08142
#
# Velocity S-wave (km/s) = 2.50677 3.75072 3.18997
# Velocity P-wave (km/s) = 3.42514 6.02096 4.89814
#
# Compressibility (1/GPa) = 0.15904620
#
# Stress axis : x y z
#
# Youngs Moduli (GPa) = 23.20626 84.15593 9.95416
#
# Poissons Ratio (x) = 0.64247 -0.18514
# Poissons Ratio (y) = 0.17716 0.09117
# Poissons Ratio (z) = -0.43162 0.77082
#
# Static dielectric constant tensor:
#      x y z
#    x 3.520620 0.000000 -0.115760 
#    y 0.000000 3.583550 0.000000 
#    z -0.115760 0.000000 3.020750 
# 
# 
# High freq. dielectric constant tensor:
#      x y z
#    x 1.739500 0.000000 -0.006640 
#    y 0.000000 1.741040 0.000000 
#    z -0.006640 0.000000 1.682390 
# 
# From -- ./inp_files/274005.got.cif
#   From: 2010.06.25/outbox.cif.g09.slc.cpg/sg12_138_cif.got.tgz:274005.got - 2010.06.28 00:19:55.
