data_PCOD8086200
_publ_section_title
;
Structure prediction by ZEFSAII (Michael W. Deem and Ramdas Pophale) SiO2 
 PCOD8086200
Probable space group: C 2/M
;
_chemical_formula_sum "Si O2"
_cell_formula_units_Z 64
_cell_length_a 24.014804
_cell_length_b 9.207458
_cell_length_c 20.014000
_cell_angle_alpha 90.000000
_cell_angle_beta 123.385402
_cell_angle_gamma 90.000000
_cell_volume 3695.157625
_symmetry_space_group_name_H-M "C 2/M"
_symmetry_group_IT_number 12
_symmetry_cell_setting 'monoclinic'
loop_
_space_group_symop_operation_xyz
x,y,z
-x,y,-z
-x,-y,-z
x,-y,z
1/2+x,1/2+y,z
1/2-x,1/2+y,-z
1/2-x,1/2-y,-z
1/2+x,1/2-y,z
loop_
_atom_site_type_symbol
_atom_site_label
_atom_site_fract_x
_atom_site_fract_y
_atom_site_fract_z
Si Si1 0.904083 0.667806 0.624487
Si Si2 0.651602 0.332264 0.899487
Si Si3 0.124021 0.168555 0.668630
Si Si4 0.296464 0.172835 0.656738
Si Si5 0.147425 0.167708 0.533219
Si Si6 0.272878 0.172239 0.785102
Si Si7 0.699831 0.832636 0.052915
Si Si8 0.943749 0.668454 0.263061
O O1 0.887418 0.500000 0.601894
O O2 0.853327 0.736211 0.645709
O O3 0.895770 0.745527 0.548419
O O4 0.978335 0.689637 0.700966
O O5 0.631757 0.500000 0.891723
O O6 0.722316 0.310229 0.910741
O O7 0.595808 0.249820 0.821012
O O8 0.653956 0.265757 0.975513
O O9 0.112977 0.190726 0.582417
O O10 0.196886 0.228255 0.737152
O O11 0.070741 0.263331 0.673907
O O12 0.115280 0.000000 0.682903
O O13 0.223731 0.225325 0.584041
O O14 0.308857 0.229847 0.741229
O O15 0.298643 0.000000 0.658949
O O16 0.146328 0.000000 0.512257
O O17 0.311996 0.219537 0.878139
O O18 0.268130 0.000000 0.778996
O O19 0.679339 0.000000 0.028832
O O20 0.923424 0.500000 0.249907
#
# Coordination Sequence:
#
# PCOD8086200 Si02
#       8
#     8   8   8   8   8   8   8   8
#     4  10  21  34  48  69  98 130 163 199 240 284
#     4  10  19  31  48  71 100 130 157 192 235 284
#     4   9  17  32  50  71  96 124 160 198 241 288
#     4   8  15  30  52  74  95 122 158 203 246 280
#     4   9  18  32  54  76  93 119 160 207 248 288
#     4   8  13  26  50  75  96 119 153 198 243 281
#     4   9  16  28  49  76 100 121 151 194 241 287
#     4  11  22  33  46  67  99 135 165 194 231 284
#
# _framework density 17.319965
#
# number of rings (size 3 to 8) (size 9 to 14) (size 15 to 20)
#    0.000    2.750    1.250    2.625    0.000    2.500 
#    0.000    2.500    0.000    2.250    0.000    5.250 
#    0.000    0.000    0.000    0.000    0.000    0.000 
#
# Total GULP energy -396691.560427 kJ/mol
# GULP energy per Si atom -12396.611263 kJ/mol
# Density = 1.728054 g / cm^3
# Si number density = 17.319965 Si / 1000 Ang^3
#
#
#
# Elastic Constant Matrix: (Units=GPa)
#
#
# Indices 1 2 3 4 5 6 
#
# 1 56.8239 30.8225 41.7530 0.0000 -3.8403 0.0000
# 2 30.8225 70.3254 55.7859 0.0000 -1.5614 0.0000
# 3 41.7530 55.7859 121.2813 0.0000 -14.7816 0.0000
# 4 0.0000 0.0000 0.0000 29.7508 0.0000 -1.4270
# 5 -3.8403 -1.5614 -14.7816 0.0000 20.9373 0.0000
# 6 0.0000 0.0000 0.0000 -1.4270 0.0000 17.5616
#
#
#
# Elastic Compliance Matrix: (Units=1/GPa)
#
#
# Indices 1 2 3 4 5 6 
#
# 1 0.025363 -0.006615 -0.005670 0.000000 0.000156 0.000000
# 2 -0.006615 0.024856 -0.009932 0.000000 -0.006372 0.000000
# 3 -0.005670 -0.009932 0.015919 0.000000 0.009458 0.000000
# 4 0.000000 0.000000 0.000000 0.033744 0.000000 0.002742
# 5 0.000156 -0.006372 0.009458 0.000000 0.053992 0.000000
# 6 0.000000 0.000000 0.000000 0.002742 0.000000 0.057165
#
#
# Mechanical properties :
#
#
# Convention : Reuss Voigt Hill
#
# Bulk Modulus (GPa) = 46.07632 56.12815 51.10224
# Shear Modulus (GPa) = 19.03249 21.65456 20.34353
#
# Velocity S-wave (km/s) = 3.31853 3.53975 3.43092
# Velocity P-wave (km/s) = 6.42995 7.01309 6.72784
#
# Compressibility (1/GPa) = 0.02170312
#
# Stress axis : x y z
#
# Youngs Moduli (GPa) = 39.42743 40.23105 62.81974
#
# Poissons Ratio (x) = 0.26613 0.35618
# Poissons Ratio (y) = 0.26082 0.62396
# Poissons Ratio (z) = 0.22355 0.39959
#
# Static dielectric constant tensor:
#      x y z
#    x 3.279320 0.000000 -0.292390 
#    y 0.000000 3.010970 0.000000 
#    z -0.292390 0.000000 3.313200 
# 
# 
# High freq. dielectric constant tensor:
#      x y z
#    x 1.648520 0.000000 -0.018440 
#    y 0.000000 1.645000 0.000000 
#    z -0.018440 0.000000 1.671900 
# 
# From -- ./inp_files/326993.got.cif
#   From: 2010.06.25/outbox.cif.g09.slc.cpg/sg12_164_cif.got.tgz:326993.got - 2010.06.28 00:19:55.
