data_PCOD8086940
_publ_section_title
;
Structure prediction by ZEFSAII (Michael W. Deem and Ramdas Pophale) SiO2 
 PCOD8086940
Probable space group: C 2/M
;
_chemical_formula_sum "Si O2"
_cell_formula_units_Z 56
_cell_length_a 27.781293
_cell_length_b 9.175421
_cell_length_c 12.648706
_cell_angle_alpha 90.000000
_cell_angle_beta 104.914627
_cell_angle_gamma 90.000000
_cell_volume 3115.596513
_symmetry_space_group_name_H-M "C 2/M"
_symmetry_group_IT_number 12
_symmetry_cell_setting 'monoclinic'
loop_
_space_group_symop_operation_xyz
x,y,z
-x,y,-z
-x,-y,-z
x,-y,z
1/2+x,1/2+y,z
1/2-x,1/2+y,-z
1/2-x,1/2-y,-z
1/2+x,1/2-y,z
loop_
_atom_site_type_symbol
_atom_site_label
_atom_site_fract_x
_atom_site_fract_y
_atom_site_fract_z
Si Si1 0.062034 0.327029 0.637192
Si Si2 0.256972 0.832252 0.198036
Si Si3 0.621569 0.168604 0.257753
Si Si4 0.146907 0.170415 0.067007
Si Si5 0.266186 0.167495 0.612689
Si Si6 0.951159 0.673176 0.603492
Si Si7 0.640919 0.829182 0.851590
O O1 0.063639 0.500000 0.635245
O O2 0.069640 0.268467 0.521443
O O3 0.105486 0.268340 0.738041
O O4 0.008248 0.275344 0.650656
O O5 0.205671 0.795470 0.109559
O O6 0.263295 0.734014 0.305004
O O7 0.301979 0.795403 0.144995
O O8 0.258518 0.000000 0.235519
O O9 0.617053 0.261065 0.148225
O O10 0.675158 0.188808 0.340558
O O11 0.581699 0.234022 0.318377
O O12 0.611243 0.000000 0.224398
O O13 0.135691 0.000000 0.057150
O O14 0.126621 0.243802 0.949293
O O15 0.250000 0.250000 0.500000
O O16 0.251004 0.000000 0.593934
O O17 0.947438 0.500000 0.601507
O O18 0.632198 0.000000 0.866320
#
# Coordination Sequence:
#
# PCOD8086940 Si02
#       7
#     8   8   8   8   8   8   8
#     4   8  15  27  48  78 103 121 152 204 255 291
#     4   9  19  33  49  70  98 132 166 202 244 288
#     4   9  18  32  53  73  94 129 168 202 242 292
#     4  10  20  34  49  69 101 135 166 203 243 290
#     4  10  20  31  46  71 102 132 164 202 239 289
#     4   8  14  28  50  76 101 123 154 201 253 296
#     4  10  19  31  52  76  99 128 165 206 245 291
#
# _framework density 17.974086
#
# number of rings (size 3 to 8) (size 9 to 14) (size 15 to 20)
#    0.000    2.857    0.000    2.143    2.000    1.714 
#    0.000    0.714    0.000    5.143    0.000    2.000 
#    0.000    0.000    0.000    0.000    0.000    0.000 
#
# Total GULP energy -347170.466475 kJ/mol
# GULP energy per Si atom -12398.945231 kJ/mol
# Density = 1.793318 g / cm^3
# Si number density = 17.974086 Si / 1000 Ang^3
#
#
#
# Elastic Constant Matrix: (Units=GPa)
#
#
# Indices 1 2 3 4 5 6 
#
# 1 97.0146 26.2704 61.0083 0.0000 -22.6233 0.0000
# 2 26.2704 57.2360 47.4717 0.0000 -11.0339 0.0000
# 3 61.0083 47.4717 133.1338 0.0000 -15.9577 0.0000
# 4 0.0000 0.0000 0.0000 27.5193 0.0000 -4.8339
# 5 -22.6233 -11.0339 -15.9577 0.0000 27.7733 0.0000
# 6 0.0000 0.0000 0.0000 -4.8339 0.0000 15.3549
#
#
#
# Elastic Compliance Matrix: (Units=1/GPa)
#
#
# Indices 1 2 3 4 5 6 
#
# 1 0.016682 -0.000576 -0.006270 0.000000 0.009757 0.000000
# 2 -0.000576 0.025527 -0.008247 0.000000 0.004934 0.000000
# 3 -0.006270 -0.008247 0.013231 0.000000 -0.000781 0.000000
# 4 0.000000 0.000000 0.000000 0.038465 0.000000 0.012109
# 5 0.009757 0.004934 -0.000781 0.000000 0.045465 0.000000
# 6 0.000000 0.000000 0.000000 0.012109 0.000000 0.068938
#
#
# Mechanical properties :
#
#
# Convention : Reuss Voigt Hill
#
# Bulk Modulus (GPa) = 39.59518 61.87614 50.73566
# Shear Modulus (GPa) = 20.25020 24.30510 22.27765
#
# Velocity S-wave (km/s) = 3.36018 3.68126 3.52438
# Velocity P-wave (km/s) = 6.09354 7.25043 6.69702
#
# Compressibility (1/GPa) = 0.02525560
#
# Stress axis : x y z
#
# Youngs Moduli (GPa) = 59.94630 39.17415 75.57860
#
# Poissons Ratio (x) = 0.02255 0.47384
# Poissons Ratio (y) = 0.03451 0.62330
# Poissons Ratio (z) = 0.37583 0.32307
#
# Static dielectric constant tensor:
#      x y z
#    x 3.431720 0.000000 -0.081170 
#    y 0.000000 3.059460 0.000000 
#    z -0.081170 0.000000 3.450130 
# 
# 
# High freq. dielectric constant tensor:
#      x y z
#    x 1.688130 0.000000 -0.009500 
#    y 0.000000 1.664960 0.000000 
#    z -0.009500 0.000000 1.700340 
# 
# From -- ./inp_files/181039.got.cif
#   From: 2010.06.25/outbox.cif.g09.slc.cpg/sg12_91_cif.got.tgz:181039.got - 2010.06.28 00:19:55.
