data_PCOD8086367
_publ_section_title
;
Structure prediction by ZEFSAII (Michael W. Deem and Ramdas Pophale) SiO2 
 PCOD8086367
Probable space group: C 2/M
;
_chemical_formula_sum "Si O2"
_cell_formula_units_Z 48
_cell_length_a 28.441425
_cell_length_b 9.485675
_cell_length_c 17.508910
_cell_angle_alpha 90.000000
_cell_angle_beta 35.494513
_cell_angle_gamma 90.000000
_cell_volume 2742.675491
_symmetry_space_group_name_H-M "C 2/M"
_symmetry_group_IT_number 12
_symmetry_cell_setting 'monoclinic'
loop_
_space_group_symop_operation_xyz
x,y,z
-x,y,-z
-x,-y,-z
x,-y,z
1/2+x,1/2+y,z
1/2-x,1/2+y,-z
1/2-x,1/2-y,-z
1/2+x,1/2-y,z
loop_
_atom_site_type_symbol
_atom_site_label
_atom_site_fract_x
_atom_site_fract_y
_atom_site_fract_z
Si Si1 0.772639 0.838832 0.753748
Si Si2 0.192937 0.339090 0.022018
Si Si3 0.525526 0.832325 0.848971
Si Si4 0.010399 0.667659 0.268160
Si Si5 0.067077 0.666236 0.473414
Si Si6 0.374959 0.167286 0.144455
O O1 0.850334 0.741403 0.658296
O O2 0.714659 0.781497 0.761739
O O3 0.800221 0.000000 0.703200
O O4 0.719752 0.826571 0.899535
O O5 0.196278 0.500000 0.045962
O O6 0.102437 0.277326 0.149732
O O7 0.250000 0.250000 0.000000
O O8 0.532370 0.774969 0.753017
O O9 0.603107 0.784554 0.797673
O O10 0.520819 0.000000 0.853625
O O11 0.443589 0.772810 0.996297
O O12 0.011778 0.500000 0.266531
O O13 0.961408 0.723283 0.406250
O O14 0.082714 0.500000 0.453160
O O15 0.000000 0.707618 0.500000
O O16 0.376578 0.000000 0.135465
#
# Coordination Sequence:
#
# PCOD8086367 Si02
#       6
#     8   8   8   8   8   8
#     4  10  19  32  50  74 100 123 153 198 247 286
#     4  10  19  31  49  72  95 120 156 202 243 277
#     4   8  12  22  44  71  96 120 151 194 239 280
#     4   9  16  29  47  67  92 124 163 200 231 273
#     4  10  21  35  49  66  94 134 170 195 228 281
#     4   8  13  23  43  73 100 118 145 193 247 285
#
# _framework density 17.501159999999999
#
# number of rings (size 3 to 8) (size 9 to 14) (size 15 to 20)
#    0.000    2.833    1.667    2.000    0.000    2.333 
#    0.000    1.667    0.000    0.000    0.000    3.500 
#    0.000    0.000    0.000    0.000    0.000    0.000 
#
# Total GULP energy -297435.101864 kJ/mol
# GULP energy per Si atom -12393.129244 kJ/mol
# Density = 1.746133 g / cm^3
# Si number density = 17.501160 Si / 1000 Ang^3
#
#
#
# Elastic Constant Matrix: (Units=GPa)
#
#
# Indices 1 2 3 4 5 6 
#
# 1 130.4339 27.3926 20.1688 0.0007 -4.3267 -0.0001
# 2 27.3926 24.1799 17.7328 -0.0012 -7.2041 -0.0004
# 3 20.1688 17.7328 54.2800 0.0005 -5.2656 0.0001
# 4 0.0007 -0.0012 0.0005 18.1012 0.0005 -0.8288
# 5 -4.3267 -7.2041 -5.2656 0.0005 33.9821 0.0001
# 6 -0.0001 -0.0004 0.0001 -0.8288 0.0001 11.1500
#
#
#
# Elastic Compliance Matrix: (Units=1/GPa)
#
#
# Indices 1 2 3 4 5 6 
#
# 1 0.010107 -0.011799 -0.000019 -0.000001 -0.001217 0.000000
# 2 -0.011799 0.070955 -0.017750 0.000006 0.010790 0.000003
# 3 -0.000019 -0.017750 0.024228 -0.000002 -0.000011 -0.000001
# 4 -0.000001 0.000006 -0.000002 0.055434 0.000000 0.004121
# 5 -0.001217 0.010790 -0.000011 0.000000 0.031558 0.000000
# 6 0.000000 0.000003 -0.000001 0.004121 0.000000 0.089993
#
#
# Mechanical properties :
#
#
# Convention : Reuss Voigt Hill
#
# Bulk Modulus (GPa) = 21.66625 37.72027 29.69326
# Shear Modulus (GPa) = 14.01369 22.21995 18.11682
#
# Velocity S-wave (km/s) = 2.83279 3.56705 3.22091
# Velocity P-wave (km/s) = 4.80691 6.21007 5.55298
#
# Compressibility (1/GPa) = 0.04615473
#
# Stress axis : x y z
#
# Youngs Moduli (GPa) = 98.93966 14.09345 41.27517
#
# Poissons Ratio (x) = 0.16629 0.00079
# Poissons Ratio (y) = 1.16737 0.73262
# Poissons Ratio (z) = 0.00188 0.25015
#
# Static dielectric constant tensor:
#      x y z
#    x 3.815600 0.000000 0.114830 
#    y 0.000000 2.758360 0.000000 
#    z 0.114830 0.000000 3.218880 
# 
# 
# High freq. dielectric constant tensor:
#      x y z
#    x 1.700620 0.000000 0.001620 
#    y 0.000000 1.614260 0.000000 
#    z 0.001620 0.000000 1.662340 
# 
# From -- ./inp_files/274039.got.cif
#   From: 2010.06.25/outbox.cif.g09.slc.cpg/sg12_138_cif.got.tgz:274039.got - 2010.06.28 00:19:55.
