data_PCOD8086318
_publ_section_title
;
Structure prediction by ZEFSAII (Michael W. Deem and Ramdas Pophale) SiO2 
 PCOD8086318
Probable space group: C 2/M
;
_chemical_formula_sum "Si O2"
_cell_formula_units_Z 64
_cell_length_a 28.780280
_cell_length_b 13.927861
_cell_length_c 9.637969
_cell_angle_alpha 90.000000
_cell_angle_beta 92.579230
_cell_angle_gamma 90.000000
_cell_volume 3859.444305
_symmetry_space_group_name_H-M "C 2/M"
_symmetry_group_IT_number 12
_symmetry_cell_setting 'monoclinic'
loop_
_space_group_symop_operation_xyz
x,y,z
-x,y,-z
-x,-y,-z
x,-y,z
1/2+x,1/2+y,z
1/2-x,1/2+y,-z
1/2-x,1/2-y,-z
1/2+x,1/2-y,z
loop_
_atom_site_type_symbol
_atom_site_label
_atom_site_fract_x
_atom_site_fract_y
_atom_site_fract_z
Si Si1 0.698066 0.255460 0.046030
Si Si2 0.174603 0.266920 0.748704
Si Si3 0.733286 0.610562 0.264204
Si Si4 0.582282 0.888509 0.356046
Si Si5 0.500428 0.885769 0.156834
Si Si6 0.585368 0.111738 0.668873
Si Si7 0.318946 0.113205 0.727422
Si Si8 0.722363 0.610622 0.581638
O O1 0.694746 0.342718 0.156320
O O2 0.684438 0.156447 0.119306
O O3 0.750000 0.250000 0.000000
O O4 0.665763 0.268893 0.906246
O O5 0.216935 0.340938 0.748301
O O6 0.129719 0.321638 0.690281
O O7 0.184188 0.173836 0.655725
O O8 0.738835 0.500000 0.225752
O O9 0.715251 0.624821 0.417652
O O10 0.544690 0.841689 0.245677
O O11 0.565669 0.871900 0.511287
O O12 0.634228 0.846710 0.339400
O O13 0.584583 0.000000 0.321482
O O14 0.453404 0.853882 0.227646
O O15 0.503424 0.000000 0.157033
O O16 0.500000 0.845055 0.000000
O O17 0.599139 0.000000 0.692683
O O18 0.274491 0.145698 0.629799
O O19 0.319915 0.000000 0.744433
O O20 0.715153 0.500000 0.624337
#
# Coordination Sequence:
#
# PCOD8086318 Si02
#       8
#     8   8   8   8   8   8   8   8
#     4  10  21  32  43  67  95 131 167 202 246 282
#     4  11  21  33  47  73  99 129 169 206 245 285
#     4  10  20  33  49  68  95 132 168 202 244 289
#     4   9  18  31  49  70  93 128 168 202 242 289
#     4   9  18  32  47  68 100 133 162 198 243 294
#     4  10  20  32  50  73  99 132 168 204 243 292
#     4  10  19  31  49  70  95 130 171 204 242 287
#     4  10  20  34  51  69  96 133 169 205 244 285
#
# _framework density 16.582698000000001
#
# number of rings (size 3 to 8) (size 9 to 14) (size 15 to 20)
#    0.000    2.125    2.500    1.875    3.500    6.500 
#    0.000    0.000    0.000    0.000    0.000    0.000 
#    0.000    3.500    0.000    0.000    0.000    0.125 
#
# Total GULP energy -396709.348044 kJ/mol
# GULP energy per Si atom -12397.167126 kJ/mol
# Density = 1.654495 g / cm^3
# Si number density = 16.582698 Si / 1000 Ang^3
#
#
#
# Elastic Constant Matrix: (Units=GPa)
#
#
# Indices 1 2 3 4 5 6 
#
# 1 84.8419 31.3633 43.3756 0.0000 -1.6183 0.0000
# 2 31.3633 54.5483 35.5414 0.0000 1.3089 0.0000
# 3 43.3756 35.5414 120.8862 0.0000 -0.6980 0.0000
# 4 0.0000 0.0000 0.0000 25.3339 0.0000 -3.7266
# 5 -1.6183 1.3089 -0.6980 0.0000 27.6991 0.0000
# 6 0.0000 0.0000 0.0000 -3.7266 0.0000 14.5318
#
#
#
# Elastic Compliance Matrix: (Units=1/GPa)
#
#
# Indices 1 2 3 4 5 6 
#
# 1 0.016319 -0.006928 -0.003812 0.000000 0.001185 0.000000
# 2 -0.006928 0.025660 -0.005069 0.000000 -0.001745 0.000000
# 3 -0.003812 -0.005069 0.011132 0.000000 0.000297 0.000000
# 4 0.000000 0.000000 0.000000 0.041020 0.000000 0.010519
# 5 0.001185 -0.001745 0.000297 0.000000 0.036261 0.000000
# 6 0.000000 0.000000 0.000000 0.010519 0.000000 0.071512
#
#
# Mechanical properties :
#
#
# Convention : Reuss Voigt Hill
#
# Bulk Modulus (GPa) = 46.52308 53.42633 49.97471
# Shear Modulus (GPa) = 20.77401 23.51270 22.14336
#
# Velocity S-wave (km/s) = 3.54326 3.76959 3.65818
# Velocity P-wave (km/s) = 6.69744 7.15783 6.93146
#
# Compressibility (1/GPa) = 0.02149471
#
# Stress axis : x y z
#
# Youngs Moduli (GPa) = 61.27845 38.97145 89.83200
#
# Poissons Ratio (x) = 0.26998 0.34243
# Poissons Ratio (y) = 0.42451 0.45532
# Poissons Ratio (z) = 0.23359 0.19753
#
# Static dielectric constant tensor:
#      x y z
#    x 3.054400 0.000000 0.110520 
#    y 0.000000 2.951450 0.000000 
#    z 0.110520 0.000000 3.595830 
# 
# 
# High freq. dielectric constant tensor:
#      x y z
#    x 1.613530 0.000000 -0.001600 
#    y 0.000000 1.600010 0.000000 
#    z -0.001600 0.000000 1.661920 
# 
# From -- ./inp_files/111158.got.cif
#   From: 2010.06.25/outbox.cif.g09.slc.cpg/sg12_56_cif.got.tgz:111158.got - 2010.06.28 00:19:55.
