data_PCOD8086422
_publ_section_title
;
Structure prediction by ZEFSAII (Michael W. Deem and Ramdas Pophale) SiO2 
 PCOD8086422
Probable space group: C 2/M
;
_chemical_formula_sum "Si O2"
_cell_formula_units_Z 60
_cell_length_a 9.929180
_cell_length_b 20.943756
_cell_length_c 20.383743
_cell_angle_alpha 90.000000
_cell_angle_beta 49.209654
_cell_angle_gamma 90.000000
_cell_volume 3209.283509
_symmetry_space_group_name_H-M "C 2/M"
_symmetry_group_IT_number 12
_symmetry_cell_setting 'monoclinic'
loop_
_space_group_symop_operation_xyz
x,y,z
-x,y,-z
-x,-y,-z
x,-y,z
1/2+x,1/2+y,z
1/2-x,1/2+y,-z
1/2-x,1/2-y,-z
1/2+x,1/2-y,z
loop_
_atom_site_type_symbol
_atom_site_label
_atom_site_fract_x
_atom_site_fract_y
_atom_site_fract_z
Si Si1 0.678546 0.642725 0.184189
Si Si2 0.508371 0.761437 0.694177
Si Si3 0.724663 0.572668 0.302364
Si Si4 0.000000 0.614812 0.000000
Si Si5 0.391933 0.891004 0.787596
Si Si6 0.033460 0.070765 0.850696
Si Si7 0.734967 0.071750 0.039149
Si Si8 0.598205 0.299303 0.400419
O O1 0.609564 0.708604 0.233442
O O2 0.733570 0.592897 0.223503
O O3 0.851026 0.657539 0.084231
O O4 0.515044 0.614736 0.195011
O O5 0.405766 0.826022 0.742765
O O6 0.512761 0.743533 0.615805
O O7 0.707399 0.767574 0.658058
O O8 0.647694 0.500000 0.333729
O O9 0.604877 0.625463 0.378333
O O10 0.921410 0.571886 0.271061
O O11 0.097767 0.571015 0.022202
O O12 0.243853 0.930713 0.795751
O O13 0.327009 0.880143 0.883580
O O14 0.967153 0.000000 0.854040
O O15 0.929138 0.092788 0.950145
O O16 0.740412 0.000000 0.067232
O O17 0.500000 0.293866 0.500000
#
# Coordination Sequence:
#
# PCOD8086422 Si02
#       8
#     8   8   8   4   8   8   8   8
#     4  10  20  36  52  76 108 149 189 225 261 309
#     4  10  22  38  57  81 111 139 182 220 268 327
#     4  10  20  34  57  83 110 140 174 224 278 322
#     4  10  19  32  50  78 104 148 195 224 264 302
#     4  11  20  33  51  75 108 144 177 224 271 314
#     4  10  20  32  49  74 104 142 189 230 264 305
#     4  10  19  31  49  73 104 142 190 232 264 305
#     4  10  21  39  63  84 107 138 175 221 275 339
#
# _framework density 18.695761000000001
#
# number of rings (size 3 to 8) (size 9 to 14) (size 15 to 20)
#    0.000    1.867    1.333    3.400    0.000    2.400 
#    2.400    1.333    0.000    0.000    0.000    0.000 
#    0.000   21.867    0.000    0.000    0.000    0.000 
#
# Total GULP energy -371868.661870 kJ/mol
# GULP energy per Si atom -12395.622062 kJ/mol
# Density = 1.865321 g / cm^3
# Si number density = 18.695761 Si / 1000 Ang^3
#
#
#
# Elastic Constant Matrix: (Units=GPa)
#
#
# Indices 1 2 3 4 5 6 
#
# 1 74.9008 21.1596 14.1522 -0.0002 5.5660 0.0004
# 2 21.1596 91.6145 32.1149 0.0000 11.6781 0.0000
# 3 14.1522 32.1149 73.8332 0.0000 16.7486 -0.0001
# 4 -0.0002 0.0000 0.0000 13.5390 0.0001 -0.7668
# 5 5.5660 11.6781 16.7486 0.0001 29.5909 -0.0001
# 6 0.0004 0.0000 -0.0001 -0.7668 -0.0001 20.8827
#
#
#
# Elastic Compliance Matrix: (Units=1/GPa)
#
#
# Indices 1 2 3 4 5 6 
#
# 1 0.014451 -0.002744 -0.001383 0.000000 -0.000852 0.000000
# 2 -0.002744 0.013525 -0.004891 0.000000 -0.002053 0.000000
# 3 -0.001383 -0.004891 0.017714 0.000000 -0.007836 0.000000
# 4 0.000000 0.000000 0.000000 0.074015 0.000000 0.002718
# 5 -0.000852 -0.002053 -0.007836 0.000000 0.039200 0.000000
# 6 0.000000 0.000000 0.000000 0.002718 0.000000 0.047986
#
#
# Mechanical properties :
#
#
# Convention : Reuss Voigt Hill
#
# Bulk Modulus (GPa) = 36.16168 41.68911 38.92540
# Shear Modulus (GPa) = 21.35417 24.33064 22.84241
#
# Velocity S-wave (km/s) = 3.38330 3.61140 3.49921
# Velocity P-wave (km/s) = 5.88613 6.30371 6.09849
#
# Compressibility (1/GPa) = 0.02765358
#
# Stress axis : x y z
#
# Youngs Moduli (GPa) = 69.19995 73.93458 56.45193
#
# Poissons Ratio (x) = 0.20289 0.07807
# Poissons Ratio (y) = 0.18990 0.27613
# Poissons Ratio (z) = 0.09570 0.36164
#
# Static dielectric constant tensor:
#      x y z
#    x 3.637940 0.000000 0.042110 
#    y 0.000000 3.290000 0.000000 
#    z 0.042110 0.000000 3.330520 
# 
# 
# High freq. dielectric constant tensor:
#      x y z
#    x 1.741960 0.000000 0.000230 
#    y 0.000000 1.708450 0.000000 
#    z 0.000230 0.000000 1.709820 
# 
# From -- ./inp_files/301900.got.cif
#   From: 2010.06.25/outbox.cif.g09.slc.cpg/sg12_151_cif.got.tgz:301900.got - 2010.06.28 00:19:55.
