data_PCOD8086377
_publ_section_title
;
Structure prediction by ZEFSAII (Michael W. Deem and Ramdas Pophale) SiO2 
 PCOD8086377
Probable space group: C 2/M
;
_chemical_formula_sum "Si O2"
_cell_formula_units_Z 64
_cell_length_a 17.848880
_cell_length_b 9.140904
_cell_length_c 20.405456
_cell_angle_alpha 90.000000
_cell_angle_beta 85.861682
_cell_angle_gamma 90.000000
_cell_volume 3320.569898
_symmetry_space_group_name_H-M "C 2/M"
_symmetry_group_IT_number 12
_symmetry_cell_setting 'monoclinic'
loop_
_space_group_symop_operation_xyz
x,y,z
-x,y,-z
-x,-y,-z
x,-y,z
1/2+x,1/2+y,z
1/2-x,1/2+y,-z
1/2-x,1/2-y,-z
1/2+x,1/2-y,z
loop_
_atom_site_type_symbol
_atom_site_label
_atom_site_fract_x
_atom_site_fract_y
_atom_site_fract_z
Si Si1 0.656517 0.829289 0.105204
Si Si2 0.938447 0.329507 0.764862
Si Si3 0.321866 0.669400 0.141443
Si Si4 0.398636 0.334525 0.386211
Si Si5 0.076880 0.165043 0.362315
Si Si6 0.410640 0.834403 0.512086
Si Si7 0.887846 0.671192 0.257484
Si Si8 0.915290 0.829178 0.009400
O O1 0.601426 0.775945 0.166446
O O2 0.741222 0.788796 0.117916
O O3 0.637132 0.748088 0.039864
O O4 0.646418 0.000000 0.093092
O O5 0.924238 0.500000 0.752262
O O6 0.901183 0.242134 0.707127
O O7 0.026196 0.293562 0.766278
O O8 0.325300 0.500000 0.162350
O O9 0.335336 0.768976 0.203556
O O10 0.384576 0.705812 0.083439
O O11 0.367605 0.500000 0.390157
O O12 0.487950 0.334197 0.376238
O O13 0.373229 0.250507 0.453486
O O14 0.364216 0.251053 0.326033
O O15 0.114473 0.253464 0.419724
O O16 0.108286 0.000000 0.360369
O O17 0.500000 0.834012 0.500000
O O18 0.380055 0.000000 0.515376
O O19 0.874210 0.500000 0.267754
O O20 0.912699 0.000000 0.993834
O O21 0.000000 0.768066 0.000000
#
# Coordination Sequence:
#
# PCOD8086377 Si02
#       8
#     8   8   8   8   8   8   8   8
#     4  10  21  36  54  75 100 132 168 205 246 294
#     4   9  18  32  48  69  97 128 165 208 251 295
#     4  10  21  36  52  73 102 133 165 203 248 296
#     4   9  16  26  41  63  94 129 164 205 251 298
#     4   9  16  25  40  64  93 127 165 204 250 300
#     4   9  15  23  37  60  93 130 165 204 250 297
#     4  10  19  31  49  72  97 128 167 208 250 297
#     4  10  21  36  55  79 105 132 163 202 248 296
#
# _framework density 19.273799
#
# number of rings (size 3 to 8) (size 9 to 14) (size 15 to 20)
#    0.000    2.500    0.000    2.625    0.000    6.750 
#    0.000    0.000    0.000    0.000    0.000    0.875 
#    0.000    0.000    0.000    0.000    0.000    0.000 
#
# Total GULP energy -396884.340006 kJ/mol
# GULP energy per Si atom -12402.635625 kJ/mol
# Density = 1.922993 g / cm^3
# Si number density = 19.273799 Si / 1000 Ang^3
#
#
#
# Elastic Constant Matrix: (Units=GPa)
#
#
# Indices 1 2 3 4 5 6 
#
# 1 43.6113 24.6990 26.3317 0.0000 14.7624 0.0000
# 2 24.6990 112.9104 65.1404 0.0000 20.5183 0.0000
# 3 26.3317 65.1404 117.4362 0.0000 34.1004 0.0000
# 4 0.0000 0.0000 0.0000 40.9424 0.0000 9.0030
# 5 14.7624 20.5183 34.1004 0.0000 16.6089 0.0000
# 6 0.0000 0.0000 0.0000 9.0030 0.0000 16.2705
#
#
#
# Elastic Compliance Matrix: (Units=1/GPa)
#
#
# Indices 1 2 3 4 5 6 
#
# 1 0.034206 -0.003758 0.004692 0.000000 -0.035395 0.000000
# 2 -0.003758 0.013503 -0.006868 0.000000 0.000759 0.000000
# 3 0.004692 -0.006868 0.024813 0.000000 -0.046631 0.000000
# 4 0.000000 0.000000 0.000000 0.027808 0.000000 -0.015387
# 5 -0.035395 0.000759 -0.046631 0.000000 0.186472 0.000000
# 6 0.000000 0.000000 0.000000 -0.015387 0.000000 0.069975
#
#
# Mechanical properties :
#
#
# Convention : Reuss Voigt Hill
#
# Bulk Modulus (GPa) = 16.48637 56.25556 36.37097
# Shear Modulus (GPa) = 12.85804 25.28346 19.07075
#
# Velocity S-wave (km/s) = 2.58568 3.62581 3.14899
# Velocity P-wave (km/s) = 4.18171 6.83956 5.66861
#
# Compressibility (1/GPa) = 0.06065617
#
# Stress axis : x y z
#
# Youngs Moduli (GPa) = 29.23459 74.05922 40.30143
#
# Poissons Ratio (x) = 0.27828 -0.18911
# Poissons Ratio (y) = 0.10985 0.27678
# Poissons Ratio (z) = -0.13718 0.50862
#
# Static dielectric constant tensor:
#      x y z
#    x 3.124780 0.000000 -0.015570 
#    y 0.000000 3.566370 0.000000 
#    z -0.015570 0.000000 3.609500 
# 
# 
# High freq. dielectric constant tensor:
#      x y z
#    x 1.706160 0.000000 0.005720 
#    y 0.000000 1.753920 0.000000 
#    z 0.005720 0.000000 1.763650 
# 
# From -- ./inp_files/314083.got.cif
#   From: 2010.06.25/outbox.cif.g09.slc.cpg/sg12_158_cif.got.tgz:314083.got - 2010.06.28 00:19:55.
