data_PCOD8086307
_publ_section_title
;
Structure prediction by ZEFSAII (Michael W. Deem and Ramdas Pophale) SiO2 
 PCOD8086307
Probable space group: C 2/M
;
_chemical_formula_sum "Si O2"
_cell_formula_units_Z 48
_cell_length_a 28.088571
_cell_length_b 9.238252
_cell_length_c 11.030706
_cell_angle_alpha 90.000000
_cell_angle_beta 77.804702
_cell_angle_gamma 90.000000
_cell_volume 2797.756160
_symmetry_space_group_name_H-M "C 2/M"
_symmetry_group_IT_number 12
_symmetry_cell_setting 'monoclinic'
loop_
_space_group_symop_operation_xyz
x,y,z
-x,y,-z
-x,-y,-z
x,-y,z
1/2+x,1/2+y,z
1/2-x,1/2+y,-z
1/2-x,1/2-y,-z
1/2+x,1/2-y,z
loop_
_atom_site_type_symbol
_atom_site_label
_atom_site_fract_x
_atom_site_fract_y
_atom_site_fract_z
Si Si1 0.819677 0.830858 0.889511
Si Si2 0.008944 0.670820 0.625362
Si Si3 0.613787 0.165847 0.534924
Si Si4 0.767690 0.166135 0.162833
Si Si5 0.705143 0.668699 0.583194
Si Si6 0.906598 0.665811 0.738697
O O1 0.781116 0.761330 0.817214
O O2 0.872906 0.766171 0.839172
O O3 0.821066 0.000000 0.863049
O O4 0.804624 0.793326 0.035143
O O5 0.005776 0.500000 0.609565
O O6 0.064194 0.709512 0.636586
O O7 0.000000 0.745384 0.500000
O O8 0.963095 0.715075 0.735619
O O9 0.655212 0.273295 0.555785
O O10 0.605203 0.185690 0.396713
O O11 0.628735 0.000000 0.555089
O O12 0.795232 0.197740 0.272917
O O13 0.750802 0.000000 0.162336
O O14 0.709832 0.500000 0.550365
O O15 0.750000 0.750000 0.500000
O O16 0.898019 0.500000 0.782234
#
# Coordination Sequence:
#
# PCOD8086307 Si02
#       6
#     8   8   8   8   8   8
#     4  10  19  31  49  70  90 115 152 194 228 263
#     4   7  12  25  45  67  91 121 152 180 218 269
#     4   9  17  30  48  70  96 123 151 185 224 267
#     4   9  20  36  48  62  90 125 154 183 225 273
#     4  11  22  34  48  67  93 123 153 184 223 272
#     4   9  16  28  48  72  96 121 149 183 227 273
#
# _framework density 17.156607000000001
#
# number of rings (size 3 to 8) (size 9 to 14) (size 15 to 20)
#    0.000    2.833    0.000    4.000    0.000    6.667 
#    0.000    0.833    0.000    4.000    0.000    7.000 
#    0.000    0.000    0.000    0.000    0.000    0.000 
#
# Total GULP energy -297411.429522 kJ/mol
# GULP energy per Si atom -12392.142897 kJ/mol
# Density = 1.711756 g / cm^3
# Si number density = 17.156607 Si / 1000 Ang^3
#
#
#
# Elastic Constant Matrix: (Units=GPa)
#
#
# Indices 1 2 3 4 5 6 
#
# 1 131.2097 55.2256 43.7533 0.0000 -30.0092 0.0000
# 2 55.2256 76.1667 35.2052 0.0000 -11.6988 0.0000
# 3 43.7533 35.2052 53.1378 0.0000 -12.7383 0.0000
# 4 0.0000 0.0000 0.0000 24.3852 0.0000 -3.4395
# 5 -30.0092 -11.6988 -12.7383 0.0000 28.6372 0.0000
# 6 0.0000 0.0000 0.0000 -3.4395 0.0000 28.9511
#
#
#
# Elastic Compliance Matrix: (Units=1/GPa)
#
#
# Indices 1 2 3 4 5 6 
#
# 1 0.014382 -0.006516 -0.005094 0.000000 0.010144 0.000000
# 2 -0.006516 0.022026 -0.009747 0.000000 -0.002165 0.000000
# 3 -0.005094 -0.009747 0.030488 0.000000 0.004242 0.000000
# 4 0.000000 0.000000 0.000000 0.041707 0.000000 0.004955
# 5 0.010144 -0.002165 0.004242 0.000000 0.046552 0.000000
# 6 0.000000 0.000000 0.000000 0.004955 0.000000 0.035130
#
#
# Mechanical properties :
#
#
# Convention : Reuss Voigt Hill
#
# Bulk Modulus (GPa) = 41.35119 58.76472 50.05795
# Shear Modulus (GPa) = 20.74183 24.81669 22.77926
#
# Velocity S-wave (km/s) = 3.48080 3.80739 3.64775
# Velocity P-wave (km/s) = 6.34895 7.32493 6.85433
#
# Compressibility (1/GPa) = 0.02418310
#
# Stress axis : x y z
#
# Youngs Moduli (GPa) = 69.52919 45.40117 32.80014
#
# Poissons Ratio (x) = 0.29582 0.16708
# Poissons Ratio (y) = 0.45303 0.31970
# Poissons Ratio (z) = 0.35418 0.44252
#
# Static dielectric constant tensor:
#      x y z
#    x 3.495850 0.000000 -0.288130 
#    y 0.000000 3.078880 0.000000 
#    z -0.288130 0.000000 3.108910 
# 
# 
# High freq. dielectric constant tensor:
#      x y z
#    x 1.667560 0.000000 -0.024000 
#    y 0.000000 1.649460 0.000000 
#    z -0.024000 0.000000 1.636080 
# 
# From -- ./inp_files/172409.got.cif
#   From: 2010.06.25/outbox.cif.g09.slc.cpg/sg12_87_cif.got.tgz:172409.got - 2010.06.28 00:19:55.
