data_PCOD8086291
_publ_section_title
;
Structure prediction by ZEFSAII (Michael W. Deem and Ramdas Pophale) SiO2 
 PCOD8086291
Probable space group: C 2/M
;
_chemical_formula_sum "Si O2"
_cell_formula_units_Z 48
_cell_length_a 25.707726
_cell_length_b 14.598895
_cell_length_c 15.193120
_cell_angle_alpha 90.000000
_cell_angle_beta 151.294881
_cell_angle_gamma 90.000000
_cell_volume 2738.702678
_symmetry_space_group_name_H-M "C 2/M"
_symmetry_group_IT_number 12
_symmetry_cell_setting 'monoclinic'
loop_
_space_group_symop_operation_xyz
x,y,z
-x,y,-z
-x,-y,-z
x,-y,z
1/2+x,1/2+y,z
1/2-x,1/2+y,-z
1/2-x,1/2-y,-z
1/2+x,1/2-y,z
loop_
_atom_site_type_symbol
_atom_site_label
_atom_site_fract_x
_atom_site_fract_y
_atom_site_fract_z
Si Si1 0.699797 0.898337 0.529981
Si Si2 0.812368 0.601108 0.287612
Si Si3 0.090328 0.217844 0.568264
Si Si4 0.467834 0.260333 0.708217
Si Si5 0.064451 0.893365 0.182219
Si Si6 0.208899 0.248058 0.037651
O O1 0.734328 0.900535 0.683101
O O2 0.608474 0.822985 0.374178
O O3 0.807748 0.873614 0.636733
O O4 0.657017 0.000000 0.439234
O O5 0.846401 0.500000 0.305898
O O6 0.915930 0.669922 0.438835
O O7 0.718099 0.642271 0.084841
O O8 0.073485 0.187841 0.442032
O O9 0.000000 0.176630 0.500000
O O10 0.210233 0.189030 0.781715
O O11 0.477771 0.335351 0.798380
O O12 0.586294 0.217288 0.864258
O O13 0.041082 0.000000 0.165697
O O14 0.000000 0.860575 0.000000
O O15 0.250000 0.250000 0.000000
#
# Coordination Sequence:
#
# PCOD8086291 Si02
#       6
#     8   8   8   8   8   8
#     4   9  18  34  53  79 107 131 170 220 262 312
#     4   8  16  29  49  74 102 129 167 219 265 306
#     4   9  18  32  50  76 104 139 176 217 258 312
#     4  11  19  33  57  77 106 146 173 210 270 317
#     4  10  21  35  55  83 108 132 174 226 267 311
#     4  10  19  31  48  75 107 139 175 215 256 309
#
# _framework density 17.526547000000001
#
# number of rings (size 3 to 8) (size 9 to 14) (size 15 to 20)
#    1.000    1.500    1.667    1.500    0.000    2.333 
#    0.000    2.500    0.000    3.000    0.000    0.000 
#    0.000    0.000    0.000    0.000    0.000    0.000 
#
# Total GULP energy -297313.671767 kJ/mol
# GULP energy per Si atom -12388.069657 kJ/mol
# Density = 1.748666 g / cm^3
# Si number density = 17.526547 Si / 1000 Ang^3
#
#
#
# Elastic Constant Matrix: (Units=GPa)
#
#
# Indices 1 2 3 4 5 6 
#
# 1 92.8593 26.5170 46.8257 0.0000 1.6001 0.0000
# 2 26.5170 53.0516 21.7275 0.0000 -4.5957 0.0000
# 3 46.8257 21.7275 111.9487 0.0000 -2.7301 0.0000
# 4 0.0000 0.0000 0.0000 23.4419 0.0000 -5.0010
# 5 1.6001 -4.5957 -2.7301 0.0000 33.1032 0.0000
# 6 0.0000 0.0000 0.0000 -5.0010 0.0000 17.0489
#
#
#
# Elastic Compliance Matrix: (Units=1/GPa)
#
#
# Indices 1 2 3 4 5 6 
#
# 1 0.015034 -0.005526 -0.005263 0.000000 -0.001928 0.000000
# 2 -0.005526 0.022721 -0.002019 0.000000 0.003255 0.000000
# 3 -0.005263 -0.002019 0.011548 0.000000 0.000927 0.000000
# 4 0.000000 0.000000 0.000000 0.045506 0.000000 0.013349
# 5 -0.001928 0.003255 0.000927 0.000000 0.030830 0.000000
# 6 0.000000 0.000000 0.000000 0.013349 0.000000 0.062570
#
#
# Mechanical properties :
#
#
# Convention : Reuss Voigt Hill
#
# Bulk Modulus (GPa) = 42.21680 49.77779 45.99730
# Shear Modulus (GPa) = 22.55080 25.57142 24.06111
#
# Velocity S-wave (km/s) = 3.59090 3.82384 3.70920
# Velocity P-wave (km/s) = 6.42903 6.92522 6.68173
#
# Compressibility (1/GPa) = 0.02368725
#
# Stress axis : x y z
#
# Youngs Moduli (GPa) = 66.51508 44.01309 86.59152
#
# Poissons Ratio (x) = 0.24322 0.45573
# Poissons Ratio (y) = 0.36757 0.17482
# Poissons Ratio (z) = 0.35007 0.08886
#
# Static dielectric constant tensor:
#      x y z
#    x 3.199270 0.000000 -0.019110 
#    y 0.000000 2.971250 0.000000 
#    z -0.019110 0.000000 3.237010 
# 
# 
# High freq. dielectric constant tensor:
#      x y z
#    x 1.683310 0.000000 0.001490 
#    y 0.000000 1.636160 0.000000 
#    z 0.001490 0.000000 1.673590 
# 
# From -- ./inp_files/246414.got.cif
#   From: 2010.06.25/outbox.cif.g09.slc.cpg/sg12_124_cif.got.tgz:246414.got - 2010.06.28 00:19:55.
