data_PCOD8086960
_publ_section_title
;
Structure prediction by ZEFSAII (Michael W. Deem and Ramdas Pophale) SiO2 
 PCOD8086960
Probable space group: C 2/M
;
_chemical_formula_sum "Si O2"
_cell_formula_units_Z 48
_cell_length_a 24.147375
_cell_length_b 9.453832
_cell_length_c 14.472506
_cell_angle_alpha 90.000000
_cell_angle_beta 128.673502
_cell_angle_gamma 90.000000
_cell_volume 2579.387337
_symmetry_space_group_name_H-M "C 2/M"
_symmetry_group_IT_number 12
_symmetry_cell_setting 'monoclinic'
loop_
_space_group_symop_operation_xyz
x,y,z
-x,y,-z
-x,-y,-z
x,-y,z
1/2+x,1/2+y,z
1/2-x,1/2+y,-z
1/2-x,1/2-y,-z
1/2+x,1/2-y,z
loop_
_atom_site_type_symbol
_atom_site_label
_atom_site_fract_x
_atom_site_fract_y
_atom_site_fract_z
Si Si1 0.205356 0.331834 0.674081
Si Si2 0.549163 0.832856 0.463953
Si Si3 0.736820 0.342308 0.074067
Si Si4 0.148557 0.833037 0.244741
Si Si5 0.583951 0.342158 0.993540
Si Si6 0.033677 0.832524 0.264726
O O1 0.203526 0.500000 0.672164
O O2 0.128985 0.274154 0.563232
O O3 0.221210 0.278087 0.794342
O O4 0.269779 0.276637 0.674463
O O5 0.500000 0.794740 0.500000
O O6 0.519894 0.751129 0.344569
O O7 0.547885 0.000000 0.443233
O O8 0.764722 0.500000 0.083024
O O9 0.750000 0.250000 0.000000
O O10 0.653647 0.343175 0.004521
O O11 0.112394 0.798824 0.305482
O O12 0.151546 0.000000 0.228512
O O13 0.101045 0.767992 0.110484
O O14 0.556343 0.500000 0.984535
O O15 0.521856 0.269897 0.868487
O O16 0.023608 0.000000 0.272410
#
# Coordination Sequence:
#
# PCOD8086960 Si02
#       6
#     8   8   8   8   8   8
#     4   8  16  32  50  68  94 128 166 201 232 283
#     4  10  22  37  50  66  95 138 175 198 230 284
#     4   9  17  29  48  71  94 124 159 197 239 282
#     4   8  14  28  52  77  98 123 158 199 246 296
#     4   8  15  28  47  75 104 124 149 193 248 298
#     4  10  19  31  52  79 100 123 158 203 249 287
#
# _framework density 18.609069000000002
#
# number of rings (size 3 to 8) (size 9 to 14) (size 15 to 20)
#    0.000    3.167    0.000    2.500    2.333    3.000 
#    0.000    0.833    0.000    6.000    0.000    0.000 
#    0.000    0.000    0.000    0.000    0.000    0.000 
#
# Total GULP energy -297353.639198 kJ/mol
# GULP energy per Si atom -12389.734967 kJ/mol
# Density = 1.856671 g / cm^3
# Si number density = 18.609069 Si / 1000 Ang^3
#
#
#
# Elastic Constant Matrix: (Units=GPa)
#
#
# Indices 1 2 3 4 5 6 
#
# 1 101.3365 26.6199 59.2930 0.0000 -6.9538 0.0000
# 2 26.6199 27.1150 17.8425 0.0000 -8.2569 0.0000
# 3 59.2930 17.8425 82.3639 0.0000 6.1437 0.0000
# 4 0.0000 0.0000 0.0000 21.3800 0.0000 -3.9465
# 5 -6.9538 -8.2569 6.1437 0.0000 34.8875 0.0000
# 6 0.0000 0.0000 0.0000 -3.9465 0.0000 14.4529
#
#
#
# Elastic Compliance Matrix: (Units=1/GPa)
#
#
# Indices 1 2 3 4 5 6 
#
# 1 0.020232 -0.010428 -0.012588 0.000000 0.003782 0.000000
# 2 -0.010428 0.053966 -0.005048 0.000000 0.011583 0.000000
# 3 -0.012588 -0.005048 0.022874 0.000000 -0.007732 0.000000
# 4 0.000000 0.000000 0.000000 0.049255 0.000000 0.013450
# 5 0.003782 0.011583 -0.007732 0.000000 0.033520 0.000000
# 6 0.000000 0.000000 0.000000 0.013450 0.000000 0.072863
#
#
# Mechanical properties :
#
#
# Convention : Reuss Voigt Hill
#
# Bulk Modulus (GPa) = 24.42338 46.48071 35.45204
# Shear Modulus (GPa) = 15.50454 21.28141 18.39298
#
# Velocity S-wave (km/s) = 2.88960 3.38539 3.14727
# Velocity P-wave (km/s) = 4.92808 6.34924 5.68326
#
# Compressibility (1/GPa) = 0.04094438
#
# Stress axis : x y z
#
# Youngs Moduli (GPa) = 49.42570 18.53018 43.71862
#
# Poissons Ratio (x) = 0.19323 0.55034
# Poissons Ratio (y) = 0.51541 0.22067
# Poissons Ratio (z) = 0.62218 0.09353
#
# Static dielectric constant tensor:
#      x y z
#    x 3.916970 0.000000 0.313360 
#    y 0.000000 2.856570 0.000000 
#    z 0.313360 0.000000 3.561750 
# 
# 
# High freq. dielectric constant tensor:
#      x y z
#    x 1.737040 0.000000 0.004670 
#    y 0.000000 1.651910 0.000000 
#    z 0.004670 0.000000 1.724470 
# 
# From -- ./inp_files/164044.got.cif
#   From: 2010.06.25/outbox.cif.g09.slc.cpg/sg12_83_cif.got.tgz:164044.got - 2010.06.28 00:19:55.
