data_PCOD8086501
_publ_section_title
;
Structure prediction by ZEFSAII (Michael W. Deem and Ramdas Pophale) SiO2 
 PCOD8086501
Probable space group: C 2/M
;
_chemical_formula_sum "Si O2"
_cell_formula_units_Z 64
_cell_length_a 12.591460
_cell_length_b 21.278022
_cell_length_c 21.073530
_cell_angle_alpha 90.000000
_cell_angle_beta 141.646451
_cell_angle_gamma 90.000000
_cell_volume 3503.442313
_symmetry_space_group_name_H-M "C 2/M"
_symmetry_group_IT_number 12
_symmetry_cell_setting 'monoclinic'
loop_
_space_group_symop_operation_xyz
x,y,z
-x,y,-z
-x,-y,-z
x,-y,z
1/2+x,1/2+y,z
1/2-x,1/2+y,-z
1/2-x,1/2-y,-z
1/2+x,1/2-y,z
loop_
_atom_site_type_symbol
_atom_site_label
_atom_site_fract_x
_atom_site_fract_y
_atom_site_fract_z
Si Si1 0.012756 0.201695 0.207451
Si Si2 0.378510 0.700686 0.881997
Si Si3 0.321523 0.165634 0.881809
Si Si4 0.711935 0.159321 0.446323
Si Si5 0.013455 0.067430 0.579034
Si Si6 0.045524 0.344992 0.779626
Si Si7 0.317992 0.789788 0.440363
Si Si8 0.621799 0.926509 0.200880
O O1 0.029814 0.182553 0.141136
O O2 0.186388 0.181808 0.326379
O O3 0.847729 0.161160 0.153170
O O4 0.984624 0.276023 0.204592
O O5 0.297970 0.770005 0.830540
O O6 0.228313 0.652125 0.830253
O O7 0.500000 0.700656 0.000000
O O8 0.345295 0.102754 0.852582
O O9 0.500000 0.174722 0.000000
O O10 0.887711 0.122553 0.539522
O O11 0.584914 0.129042 0.335539
O O12 0.639405 0.160222 0.484016
O O13 0.732372 0.229458 0.430902
O O14 0.000000 0.054098 0.500000
O O15 0.205574 0.089590 0.680985
O O16 0.975287 0.000000 0.596153
O O17 0.032854 0.393402 0.832841
O O18 0.500000 0.768409 0.500000
O O19 0.580765 0.000000 0.174391
#
# Coordination Sequence:
#
# PCOD8086501 Si02
#       8
#     8   8   8   8   8   8   8   8
#     4  10  20  35  53  81 113 142 181 226 274 330
#     4  10  21  34  57  82 109 141 181 227 280 330
#     4  10  22  36  58  81 109 144 182 229 283 330
#     4  10  19  31  49  75 109 141 178 215 257 320
#     4  10  19  31  50  75 102 136 173 216 259 298
#     4  10  20  32  53  80 110 144 182 226 268 320
#     4  10  20  30  49  76 111 148 170 207 269 323
#     4  11  22  36  55  81 113 145 185 228 271 321
#
# _framework density 18.267747
#
# number of rings (size 3 to 8) (size 9 to 14) (size 15 to 20)
#    0.000    1.875    2.500    1.875    3.500    3.750 
#    0.000    0.000    0.000    1.500    0.000    0.000 
#    0.000    0.000    0.000    0.000    0.000    0.000 
#
# Total GULP energy -396447.920325 kJ/mol
# GULP energy per Si atom -12388.997510 kJ/mol
# Density = 1.822617 g / cm^3
# Si number density = 18.267747 Si / 1000 Ang^3
#
#
#
# Elastic Constant Matrix: (Units=GPa)
#
#
# Indices 1 2 3 4 5 6 
#
# 1 130.5175 35.8482 44.6711 0.0001 -7.4769 0.0000
# 2 35.8482 66.6117 16.5098 -0.0001 -3.0593 0.0000
# 3 44.6711 16.5098 77.2064 -0.0001 0.9263 -0.0001
# 4 0.0001 -0.0001 -0.0001 22.5798 0.0000 3.6526
# 5 -7.4769 -3.0593 0.9263 0.0000 30.7761 0.0000
# 6 0.0000 0.0000 -0.0001 3.6526 0.0000 23.0309
#
#
#
# Elastic Compliance Matrix: (Units=1/GPa)
#
#
# Indices 1 2 3 4 5 6 
#
# 1 0.010839 -0.004396 -0.005359 0.000000 0.002357 0.000000
# 2 -0.004396 0.017723 -0.001255 0.000000 0.000731 0.000000
# 3 -0.005359 -0.001255 0.016345 0.000000 -0.001919 0.000000
# 4 0.000000 0.000000 0.000000 0.045453 0.000000 -0.007209
# 5 0.002357 0.000731 -0.001919 0.000000 0.033196 0.000000
# 6 0.000000 0.000000 0.000000 -0.007209 0.000000 0.044563
#
#
# Mechanical properties :
#
#
# Convention : Reuss Voigt Hill
#
# Bulk Modulus (GPa) = 43.69698 52.04375 47.87036
# Shear Modulus (GPa) = 25.28208 27.09779 26.18994
#
# Velocity S-wave (km/s) = 3.72422 3.85563 3.79049
# Velocity P-wave (km/s) = 6.51654 6.95503 6.73935
#
# Compressibility (1/GPa) = 0.02288488
#
# Stress axis : x y z
#
# Youngs Moduli (GPa) = 92.26200 56.42378 61.18247
#
# Poissons Ratio (x) = 0.24806 0.32790
# Poissons Ratio (y) = 0.40562 0.07678
# Poissons Ratio (z) = 0.49446 0.07081
#
# Static dielectric constant tensor:
#      x y z
#    x 3.389490 0.000000 -0.106500 
#    y 0.000000 3.388330 0.000000 
#    z -0.106500 0.000000 3.401880 
# 
# 
# High freq. dielectric constant tensor:
#      x y z
#    x 1.708310 0.000000 -0.002820 
#    y 0.000000 1.666150 0.000000 
#    z -0.002820 0.000000 1.714050 
# 
# From -- ./inp_files/307143.got.cif
#   From: 2010.06.25/outbox.cif.g09.slc.cpg/sg12_154_cif.got.tgz:307143.got - 2010.06.28 00:19:55.
