data_PCOD8086310
_publ_section_title
;
Structure prediction by ZEFSAII (Michael W. Deem and Ramdas Pophale) SiO2 
 PCOD8086310
Probable space group: C 2/M
;
_chemical_formula_sum "Si O2"
_cell_formula_units_Z 64
_cell_length_a 32.000839
_cell_length_b 9.383075
_cell_length_c 13.835817
_cell_angle_alpha 90.000000
_cell_angle_beta 115.617295
_cell_angle_gamma 90.000000
_cell_volume 3746.057357
_symmetry_space_group_name_H-M "C 2/M"
_symmetry_group_IT_number 12
_symmetry_cell_setting 'monoclinic'
loop_
_space_group_symop_operation_xyz
x,y,z
-x,y,-z
-x,-y,-z
x,-y,z
1/2+x,1/2+y,z
1/2-x,1/2+y,-z
1/2-x,1/2-y,-z
1/2+x,1/2-y,z
loop_
_atom_site_type_symbol
_atom_site_label
_atom_site_fract_x
_atom_site_fract_y
_atom_site_fract_z
Si Si1 0.110591 0.163951 0.565882
Si Si2 0.529179 0.160705 0.393581
Si Si3 0.058614 0.162998 0.917505
Si Si4 0.705109 0.334483 0.344018
Si Si5 0.389409 0.663951 0.844700
Si Si6 0.558614 0.662998 0.699723
Si Si7 0.794891 0.834483 0.433800
Si Si8 0.470821 0.839295 0.835224
O O1 0.075037 0.259739 0.472061
O O2 0.102720 0.183244 0.673309
O O3 0.162291 0.213498 0.590575
O O4 0.103205 0.000000 0.526678
O O5 0.482980 0.240872 0.384426
O O6 0.528464 0.161857 0.278464
O O7 0.528924 0.000000 0.434208
O O8 0.073238 0.207897 0.823238
O O9 0.017020 0.259128 0.918466
O O10 0.041136 0.000000 0.901684
O O11 0.102720 0.183244 0.032131
O O12 0.716190 0.500000 0.342847
O O13 0.662291 0.286502 0.234006
O O14 0.750000 0.250000 0.352525
O O15 0.693194 0.296550 0.443194
O O16 0.396795 0.500000 0.820267
O O17 0.424963 0.759739 0.821988
O O18 0.541136 0.500000 0.680588
O O19 0.783810 0.000000 0.410468
O O20 0.471076 0.000000 0.876360
#
# Coordination Sequence:
#
# PCOD8086310 Si02
#       8
#     8   8   8   8   8   8   8   8
#     4  10  19  31  49  70  91 120 157 192 227 269
#     4  10  20  31  44  67  98 127 154 187 228 272
#     4   9  18  32  48  66  91 124 159 192 225 264
#     4   9  18  32  49  69  92 116 144 182 228 276
#     4  10  19  31  49  70  91 120 157 192 227 269
#     4   9  18  32  48  66  91 124 159 192 225 264
#     4   9  18  32  49  69  92 116 144 182 228 276
#     4  10  20  31  44  67  98 127 154 187 228 272
#
# _framework density 17.084629
#
# number of rings (size 3 to 8) (size 9 to 14) (size 15 to 20)
#    0.000    2.500    0.000    2.250    0.000    7.500 
#    0.000    2.500    0.000    0.750    0.000    0.000 
#    0.000    0.000    0.000    0.000    0.000    0.000 
#
# Total GULP energy -396805.255293 kJ/mol
# GULP energy per Si atom -12400.164228 kJ/mol
# Density = 1.704574 g / cm^3
# Si number density = 17.084629 Si / 1000 Ang^3
#
#
#
# Elastic Constant Matrix: (Units=GPa)
#
#
# Indices 1 2 3 4 5 6 
#
# 1 136.8010 57.7353 58.2599 0.0000 16.2637 0.0000
# 2 57.7353 76.0691 43.4564 0.0000 12.3658 0.0000
# 3 58.2599 43.4564 86.7825 0.0000 27.0535 0.0000
# 4 0.0000 0.0000 0.0000 19.5254 0.0000 4.8993
# 5 16.2637 12.3658 27.0535 0.0000 20.5364 0.0000
# 6 0.0000 0.0000 0.0000 4.8993 0.0000 25.1826
#
#
#
# Elastic Compliance Matrix: (Units=1/GPa)
#
#
# Indices 1 2 3 4 5 6 
#
# 1 0.012116 -0.006344 -0.005357 0.000000 0.001281 0.000000
# 2 -0.006344 0.021775 -0.006997 0.000000 0.001130 0.000000
# 3 -0.005357 -0.006997 0.027127 0.000000 -0.027281 0.000000
# 4 0.000000 0.000000 0.000000 0.053844 0.000000 -0.010475
# 5 0.001281 0.001130 -0.027281 0.000000 0.082937 0.000000
# 6 0.000000 0.000000 0.000000 -0.010475 0.000000 0.041748
#
#
# Mechanical properties :
#
#
# Convention : Reuss Voigt Hill
#
# Bulk Modulus (GPa) = 42.33199 68.72842 55.53020
# Shear Modulus (GPa) = 17.55515 22.39561 19.97538
#
# Velocity S-wave (km/s) = 3.20900 3.62451 3.42307
# Velocity P-wave (km/s) = 6.20982 7.60471 6.94239
#
# Compressibility (1/GPa) = 0.02362280
#
# Stress axis : x y z
#
# Youngs Moduli (GPa) = 82.53321 45.92516 36.86331
#
# Poissons Ratio (x) = 0.29136 0.19746
# Poissons Ratio (y) = 0.52362 0.25793
# Poissons Ratio (z) = 0.44209 0.32133
#
# Static dielectric constant tensor:
#      x y z
#    x 3.129720 0.000000 -0.091570 
#    y 0.000000 3.343220 0.000000 
#    z -0.091570 0.000000 3.235460 
# 
# 
# High freq. dielectric constant tensor:
#      x y z
#    x 1.643150 0.000000 -0.008700 
#    y 0.000000 1.661700 0.000000 
#    z -0.008700 0.000000 1.653200 
# 
# From -- ./inp_files/104530.got.cif
#   From: 2010.06.25/outbox.cif.g09.slc.cpg/sg12_53_cif.got.tgz:104530.got - 2010.06.28 00:19:55.
