data_PCOD8086606
_publ_section_title
;
Structure prediction by ZEFSAII (Michael W. Deem and Ramdas Pophale) SiO2 
 PCOD8086606
Probable space group: C 2/M
;
_chemical_formula_sum "Si O2"
_cell_formula_units_Z 64
_cell_length_a 33.364357
_cell_length_b 9.307699
_cell_length_c 12.220013
_cell_angle_alpha 90.000000
_cell_angle_beta 94.081044
_cell_angle_gamma 90.000000
_cell_volume 3785.246397
_symmetry_space_group_name_H-M "C 2/M"
_symmetry_group_IT_number 12
_symmetry_cell_setting 'monoclinic'
loop_
_space_group_symop_operation_xyz
x,y,z
-x,y,-z
-x,-y,-z
x,-y,z
1/2+x,1/2+y,z
1/2-x,1/2+y,-z
1/2-x,1/2-y,-z
1/2+x,1/2-y,z
loop_
_atom_site_type_symbol
_atom_site_label
_atom_site_fract_x
_atom_site_fract_y
_atom_site_fract_z
Si Si1 0.332790 0.334328 0.391532
Si Si2 0.169506 0.169350 0.938403
Si Si3 0.277921 0.171313 0.225765
Si Si4 0.867772 0.169546 0.629660
Si Si5 0.186656 0.169666 0.184888
Si Si6 0.945684 0.667992 0.586353
Si Si7 0.534329 0.166865 0.653410
Si Si8 0.900289 0.837121 0.229224
O O1 0.319077 0.500000 0.378722
O O2 0.297276 0.232590 0.340890
O O3 0.342171 0.290201 0.517328
O O4 0.372525 0.306682 0.328586
O O5 0.201817 0.259215 0.876591
O O6 0.124678 0.201857 0.885063
O O7 0.179545 0.000000 0.926955
O O8 0.171651 0.222802 0.063477
O O9 0.231785 0.221398 0.216432
O O10 0.283018 0.000000 0.222630
O O11 0.843036 0.230921 0.728188
O O12 0.910871 0.244682 0.639137
O O13 0.875139 0.000000 0.637159
O O14 0.185203 0.000000 0.189510
O O15 0.935398 0.500000 0.587669
O O16 0.950678 0.720721 0.462403
O O17 0.987133 0.700118 0.658817
O O18 0.559417 0.243462 0.754228
O O19 0.542777 0.000000 0.665768
O O20 0.914847 0.000000 0.228822
#
# Coordination Sequence:
#
# PCOD8086606 Si02
#       8
#     8   8   8   8   8   8   8   8
#     4   9  18  31  46  69 100 129 155 193 243 284
#     4   9  18  34  52  70  96 126 157 202 249 279
#     4  10  19  31  50  74  95 121 162 205 240 283
#     4  10  19  33  51  69  95 131 165 194 231 286
#     4   9  19  34  51  70  94 127 164 201 241 281
#     4   9  18  31  46  70 100 128 153 187 237 285
#     4   9  17  29  47  70  99 127 152 186 236 286
#     4   9  16  27  46  72  96 120 154 195 238 279
#
# _framework density 16.90775
#
# number of rings (size 3 to 8) (size 9 to 14) (size 15 to 20)
#    0.000    2.750    1.250    2.250    0.000    3.500 
#    0.000    3.750    0.000    0.750    0.000    5.250 
#    0.000    0.000    0.000    0.000    0.000    0.000 
#
# Total GULP energy -396751.035169 kJ/mol
# GULP energy per Si atom -12398.469849 kJ/mol
# Density = 1.686927 g / cm^3
# Si number density = 16.907750 Si / 1000 Ang^3
#
#
#
# Elastic Constant Matrix: (Units=GPa)
#
#
# Indices 1 2 3 4 5 6 
#
# 1 125.1046 53.7438 80.3383 0.0000 16.7707 0.0000
# 2 53.7438 53.0453 41.4017 0.0000 9.4224 0.0000
# 3 80.3383 41.4017 107.8376 0.0000 4.3156 0.0000
# 4 0.0000 0.0000 0.0000 19.8755 0.0000 5.9088
# 5 16.7707 9.4224 4.3156 0.0000 23.4259 0.0000
# 6 0.0000 0.0000 0.0000 5.9088 0.0000 29.9500
#
#
#
# Elastic Compliance Matrix: (Units=1/GPa)
#
#
# Indices 1 2 3 4 5 6 
#
# 1 0.021016 -0.011174 -0.011026 0.000000 -0.008520 0.000000
# 2 -0.011174 0.034879 -0.004861 0.000000 -0.005134 0.000000
# 3 -0.011026 -0.004861 0.019100 0.000000 0.006330 0.000000
# 4 0.000000 0.000000 0.000000 0.053448 0.000000 -0.010545
# 5 -0.008520 -0.005134 0.006330 0.000000 0.049686 0.000000
# 6 0.000000 0.000000 0.000000 -0.010545 0.000000 0.035469
#
#
# Mechanical properties :
#
#
# Convention : Reuss Voigt Hill
#
# Bulk Modulus (GPa) = 47.90710 70.77276 59.33993
# Shear Modulus (GPa) = 18.20312 22.01719 20.11015
#
# Velocity S-wave (km/s) = 3.28474 3.61251 3.45252
# Velocity P-wave (km/s) = 6.54079 7.70385 7.14602
#
# Compressibility (1/GPa) = 0.02087373
#
# Stress axis : x y z
#
# Youngs Moduli (GPa) = 47.58248 28.67085 52.35475
#
# Poissons Ratio (x) = 0.32036 0.57727
# Poissons Ratio (y) = 0.53167 0.25450
# Poissons Ratio (z) = 0.52465 0.13937
#
# Static dielectric constant tensor:
#      x y z
#    x 3.120150 0.000000 0.114010 
#    y 0.000000 3.000010 0.000000 
#    z 0.114010 0.000000 3.237830 
# 
# 
# High freq. dielectric constant tensor:
#      x y z
#    x 1.645510 0.000000 0.019650 
#    y 0.000000 1.639460 0.000000 
#    z 0.019650 0.000000 1.640110 
# 
# From -- ./inp_files/182137.got.cif
#   From: 2010.06.25/outbox.cif.g09.slc.cpg/sg12_92_cif.got.tgz:182137.got - 2010.06.28 00:19:55.
