data_PCOD8086763
_publ_section_title
;
Structure prediction by ZEFSAII (Michael W. Deem and Ramdas Pophale) SiO2 
 PCOD8086763
Probable space group: C 2/M
;
_chemical_formula_sum "Si O2"
_cell_formula_units_Z 52
_cell_length_a 19.179362
_cell_length_b 13.920890
_cell_length_c 17.755555
_cell_angle_alpha 90.000000
_cell_angle_beta 33.333647
_cell_angle_gamma 90.000000
_cell_volume 2605.036528
_symmetry_space_group_name_H-M "C 2/M"
_symmetry_group_IT_number 12
_symmetry_cell_setting 'monoclinic'
loop_
_space_group_symop_operation_xyz
x,y,z
-x,y,-z
-x,-y,-z
x,-y,z
1/2+x,1/2+y,z
1/2-x,1/2+y,-z
1/2-x,1/2-y,-z
1/2+x,1/2-y,z
loop_
_atom_site_type_symbol
_atom_site_label
_atom_site_fract_x
_atom_site_fract_y
_atom_site_fract_z
Si Si1 0.500000 0.304674 0.000000
Si Si2 0.474261 0.389342 0.611617
Si Si3 0.232890 0.743805 0.202878
Si Si4 0.353135 0.895140 0.596223
Si Si5 0.440338 0.108203 0.711186
Si Si6 0.397208 0.732380 0.378778
Si Si7 0.403730 0.605410 0.237882
O O1 0.615837 0.239789 0.927596
O O2 0.549730 0.370668 0.888045
O O3 0.500000 0.380914 0.500000
O O4 0.477303 0.500000 0.635283
O O5 0.333975 0.345532 0.753767
O O6 0.576322 0.327732 0.568026
O O7 0.177108 0.699596 0.329644
O O8 0.194228 0.664448 0.173713
O O9 0.494257 0.889580 0.431910
O O10 0.250204 0.893243 0.621220
O O11 0.336811 0.000000 0.652852
O O12 0.532191 0.164965 0.684780
O O13 0.420461 0.000000 0.758774
O O14 0.250000 0.750000 0.500000
O O15 0.456048 0.676822 0.254165
O O16 0.455239 0.500000 0.211831
#
# Coordination Sequence:
#
# PCOD8086763 Si02
#       7
#     4   8   8   8   8   8   8
#     4  10  23  38  61  84 114 160 209 248 301 358
#     4  10  22  38  60  91 126 162 199 243 304 370
#     4  10  19  34  55  80 113 153 198 248 291 351
#     4   9  16  28  51  82 114 146 183 240 309 361
#     4  10  19  31  50  82 117 147 185 241 309 365
#     4  11  21  35  60  89 122 158 197 249 309 363
#     4  10  20  35  56  86 121 154 198 249 299 357
#
# _framework density 19.961331999999999
#
# number of rings (size 3 to 8) (size 9 to 14) (size 15 to 20)
#    0.000    2.000    1.538    3.462    2.154    3.692 
#    0.000    3.462    0.000    2.769    0.000    0.000 
#    0.000    0.000    0.000    0.000    0.000    0.000 
#
# Total GULP energy -322192.286495 kJ/mol
# GULP energy per Si atom -12392.011019 kJ/mol
# Density = 1.991590 g / cm^3
# Si number density = 19.961332 Si / 1000 Ang^3
#
#
#
# Elastic Constant Matrix: (Units=GPa)
#
#
# Indices 1 2 3 4 5 6 
#
# 1 105.4989 53.8608 37.4100 0.0000 -18.5687 0.0000
# 2 53.8608 129.9970 25.2511 0.0000 -16.9254 0.0000
# 3 37.4100 25.2511 69.6784 0.0000 -28.3062 0.0000
# 4 0.0000 0.0000 0.0000 12.9772 0.0000 1.1541
# 5 -18.5687 -16.9254 -28.3062 0.0000 45.2739 0.0000
# 6 0.0000 0.0000 0.0000 1.1541 0.0000 32.3818
#
#
#
# Elastic Compliance Matrix: (Units=1/GPa)
#
#
# Indices 1 2 3 4 5 6 
#
# 1 0.013902 -0.004610 -0.005599 0.000000 0.000478 0.000000
# 2 -0.004610 0.009895 -0.000504 0.000000 0.001493 0.000000
# 3 -0.005599 -0.000504 0.022159 0.000000 0.011369 0.000000
# 4 0.000000 0.000000 0.000000 0.077303 0.000000 -0.002755
# 5 0.000478 0.001493 0.011369 0.000000 0.029950 0.000000
# 6 0.000000 0.000000 0.000000 -0.002755 0.000000 0.030980
#
#
# Mechanical properties :
#
#
# Convention : Reuss Voigt Hill
#
# Bulk Modulus (GPa) = 40.76770 59.80199 50.28485
# Shear Modulus (GPa) = 23.38715 30.70342 27.04528
#
# Velocity S-wave (km/s) = 3.42661 3.92617 3.68487
# Velocity P-wave (km/s) = 6.01026 7.11176 6.58408
#
# Compressibility (1/GPa) = 0.02452922
#
# Stress axis : x y z
#
# Youngs Moduli (GPa) = 71.93247 101.06221 45.12789
#
# Poissons Ratio (x) = 0.46591 0.25268
# Poissons Ratio (y) = 0.33162 0.02275
# Poissons Ratio (z) = 0.40276 0.05095
#
# Static dielectric constant tensor:
#      x y z
#    x 3.863000 0.000000 -0.343640 
#    y 0.000000 3.750170 0.000000 
#    z -0.343640 0.000000 3.377980 
# 
# 
# High freq. dielectric constant tensor:
#      x y z
#    x 1.787350 0.000000 -0.028140 
#    y 0.000000 1.776410 0.000000 
#    z -0.028140 0.000000 1.737130 
# 
# From -- ./inp_files/321944.got.cif
#   From: 2010.06.25/outbox.cif.g09.slc.cpg/sg12_161_cif.got.tgz:321944.got - 2010.06.28 00:19:55.
