data_PCOD8086873
_publ_section_title
;
Structure prediction by ZEFSAII (Michael W. Deem and Ramdas Pophale) SiO2 
 PCOD8086873
Probable space group: C 2/M
;
_chemical_formula_sum "Si O2"
_cell_formula_units_Z 56
_cell_length_a 19.004187
_cell_length_b 8.709825
_cell_length_c 18.944423
_cell_angle_alpha 90.000000
_cell_angle_beta 70.031754
_cell_angle_gamma 90.000000
_cell_volume 2947.226082
_symmetry_space_group_name_H-M "C 2/M"
_symmetry_group_IT_number 12
_symmetry_cell_setting 'monoclinic'
loop_
_space_group_symop_operation_xyz
x,y,z
-x,y,-z
-x,-y,-z
x,-y,z
1/2+x,1/2+y,z
1/2-x,1/2+y,-z
1/2-x,1/2-y,-z
1/2+x,1/2-y,z
loop_
_atom_site_type_symbol
_atom_site_label
_atom_site_fract_x
_atom_site_fract_y
_atom_site_fract_z
Si Si1 0.319192 0.322857 0.559813
Si Si2 0.799090 0.825002 0.196285
Si Si3 0.340360 0.676056 0.395513
Si Si4 0.079025 0.180629 0.201956
Si Si5 0.720344 0.180580 0.081908
Si Si6 0.139127 0.677311 0.318588
Si Si7 0.075621 0.321804 0.757910
O O1 0.296643 0.500000 0.578702
O O2 0.361302 0.300345 0.470631
O O3 0.245477 0.219424 0.587610
O O4 0.374405 0.265365 0.602830
O O5 0.781435 0.782320 0.121355
O O6 0.725080 0.798679 0.267559
O O7 0.863369 0.714394 0.202978
O O8 0.826519 0.000000 0.193678
O O9 0.350595 0.500000 0.368361
O O10 0.394568 0.779557 0.330036
O O11 0.141099 0.245007 0.127667
O O12 0.085583 0.251265 0.277871
O O13 0.998520 0.225890 0.198593
O O14 0.088017 0.000000 0.203866
O O15 0.707676 0.000000 0.079415
O O16 0.750000 0.250000 0.000000
O O17 0.118007 0.500000 0.334257
O O18 0.055939 0.500000 0.766701
#
# Coordination Sequence:
#
# PCOD8086873 Si02
#       7
#     8   8   8   8   8   8   8
#     4  10  19  31  51  79 108 145 193 239 285 335
#     4   9  19  35  57  84 114 149 185 226 276 330
#     4  10  20  33  50  76 112 149 188 238 289 334
#     4  11  23  39  60  83 115 152 188 230 283 339
#     4  10  21  40  65  92 120 148 184 226 273 330
#     4  10  19  34  56  81 112 146 189 240 285 334
#     4  12  23  36  56  83 115 149 192 237 283 339
#
# _framework density 19.000917999999999
#
# number of rings (size 3 to 8) (size 9 to 14) (size 15 to 20)
#    0.000    1.714    1.429    5.143    0.000    4.571 
#    0.000    1.429    0.000    8.571    0.000    0.000 
#    0.000    0.000    0.000    0.000    0.000    0.000 
#
# Total GULP energy -347298.553576 kJ/mol
# GULP energy per Si atom -12403.519771 kJ/mol
# Density = 1.895767 g / cm^3
# Si number density = 19.000918 Si / 1000 Ang^3
#
#
#
# Elastic Constant Matrix: (Units=GPa)
#
#
# Indices 1 2 3 4 5 6 
#
# 1 78.4411 32.4467 34.1069 -0.0001 2.2453 -0.0003
# 2 32.4467 100.4532 41.5251 -0.0001 9.4941 -0.0004
# 3 34.1069 41.5251 107.7265 0.0000 16.1674 0.0001
# 4 -0.0001 -0.0001 0.0000 32.7088 0.0000 1.3119
# 5 2.2453 9.4941 16.1674 0.0000 22.6743 -0.0001
# 6 -0.0003 -0.0004 0.0001 1.3119 -0.0001 31.2273
#
#
#
# Elastic Compliance Matrix: (Units=1/GPa)
#
#
# Indices 1 2 3 4 5 6 
#
# 1 0.015979 -0.003763 -0.004040 0.000000 0.002874 0.000000
# 2 -0.003763 0.012802 -0.003354 0.000000 -0.002596 0.000000
# 3 -0.004040 -0.003354 0.012972 0.000000 -0.007445 0.000000
# 4 0.000000 0.000000 0.000000 0.030624 0.000000 -0.001287
# 5 0.002874 -0.002596 -0.007445 0.000000 0.050214 0.000000
# 6 0.000000 0.000000 0.000000 -0.001287 0.000000 0.032077
#
#
# Mechanical properties :
#
#
# Convention : Reuss Voigt Hill
#
# Bulk Modulus (GPa) = 51.44025 55.86423 53.65224
# Shear Modulus (GPa) = 27.25357 29.22489 28.23923
#
# Velocity S-wave (km/s) = 3.79136 3.92609 3.85931
# Velocity P-wave (km/s) = 6.80420 7.07226 6.93953
#
# Compressibility (1/GPa) = 0.01944003
#
# Stress axis : x y z
#
# Youngs Moduli (GPa) = 62.58106 78.11220 77.08958
#
# Poissons Ratio (x) = 0.29393 0.31144
# Poissons Ratio (y) = 0.23549 0.25854
# Poissons Ratio (z) = 0.25282 0.26197
#
# Static dielectric constant tensor:
#      x y z
#    x 3.318810 0.000000 0.203460 
#    y 0.000000 3.536950 0.000000 
#    z 0.203460 0.000000 3.518200 
# 
# 
# High freq. dielectric constant tensor:
#      x y z
#    x 1.722020 0.000000 0.016740 
#    y 0.000000 1.753290 0.000000 
#    z 0.016740 0.000000 1.730850 
# 
# From -- ./inp_files/275021.got.cif
#   From: 2010.06.25/outbox.cif.g09.slc.cpg/sg12_138_cif.got.tgz:275021.got - 2010.06.28 00:19:55.
