data_PCOD8086426
_publ_section_title
;
Structure prediction by ZEFSAII (Michael W. Deem and Ramdas Pophale) SiO2 
 PCOD8086426
Probable space group: C 2/M
;
_chemical_formula_sum "Si O2"
_cell_formula_units_Z 64
_cell_length_a 14.206684
_cell_length_b 9.314840
_cell_length_c 27.471832
_cell_angle_alpha 90.000000
_cell_angle_beta 106.147138
_cell_angle_gamma 90.000000
_cell_volume 3492.014393
_symmetry_space_group_name_H-M "C 2/M"
_symmetry_group_IT_number 12
_symmetry_cell_setting 'monoclinic'
loop_
_space_group_symop_operation_xyz
x,y,z
-x,y,-z
-x,-y,-z
x,-y,z
1/2+x,1/2+y,z
1/2-x,1/2+y,-z
1/2-x,1/2-y,-z
1/2+x,1/2-y,z
loop_
_atom_site_type_symbol
_atom_site_label
_atom_site_fract_x
_atom_site_fract_y
_atom_site_fract_z
Si Si1 0.291528 0.667052 0.859892
Si Si2 0.568041 0.170763 0.405303
Si Si3 0.833267 0.332028 0.677693
Si Si4 0.109480 0.331393 0.209312
Si Si5 0.414211 0.167607 0.125950
Si Si6 0.512190 0.666893 0.056667
Si Si7 0.370352 0.333568 0.391303
Si Si8 0.387104 0.657924 0.499105
O O1 0.286285 0.500000 0.845493
O O2 0.311869 0.754046 0.813722
O O3 0.188993 0.721051 0.867411
O O4 0.376586 0.698658 0.911210
O O5 0.612076 0.232860 0.361399
O O6 0.457693 0.227465 0.390991
O O7 0.632061 0.228760 0.460410
O O8 0.569173 0.000000 0.408487
O O9 0.852918 0.500000 0.679582
O O10 0.876268 0.268911 0.734161
O O11 0.717593 0.298661 0.658288
O O12 0.131736 0.500000 0.210009
O O13 0.998788 0.295876 0.177188
O O14 0.434609 0.249399 0.078715
O O15 0.411042 0.000000 0.113286
O O16 0.486178 0.500000 0.057218
O O17 0.500000 0.722516 0.000000
O O18 0.404837 0.500000 0.392133
O O19 0.329599 0.305362 0.440670
O O20 0.500000 0.661048 0.500000
O O21 0.357460 0.500000 0.514061
#
# Coordination Sequence:
#
# PCOD8086426 Si02
#       8
#     8   8   8   8   8   8   8   8
#     4   9  18  33  51  72  99 129 162 201 243 281
#     4  10  19  31  49  73  97 120 152 196 239 278
#     4   9  19  34  50  69  95 125 155 192 241 290
#     4   9  18  34  52  69  92 124 162 199 237 286
#     4   9  18  32  51  73  97 128 163 199 241 285
#     4   9  18  32  49  72 104 136 164 198 237 278
#     4   9  18  34  51  66  91 127 158 185 229 289
#     4   8  15  29  48  67  91 124 155 184 227 285
#
# _framework density 18.327531
#
# number of rings (size 3 to 8) (size 9 to 14) (size 15 to 20)
#    0.000    3.000    0.000    1.125    0.000    5.000 
#    0.000    4.375    0.000    0.000    0.000    0.000 
#    0.000    0.000    0.000    0.000    0.000    0.000 
#
# Total GULP energy -396714.700564 kJ/mol
# GULP energy per Si atom -12397.334393 kJ/mol
# Density = 1.828582 g / cm^3
# Si number density = 18.327531 Si / 1000 Ang^3
#
#
#
# Elastic Constant Matrix: (Units=GPa)
#
#
# Indices 1 2 3 4 5 6 
#
# 1 77.2232 28.5320 45.2805 0.0000 -13.4911 0.0000
# 2 28.5320 51.1353 41.1784 0.0000 -7.9687 0.0000
# 3 45.2805 41.1784 146.6093 0.0000 -4.4314 0.0000
# 4 0.0000 0.0000 0.0000 27.6435 0.0000 -4.3914
# 5 -13.4911 -7.9687 -4.4314 0.0000 23.4597 0.0000
# 6 0.0000 0.0000 0.0000 -4.3914 0.0000 20.3473
#
#
#
# Elastic Compliance Matrix: (Units=1/GPa)
#
#
# Indices 1 2 3 4 5 6 
#
# 1 0.018902 -0.006188 -0.003857 0.000000 0.008040 0.000000
# 2 -0.006188 0.028600 -0.005970 0.000000 0.005028 0.000000
# 3 -0.003857 -0.005970 0.009615 0.000000 -0.002429 0.000000
# 4 0.000000 0.000000 0.000000 0.037459 0.000000 0.008084
# 5 0.008040 0.005028 -0.002429 0.000000 0.048499 0.000000
# 6 0.000000 0.000000 0.000000 0.008084 0.000000 0.050891
#
#
# Mechanical properties :
#
#
# Convention : Reuss Voigt Hill
#
# Bulk Modulus (GPa) = 39.86004 56.10550 47.98277
# Shear Modulus (GPa) = 21.33494 24.95522 23.14508
#
# Velocity S-wave (km/s) = 3.41558 3.69402 3.55753
# Velocity P-wave (km/s) = 6.11154 6.99096 6.56599
#
# Compressibility (1/GPa) = 0.02508778
#
# Stress axis : x y z
#
# Youngs Moduli (GPa) = 52.90512 34.96562 104.00081
#
# Poissons Ratio (x) = 0.21636 0.40111
# Poissons Ratio (y) = 0.32737 0.62085
# Poissons Ratio (z) = 0.20405 0.20873
#
# Static dielectric constant tensor:
#      x y z
#    x 3.295000 0.000000 0.064950 
#    y 0.000000 3.190800 0.000000 
#    z 0.064950 0.000000 3.687520 
# 
# 
# High freq. dielectric constant tensor:
#      x y z
#    x 1.706640 0.000000 0.004330 
#    y 0.000000 1.691780 0.000000 
#    z 0.004330 0.000000 1.713600 
# 
# From -- ./inp_files/338873.got.cif
#   From: 2010.06.25/outbox.cif.g09.slc.cpg/sg12_170_cif.got.tgz:338873.got - 2010.06.28 00:19:55.
