data_PCOD8086069
_publ_section_title
;
Structure prediction by ZEFSAII (Michael W. Deem and Ramdas Pophale) SiO2 
 PCOD8086069
Probable space group: C 2/M
;
_chemical_formula_sum "Si O2"
_cell_formula_units_Z 48
_cell_length_a 15.379356
_cell_length_b 9.258956
_cell_length_c 20.341809
_cell_angle_alpha 90.000000
_cell_angle_beta 112.776253
_cell_angle_gamma 90.000000
_cell_volume 2670.741280
_symmetry_space_group_name_H-M "C 2/M"
_symmetry_group_IT_number 12
_symmetry_cell_setting 'monoclinic'
loop_
_space_group_symop_operation_xyz
x,y,z
-x,y,-z
-x,-y,-z
x,-y,z
1/2+x,1/2+y,z
1/2-x,1/2+y,-z
1/2-x,1/2-y,-z
1/2+x,1/2-y,z
loop_
_atom_site_type_symbol
_atom_site_label
_atom_site_fract_x
_atom_site_fract_y
_atom_site_fract_z
Si Si1 0.045492 0.328825 0.411780
Si Si2 0.652443 0.328224 0.331303
Si Si3 0.641029 0.170655 0.572670
Si Si4 0.293255 0.331396 0.917313
Si Si5 0.378699 0.331431 0.081741
Si Si6 0.586944 0.671071 0.169058
O O1 0.052100 0.500000 0.401756
O O2 0.075708 0.244417 0.355800
O O3 0.113665 0.278904 0.491333
O O4 0.938668 0.280261 0.398379
O O5 0.646603 0.500000 0.338060
O O6 0.756774 0.266839 0.378210
O O7 0.628633 0.278773 0.250698
O O8 0.643984 0.000000 0.574772
O O9 0.271373 0.500000 0.903893
O O10 0.194297 0.250089 0.892861
O O11 0.346777 0.268397 0.869413
O O12 0.358126 0.299313 0.999417
O O13 0.370721 0.500000 0.095213
O O14 0.481532 0.268427 0.128779
O O15 0.583314 0.500000 0.161909
#
# Coordination Sequence:
#
# PCOD8086069 Si02
#       6
#     8   8   8   8   8   8
#     4   9  17  32  51  69  90 120 156 190 228 272
#     4  10  19  31  47  69  95 122 153 189 228 270
#     4   8  16  31  50  68  90 122 155 187 227 276
#     4   9  17  31  51  71  90 119 158 191 222 269
#     4   9  17  31  50  70  92 119 153 193 231 265
#     4   9  18  31  47  67  94 127 155 181 224 281
#
# _framework density 17.972539000000001
#
# number of rings (size 3 to 8) (size 9 to 14) (size 15 to 20)
#    0.000    3.000    0.000    2.000    0.000    3.333 
#    0.000    6.667    0.000    4.000    0.000    0.000 
#    0.000    0.000    0.000    0.000    0.000    0.000 
#
# Total GULP energy -297569.124501 kJ/mol
# GULP energy per Si atom -12398.713521 kJ/mol
# Density = 1.793163 g / cm^3
# Si number density = 17.972539 Si / 1000 Ang^3
#
#
#
# Elastic Constant Matrix: (Units=GPa)
#
#
# Indices 1 2 3 4 5 6 
#
# 1 146.2016 34.0206 75.4041 0.0000 -16.8854 0.0000
# 2 34.0206 26.0548 27.1784 0.0000 -6.3143 0.0000
# 3 75.4041 27.1784 101.3309 0.0000 -13.6928 0.0000
# 4 0.0000 0.0000 0.0000 18.2911 0.0000 -5.3036
# 5 -16.8854 -6.3143 -13.6928 0.0000 23.1953 0.0000
# 6 0.0000 0.0000 0.0000 -5.3036 0.0000 30.1605
#
#
#
# Elastic Compliance Matrix: (Units=1/GPa)
#
#
# Indices 1 2 3 4 5 6 
#
# 1 0.012679 -0.008917 -0.006655 0.000000 0.002874 0.000000
# 2 -0.008917 0.060507 -0.008959 0.000000 0.004691 0.000000
# 3 -0.006655 -0.008959 0.017647 0.000000 0.003134 0.000000
# 4 0.000000 0.000000 0.000000 0.057609 0.000000 0.010130
# 5 0.002874 0.004691 0.003134 0.000000 0.048332 0.000000
# 6 0.000000 0.000000 0.000000 0.010130 0.000000 0.034937
#
#
# Mechanical properties :
#
#
# Convention : Reuss Voigt Hill
#
# Bulk Modulus (GPa) = 23.94041 60.75483 42.34762
# Shear Modulus (GPa) = 16.96661 23.46166 20.21413
#
# Velocity S-wave (km/s) = 3.07584 3.61698 3.35733
# Velocity P-wave (km/s) = 5.09547 7.16387 6.21630
#
# Compressibility (1/GPa) = 0.04177037
#
# Stress axis : x y z
#
# Youngs Moduli (GPa) = 78.87013 16.52714 56.66571
#
# Poissons Ratio (x) = 0.14737 0.37711
# Poissons Ratio (y) = 0.70329 0.50768
# Poissons Ratio (z) = 0.52487 0.14807
#
# Static dielectric constant tensor:
#      x y z
#    x 3.615600 0.000000 0.134960 
#    y 0.000000 2.898980 0.000000 
#    z 0.134960 0.000000 3.423180 
# 
# 
# High freq. dielectric constant tensor:
#      x y z
#    x 1.710470 0.000000 -0.000200 
#    y 0.000000 1.653090 0.000000 
#    z -0.000200 0.000000 1.694550 
# 
# From -- ./inp_files/261786.got.cif
#   From: 2010.06.25/outbox.cif.g09.slc.cpg/sg12_131_cif.got.tgz:261786.got - 2010.06.28 00:19:55.
