data_PCOD8086834
_publ_section_title
;
Structure prediction by ZEFSAII (Michael W. Deem and Ramdas Pophale) SiO2 
 PCOD8086834
Probable space group: C 2/M
;
_chemical_formula_sum "Si O2"
_cell_formula_units_Z 56
_cell_length_a 20.486205
_cell_length_b 9.411656
_cell_length_c 16.046164
_cell_angle_alpha 90.000000
_cell_angle_beta 81.287494
_cell_angle_gamma 90.000000
_cell_volume 3058.146299
_symmetry_space_group_name_H-M "C 2/M"
_symmetry_group_IT_number 12
_symmetry_cell_setting 'monoclinic'
loop_
_space_group_symop_operation_xyz
x,y,z
-x,y,-z
-x,-y,-z
x,-y,z
1/2+x,1/2+y,z
1/2-x,1/2+y,-z
1/2-x,1/2-y,-z
1/2+x,1/2-y,z
loop_
_atom_site_type_symbol
_atom_site_label
_atom_site_fract_x
_atom_site_fract_y
_atom_site_fract_z
Si Si1 0.634597 0.663388 0.328878
Si Si2 0.071726 0.836960 0.514202
Si Si3 0.223472 0.331529 0.756957
Si Si4 0.059536 0.667944 0.042802
Si Si5 0.798351 0.668054 0.051178
Si Si6 0.961122 0.664577 0.768160
Si Si7 0.103211 0.664794 0.670122
O O1 0.627989 0.500000 0.302249
O O2 0.623902 0.679878 0.429452
O O3 0.706842 0.723721 0.292334
O O4 0.578834 0.750641 0.292901
O O5 0.099548 0.746717 0.584409
O O6 0.000000 0.779038 0.500000
O O7 0.064718 0.000000 0.544393
O O8 0.219499 0.500000 0.756845
O O9 0.215062 0.277123 0.852875
O O10 0.164576 0.272040 0.710728
O O11 0.050582 0.500000 0.048740
O O12 0.056604 0.727122 0.137525
O O13 0.127575 0.712026 0.986720
O O14 0.000000 0.734398 0.000000
O O15 0.786795 0.500000 0.044018
O O16 0.750000 0.750000 0.000000
O O17 0.941424 0.500000 0.764103
O O18 0.038550 0.687910 0.738449
O O19 0.113552 0.500000 0.646574
#
# Coordination Sequence:
#
# PCOD8086834 Si02
#       7
#     8   8   8   8   8   8   8
#     4  10  20  35  54  72  99 136 169 202 246 306
#     4  10  20  35  53  75 102 133 169 205 251 307
#     4   9  19  35  53  76 103 135 170 205 252 302
#     4   9  17  30  50  75 101 131 167 206 248 294
#     4  10  19  33  54  76 103 136 170 207 248 298
#     4  10  19  31  51  78 102 127 166 212 250 288
#     4  10  20  34  54  77 103 132 167 212 254 295
#
# _framework density 18.311748000000001
#
# number of rings (size 3 to 8) (size 9 to 14) (size 15 to 20)
#    0.000    2.286    1.429    1.714    0.000    4.857 
#    0.000    1.429    0.000    3.429    0.000    0.000 
#    0.000    0.000    0.000    0.000    0.000    0.000 
#
# Total GULP energy -347261.051170 kJ/mol
# GULP energy per Si atom -12402.180399 kJ/mol
# Density = 1.827007 g / cm^3
# Si number density = 18.311748 Si / 1000 Ang^3
#
#
#
# Elastic Constant Matrix: (Units=GPa)
#
#
# Indices 1 2 3 4 5 6 
#
# 1 127.5701 36.6611 57.2514 0.0000 6.0042 0.0000
# 2 36.6611 38.2379 36.6958 0.0000 6.2907 0.0000
# 3 57.2514 36.6958 129.6303 0.0000 2.9135 0.0000
# 4 0.0000 0.0000 0.0000 20.1194 0.0000 3.3092
# 5 6.0042 6.2907 2.9135 0.0000 39.6673 0.0000
# 6 0.0000 0.0000 0.0000 3.3092 0.0000 19.7723
#
#
#
# Elastic Compliance Matrix: (Units=1/GPa)
#
#
# Indices 1 2 3 4 5 6 
#
# 1 0.011461 -0.008377 -0.002686 0.000000 -0.000209 0.000000
# 2 -0.008377 0.043028 -0.008370 0.000000 -0.004941 0.000000
# 3 -0.002686 -0.008370 0.011249 0.000000 0.000908 0.000000
# 4 0.000000 0.000000 0.000000 0.051110 0.000000 -0.008554
# 5 -0.000209 -0.004941 0.000908 0.000000 0.025958 0.000000
# 6 0.000000 0.000000 0.000000 -0.008554 0.000000 0.052007
#
#
# Mechanical properties :
#
#
# Convention : Reuss Voigt Hill
#
# Bulk Modulus (GPa) = 37.21034 61.85053 49.53044
# Shear Modulus (GPa) = 20.60679 26.90045 23.75362
#
# Velocity S-wave (km/s) = 3.35824 3.83695 3.60554
# Velocity P-wave (km/s) = 5.94992 7.31295 6.66637
#
# Compressibility (1/GPa) = 0.02687425
#
# Stress axis : x y z
#
# Youngs Moduli (GPa) = 87.24952 23.24042 88.89318
#
# Poissons Ratio (x) = 0.19468 0.23876
# Poissons Ratio (y) = 0.73086 0.74403
# Poissons Ratio (z) = 0.23435 0.19452
#
# Static dielectric constant tensor:
#      x y z
#    x 3.394650 0.000000 -0.048280 
#    y 0.000000 3.041330 0.000000 
#    z -0.048280 0.000000 3.500230 
# 
# 
# High freq. dielectric constant tensor:
#      x y z
#    x 1.721130 0.000000 -0.005400 
#    y 0.000000 1.670610 0.000000 
#    z -0.005400 0.000000 1.724660 
# 
# From -- ./inp_files/230875.got.cif
#   From: 2010.06.25/outbox.cif.g09.slc.cpg/sg12_116_cif.got.tgz:230875.got - 2010.06.28 00:19:55.
