data_PCOD8086196
_publ_section_title
;
Structure prediction by ZEFSAII (Michael W. Deem and Ramdas Pophale) SiO2 
 PCOD8086196
Probable space group: C 2/M
;
_chemical_formula_sum "Si O2"
_cell_formula_units_Z 64
_cell_length_a 25.226066
_cell_length_b 9.064687
_cell_length_c 15.411497
_cell_angle_alpha 90.000000
_cell_angle_beta 108.090031
_cell_angle_gamma 90.000000
_cell_volume 3349.894781
_symmetry_space_group_name_H-M "C 2/M"
_symmetry_group_IT_number 12
_symmetry_cell_setting 'monoclinic'
loop_
_space_group_symop_operation_xyz
x,y,z
-x,y,-z
-x,-y,-z
x,-y,z
1/2+x,1/2+y,z
1/2-x,1/2+y,-z
1/2-x,1/2-y,-z
1/2+x,1/2-y,z
loop_
_atom_site_type_symbol
_atom_site_label
_atom_site_fract_x
_atom_site_fract_y
_atom_site_fract_z
Si Si1 0.741329 0.173479 0.746559
Si Si2 0.737719 0.661353 0.577730
Si Si3 0.347432 0.174005 0.833382
Si Si4 0.412446 0.825900 0.692236
Si Si5 0.057335 0.324381 0.989985
Si Si6 0.113446 0.325063 0.672245
Si Si7 0.537501 0.174973 0.789664
Si Si8 0.609555 0.337574 0.498685
O O1 0.761373 0.235524 0.664536
O O2 0.788402 0.249593 0.830789
O O3 0.677111 0.220271 0.730454
O O4 0.748544 0.000000 0.754945
O O5 0.767930 0.500000 0.594367
O O6 0.750000 0.750000 0.500000
O O7 0.673014 0.635787 0.554365
O O8 0.370757 0.217050 0.749349
O O9 0.391025 0.233389 0.927088
O O10 0.339084 0.000000 0.836006
O O11 0.474168 0.769704 0.748277
O O12 0.395225 0.748066 0.594105
O O13 0.412156 0.000000 0.675513
O O14 0.055432 0.500000 0.993076
O O15 0.063005 0.268168 0.893673
O O16 0.000000 0.260494 0.000000
O O17 0.110226 0.500000 0.658481
O O18 0.074982 0.263690 0.730091
O O19 0.087924 0.256041 0.570560
O O20 0.538929 0.000000 0.788539
O O21 0.580454 0.500000 0.478248
#
# Coordination Sequence:
#
# PCOD8086196 Si02
#       8
#     8   8   8   8   8   8   8   8
#     4  10  20  33  49  70 101 140 176 212 251 299
#     4  10  19  31  48  70  98 134 175 216 259 305
#     4  10  19  31  53  83 109 133 164 211 266 314
#     4  10  19  31  51  79 106 132 168 214 261 307
#     4   9  15  29  54  84 110 128 160 212 265 310
#     4   9  19  36  55  73  98 138 182 215 248 294
#     4   9  17  32  55  79 102 131 171 218 259 300
#     4  10  21  34  48  70 103 140 173 210 255 303
#
# _framework density 19.105077000000001
#
# number of rings (size 3 to 8) (size 9 to 14) (size 15 to 20)
#    0.000    2.375    1.250    1.875    0.000    5.000 
#    0.000    3.750    0.000    1.875    0.000    0.000 
#    0.000    0.000    0.000    0.000    0.000    0.000 
#
# Total GULP energy -396504.650545 kJ/mol
# GULP energy per Si atom -12390.770330 kJ/mol
# Density = 1.906159 g / cm^3
# Si number density = 19.105077 Si / 1000 Ang^3
#
#
#
# Elastic Constant Matrix: (Units=GPa)
#
#
# Indices 1 2 3 4 5 6 
#
# 1 71.3195 24.6239 25.7987 0.0000 4.2676 0.0000
# 2 24.6239 44.9032 25.1807 0.0000 1.2759 0.0000
# 3 25.7987 25.1807 110.9893 0.0000 2.5807 0.0000
# 4 0.0000 0.0000 0.0000 15.3011 0.0000 6.3684
# 5 4.2676 1.2759 2.5807 0.0000 35.2773 0.0000
# 6 0.0000 0.0000 0.0000 6.3684 0.0000 16.8113
#
#
#
# Elastic Compliance Matrix: (Units=1/GPa)
#
#
# Indices 1 2 3 4 5 6 
#
# 1 0.017852 -0.008521 -0.002177 0.000000 -0.001692 0.000000
# 2 -0.008521 0.029592 -0.004740 0.000000 0.000307 0.000000
# 3 -0.002177 -0.004740 0.010599 0.000000 -0.000341 0.000000
# 4 0.000000 0.000000 0.000000 0.077587 0.000000 -0.029391
# 5 -0.001692 0.000307 -0.000341 0.000000 0.028565 0.000000
# 6 0.000000 0.000000 0.000000 -0.029391 0.000000 0.070617
#
#
# Mechanical properties :
#
#
# Convention : Reuss Voigt Hill
#
# Bulk Modulus (GPa) = 36.80888 42.04651 39.42769
# Shear Modulus (GPa) = 18.19863 23.58519 20.89191
#
# Velocity S-wave (km/s) = 3.08970 3.51735 3.31044
# Velocity P-wave (km/s) = 5.66009 6.20899 5.94088
#
# Compressibility (1/GPa) = 0.02716736
#
# Stress axis : x y z
#
# Youngs Moduli (GPa) = 56.01580 33.79261 94.34586
#
# Poissons Ratio (x) = 0.28794 0.20540
# Poissons Ratio (y) = 0.47730 0.44723
# Poissons Ratio (z) = 0.12195 0.16019
#
# Static dielectric constant tensor:
#      x y z
#    x 3.317760 0.000000 0.041070 
#    y 0.000000 3.337850 0.000000 
#    z 0.041070 0.000000 3.603220 
# 
# 
# High freq. dielectric constant tensor:
#      x y z
#    x 1.739330 0.000000 0.011270 
#    y 0.000000 1.713500 0.000000 
#    z 0.011270 0.000000 1.742180 
# 
# From -- ./inp_files/244268.got.cif
#   From: 2010.06.25/outbox.cif.g09.slc.cpg/sg12_123_cif.got.tgz:244268.got - 2010.06.28 00:19:55.
