data_PCOD8086564
_publ_section_title
;
Structure prediction by ZEFSAII (Michael W. Deem and Ramdas Pophale) SiO2 
 PCOD8086564
Probable space group: C 2/M
;
_chemical_formula_sum "Si O2"
_cell_formula_units_Z 48
_cell_length_a 18.669271
_cell_length_b 9.243051
_cell_length_c 15.322174
_cell_angle_alpha 90.000000
_cell_angle_beta 91.622379
_cell_angle_gamma 90.000000
_cell_volume 2642.950139
_symmetry_space_group_name_H-M "C 2/M"
_symmetry_group_IT_number 12
_symmetry_cell_setting 'monoclinic'
loop_
_space_group_symop_operation_xyz
x,y,z
-x,y,-z
-x,-y,-z
x,-y,z
1/2+x,1/2+y,z
1/2-x,1/2+y,-z
1/2-x,1/2-y,-z
1/2+x,1/2-y,z
loop_
_atom_site_type_symbol
_atom_site_label
_atom_site_fract_x
_atom_site_fract_y
_atom_site_fract_z
Si Si1 0.401439 0.332568 0.151450
Si Si2 0.321911 0.833223 0.481655
Si Si3 0.851091 0.663972 0.672457
Si Si4 0.084620 0.336599 0.015429
Si Si5 0.932992 0.168340 0.817012
Si Si6 0.316061 0.332060 0.318082
O O1 0.391021 0.500000 0.127078
O O2 0.482624 0.300809 0.182532
O O3 0.349956 0.283274 0.227847
O O4 0.378662 0.240457 0.066070
O O5 0.250000 0.750000 0.500000
O O6 0.370945 0.820058 0.570160
O O7 0.355608 0.758572 0.396681
O O8 0.304864 0.000000 0.460705
O O9 0.866520 0.500000 0.704077
O O10 0.900924 0.774403 0.725675
O O11 0.768169 0.702662 0.687214
O O12 0.113667 0.500000 0.023686
O O13 0.104937 0.251203 0.104049
O O14 0.000000 0.332696 0.000000
O O15 0.915934 0.000000 0.826805
O O16 0.330944 0.500000 0.337261
#
# Coordination Sequence:
#
# PCOD8086564 Si02
#       6
#     8   8   8   8   8   8
#     4   9  18  33  51  72  97 124 158 198 238 280
#     4   9  17  30  49  71  95 126 162 197 234 280
#     4   9  18  32  49  70  96 125 157 195 237 279
#     4   9  17  30  49  71  95 125 159 194 234 283
#     4  10  19  31  50  73  96 125 159 196 237 282
#     4   9  18  33  52  72  96 126 159 198 239 279
#
# _framework density 18.161524
#
# number of rings (size 3 to 8) (size 9 to 14) (size 15 to 20)
#    0.000    2.833    0.000    2.500    0.000    6.667 
#    0.000    1.667    0.000    5.000    0.000    0.000 
#    0.000    0.000    0.000    0.000    0.000    0.000 
#
# Total GULP energy -297542.379848 kJ/mol
# GULP energy per Si atom -12397.599160 kJ/mol
# Density = 1.812019 g / cm^3
# Si number density = 18.161524 Si / 1000 Ang^3
#
#
#
# Elastic Constant Matrix: (Units=GPa)
#
#
# Indices 1 2 3 4 5 6 
#
# 1 16.2253 7.6363 -2.2338 0.0000 -1.0943 0.0000
# 2 7.6363 86.2559 23.6408 0.0000 6.4705 0.0000
# 3 -2.2338 23.6408 39.8013 0.0000 0.1968 0.0000
# 4 0.0000 0.0000 0.0000 43.2731 0.0000 2.6942
# 5 -1.0943 6.4705 0.1968 0.0000 27.1709 0.0000
# 6 0.0000 0.0000 0.0000 2.6942 0.0000 19.5955
#
#
#
# Elastic Compliance Matrix: (Units=1/GPa)
#
#
# Indices 1 2 3 4 5 6 
#
# 1 0.067314 -0.008771 0.008965 0.000000 0.004735 0.000000
# 2 -0.008771 0.015282 -0.009550 0.000000 -0.003923 0.000000
# 3 0.008965 -0.009550 0.031288 0.000000 0.002409 0.000000
# 4 0.000000 0.000000 0.000000 0.023309 0.000000 -0.003205
# 5 0.004735 -0.003923 0.002409 0.000000 0.037912 0.000000
# 6 0.000000 0.000000 0.000000 -0.003205 0.000000 0.051473
#
#
# Mechanical properties :
#
#
# Convention : Reuss Voigt Hill
#
# Bulk Modulus (GPa) = 10.50748 22.26324 16.38536
# Shear Modulus (GPa) = 18.04964 25.55717 21.80341
#
# Velocity S-wave (km/s) = 3.15594 3.75536 3.46862
# Velocity P-wave (km/s) = 4.36785 5.57572 5.00833
#
# Compressibility (1/GPa) = 0.09517032
#
# Stress axis : x y z
#
# Youngs Moduli (GPa) = 14.85579 65.43802 31.96079
#
# Poissons Ratio (x) = 0.57399 -0.28651
# Poissons Ratio (y) = 0.13031 0.30522
# Poissons Ratio (z) = -0.13318 0.62492
#
# Static dielectric constant tensor:
#      x y z
#    x 2.926990 0.000000 -0.099220 
#    y 0.000000 3.510610 0.000000 
#    z -0.099220 0.000000 3.815290 
# 
# 
# High freq. dielectric constant tensor:
#      x y z
#    x 1.652640 0.000000 -0.002860 
#    y 0.000000 1.712050 0.000000 
#    z -0.002860 0.000000 1.719620 
# 
# From -- ./inp_files/172339.got.cif
#   From: 2010.06.25/outbox.cif.g09.slc.cpg/sg12_87_cif.got.tgz:172339.got - 2010.06.28 00:19:55.
