data_PCOD8086394
_publ_section_title
;
Structure prediction by ZEFSAII (Michael W. Deem and Ramdas Pophale) SiO2 
 PCOD8086394
Probable space group: C 2/M
;
_chemical_formula_sum "Si O2"
_cell_formula_units_Z 48
_cell_length_a 15.987438
_cell_length_b 17.917784
_cell_length_c 15.021826
_cell_angle_alpha 90.000000
_cell_angle_beta 143.522799
_cell_angle_gamma 90.000000
_cell_volume 2558.231566
_symmetry_space_group_name_H-M "C 2/M"
_symmetry_group_IT_number 12
_symmetry_cell_setting 'monoclinic'
loop_
_space_group_symop_operation_xyz
x,y,z
-x,y,-z
-x,-y,-z
x,-y,z
1/2+x,1/2+y,z
1/2-x,1/2+y,-z
1/2-x,1/2-y,-z
1/2+x,1/2-y,z
loop_
_atom_site_type_symbol
_atom_site_label
_atom_site_fract_x
_atom_site_fract_y
_atom_site_fract_z
Si Si1 0.906644 0.693625 0.340051
Si Si2 0.080552 0.086260 0.772382
Si Si3 0.992480 0.334602 0.854905
Si Si4 0.269170 0.833320 0.800489
Si Si5 0.676459 0.085523 0.879174
Si Si6 0.408425 0.724871 0.644991
O O1 0.799703 0.754992 0.288310
O O2 0.822583 0.630532 0.213071
O O3 0.000000 0.658198 0.500000
O O4 0.007687 0.737559 0.361797
O O5 0.156608 0.107651 0.743711
O O6 0.939387 0.135764 0.666175
O O7 0.035791 0.000000 0.729490
O O8 0.184251 0.102549 0.944008
O O9 0.853168 0.366123 0.786675
O O10 0.962749 0.254649 0.785654
O O11 0.038763 0.394949 0.820501
O O12 0.118645 0.315549 0.027978
O O13 0.667801 0.000000 0.844670
O O14 0.250000 0.750000 0.500000
#
# Coordination Sequence:
#
# PCOD8086394 Si02
#       6
#     8   8   8   8   8   8
#     4  10  19  31  49  72  99 133 172 210 247 291
#     4   9  18  33  53  76 102 131 163 203 253 303
#     4   9  17  30  50  75 100 130 167 207 246 293
#     4   9  17  30  51  76 100 128 166 207 249 295
#     4   9  18  32  50  74 103 134 167 204 248 297
#     4  10  19  32  50  71  98 132 170 209 248 293
#
# _framework density 18.762961000000001
#
# number of rings (size 3 to 8) (size 9 to 14) (size 15 to 20)
#    0.000    2.667    0.000    2.000    0.000    5.000 
#    0.000    6.667    0.000   20.000    0.000   11.667 
#    0.000    0.000    0.000    0.000    0.000    0.000 
#
# Total GULP energy -297419.594170 kJ/mol
# GULP energy per Si atom -12392.483090 kJ/mol
# Density = 1.872026 g / cm^3
# Si number density = 18.762961 Si / 1000 Ang^3
#
#
#
# Elastic Constant Matrix: (Units=GPa)
#
#
# Indices 1 2 3 4 5 6 
#
# 1 43.4564 28.7358 29.5847 0.0004 2.8890 0.0002
# 2 28.7358 121.9355 45.1816 0.0002 8.4698 0.0001
# 3 29.5847 45.1816 61.2725 0.0006 3.0597 0.0004
# 4 0.0004 0.0002 0.0006 21.6086 0.0003 5.3765
# 5 2.8890 8.4698 3.0597 0.0003 32.5632 0.0001
# 6 0.0002 0.0001 0.0004 5.3765 0.0001 14.8563
#
#
#
# Elastic Compliance Matrix: (Units=1/GPa)
#
#
# Indices 1 2 3 4 5 6 
#
# 1 0.034959 -0.002659 -0.014868 0.000000 -0.001013 0.000000
# 2 -0.002659 0.011640 -0.007194 0.000000 -0.002116 0.000000
# 3 -0.014868 -0.007194 0.028780 0.000000 0.000486 0.000000
# 4 0.000000 0.000000 0.000000 0.050857 0.000000 -0.018405
# 5 -0.001013 -0.002116 0.000486 0.000000 0.031304 0.000000
# 6 0.000000 0.000000 0.000000 -0.018405 0.000000 0.073973
#
#
# Mechanical properties :
#
#
# Convention : Reuss Voigt Hill
#
# Bulk Modulus (GPa) = 38.55486 48.18540 43.37013
# Shear Modulus (GPa) = 17.26508 22.01643 19.64075
#
# Velocity S-wave (km/s) = 3.03672 3.42921 3.23891
# Velocity P-wave (km/s) = 5.73485 6.43554 6.09527
#
# Compressibility (1/GPa) = 0.02593707
#
# Stress axis : x y z
#
# Youngs Moduli (GPa) = 28.60455 85.90876 34.74641
#
# Poissons Ratio (x) = 0.22843 0.51662
# Poissons Ratio (y) = 0.07606 0.24996
# Poissons Ratio (z) = 0.42530 0.61801
#
# Static dielectric constant tensor:
#      x y z
#    x 3.676010 0.000000 0.004090 
#    y 0.000000 3.303270 0.000000 
#    z 0.004090 0.000000 3.420810 
# 
# 
# High freq. dielectric constant tensor:
#      x y z
#    x 1.724720 0.000000 -0.004540 
#    y 0.000000 1.705300 0.000000 
#    z -0.004540 0.000000 1.726500 
# 
# From -- ./inp_files/75111.got.cif
#   From: 2010.06.25/outbox.cif.g09.slc.cpg/sg12_38_cif.got.tgz:75111.got - 2010.06.28 00:19:55.
