data_PCOD8086541
_publ_section_title
;
Structure prediction by ZEFSAII (Michael W. Deem and Ramdas Pophale) SiO2 
 PCOD8086541
Probable space group: C 2/M
;
_chemical_formula_sum "Si O2"
_cell_formula_units_Z 52
_cell_length_a 14.210596
_cell_length_b 27.183129
_cell_length_c 11.445157
_cell_angle_alpha 90.000000
_cell_angle_beta 138.478445
_cell_angle_gamma 90.000000
_cell_volume 2930.776276
_symmetry_space_group_name_H-M "C 2/M"
_symmetry_group_IT_number 12
_symmetry_cell_setting 'monoclinic'
loop_
_space_group_symop_operation_xyz
x,y,z
-x,y,-z
-x,-y,-z
x,-y,z
1/2+x,1/2+y,z
1/2-x,1/2+y,-z
1/2-x,1/2-y,-z
1/2+x,1/2-y,z
loop_
_atom_site_type_symbol
_atom_site_label
_atom_site_fract_x
_atom_site_fract_y
_atom_site_fract_z
Si Si1 0.723628 0.785024 0.832759
Si Si2 0.819279 0.225020 0.675754
Si Si3 0.767770 0.943586 0.300847
Si Si4 0.527351 0.358150 0.892592
Si Si5 0.500000 0.880270 0.000000
Si Si6 0.929407 0.705866 0.093349
Si Si7 0.984472 0.943275 0.297409
O O1 0.706422 0.786012 0.675517
O O2 0.576654 0.794329 0.768367
O O3 0.829398 0.826753 0.979600
O O4 0.782119 0.730594 0.916311
O O5 0.750000 0.250000 0.500000
O O6 0.898099 0.174041 0.717564
O O7 0.937254 0.263354 0.832523
O O8 0.855378 0.933674 0.265067
O O9 0.866189 0.929752 0.502731
O O10 0.721669 0.000000 0.265769
O O11 0.625165 0.912287 0.171297
O O12 0.541373 0.408832 0.836983
O O13 0.500000 0.372799 0.000000
O O14 0.561121 0.848527 0.949580
O O15 0.985483 0.000000 0.257269
#
# Coordination Sequence:
#
# PCOD8086541 Si02
#       7
#     8   8   8   8   4   8   8
#     4   9  18  35  47  67 104 131 165 214 260 296
#     4  10  20  33  48  69 104 133 172 208 257 308
#     4   9  20  34  51  77 109 135 166 224 271 311
#     4   9  18  32  51  73  99 134 167 217 261 303
#     4  12  19  30  56  82 104 134 185 206 264 336
#     4  10  19  31  50  71  96 133 171 211 246 308
#     4   9  18  35  53  75 104 136 176 216 267 318
#
# _framework density 17.742739
#
# number of rings (size 3 to 8) (size 9 to 14) (size 15 to 20)
#    0.000    2.462    1.538    3.000    2.154    0.923 
#    0.000    0.000    0.000    0.000    0.000    0.000 
#    0.000   10.462    0.000    0.000    0.000    0.000 
#
# Total GULP energy -322248.517519 kJ/mol
# GULP energy per Si atom -12394.173751 kJ/mol
# Density = 1.770236 g / cm^3
# Si number density = 17.742739 Si / 1000 Ang^3
#
#
#
# Elastic Constant Matrix: (Units=GPa)
#
#
# Indices 1 2 3 4 5 6 
#
# 1 97.8342 42.7187 27.1584 0.0000 -13.8808 0.0000
# 2 42.7187 105.9078 46.8465 0.0000 -8.6350 0.0000
# 3 27.1584 46.8465 69.9591 0.0000 -11.4774 0.0000
# 4 0.0000 0.0000 0.0000 27.9347 0.0000 -8.3653
# 5 -13.8808 -8.6350 -11.4774 0.0000 24.5546 0.0000
# 6 0.0000 0.0000 0.0000 -8.3653 0.0000 29.4984
#
#
#
# Elastic Compliance Matrix: (Units=1/GPa)
#
#
# Indices 1 2 3 4 5 6 
#
# 1 0.013236 -0.004289 -0.001393 0.000000 0.005323 0.000000
# 2 -0.004289 0.014813 -0.008445 0.000000 -0.001163 0.000000
# 3 -0.001393 -0.008445 0.021524 0.000000 0.006303 0.000000
# 4 0.000000 0.000000 0.000000 0.039120 0.000000 0.011094
# 5 0.005323 -0.001163 0.006303 0.000000 0.046272 0.000000
# 6 0.000000 0.000000 0.000000 0.011094 0.000000 0.037046
#
#
# Mechanical properties :
#
#
# Convention : Reuss Voigt Hill
#
# Bulk Modulus (GPa) = 46.90593 56.34980 51.62786
# Shear Modulus (GPa) = 24.11143 26.86270 25.48707
#
# Velocity S-wave (km/s) = 3.69039 3.89525 3.79420
# Velocity P-wave (km/s) = 6.68227 7.21519 6.95384
#
# Compressibility (1/GPa) = 0.02131927
#
# Stress axis : x y z
#
# Youngs Moduli (GPa) = 75.55196 67.50995 46.45987
#
# Poissons Ratio (x) = 0.28952 0.06473
# Poissons Ratio (y) = 0.32401 0.39235
# Poissons Ratio (z) = 0.10526 0.57011
#
# Static dielectric constant tensor:
#      x y z
#    x 3.454060 0.000000 -0.010350 
#    y 0.000000 3.168200 0.000000 
#    z -0.010350 0.000000 3.030430 
# 
# 
# High freq. dielectric constant tensor:
#      x y z
#    x 1.693520 0.000000 -0.005590 
#    y 0.000000 1.678560 0.000000 
#    z -0.005590 0.000000 1.662110 
# 
# From -- ./inp_files/149331.got.cif
#   From: 2010.06.25/outbox.cif.g09.slc.cpg/sg12_75_cif.got.tgz:149331.got - 2010.06.28 00:19:55.
