data_PCOD8086551
_publ_section_title
;
Structure prediction by ZEFSAII (Michael W. Deem and Ramdas Pophale) SiO2 
 PCOD8086551
Probable space group: C 2/M
;
_chemical_formula_sum "Si O2"
_cell_formula_units_Z 56
_cell_length_a 28.585326
_cell_length_b 9.092529
_cell_length_c 11.119571
_cell_angle_alpha 90.000000
_cell_angle_beta 78.924284
_cell_angle_gamma 90.000000
_cell_volume 2836.289134
_symmetry_space_group_name_H-M "C 2/M"
_symmetry_group_IT_number 12
_symmetry_cell_setting 'monoclinic'
loop_
_space_group_symop_operation_xyz
x,y,z
-x,y,-z
-x,-y,-z
x,-y,z
1/2+x,1/2+y,z
1/2-x,1/2+y,-z
1/2-x,1/2-y,-z
1/2+x,1/2-y,z
loop_
_atom_site_type_symbol
_atom_site_label
_atom_site_fract_x
_atom_site_fract_y
_atom_site_fract_z
Si Si1 0.732166 0.828361 0.390141
Si Si2 0.946056 0.168049 0.799446
Si Si3 0.111414 0.173572 0.940347
Si Si4 0.946562 0.168709 0.530917
Si Si5 0.471313 0.164385 0.136674
Si Si6 0.811094 0.326392 0.232256
Si Si7 0.136616 0.667724 0.546753
O O1 0.750000 0.750000 0.500000
O O2 0.758264 0.747331 0.265516
O O3 0.674692 0.808903 0.418689
O O4 0.746115 0.000000 0.385884
O O5 0.925107 0.187907 0.676105
O O6 0.994231 0.263901 0.781461
O O7 0.960973 0.000000 0.817981
O O8 0.906466 0.216199 0.916778
O O9 0.075177 0.235620 0.857697
O O10 0.161853 0.254692 0.894882
O O11 0.117177 0.000000 0.920446
O O12 0.911765 0.244716 0.453066
O O13 0.000000 0.235869 0.500000
O O14 0.949077 0.000000 0.490432
O O15 0.455877 0.000000 0.184805
O O16 0.500000 0.157764 0.000000
O O17 0.805535 0.500000 0.216991
O O18 0.840038 0.283690 0.338630
O O19 0.121119 0.500000 0.562612
#
# Coordination Sequence:
#
# PCOD8086551 Si02
#       7
#     8   8   8   8   8   8   8
#     4   9  17  32  53  78 107 138 171 210 261 314
#     4   9  19  35  50  69 100 136 176 216 256 306
#     4  10  19  31  50  73 101 137 170 210 264 312
#     4  10  22  37  53  75 102 137 181 220 251 299
#     4   9  17  29  46  69  96 129 168 209 254 303
#     4  10  20  33  52  82 112 133 167 216 263 316
#     4   9  20  36  53  76 106 137 169 210 258 308
#
# _framework density 19.744109999999999
#
# number of rings (size 3 to 8) (size 9 to 14) (size 15 to 20)
#    0.000    2.571    0.000    2.571    2.000    6.571 
#    0.000    0.000    0.000    0.857    0.000    0.000 
#    0.000    0.000    0.000    0.000    0.000    0.000 
#
# Total GULP energy -347079.186295 kJ/mol
# GULP energy per Si atom -12395.685225 kJ/mol
# Density = 1.969917 g / cm^3
# Si number density = 19.744110 Si / 1000 Ang^3
#
#
#
# Elastic Constant Matrix: (Units=GPa)
#
#
# Indices 1 2 3 4 5 6 
#
# 1 59.4515 25.7795 16.4153 0.0000 -19.2047 0.0000
# 2 25.7795 90.1578 20.9874 0.0000 -13.4004 0.0000
# 3 16.4153 20.9874 59.4291 0.0000 -22.5904 0.0000
# 4 0.0000 0.0000 0.0000 21.7720 0.0000 -7.7678
# 5 -19.2047 -13.4004 -22.5904 0.0000 34.5297 0.0000
# 6 0.0000 0.0000 0.0000 -7.7678 0.0000 30.7977
#
#
#
# Elastic Compliance Matrix: (Units=1/GPa)
#
#
# Indices 1 2 3 4 5 6 
#
# 1 0.022330 -0.004726 -0.000632 0.000000 0.010172 0.000000
# 2 -0.004726 0.013253 -0.003220 0.000000 0.000408 0.000000
# 3 -0.000632 -0.003220 0.023332 0.000000 0.013663 0.000000
# 4 0.000000 0.000000 0.000000 0.050472 0.000000 0.012730
# 5 0.010172 0.000408 0.013663 0.000000 0.043715 0.000000
# 6 0.000000 0.000000 0.000000 0.012730 0.000000 0.035681
#
#
# Mechanical properties :
#
#
# Convention : Reuss Voigt Hill
#
# Bulk Modulus (GPa) = 23.94677 37.26697 30.60687
# Shear Modulus (GPa) = 22.74172 27.14363 24.94268
#
# Velocity S-wave (km/s) = 3.39753 3.71181 3.55815
# Velocity P-wave (km/s) = 5.24842 6.10623 5.69350
#
# Compressibility (1/GPa) = 0.04175928
#
# Stress axis : x y z
#
# Youngs Moduli (GPa) = 44.78255 75.45346 42.85906
#
# Poissons Ratio (x) = 0.35659 0.02711
# Poissons Ratio (y) = 0.21164 0.13799
# Poissons Ratio (z) = 0.02832 0.24294
#
# Static dielectric constant tensor:
#      x y z
#    x 3.213260 0.000000 -0.168740 
#    y 0.000000 3.662140 0.000000 
#    z -0.168740 0.000000 3.372830 
# 
# 
# High freq. dielectric constant tensor:
#      x y z
#    x 1.740650 0.000000 -0.035550 
#    y 0.000000 1.773150 0.000000 
#    z -0.035550 0.000000 1.760390 
# 
# From -- ./inp_files/186373.got.cif
#   From: 2010.06.25/outbox.cif.g09.slc.cpg/sg12_94_cif.got.tgz:186373.got - 2010.06.28 00:19:55.
