data_PCOD8086298
_publ_section_title
;
Structure prediction by ZEFSAII (Michael W. Deem and Ramdas Pophale) SiO2 
 PCOD8086298
Probable space group: C 2/M
;
_chemical_formula_sum "Si O2"
_cell_formula_units_Z 64
_cell_length_a 23.197092
_cell_length_b 9.733706
_cell_length_c 21.501723
_cell_angle_alpha 90.000000
_cell_angle_beta 55.016922
_cell_angle_gamma 90.000000
_cell_volume 3977.766964
_symmetry_space_group_name_H-M "C 2/M"
_symmetry_group_IT_number 12
_symmetry_cell_setting 'monoclinic'
loop_
_space_group_symop_operation_xyz
x,y,z
-x,y,-z
-x,-y,-z
x,-y,z
1/2+x,1/2+y,z
1/2-x,1/2+y,-z
1/2-x,1/2-y,-z
1/2+x,1/2-y,z
loop_
_atom_site_type_symbol
_atom_site_label
_atom_site_fract_x
_atom_site_fract_y
_atom_site_fract_z
Si Si1 0.580814 0.836790 0.738508
Si Si2 0.352070 0.847240 0.425427
Si Si3 0.217007 0.842579 0.841718
Si Si4 0.930421 0.842288 0.007391
Si Si5 0.718121 0.838105 0.723919
Si Si6 0.213236 0.342883 0.073820
Si Si7 0.935557 0.658125 0.885240
Si Si8 0.704935 0.651282 0.446122
O O1 0.594900 0.783473 0.659309
O O2 0.641469 0.785732 0.748118
O O3 0.505370 0.783514 0.808590
O O4 0.584776 0.000000 0.732772
O O5 0.351342 0.753882 0.487745
O O6 0.275651 0.853458 0.442195
O O7 0.375727 0.000000 0.431147
O O8 0.239912 0.744882 0.771482
O O9 0.262411 0.795814 0.873143
O O10 0.233528 0.000000 0.813705
O O11 0.134509 0.822789 0.906054
O O12 0.917959 0.747135 0.956081
O O13 0.936931 0.000000 0.981030
O O14 0.000000 0.793321 0.000000
O O15 0.776331 0.802937 0.635576
O O16 0.716658 0.000000 0.739638
O O17 0.237170 0.500000 0.047012
O O18 0.128997 0.328155 0.122630
O O19 0.250000 0.250000 0.000000
O O20 0.946618 0.500000 0.898934
O O21 0.670579 0.500000 0.466624
#
# Coordination Sequence:
#
# PCOD8086298 Si02
#       8
#     8   8   8   8   8   8   8   8
#     4   8  15  28  44  66  94 116 142 183 220 257
#     4   8  13  23  40  60  86 119 144 167 209 258
#     4  10  20  32  44  62  89 115 145 187 225 260
#     4  10  20  32  45  63  91 122 145 174 223 272
#     4   9  17  29  45  65  91 120 146 177 219 263
#     4  10  20  34  50  66  84 112 150 192 232 264
#     4  10  19  31  49  68  85 113 152 188 222 261
#     4   8  14  24  38  60  89 116 143 174 206 250
#
# _framework density 16.089428999999999
#
# number of rings (size 3 to 8) (size 9 to 14) (size 15 to 20)
#    0.000    2.875    1.250    2.250    0.000    1.750 
#    0.000    2.500    0.000    0.000    0.000    0.875 
#    0.000    7.000    0.000    0.000    0.000    0.000 
#
# Total GULP energy -396706.654754 kJ/mol
# GULP energy per Si atom -12397.082961 kJ/mol
# Density = 1.605281 g / cm^3
# Si number density = 16.089429 Si / 1000 Ang^3
#
#
#
# Elastic Constant Matrix: (Units=GPa)
#
#
# Indices 1 2 3 4 5 6 
#
# 1 62.6250 25.5954 30.5791 0.0000 18.1043 0.0003
# 2 25.5954 63.2164 56.5961 0.0001 15.6807 -0.0003
# 3 30.5791 56.5961 109.8440 0.0000 22.1046 -0.0001
# 4 0.0000 0.0001 0.0000 28.9143 0.0000 7.0541
# 5 18.1043 15.6807 22.1046 0.0000 16.8963 0.0001
# 6 0.0003 -0.0003 -0.0001 7.0541 0.0001 17.2911
#
#
#
# Elastic Compliance Matrix: (Units=1/GPa)
#
#
# Indices 1 2 3 4 5 6 
#
# 1 0.024018 -0.004217 -0.000166 0.000000 -0.021605 0.000000
# 2 -0.004217 0.031438 -0.013658 0.000000 -0.006789 0.000001
# 3 -0.000166 -0.013658 0.018461 0.000000 -0.011298 0.000000
# 4 0.000000 0.000000 0.000000 0.038408 0.000000 -0.015669
# 5 -0.021605 -0.006789 -0.011298 0.000000 0.103416 0.000000
# 6 0.000000 0.000001 0.000000 -0.015669 0.000000 0.064225
#
#
# Mechanical properties :
#
#
# Convention : Reuss Voigt Hill
#
# Bulk Modulus (GPa) = 26.43035 51.24741 38.83888
# Shear Modulus (GPa) = 15.21333 20.81466 18.01399
#
# Velocity S-wave (km/s) = 3.07831 3.60069 3.34970
# Velocity P-wave (km/s) = 5.39421 7.01479 6.25719
#
# Compressibility (1/GPa) = 0.03783529
#
# Stress axis : x y z
#
# Youngs Moduli (GPa) = 41.63462 31.80906 54.16940
#
# Poissons Ratio (x) = 0.13415 0.00898
# Poissons Ratio (y) = 0.17558 0.73983
# Poissons Ratio (z) = 0.00690 0.43444
#
# Static dielectric constant tensor:
#      x y z
#    x 2.898270 0.000000 -0.062730 
#    y 0.000000 3.072130 0.000000 
#    z -0.062730 0.000000 3.164500 
# 
# 
# High freq. dielectric constant tensor:
#      x y z
#    x 1.585460 0.000000 0.002070 
#    y 0.000000 1.609510 0.000000 
#    z 0.002070 0.000000 1.618490 
# 
# From -- ./inp_files/323679.got.cif
#   From: 2010.06.25/outbox.cif.g09.slc.cpg/sg12_162_cif.got.tgz:323679.got - 2010.06.28 00:19:55.
