data_PCOD8086961
_publ_section_title
;
Structure prediction by ZEFSAII (Michael W. Deem and Ramdas Pophale) SiO2 
 PCOD8086961
Probable space group: C 2/M
;
_chemical_formula_sum "Si O2"
_cell_formula_units_Z 56
_cell_length_a 19.742904
_cell_length_b 9.020497
_cell_length_c 30.543117
_cell_angle_alpha 90.000000
_cell_angle_beta 144.163753
_cell_angle_gamma 90.000000
_cell_volume 3184.637410
_symmetry_space_group_name_H-M "C 2/M"
_symmetry_group_IT_number 12
_symmetry_cell_setting 'monoclinic'
loop_
_space_group_symop_operation_xyz
x,y,z
-x,y,-z
-x,-y,-z
x,-y,z
1/2+x,1/2+y,z
1/2-x,1/2+y,-z
1/2-x,1/2-y,-z
1/2+x,1/2-y,z
loop_
_atom_site_type_symbol
_atom_site_label
_atom_site_fract_x
_atom_site_fract_y
_atom_site_fract_z
Si Si1 0.219025 0.324878 0.219891
Si Si2 0.019448 0.827199 0.661020
Si Si3 0.966791 0.171960 0.934331
Si Si4 0.376899 0.825467 0.662651
Si Si5 0.412673 0.676186 0.773329
Si Si6 0.630093 0.330425 0.941779
Si Si7 0.181928 0.830933 0.501182
O O1 0.205416 0.500000 0.218334
O O2 0.349227 0.277946 0.276636
O O3 0.139774 0.269159 0.138519
O O4 0.186455 0.247518 0.248490
O O5 0.963210 0.728551 0.669726
O O6 0.954355 0.799956 0.579478
O O7 0.010298 0.000000 0.669699
O O8 0.079216 0.197694 0.963355
O O9 0.928865 0.000000 0.913573
O O10 0.000000 0.226103 0.000000
O O11 0.404024 0.734335 0.719992
O O12 0.241209 0.788925 0.578912
O O13 0.396528 0.000000 0.681222
O O14 0.398138 0.500000 0.767471
O O15 0.537446 0.726020 0.857458
O O16 0.657202 0.500000 0.947511
O O17 0.750000 0.250000 0.000000
O O18 0.250000 0.750000 0.500000
O O19 0.211092 0.000000 0.508524
#
# Coordination Sequence:
#
# PCOD8086961 Si02
#       7
#     8   8   8   8   8   8   8
#     4  10  20  34  53  76 101 132 170 208 248 296
#     4   9  18  33  52  75 104 134 164 205 255 298
#     4   9  19  36  54  72  98 132 166 201 247 297
#     4  10  19  31  52  79 101 129 172 211 244 292
#     4  10  21  37  53  71 102 138 166 201 254 303
#     4   9  19  34  52  73  96 126 161 199 245 293
#     4   8  15  29  48  71 100 131 163 203 249 293
#
# _framework density 17.584419
#
# number of rings (size 3 to 8) (size 9 to 14) (size 15 to 20)
#    0.000    2.714    0.000    2.143    0.000    6.000 
#    0.000    3.571    0.000    4.286    0.000    0.000 
#    0.000    0.000    0.000    0.000    0.000    0.000 
#
# Total GULP energy -346969.296819 kJ/mol
# GULP energy per Si atom -12391.760601 kJ/mol
# Density = 1.754440 g / cm^3
# Si number density = 17.584419 Si / 1000 Ang^3
#
#
#
# Elastic Constant Matrix: (Units=GPa)
#
#
# Indices 1 2 3 4 5 6 
#
# 1 82.7736 34.1067 71.0374 0.0001 -4.1932 -0.0002
# 2 34.1067 57.0499 40.5080 0.0002 -0.4264 -0.0003
# 3 71.0374 40.5080 119.1795 0.0000 -4.9931 -0.0001
# 4 0.0001 0.0002 0.0000 27.2521 0.0000 -1.8947
# 5 -4.1932 -0.4264 -4.9931 0.0000 30.3859 0.0000
# 6 -0.0002 -0.0003 -0.0001 -1.8947 0.0000 29.0604
#
#
#
# Elastic Compliance Matrix: (Units=1/GPa)
#
#
# Indices 1 2 3 4 5 6 
#
# 1 0.026272 -0.006085 -0.013536 0.000000 0.001316 0.000000
# 2 -0.006085 0.024543 -0.004768 0.000000 -0.001279 0.000000
# 3 -0.013536 -0.004768 0.018123 0.000000 0.001043 0.000000
# 4 0.000000 0.000000 0.000000 0.036862 0.000000 0.002403
# 5 0.001316 -0.001279 0.001043 0.000000 0.033245 0.000000
# 6 0.000000 0.000000 0.000000 0.002403 0.000000 0.034568
#
#
# Mechanical properties :
#
#
# Convention : Reuss Voigt Hill
#
# Bulk Modulus (GPa) = 49.60630 61.14524 55.37577
# Shear Modulus (GPa) = 21.82343 24.89641 23.35992
#
# Velocity S-wave (km/s) = 3.52670 3.76682 3.64874
# Velocity P-wave (km/s) = 6.69739 7.33256 7.02216
#
# Compressibility (1/GPa) = 0.02015873
#
# Stress axis : x y z
#
# Youngs Moduli (GPa) = 38.06307 40.74537 55.17757
#
# Poissons Ratio (x) = 0.24795 0.74689
# Poissons Ratio (y) = 0.23163 0.26309
# Poissons Ratio (z) = 0.51523 0.19428
#
# Static dielectric constant tensor:
#      x y z
#    x 3.089380 0.000000 -0.045050 
#    y 0.000000 3.270350 0.000000 
#    z -0.045050 0.000000 3.878830 
# 
# 
# High freq. dielectric constant tensor:
#      x y z
#    x 1.656450 0.000000 -0.002280 
#    y 0.000000 1.686080 0.000000 
#    z -0.002280 0.000000 1.696020 
# 
# From -- ./inp_files/362922.got.cif
#   From: 2010.06.25/outbox.cif.g09.slc.cpg/sg12_182_cif.got.tgz:362922.got - 2010.06.28 00:19:55.
