data_PCOD8086588
_publ_section_title
;
Structure prediction by ZEFSAII (Michael W. Deem and Ramdas Pophale) SiO2 
 PCOD8086588
Probable space group: C 2/M
;
_chemical_formula_sum "Si O2"
_cell_formula_units_Z 56
_cell_length_a 29.236971
_cell_length_b 13.329533
_cell_length_c 29.099405
_cell_angle_alpha 90.000000
_cell_angle_beta 15.834761
_cell_angle_gamma 90.000000
_cell_volume 3094.408259
_symmetry_space_group_name_H-M "C 2/M"
_symmetry_group_IT_number 12
_symmetry_cell_setting 'monoclinic'
loop_
_space_group_symop_operation_xyz
x,y,z
-x,y,-z
-x,-y,-z
x,-y,z
1/2+x,1/2+y,z
1/2-x,1/2+y,-z
1/2-x,1/2-y,-z
1/2+x,1/2-y,z
loop_
_atom_site_type_symbol
_atom_site_label
_atom_site_fract_x
_atom_site_fract_y
_atom_site_fract_z
Si Si1 0.339518 0.381310 0.419669
Si Si2 0.478053 0.881523 0.786352
Si Si3 0.481929 0.381324 0.662442
Si Si4 0.573980 0.887386 0.975336
Si Si5 0.364887 0.381812 0.932025
Si Si6 0.619111 0.204165 0.025353
Si Si7 0.035225 0.111403 0.417974
O O1 0.345849 0.500000 0.406353
O O2 0.381528 0.353579 0.431700
O O3 0.482470 0.338543 0.247211
O O4 0.149214 0.339065 0.595540
O O5 0.492671 0.000000 0.771313
O O6 0.309790 0.848196 0.922722
O O7 0.478387 0.849513 0.839035
O O8 0.448716 0.500000 0.691135
O O9 0.308338 0.332464 0.844336
O O10 0.545425 0.340943 0.550591
O O11 0.500277 0.000000 0.053514
O O12 0.500000 0.838908 0.000000
O O13 0.529307 0.820399 0.063382
O O14 0.770362 0.892485 0.780086
O O15 0.374564 0.500000 0.931541
O O16 0.380897 0.324504 0.965275
O O17 0.000000 0.171531 0.500000
O O18 0.958503 0.000000 0.498558
#
# Coordination Sequence:
#
# PCOD8086588 Si02
#       7
#     8   8   8   8   8   8   8
#     4   9  18  31  47  69  99 132 163 200 243 290
#     4  10  19  31  50  74 100 132 166 198 244 298
#     4   9  16  28  45  67  98 130 162 199 239 291
#     4   9  18  31  49  73 101 126 153 195 241 293
#     4  10  21  36  49  67  99 132 168 211 247 283
#     4  11  19  31  50  71  95 133 167 202 247 292
#     4   8  14  24  40  61  90 127 155 181 226 280
#
# _framework density 18.097159000000001
#
# number of rings (size 3 to 8) (size 9 to 14) (size 15 to 20)
#    0.000    2.571    1.429    2.571    0.000    1.714 
#    0.000    4.286    0.000    0.429    0.000    0.000 
#    0.000    9.143    0.000    0.000    0.000    0.000 
#
# Total GULP energy -346874.068062 kJ/mol
# GULP energy per Si atom -12388.359574 kJ/mol
# Density = 1.805597 g / cm^3
# Si number density = 18.097159 Si / 1000 Ang^3
#
#
#
# Elastic Constant Matrix: (Units=GPa)
#
#
# Indices 1 2 3 4 5 6 
#
# 1 136.7947 51.0226 40.7250 -0.0237 15.2017 -0.0039
# 2 51.0226 34.1281 29.5760 0.2324 2.9187 -0.1179
# 3 40.7250 29.5760 94.4081 0.2971 5.9099 -0.1346
# 4 -0.0237 0.2324 0.2971 14.7959 -0.0328 2.5590
# 5 15.2017 2.9187 5.9099 -0.0328 24.1755 -0.0306
# 6 -0.0039 -0.1179 -0.1346 2.5590 -0.0306 21.0786
#
#
#
# Elastic Compliance Matrix: (Units=1/GPa)
#
#
# Indices 1 2 3 4 5 6 
#
# 1 0.018108 -0.027512 0.001331 0.000452 -0.008390 -0.000209
# 2 -0.027512 0.082101 -0.014533 -0.001106 0.010940 0.000511
# 3 0.001331 -0.014533 0.014739 -0.000075 -0.002686 0.000018
# 4 0.000452 -0.001106 -0.000075 0.069057 -0.000049 -0.008390
# 5 -0.008390 0.010940 -0.002686 -0.000049 0.045976 0.000115
# 6 -0.000209 0.000511 0.000018 -0.008390 0.000115 0.048463
#
#
# Mechanical properties :
#
#
# Convention : Reuss Voigt Hill
#
# Bulk Modulus (GPa) = 29.83251 56.44200 43.13726
# Shear Modulus (GPa) = 13.47543 21.61047 17.54295
#
# Velocity S-wave (km/s) = 2.73173 3.45938 3.11686
# Velocity P-wave (km/s) = 5.14492 6.87113 6.06970
#
# Compressibility (1/GPa) = 0.03352047
#
# Stress axis : x y z
#
# Youngs Moduli (GPa) = 55.22447 12.18013 67.84519
#
# Poissons Ratio (x) = 0.33510 -0.09031
# Poissons Ratio (y) = 1.51932 0.98601
# Poissons Ratio (z) = -0.07351 0.17702
#
# Static dielectric constant tensor:
#      x y z
#    x 3.735640 -0.000050 0.062290 
#    y -0.000050 3.099460 0.000250 
#    z 0.062290 0.000250 3.578620 
# 
# 
# High freq. dielectric constant tensor:
#      x y z
#    x 1.692870 0.000000 0.004180 
#    y 0.000000 1.662060 0.000020 
#    z 0.004180 0.000020 1.706660 
# 
# From -- ./inp_files/349725.got.cif
#   From: 2010.06.25/outbox.cif.g09.slc.cpg/sg12_175_cif.got.tgz:349725.got - 2010.06.28 00:19:55.
