data_PCOD8086655
_publ_section_title
;
Structure prediction by ZEFSAII (Michael W. Deem and Ramdas Pophale) SiO2 
 PCOD8086655
Probable space group: C 2/M
;
_chemical_formula_sum "Si O2"
_cell_formula_units_Z 64
_cell_length_a 20.366509
_cell_length_b 8.939782
_cell_length_c 23.759459
_cell_angle_alpha 90.000000
_cell_angle_beta 126.517587
_cell_angle_gamma 90.000000
_cell_volume 3476.643169
_symmetry_space_group_name_H-M "C 2/M"
_symmetry_group_IT_number 12
_symmetry_cell_setting 'monoclinic'
loop_
_space_group_symop_operation_xyz
x,y,z
-x,y,-z
-x,-y,-z
x,-y,z
1/2+x,1/2+y,z
1/2-x,1/2+y,-z
1/2-x,1/2-y,-z
1/2+x,1/2-y,z
loop_
_atom_site_type_symbol
_atom_site_label
_atom_site_fract_x
_atom_site_fract_y
_atom_site_fract_z
Si Si1 0.080609 0.674349 0.930106
Si Si2 0.351157 0.822834 0.717379
Si Si3 0.373198 0.665592 0.554769
Si Si4 0.820257 0.827398 0.925606
Si Si5 0.765428 0.333901 0.421919
Si Si6 0.484646 0.323373 0.708071
Si Si7 0.091817 0.174289 0.145763
Si Si8 0.633618 0.172270 0.831467
O O1 0.059191 0.500000 0.925748
O O2 0.115587 0.711699 0.886776
O O3 0.000895 0.771615 0.900876
O O4 0.149916 0.720449 0.009536
O O5 0.267400 0.768255 0.645574
O O6 0.431684 0.760232 0.728159
O O7 0.352516 0.765162 0.781894
O O8 0.354360 0.000000 0.717301
O O9 0.387005 0.500000 0.537237
O O10 0.300658 0.663434 0.562727
O O11 0.350617 0.770994 0.490621
O O12 0.453796 0.721603 0.629443
O O13 0.873310 0.793699 0.897886
O O14 0.726594 0.787940 0.864571
O O15 0.828568 0.000000 0.948909
O O16 0.781837 0.500000 0.407017
O O17 0.473538 0.500000 0.711592
O O18 0.578123 0.273665 0.762214
O O19 0.095161 0.000000 0.163035
O O20 0.613856 0.000000 0.808505
#
# Coordination Sequence:
#
# PCOD8086655 Si02
#       8
#     8   8   8   8   8   8   8   8
#     4  11  22  36  57  82 105 134 173 220 266 313
#     4  11  20  31  49  73 103 137 173 216 263 309
#     4   8  15  26  40  65 100 134 169 208 252 302
#     4  10  23  40  56  76 105 141 177 216 261 314
#     4   9  16  26  42  67  99 135 172 209 255 307
#     4  10  19  31  50  75 103 138 176 213 257 310
#     4  11  22  37  56  77 104 139 179 218 260 313
#     4  10  21  37  55  78 107 139 176 216 263 311
#
# _framework density 18.408562
#
# number of rings (size 3 to 8) (size 9 to 14) (size 15 to 20)
#    0.000    2.000    1.250    4.125    0.000    7.000 
#    0.000    0.000    0.000    0.000    0.000    0.875 
#    0.000    7.000    0.000    0.000    0.000    0.000 
#
# Total GULP energy -396840.597239 kJ/mol
# GULP energy per Si atom -12401.268664 kJ/mol
# Density = 1.836666 g / cm^3
# Si number density = 18.408562 Si / 1000 Ang^3
#
#
#
# Elastic Constant Matrix: (Units=GPa)
#
#
# Indices 1 2 3 4 5 6 
#
# 1 41.5660 16.6496 4.7619 0.0000 6.6227 0.0000
# 2 16.6496 98.7098 46.5461 0.0000 5.8683 0.0000
# 3 4.7619 46.5461 110.4509 0.0000 12.6394 0.0000
# 4 0.0000 0.0000 0.0000 39.5996 0.0000 3.2408
# 5 6.6227 5.8683 12.6394 0.0000 7.1178 0.0000
# 6 0.0000 0.0000 0.0000 3.2408 0.0000 17.9876
#
#
#
# Elastic Compliance Matrix: (Units=1/GPa)
#
#
# Indices 1 2 3 4 5 6 
#
# 1 0.030916 -0.005500 0.004716 0.000000 -0.032606 0.000000
# 2 -0.005500 0.013630 -0.006032 0.000000 0.004592 0.000000
# 3 0.004716 -0.006032 0.014214 0.000000 -0.024655 0.000000
# 4 0.000000 0.000000 0.000000 0.025631 0.000000 -0.004618
# 5 -0.032606 0.004592 -0.024655 0.000000 0.210825 0.000000
# 6 0.000000 0.000000 0.000000 -0.004618 0.000000 0.056426
#
#
# Mechanical properties :
#
#
# Convention : Reuss Voigt Hill
#
# Bulk Modulus (GPa) = 22.15948 42.96021 32.55985
# Shear Modulus (GPa) = 13.14697 25.12562 19.13629
#
# Velocity S-wave (km/s) = 2.67531 3.69845 3.22768
# Velocity P-wave (km/s) = 4.64831 6.45180 5.62283
#
# Compressibility (1/GPa) = 0.04512741
#
# Stress axis : x y z
#
# Youngs Moduli (GPa) = 32.34569 73.36799 70.35333
#
# Poissons Ratio (x) = 0.40354 -0.33180
# Poissons Ratio (y) = 0.17791 0.42439
# Poissons Ratio (z) = -0.15255 0.44258
#
# Static dielectric constant tensor:
#      x y z
#    x 2.984920 0.000000 0.088000 
#    y 0.000000 3.495880 0.000000 
#    z 0.088000 0.000000 3.678520 
# 
# 
# High freq. dielectric constant tensor:
#      x y z
#    x 1.661680 0.000000 0.008900 
#    y 0.000000 1.722690 0.000000 
#    z 0.008900 0.000000 1.732150 
# 
# From -- ./inp_files/346186.got.cif
#   From: 2010.06.25/outbox.cif.g09.slc.cpg/sg12_174_cif.got.tgz:346186.got - 2010.06.28 00:19:55.
