data_PCOD8086448
_publ_section_title
;
Structure prediction by ZEFSAII (Michael W. Deem and Ramdas Pophale) SiO2 
 PCOD8086448
Probable space group: C 2/M
;
_chemical_formula_sum "Si O2"
_cell_formula_units_Z 64
_cell_length_a 28.734321
_cell_length_b 14.555659
_cell_length_c 8.530564
_cell_angle_alpha 90.000000
_cell_angle_beta 80.528777
_cell_angle_gamma 90.000000
_cell_volume 3519.246569
_symmetry_space_group_name_H-M "C 2/M"
_symmetry_group_IT_number 12
_symmetry_cell_setting 'monoclinic'
loop_
_space_group_symop_operation_xyz
x,y,z
-x,y,-z
-x,-y,-z
x,-y,z
1/2+x,1/2+y,z
1/2-x,1/2+y,-z
1/2-x,1/2-y,-z
1/2+x,1/2-y,z
loop_
_atom_site_type_symbol
_atom_site_label
_atom_site_fract_x
_atom_site_fract_y
_atom_site_fract_z
Si Si1 0.945807 0.097482 0.985313
Si Si2 0.549531 0.793443 0.065829
Si Si3 0.769954 0.249042 0.748334
Si Si4 0.357948 0.399170 0.226068
Si Si5 0.495668 0.899549 0.320511
Si Si6 0.599863 0.891252 0.774916
Si Si7 0.280672 0.608359 0.014849
Si Si8 0.179409 0.727665 0.590980
O O1 0.936286 0.189549 0.892021
O O2 0.932827 0.000000 0.906253
O O3 0.913812 0.106388 0.159494
O O4 0.000000 0.094317 0.000000
O O5 0.540574 0.843126 0.234544
O O6 0.500000 0.798845 0.000000
O O7 0.592343 0.841607 0.947736
O O8 0.785568 0.162285 0.846913
O O9 0.810435 0.277180 0.600926
O O10 0.725535 0.216208 0.671373
O O11 0.759381 0.339579 0.859327
O O12 0.344558 0.500000 0.300134
O O13 0.345139 0.325664 0.364592
O O14 0.330253 0.382219 0.077899
O O15 0.500000 0.903983 0.500000
O O16 0.444603 0.859733 0.304890
O O17 0.499426 0.000000 0.240883
O O18 0.645957 0.855697 0.660766
O O19 0.604691 0.000000 0.796106
O O20 0.267351 0.500000 0.997047
#
# Coordination Sequence:
#
# PCOD8086448 Si02
#       8
#     8   8   8   8   8   8   8   8
#     4   9  16  27  47  75 102 128 164 206 244 280
#     4   9  16  29  50  72  96 129 166 199 238 285
#     4   9  20  35  53  74 101 132 160 206 257 300
#     4   9  17  31  52  74  99 132 169 206 243 292
#     4   9  18  33  49  69 100 135 168 199 240 293
#     4  10  19  31  49  74 100 128 163 204 243 288
#     4   9  18  35  55  74  98 132 169 199 242 304
#     4  10  19  34  51  75 104 127 163 209 255 298
#
# _framework density 18.185711000000001
#
# number of rings (size 3 to 8) (size 9 to 14) (size 15 to 20)
#    0.000    2.750    1.250    0.375    0.000    3.000 
#    2.250    2.500    0.000    1.875    0.000    0.000 
#    0.000    0.000    0.000    0.000    0.000    0.000 
#
# Total GULP energy -396468.670584 kJ/mol
# GULP energy per Si atom -12389.645956 kJ/mol
# Density = 1.814432 g / cm^3
# Si number density = 18.185711 Si / 1000 Ang^3
#
#
#
# Elastic Constant Matrix: (Units=GPa)
#
#
# Indices 1 2 3 4 5 6 
#
# 1 56.9567 33.7346 32.5170 0.0000 -24.3330 0.0000
# 2 33.7346 144.5672 58.2572 0.0000 -19.2490 0.0000
# 3 32.5170 58.2572 95.8125 0.0000 -23.3097 0.0000
# 4 0.0000 0.0000 0.0000 23.4660 0.0000 -5.1590
# 5 -24.3330 -19.2490 -23.3097 0.0000 26.3382 0.0000
# 6 0.0000 0.0000 0.0000 -5.1590 0.0000 24.5284
#
#
#
# Elastic Compliance Matrix: (Units=1/GPa)
#
#
# Indices 1 2 3 4 5 6 
#
# 1 0.031291 -0.002880 -0.002992 0.000000 0.024156 0.000000
# 2 -0.002880 0.009533 -0.004806 0.000000 0.000053 0.000000
# 3 -0.002992 -0.004806 0.016373 0.000000 0.008214 0.000000
# 4 0.000000 0.000000 0.000000 0.044681 0.000000 0.009398
# 5 0.024156 0.000053 0.008214 0.000000 0.067593 0.000000
# 6 0.000000 0.000000 0.000000 0.009398 0.000000 0.042746
#
#
# Mechanical properties :
#
#
# Convention : Reuss Voigt Hill
#
# Bulk Modulus (GPa) = 27.90045 60.70598 44.30321
# Shear Modulus (GPa) = 20.36502 26.38834 23.37668
#
# Velocity S-wave (km/s) = 3.35003 3.81340 3.58920
# Velocity P-wave (km/s) = 5.50807 7.26931 6.44910
#
# Compressibility (1/GPa) = 0.03584172
#
# Stress axis : x y z
#
# Youngs Moduli (GPa) = 31.95826 104.89873 61.07617
#
# Poissons Ratio (x) = 0.30208 0.18272
# Poissons Ratio (y) = 0.09203 0.29354
# Poissons Ratio (z) = 0.09561 0.50416
#
# Static dielectric constant tensor:
#      x y z
#    x 3.271530 0.000000 -0.231930 
#    y 0.000000 3.825280 0.000000 
#    z -0.231930 0.000000 3.199500 
# 
# 
# High freq. dielectric constant tensor:
#      x y z
#    x 1.689540 0.000000 -0.025220 
#    y 0.000000 1.722230 0.000000 
#    z -0.025220 0.000000 1.677350 
# 
# From -- ./inp_files/111180.got.cif
#   From: 2010.06.25/outbox.cif.g09.slc.cpg/sg12_56_cif.got.tgz:111180.got - 2010.06.28 00:19:55.
