data_PCOD8086709
_publ_section_title
;
Structure prediction by ZEFSAII (Michael W. Deem and Ramdas Pophale) SiO2 
 PCOD8086709
Probable space group: C 2/M
;
_chemical_formula_sum "Si O2"
_cell_formula_units_Z 64
_cell_length_a 22.274221
_cell_length_b 13.782921
_cell_length_c 11.319484
_cell_angle_alpha 90.000000
_cell_angle_beta 104.679350
_cell_angle_gamma 90.000000
_cell_volume 3361.693881
_symmetry_space_group_name_H-M "C 2/M"
_symmetry_group_IT_number 12
_symmetry_cell_setting 'monoclinic'
loop_
_space_group_symop_operation_xyz
x,y,z
-x,y,-z
-x,-y,-z
x,-y,z
1/2+x,1/2+y,z
1/2-x,1/2+y,-z
1/2-x,1/2-y,-z
1/2+x,1/2-y,z
loop_
_atom_site_type_symbol
_atom_site_label
_atom_site_fract_x
_atom_site_fract_y
_atom_site_fract_z
Si Si1 0.153447 0.390727 0.822913
Si Si2 0.302810 0.614899 0.274857
Si Si3 0.585460 0.704231 0.806887
Si Si4 0.666150 0.386112 0.453708
Si Si5 0.673384 0.890457 0.103281
Si Si6 0.107050 0.796275 0.085508
Si Si7 0.775227 0.115096 0.755021
Si Si8 0.459392 0.385444 0.729953
O O1 0.131366 0.500000 0.780968
O O2 0.094417 0.319123 0.784406
O O3 0.206128 0.352510 0.758176
O O4 0.183745 0.387086 0.967779
O O5 0.304449 0.500000 0.279817
O O6 0.355519 0.647633 0.211774
O O7 0.314509 0.660077 0.411345
O O8 0.235759 0.650015 0.196107
O O9 0.522570 0.664762 0.715167
O O10 0.579606 0.683828 0.942980
O O11 0.676427 0.500000 0.464474
O O12 0.708986 0.344726 0.368666
O O13 0.593905 0.362453 0.392193
O O14 0.616791 0.819744 0.111585
O O15 0.657311 0.000000 0.136897
O O16 0.174255 0.846356 0.127208
O O17 0.058673 0.839144 0.153819
O O18 0.780216 0.000000 0.761502
O O19 0.469383 0.500000 0.750962
#
# Coordination Sequence:
#
# PCOD8086709 Si02
#       8
#     8   8   8   8   8   8   8   8
#     4   9  18  33  51  72  99 129 162 201 244 291
#     4  10  19  31  50  77 105 130 159 197 244 295
#     4  11  21  31  48  74 100 130 165 201 244 290
#     4   8  17  33  50  71 100 132 164 198 236 285
#     4   9  18  32  50  73 101 130 159 197 246 294
#     4  10  19  32  49  72 101 128 162 204 242 288
#     4   9  16  29  50  71  96 130 161 196 245 291
#     4  10  21  36  52  71  98 132 167 201 239 285
#
# _framework density 19.038021000000001
#
# number of rings (size 3 to 8) (size 9 to 14) (size 15 to 20)
#    0.000    2.500    0.000    3.375    0.000    6.000 
#    0.000    8.125    0.000    3.000    0.000    1.750 
#    0.000    0.000    0.000    0.000    0.000    0.000 
#
# Total GULP energy -396729.498107 kJ/mol
# GULP energy per Si atom -12397.796816 kJ/mol
# Density = 1.899469 g / cm^3
# Si number density = 19.038021 Si / 1000 Ang^3
#
#
#
# Elastic Constant Matrix: (Units=GPa)
#
#
# Indices 1 2 3 4 5 6 
#
# 1 76.8271 50.6993 25.9408 0.0000 10.1438 0.0000
# 2 50.6993 44.8610 26.9839 0.0000 4.8292 0.0000
# 3 25.9408 26.9839 71.8478 0.0000 8.1047 0.0000
# 4 0.0000 0.0000 0.0000 15.7620 0.0000 4.0122
# 5 10.1438 4.8292 8.1047 0.0000 11.8258 0.0000
# 6 0.0000 0.0000 0.0000 4.0122 0.0000 30.8330
#
#
#
# Elastic Compliance Matrix: (Units=1/GPa)
#
#
# Indices 1 2 3 4 5 6 
#
# 1 0.059732 -0.068997 0.007530 0.000000 -0.028221 0.000000
# 2 -0.068997 0.108740 -0.019069 0.000000 0.027847 0.000000
# 3 0.007530 -0.019069 0.019737 0.000000 -0.012199 0.000000
# 4 0.000000 0.000000 0.000000 0.065617 0.000000 -0.008539
# 5 -0.028221 0.027847 -0.012199 0.000000 0.105757 0.000000
# 6 0.000000 0.000000 0.000000 -0.008539 0.000000 0.033544
#
#
# Mechanical properties :
#
#
# Convention : Reuss Voigt Hill
#
# Bulk Modulus (GPa) = 36.84949 44.53156 40.69052
# Shear Modulus (GPa) = 8.87713 17.67828 13.27771
#
# Velocity S-wave (km/s) = 2.16170 3.05056 2.64376
# Velocity P-wave (km/s) = 5.06245 5.98745 5.54427
#
# Compressibility (1/GPa) = 0.02713742
#
# Stress axis : x y z
#
# Youngs Moduli (GPa) = 16.74148 9.19625 50.66532
#
# Poissons Ratio (x) = 0.63451 -0.38153
# Poissons Ratio (y) = 1.15511 0.96615
# Poissons Ratio (z) = -0.12607 0.17537
#
# Static dielectric constant tensor:
#      x y z
#    x 3.364320 0.000000 -0.102210 
#    y 0.000000 3.602990 0.000000 
#    z -0.102210 0.000000 3.624880 
# 
# 
# High freq. dielectric constant tensor:
#      x y z
#    x 1.723880 0.000000 -0.005470 
#    y 0.000000 1.741840 0.000000 
#    z -0.005470 0.000000 1.727620 
# 
# From -- ./inp_files/167312.got.cif
#   From: 2010.06.25/outbox.cif.g09.slc.cpg/sg12_84_cif.got.tgz:167312.got - 2010.06.28 00:19:55.
