data_PCOD8086893
_publ_section_title
;
Structure prediction by ZEFSAII (Michael W. Deem and Ramdas Pophale) SiO2 
 PCOD8086893
Probable space group: C 2/M
;
_chemical_formula_sum "Si O2"
_cell_formula_units_Z 56
_cell_length_a 26.936997
_cell_length_b 9.261822
_cell_length_c 14.052372
_cell_angle_alpha 90.000000
_cell_angle_beta 121.342548
_cell_angle_gamma 90.000000
_cell_volume 2994.264327
_symmetry_space_group_name_H-M "C 2/M"
_symmetry_group_IT_number 12
_symmetry_cell_setting 'monoclinic'
loop_
_space_group_symop_operation_xyz
x,y,z
-x,y,-z
-x,-y,-z
x,-y,z
1/2+x,1/2+y,z
1/2-x,1/2+y,-z
1/2-x,1/2-y,-z
1/2+x,1/2-y,z
loop_
_atom_site_type_symbol
_atom_site_label
_atom_site_fract_x
_atom_site_fract_y
_atom_site_fract_z
Si Si1 0.081662 0.335368 0.726896
Si Si2 0.967497 0.834735 0.609755
Si Si3 0.360786 0.668357 0.836459
Si Si4 0.247008 0.830247 0.397098
Si Si5 0.135248 0.664850 0.587911
Si Si6 0.091649 0.669837 0.950703
Si Si7 0.976272 0.163904 0.838182
O O1 0.059608 0.500000 0.710762
O O2 0.133057 0.317301 0.700722
O O3 0.104961 0.287712 0.854020
O O4 0.027089 0.241303 0.637694
O O5 0.912624 0.765779 0.505155
O O6 0.956821 0.816996 0.710702
O O7 0.972192 0.000000 0.582878
O O8 0.353005 0.500000 0.850998
O O9 0.309318 0.723143 0.716909
O O10 0.421361 0.704887 0.846640
O O11 0.359442 0.755065 0.934841
O O12 0.250000 0.750000 0.500000
O O13 0.301915 0.787920 0.386826
O O14 0.243848 0.000000 0.414780
O O15 0.121811 0.500000 0.545469
O O16 0.093228 0.500000 0.969616
O O17 0.028403 0.729665 0.917002
O O18 0.997223 0.000000 0.879010
#
# Coordination Sequence:
#
# PCOD8086893 Si02
#       7
#     8   8   8   8   8   8   8
#     4   9  19  35  52  73 105 140 172 208 254 309
#     4  10  19  31  51  80 109 135 169 214 259 303
#     4  10  20  35  53  73 101 136 170 206 254 307
#     4  10  22  39  58  79 103 134 172 212 254 303
#     4  10  20  35  54  74 101 140 177 208 252 309
#     4  10  20  33  51  76 103 131 168 213 253 295
#     4   9  18  32  50  73 104 138 165 199 255 313
#
# _framework density 18.702423
#
# number of rings (size 3 to 8) (size 9 to 14) (size 15 to 20)
#    0.000    2.286    0.000    2.571    0.000    8.000 
#    0.000    0.714    0.000    0.000    0.000    0.000 
#    0.000    0.000    0.000    0.000    0.000    0.000 
#
# Total GULP energy -347235.161776 kJ/mol
# GULP energy per Si atom -12401.255778 kJ/mol
# Density = 1.865986 g / cm^3
# Si number density = 18.702423 Si / 1000 Ang^3
#
#
#
# Elastic Constant Matrix: (Units=GPa)
#
#
# Indices 1 2 3 4 5 6 
#
# 1 100.9461 46.4706 62.8079 0.0000 -14.1494 0.0000
# 2 46.4706 75.9772 61.0941 0.0000 0.0895 0.0000
# 3 62.8079 61.0941 148.4776 0.0000 1.2332 0.0000
# 4 0.0000 0.0000 0.0000 35.4653 0.0000 -1.9488
# 5 -14.1494 0.0895 1.2332 0.0000 12.7067 0.0000
# 6 0.0000 0.0000 0.0000 -1.9488 0.0000 16.8229
#
#
#
# Elastic Compliance Matrix: (Units=1/GPa)
#
#
# Indices 1 2 3 4 5 6 
#
# 1 0.020226 -0.008016 -0.005449 0.000000 0.023108 0.000000
# 2 -0.008016 0.022853 -0.005941 0.000000 -0.008511 0.000000
# 3 -0.005449 -0.005941 0.011544 0.000000 -0.007146 0.000000
# 4 0.000000 0.000000 0.000000 0.028377 0.000000 0.003287
# 5 0.023108 -0.008511 -0.007146 0.000000 0.105183 0.000000
# 6 0.000000 0.000000 0.000000 0.003287 0.000000 0.059824
#
#
# Mechanical properties :
#
#
# Convention : Reuss Voigt Hill
#
# Bulk Modulus (GPa) = 63.25669 74.01623 68.63646
# Shear Modulus (GPa) = 17.11795 23.33421 20.22608
#
# Velocity S-wave (km/s) = 3.02864 3.53605 3.29214
# Velocity P-wave (km/s) = 6.79164 7.50554 7.15750
#
# Compressibility (1/GPa) = 0.01580860
#
# Stress axis : x y z
#
# Youngs Moduli (GPa) = 49.44097 43.75864 86.62358
#
# Poissons Ratio (x) = 0.35079 0.47204
# Poissons Ratio (y) = 0.39634 0.51467
# Poissons Ratio (z) = 0.26942 0.25999
#
# Static dielectric constant tensor:
#      x y z
#    x 3.499000 0.000000 -0.198120 
#    y 0.000000 3.434600 0.000000 
#    z -0.198120 0.000000 3.533550 
# 
# 
# High freq. dielectric constant tensor:
#      x y z
#    x 1.715890 0.000000 -0.018770 
#    y 0.000000 1.723960 0.000000 
#    z -0.018770 0.000000 1.731250 
# 
# From -- ./inp_files/249284.got.cif
#   From: 2010.06.25/outbox.cif.g09.slc.cpg/sg12_125_cif.got.tgz:249284.got - 2010.06.28 00:19:55.
