data_PCOD8086716
_publ_section_title
;
Structure prediction by ZEFSAII (Michael W. Deem and Ramdas Pophale) SiO2 
 PCOD8086716
Probable space group: C 2/M
;
_chemical_formula_sum "Si O2"
_cell_formula_units_Z 64
_cell_length_a 20.803204
_cell_length_b 8.877772
_cell_length_c 23.481947
_cell_angle_alpha 90.000000
_cell_angle_beta 128.696484
_cell_angle_gamma 90.000000
_cell_volume 3384.728597
_symmetry_space_group_name_H-M "C 2/M"
_symmetry_group_IT_number 12
_symmetry_cell_setting 'monoclinic'
loop_
_space_group_symop_operation_xyz
x,y,z
-x,y,-z
-x,-y,-z
x,-y,z
1/2+x,1/2+y,z
1/2-x,1/2+y,-z
1/2-x,1/2-y,-z
1/2+x,1/2-y,z
loop_
_atom_site_type_symbol
_atom_site_label
_atom_site_fract_x
_atom_site_fract_y
_atom_site_fract_z
Si Si1 0.375930 0.670028 0.693832
Si Si2 0.778688 0.822355 0.806223
Si Si3 0.478437 0.327497 0.642974
Si Si4 0.920493 0.167772 0.493508
Si Si5 0.227075 0.822775 0.661654
Si Si6 0.625208 0.825823 0.790297
Si Si7 0.981217 0.327274 0.166034
Si Si8 0.456533 0.174800 0.919812
O O1 0.347039 0.500000 0.692423
O O2 0.401821 0.685137 0.642970
O O3 0.306330 0.792034 0.667005
O O4 0.452922 0.708187 0.775977
O O5 0.733966 0.763932 0.724853
O O6 0.718732 0.775470 0.826210
O O7 0.868951 0.752695 0.861906
O O8 0.790126 0.000000 0.808765
O O9 0.503465 0.500000 0.644664
O O10 0.445162 0.249366 0.566337
O O11 0.560019 0.251601 0.712491
O O12 0.849024 0.246516 0.416717
O O13 0.000000 0.160878 0.500000
O O14 0.888461 0.000000 0.490956
O O15 0.217393 0.000000 0.668763
O O16 0.603868 0.793803 0.845779
O O17 0.616379 0.000000 0.771624
O O18 0.008681 0.500000 0.193665
O O19 0.978286 0.301107 0.096235
O O20 0.436674 0.000000 0.917345
O O21 0.500000 0.242654 0.000000
#
# Coordination Sequence:
#
# PCOD8086716 Si02
#       8
#     8   8   8   8   8   8   8   8
#     4  10  19  31  50  77 106 135 173 223 271 312
#     4  11  22  36  55  81 112 140 176 224 271 319
#     4   9  18  33  52  75 104 139 181 226 267 312
#     4   9  18  32  49  70  98 135 179 225 271 316
#     4  11  21  33  53  76 101 138 182 222 266 322
#     4   9  19  34  54  80 108 143 181 220 267 316
#     4   9  17  34  57  78 106 143 180 213 256 316
#     4  10  21  37  59  85 110 140 179 220 261 313
#
# _framework density 18.908458
#
# number of rings (size 3 to 8) (size 9 to 14) (size 15 to 20)
#    0.000    2.250    1.250    1.875    0.000    3.250 
#    0.000    1.875    0.000    3.375    0.000    0.000 
#    0.000    0.000    0.000    0.000    0.000    0.000 
#
# Total GULP energy -396529.011496 kJ/mol
# GULP energy per Si atom -12391.531609 kJ/mol
# Density = 1.886542 g / cm^3
# Si number density = 18.908458 Si / 1000 Ang^3
#
#
#
# Elastic Constant Matrix: (Units=GPa)
#
#
# Indices 1 2 3 4 5 6 
#
# 1 130.1226 27.7239 56.2089 0.0000 -12.8255 0.0000
# 2 27.7239 39.0891 18.4287 0.0000 -4.6505 0.0000
# 3 56.2089 18.4287 96.2124 0.0000 -26.8605 0.0000
# 4 0.0000 0.0000 0.0000 25.3631 0.0000 -3.7155
# 5 -12.8255 -4.6505 -26.8605 0.0000 26.0554 0.0000
# 6 0.0000 0.0000 0.0000 -3.7155 0.0000 19.8054
#
#
#
# Elastic Compliance Matrix: (Units=1/GPa)
#
#
# Indices 1 2 3 4 5 6 
#
# 1 0.011258 -0.005347 -0.005999 0.000000 -0.001597 0.000000
# 2 -0.005347 0.030672 -0.002749 0.000000 0.000009 0.000000
# 3 -0.005999 -0.002749 0.018904 0.000000 0.016045 0.000000
# 4 0.000000 0.000000 0.000000 0.040541 0.000000 0.007606
# 5 -0.001597 0.000009 0.016045 0.000000 0.054136 0.000000
# 6 0.000000 0.000000 0.000000 0.007606 0.000000 0.051918
#
#
# Mechanical properties :
#
#
# Convention : Reuss Voigt Hill
#
# Bulk Modulus (GPa) = 30.63230 52.23857 41.43543
# Shear Modulus (GPa) = 20.28397 25.11563 22.69980
#
# Velocity S-wave (km/s) = 3.27883 3.64850 3.46860
# Velocity P-wave (km/s) = 5.52900 6.74061 6.16464
#
# Compressibility (1/GPa) = 0.03264528
#
# Stress axis : x y z
#
# Youngs Moduli (GPa) = 88.82454 32.60333 52.89818
#
# Poissons Ratio (x) = 0.17432 0.31733
# Poissons Ratio (y) = 0.47491 0.14541
# Poissons Ratio (z) = 0.53285 0.08962
#
# Static dielectric constant tensor:
#      x y z
#    x 3.870730 0.000000 -0.154380 
#    y 0.000000 3.414950 0.000000 
#    z -0.154380 0.000000 3.452160 
# 
# 
# High freq. dielectric constant tensor:
#      x y z
#    x 1.751000 0.000000 -0.013480 
#    y 0.000000 1.718830 0.000000 
#    z -0.013480 0.000000 1.714130 
# 
# From -- ./inp_files/346154.got.cif
#   From: 2010.06.25/outbox.cif.g09.slc.cpg/sg12_174_cif.got.tgz:346154.got - 2010.06.28 00:19:55.
