data_PCOD8086839
_publ_section_title
;
Structure prediction by ZEFSAII (Michael W. Deem and Ramdas Pophale) SiO2 
 PCOD8086839
Probable space group: C 2/M
;
_chemical_formula_sum "Si O2"
_cell_formula_units_Z 64
_cell_length_a 19.952266
_cell_length_b 8.938135
_cell_length_c 24.487699
_cell_angle_alpha 90.000000
_cell_angle_beta 125.469739
_cell_angle_gamma 90.000000
_cell_volume 3556.613456
_symmetry_space_group_name_H-M "C 2/M"
_symmetry_group_IT_number 12
_symmetry_cell_setting 'monoclinic'
loop_
_space_group_symop_operation_xyz
x,y,z
-x,y,-z
-x,-y,-z
x,-y,z
1/2+x,1/2+y,z
1/2-x,1/2+y,-z
1/2-x,1/2-y,-z
1/2+x,1/2-y,z
loop_
_atom_site_type_symbol
_atom_site_label
_atom_site_fract_x
_atom_site_fract_y
_atom_site_fract_z
Si Si1 0.781146 0.822925 0.324971
Si Si2 0.228914 0.323220 0.180563
Si Si3 0.366683 0.676766 0.689945
Si Si4 0.874840 0.671243 0.197902
Si Si5 0.473867 0.173050 0.656171
Si Si6 0.003198 0.673102 0.171685
Si Si7 0.452624 0.823419 0.925863
Si Si8 0.453312 0.173206 0.422860
O O1 0.754761 0.764123 0.252543
O O2 0.723062 0.746407 0.342572
O O3 0.874247 0.777008 0.380665
O O4 0.772420 0.000000 0.325497
O O5 0.226907 0.500000 0.179846
O O6 0.293542 0.269983 0.165600
O O7 0.139559 0.257512 0.122454
O O8 0.359599 0.500000 0.686455
O O9 0.399494 0.730734 0.646286
O O10 0.427664 0.728376 0.766677
O O11 0.849114 0.500000 0.193718
O O12 0.913991 0.700156 0.156599
O O13 0.940882 0.719946 0.274683
O O14 0.483074 0.206309 0.596386
O O15 0.454887 0.000000 0.659617
O O16 0.030471 0.500000 0.191663
O O17 0.997103 0.717274 0.105300
O O18 0.447066 0.000000 0.931255
O O19 0.500000 0.750949 0.000000
O O20 0.500000 0.215662 0.500000
O O21 0.425598 0.000000 0.408571
#
# Coordination Sequence:
#
# PCOD8086839 Si02
#       8
#     8   8   8   8   8   8   8   8
#     4  11  21  35  55  80 111 142 179 225 269 315
#     4  10  19  31  51  78 104 132 174 224 260 303
#     4  11  21  32  53  82 108 138 180 226 269 314
#     4   9  17  29  50  75 103 137 169 210 261 314
#     4   9  18  34  54  78 109 142 174 214 267 318
#     4   9  17  33  52  75 105 138 177 217 267 320
#     4   9  17  32  54  76 101 138 182 221 261 316
#     4  10  21  38  59  83 112 144 178 217 266 325
#
# _framework density 17.994647000000001
#
# number of rings (size 3 to 8) (size 9 to 14) (size 15 to 20)
#    0.000    2.250    2.500    2.250    0.000    3.250 
#    0.000    1.250    0.000    1.500    0.000    0.000 
#    0.000    0.000    0.000    0.000    0.000    0.000 
#
# Total GULP energy -396812.987660 kJ/mol
# GULP energy per Si atom -12400.405864 kJ/mol
# Density = 1.795369 g / cm^3
# Si number density = 17.994647 Si / 1000 Ang^3
#
#
#
# Elastic Constant Matrix: (Units=GPa)
#
#
# Indices 1 2 3 4 5 6 
#
# 1 135.7050 44.7309 59.6150 0.0000 -8.3502 0.0000
# 2 44.7309 62.0087 29.8772 0.0000 1.4990 0.0000
# 3 59.6150 29.8772 106.3560 0.0000 -11.0883 0.0000
# 4 0.0000 0.0000 0.0000 14.6812 0.0000 4.1788
# 5 -8.3502 1.4990 -11.0883 0.0000 27.4461 0.0000
# 6 0.0000 0.0000 0.0000 4.1788 0.0000 31.8346
#
#
#
# Elastic Compliance Matrix: (Units=1/GPa)
#
#
# Indices 1 2 3 4 5 6 
#
# 1 0.011509 -0.006181 -0.004504 0.000000 0.002019 0.000000
# 2 -0.006181 0.022257 -0.003247 0.000000 -0.004408 0.000000
# 3 -0.004504 -0.003247 0.013274 0.000000 0.004170 0.000000
# 4 0.000000 0.000000 0.000000 0.070758 0.000000 -0.009288
# 5 0.002019 -0.004408 0.004170 0.000000 0.038975 0.000000
# 6 0.000000 0.000000 0.000000 -0.009288 0.000000 0.032632
#
#
# Mechanical properties :
#
#
# Convention : Reuss Voigt Hill
#
# Bulk Modulus (GPa) = 52.15139 63.61286 57.88213
# Shear Modulus (GPa) = 22.35526 26.11548 24.23537
#
# Velocity S-wave (km/s) = 3.52849 3.81372 3.67387
# Velocity P-wave (km/s) = 6.75610 7.40407 7.08749
#
# Compressibility (1/GPa) = 0.01917494
#
# Stress axis : x y z
#
# Youngs Moduli (GPa) = 86.88634 44.93039 75.33458
#
# Poissons Ratio (x) = 0.27771 0.33933
# Poissons Ratio (y) = 0.53704 0.24463
# Poissons Ratio (z) = 0.39137 0.14590
#
# Static dielectric constant tensor:
#      x y z
#    x 3.528780 0.000000 -0.148860 
#    y 0.000000 3.093800 0.000000 
#    z -0.148860 0.000000 3.240450 
# 
# 
# High freq. dielectric constant tensor:
#      x y z
#    x 1.712480 0.000000 -0.009320 
#    y 0.000000 1.677610 0.000000 
#    z -0.009320 0.000000 1.667720 
# 
# From -- ./inp_files/346193.got.cif
#   From: 2010.06.25/outbox.cif.g09.slc.cpg/sg12_174_cif.got.tgz:346193.got - 2010.06.28 00:19:55.
