data_PCOD8086160
_publ_section_title
;
Structure prediction by ZEFSAII (Michael W. Deem and Ramdas Pophale) SiO2 
 PCOD8086160
Probable space group: C 2/M
;
_chemical_formula_sum "Si O2"
_cell_formula_units_Z 56
_cell_length_a 28.520889
_cell_length_b 9.410542
_cell_length_c 18.970728
_cell_angle_alpha 90.000000
_cell_angle_beta 138.229727
_cell_angle_gamma 90.000000
_cell_volume 3391.804860
_symmetry_space_group_name_H-M "C 2/M"
_symmetry_group_IT_number 12
_symmetry_cell_setting 'monoclinic'
loop_
_space_group_symop_operation_xyz
x,y,z
-x,y,-z
-x,-y,-z
x,-y,z
1/2+x,1/2+y,z
1/2-x,1/2+y,-z
1/2-x,1/2-y,-z
1/2+x,1/2-y,z
loop_
_atom_site_type_symbol
_atom_site_label
_atom_site_fract_x
_atom_site_fract_y
_atom_site_fract_z
Si Si1 0.710604 0.834540 0.692518
Si Si2 0.988130 0.163877 0.688944
Si Si3 0.646391 0.663636 0.882263
Si Si4 0.548854 0.833529 0.490852
Si Si5 0.765197 0.334719 0.625333
Si Si6 0.146789 0.837043 0.379076
Si Si7 0.735080 0.164751 0.878421
O O1 0.628772 0.792917 0.598331
O O2 0.755246 0.740530 0.688828
O O3 0.740820 0.795418 0.803066
O O4 0.721365 0.000000 0.686163
O O5 0.975874 0.256863 0.606874
O O6 0.932549 0.202083 0.687812
O O7 0.064958 0.196000 0.807047
O O8 0.979219 0.000000 0.656627
O O9 0.658502 0.500000 0.876703
O O10 0.670806 0.751817 0.841817
O O11 0.691260 0.706325 0.001714
O O12 0.500000 0.780748 0.500000
O O13 0.539590 0.000000 0.467781
O O14 0.780866 0.500000 0.654752
O O15 0.832017 0.265024 0.661252
O O16 0.695430 0.308176 0.501405
O O17 0.154225 0.000000 0.362466
O O18 0.716760 0.000000 0.866776
#
# Coordination Sequence:
#
# PCOD8086160 Si02
#       7
#     8   8   8   8   8   8   8
#     4  10  19  31  48  69  97 129 159 194 236 282
#     4  10  19  32  49  71  97 125 156 195 240 284
#     4   9  18  32  51  73  96 125 163 202 237 276
#     4  10  20  31  44  67  98 130 159 188 229 283
#     4  10  19  31  49  71  95 123 159 198 237 285
#     4   9  18  32  48  68  96 125 155 194 240 287
#     4   9  18  33  51  71  96 128 165 200 234 276
#
# _framework density 16.510383999999998
#
# number of rings (size 3 to 8) (size 9 to 14) (size 15 to 20)
#    0.000    2.429    1.429    1.286    0.000    3.714 
#    0.000    0.000    0.000    0.857    0.000    6.000 
#    0.000    0.000    0.000    0.000    0.000    0.000 
#
# Total GULP energy -347264.933515 kJ/mol
# GULP energy per Si atom -12402.319054 kJ/mol
# Density = 1.647281 g / cm^3
# Si number density = 16.510384 Si / 1000 Ang^3
#
#
#
# Elastic Constant Matrix: (Units=GPa)
#
#
# Indices 1 2 3 4 5 6 
#
# 1 143.4234 65.1472 63.9088 0.0000 -2.4418 0.0000
# 2 65.1472 61.5019 41.2967 0.0000 -4.4408 0.0000
# 3 63.9088 41.2967 80.3556 0.0000 -1.3797 0.0000
# 4 0.0000 0.0000 0.0000 20.5376 0.0000 -7.4909
# 5 -2.4418 -4.4408 -1.3797 0.0000 24.3132 0.0000
# 6 0.0000 0.0000 0.0000 -7.4909 0.0000 22.6025
#
#
#
# Elastic Compliance Matrix: (Units=1/GPa)
#
#
# Indices 1 2 3 4 5 6 
#
# 1 0.015021 -0.012142 -0.005724 0.000000 -0.001034 0.000000
# 2 -0.012142 0.035001 -0.008250 0.000000 0.004705 0.000000
# 3 -0.005724 -0.008250 0.021222 0.000000 -0.000877 0.000000
# 4 0.000000 0.000000 0.000000 0.055386 0.000000 0.018356
# 5 -0.001034 0.004705 -0.000877 0.000000 0.041836 0.000000
# 6 0.000000 0.000000 0.000000 0.018356 0.000000 0.050326
#
#
# Mechanical properties :
#
#
# Convention : Reuss Voigt Hill
#
# Bulk Modulus (GPa) = 52.60056 69.55401 61.07728
# Shear Modulus (GPa) = 18.02703 21.15255 19.58979
#
# Velocity S-wave (km/s) = 3.30792 3.58322 3.44832
# Velocity P-wave (km/s) = 6.82041 7.70313 7.27517
#
# Compressibility (1/GPa) = 0.01901121
#
# Stress axis : x y z
#
# Youngs Moduli (GPa) = 66.57513 28.57067 47.12122
#
# Poissons Ratio (x) = 0.34691 0.26972
# Poissons Ratio (y) = 0.80837 0.38875
# Poissons Ratio (z) = 0.38107 0.23571
#
# Static dielectric constant tensor:
#      x y z
#    x 3.139710 0.000000 0.082830 
#    y 0.000000 3.125540 0.000000 
#    z 0.082830 0.000000 3.082650 
# 
# 
# High freq. dielectric constant tensor:
#      x y z
#    x 1.635810 0.000000 0.002620 
#    y 0.000000 1.637810 0.000000 
#    z 0.002620 0.000000 1.618170 
# 
# From -- ./inp_files/287389.got.cif
#   From: 2010.06.25/outbox.cif.g09.slc.cpg/sg12_144_cif.got.tgz:287389.got - 2010.06.28 00:19:55.
