data_PCOD8086649
_publ_section_title
;
Structure prediction by ZEFSAII (Michael W. Deem and Ramdas Pophale) SiO2 
 PCOD8086649
Probable space group: C 2/M
;
_chemical_formula_sum "Si O2"
_cell_formula_units_Z 56
_cell_length_a 23.973719
_cell_length_b 10.197814
_cell_length_c 23.597919
_cell_angle_alpha 90.000000
_cell_angle_beta 32.465129
_cell_angle_gamma 90.000000
_cell_volume 3096.831336
_symmetry_space_group_name_H-M "C 2/M"
_symmetry_group_IT_number 12
_symmetry_cell_setting 'monoclinic'
loop_
_space_group_symop_operation_xyz
x,y,z
-x,y,-z
-x,-y,-z
x,-y,z
1/2+x,1/2+y,z
1/2-x,1/2+y,-z
1/2-x,1/2-y,-z
1/2+x,1/2-y,z
loop_
_atom_site_type_symbol
_atom_site_label
_atom_site_fract_x
_atom_site_fract_y
_atom_site_fract_z
Si Si1 0.891186 0.724435 0.432025
Si Si2 0.934394 0.345074 0.004086
Si Si3 0.335967 0.356971 0.368386
Si Si4 0.991779 0.847951 0.569696
Si Si5 0.521703 0.847452 0.809434
Si Si6 0.905363 0.355999 0.797996
Si Si7 0.799034 0.152648 0.811994
O O1 0.788506 0.638866 0.528037
O O2 0.871684 0.838676 0.402704
O O3 0.919163 0.785599 0.468352
O O4 0.985710 0.635473 0.328969
O O5 0.942490 0.500000 0.999777
O O6 0.981278 0.296440 0.904506
O O7 0.814246 0.302483 0.112065
O O8 0.000000 0.283045 0.000000
O O9 0.376737 0.500000 0.313583
O O10 0.379488 0.241411 0.291328
O O11 0.877213 0.822031 0.693129
O O12 0.000000 0.784927 0.500000
O O13 0.017135 0.000000 0.544479
O O14 0.428526 0.826727 0.844259
O O15 0.556868 0.000000 0.780591
O O16 0.852540 0.500000 0.836827
O O17 0.831351 0.241333 0.838039
O O18 0.800609 0.000000 0.829940
#
# Coordination Sequence:
#
# PCOD8086649 Si02
#       7
#     8   8   8   8   8   8   8
#     4   9  18  30  48  71 101 133 165 197 240 294
#     4   9  18  34  54  73  96 128 166 206 247 293
#     4  10  19  31  50  75 103 134 166 203 248 294
#     4   9  17  29  47  73 101 126 159 204 245 284
#     4   9  19  33  50  74  99 127 167 209 247 292
#     4   9  17  31  50  72 100 128 156 196 246 295
#     4   9  18  32  51  74  97 125 162 201 243 291
#
# _framework density 18.082999999999998
#
# number of rings (size 3 to 8) (size 9 to 14) (size 15 to 20)
#    0.000    2.857    0.000    0.857    0.000    9.143 
#    0.000    3.571    0.000   15.857    0.000    0.000 
#    0.000    0.000    0.000    0.000    0.000    0.000 
#
# Total GULP energy -347097.235082 kJ/mol
# GULP energy per Si atom -12396.329824 kJ/mol
# Density = 1.804184 g / cm^3
# Si number density = 18.083000 Si / 1000 Ang^3
#
#
#
# Elastic Constant Matrix: (Units=GPa)
#
#
# Indices 1 2 3 4 5 6 
#
# 1 143.9237 42.4923 59.5078 -0.0003 9.7495 0.0001
# 2 42.4923 79.1312 35.8806 0.0005 -1.3256 0.0004
# 3 59.5078 35.8806 69.4296 0.0000 1.9834 0.0001
# 4 -0.0003 0.0005 0.0000 13.5973 0.0001 0.0076
# 5 9.7495 -1.3256 1.9834 0.0001 34.1334 -0.0002
# 6 0.0001 0.0004 0.0001 0.0076 -0.0002 15.9607
#
#
#
# Elastic Compliance Matrix: (Units=1/GPa)
#
#
# Indices 1 2 3 4 5 6 
#
# 1 0.011297 -0.002299 -0.008414 0.000000 -0.002827 0.000000
# 2 -0.002299 0.017017 -0.006873 -0.000001 0.001717 0.000000
# 3 -0.008414 -0.006873 0.025148 0.000000 0.000675 0.000000
# 4 0.000000 -0.000001 0.000000 0.073544 0.000000 -0.000035
# 5 -0.002827 0.001717 0.000675 0.000000 0.030132 0.000000
# 6 0.000000 0.000000 0.000000 -0.000035 0.000000 0.062654
#
#
# Mechanical properties :
#
#
# Convention : Reuss Voigt Hill
#
# Bulk Modulus (GPa) = 54.67503 63.13842 58.90672
# Shear Modulus (GPa) = 19.15272 23.04520 21.09896
#
# Velocity S-wave (km/s) = 3.25800 3.57376 3.41953
# Velocity P-wave (km/s) = 6.66738 7.21254 6.94531
#
# Compressibility (1/GPa) = 0.01828989
#
# Stress axis : x y z
#
# Youngs Moduli (GPa) = 88.51693 58.76561 39.76537
#
# Poissons Ratio (x) = 0.13508 0.33459
# Poissons Ratio (y) = 0.20346 0.27331
# Poissons Ratio (z) = 0.74480 0.40390
#
# Static dielectric constant tensor:
#      x y z
#    x 3.520280 0.000000 0.055930 
#    y 0.000000 3.126020 0.000000 
#    z 0.055930 0.000000 3.269620 
# 
# 
# High freq. dielectric constant tensor:
#      x y z
#    x 1.696400 0.000000 -0.000900 
#    y 0.000000 1.677330 0.000000 
#    z -0.000900 0.000000 1.691670 
# 
# From -- ./inp_files/349146.got.cif
#   From: 2010.06.25/outbox.cif.g09.slc.cpg/sg12_175_cif.got.tgz:349146.got - 2010.06.28 00:19:55.
