data_PCOD8086225
_publ_section_title
;
Structure prediction by ZEFSAII (Michael W. Deem and Ramdas Pophale) SiO2 
 PCOD8086225
Probable space group: C 2/M
;
_chemical_formula_sum "Si O2"
_cell_formula_units_Z 64
_cell_length_a 14.174765
_cell_length_b 8.989538
_cell_length_c 29.395847
_cell_angle_alpha 90.000000
_cell_angle_beta 105.648978
_cell_angle_gamma 90.000000
_cell_volume 3606.907367
_symmetry_space_group_name_H-M "C 2/M"
_symmetry_group_IT_number 12
_symmetry_cell_setting 'monoclinic'
loop_
_space_group_symop_operation_xyz
x,y,z
-x,y,-z
-x,-y,-z
x,-y,z
1/2+x,1/2+y,z
1/2-x,1/2+y,-z
1/2-x,1/2-y,-z
1/2+x,1/2-y,z
loop_
_atom_site_type_symbol
_atom_site_label
_atom_site_fract_x
_atom_site_fract_y
_atom_site_fract_z
Si Si1 0.208976 0.822448 0.626224
Si Si2 0.658017 0.674564 0.116320
Si Si3 0.034902 0.675536 0.554143
Si Si4 0.419370 0.825690 0.625803
Si Si5 0.614888 0.176235 0.698208
Si Si6 0.547366 0.673935 0.870518
Si Si7 0.739426 0.674777 0.950323
Si Si8 0.649639 0.826375 0.804636
O O1 0.133946 0.762074 0.578824
O O2 0.315160 0.756520 0.625911
O O3 0.187479 0.759550 0.673451
O O4 0.204501 0.000000 0.626720
O O5 0.654963 0.500000 0.104827
O O6 0.555265 0.732218 0.122912
O O7 0.677264 0.761155 0.072046
O O8 0.741814 0.713745 0.163804
O O9 0.056349 0.500000 0.559833
O O10 0.000000 0.725294 0.500000
O O11 0.950778 0.723177 0.579042
O O12 0.503337 0.776544 0.672352
O O13 0.406435 0.000000 0.625865
O O14 0.639815 0.231998 0.752002
O O15 0.630071 0.000000 0.694258
O O16 0.542796 0.500000 0.860743
O O17 0.632404 0.715748 0.917145
O O18 0.567060 0.749942 0.824718
O O19 0.754679 0.500000 0.957189
O O20 0.750000 0.750000 0.000000
O O21 0.628793 0.000000 0.804280
#
# Coordination Sequence:
#
# PCOD8086225 Si02
#       8
#     8   8   8   8   8   8   8   8
#     4  10  19  31  48  71  97 125 158 199 240 276
#     4   9  18  34  52  72  99 129 160 198 241 285
#     4   9  18  34  53  70  93 128 162 192 236 293
#     4   8  16  31  48  67  96 128 156 191 237 283
#     4   9  18  34  51  69  97 131 162 193 234 286
#     4   9  19  34  51  71  99 130 158 194 244 292
#     4  10  20  34  51  72  97 128 163 200 242 289
#     4   9  18  32  52  74  96 125 162 200 235 276
#
# _framework density 17.743732000000001
#
# number of rings (size 3 to 8) (size 9 to 14) (size 15 to 20)
#    0.000    2.875    0.000    1.500    0.000    3.750 
#    0.000    7.500    0.000    0.000    0.000    0.000 
#    0.000    0.000    0.000    0.000    0.000    0.000 
#
# Total GULP energy -396793.619095 kJ/mol
# GULP energy per Si atom -12399.800597 kJ/mol
# Density = 1.770335 g / cm^3
# Si number density = 17.743732 Si / 1000 Ang^3
#
#
#
# Elastic Constant Matrix: (Units=GPa)
#
#
# Indices 1 2 3 4 5 6 
#
# 1 162.9674 39.1174 73.5569 0.0000 -16.0050 0.0000
# 2 39.1174 42.8085 43.1468 0.0000 -4.7184 0.0000
# 3 73.5569 43.1468 162.4674 0.0000 -9.3707 0.0000
# 4 0.0000 0.0000 0.0000 28.4946 0.0000 -3.7484
# 5 -16.0050 -4.7184 -9.3707 0.0000 13.1149 0.0000
# 6 0.0000 0.0000 0.0000 -3.7484 0.0000 25.9586
#
#
#
# Elastic Compliance Matrix: (Units=1/GPa)
#
#
# Indices 1 2 3 4 5 6 
#
# 1 0.009194 -0.005197 -0.002339 0.000000 0.007678 0.000000
# 2 -0.005197 0.035243 -0.006927 0.000000 0.001388 0.000000
# 3 -0.002339 -0.006927 0.009121 0.000000 0.001170 0.000000
# 4 0.000000 0.000000 0.000000 0.035774 0.000000 0.005166
# 5 0.007678 0.001388 0.001170 0.000000 0.086956 0.000000
# 6 0.000000 0.000000 0.000000 0.005166 0.000000 0.039269
#
#
# Mechanical properties :
#
#
# Convention : Reuss Voigt Hill
#
# Bulk Modulus (GPa) = 40.59720 75.54281 58.07001
# Shear Modulus (GPa) = 19.78693 27.67510 23.73102
#
# Velocity S-wave (km/s) = 3.34301 3.95360 3.66106
# Velocity P-wave (km/s) = 6.15064 7.96920 7.11823
#
# Compressibility (1/GPa) = 0.02463224
#
# Stress axis : x y z
#
# Youngs Moduli (GPa) = 108.77166 28.37458 109.63384
#
# Poissons Ratio (x) = 0.14745 0.25648
# Poissons Ratio (y) = 0.56525 0.75940
# Poissons Ratio (z) = 0.25446 0.19654
#
# Static dielectric constant tensor:
#      x y z
#    x 3.520840 0.000000 -0.037960 
#    y 0.000000 3.123480 0.000000 
#    z -0.037960 0.000000 3.384670 
# 
# 
# High freq. dielectric constant tensor:
#      x y z
#    x 1.689620 0.000000 -0.003620 
#    y 0.000000 1.672410 0.000000 
#    z -0.003620 0.000000 1.690340 
# 
# From -- ./inp_files/359812.got.cif
#   From: 2010.06.25/outbox.cif.g09.slc.cpg/sg12_180_cif.got.tgz:359812.got - 2010.06.28 00:19:55.
