data_PCOD8086547
_publ_section_title
;
Structure prediction by ZEFSAII (Michael W. Deem and Ramdas Pophale) SiO2 
 PCOD8086547
Probable space group: C 2/M
;
_chemical_formula_sum "Si O2"
_cell_formula_units_Z 40
_cell_length_a 20.672322
_cell_length_b 8.871669
_cell_length_c 19.409727
_cell_angle_alpha 90.000000
_cell_angle_beta 36.644807
_cell_angle_gamma 90.000000
_cell_volume 2124.618945
_symmetry_space_group_name_H-M "C 2/M"
_symmetry_group_IT_number 12
_symmetry_cell_setting 'monoclinic'
loop_
_space_group_symop_operation_xyz
x,y,z
-x,y,-z
-x,-y,-z
x,-y,z
1/2+x,1/2+y,z
1/2-x,1/2+y,-z
1/2-x,1/2-y,-z
1/2+x,1/2-y,z
loop_
_atom_site_type_symbol
_atom_site_label
_atom_site_fract_x
_atom_site_fract_y
_atom_site_fract_z
Si Si1 0.282442 0.179189 0.111158
Si Si2 0.303446 0.179429 0.247852
Si Si3 0.013143 0.679200 0.149527
Si Si4 0.424006 0.320867 0.504473
Si Si5 0.452297 0.678886 0.735416
O O1 0.299653 0.243816 0.173364
O O2 0.168788 0.237250 0.177773
O O3 0.283114 0.000000 0.113807
O O4 0.378375 0.239329 0.980366
O O5 0.410689 0.239874 0.193823
O O6 0.198368 0.237658 0.379577
O O7 0.304467 0.000000 0.244411
O O8 0.012748 0.500000 0.154449
O O9 0.004501 0.746115 0.232584
O O10 0.500000 0.254837 0.500000
O O11 0.428299 0.500000 0.504074
O O12 0.467890 0.265187 0.393366
O O13 0.453997 0.500000 0.741969
#
# Coordination Sequence:
#
# PCOD8086547 Si02
#       5
#     8   8   8   8   8
#     4   9  16  29  49  71  93 122 161 197 226 266
#     4   9  16  28  48  72  94 119 157 201 234 264
#     4  10  20  31  46  72 102 125 148 188 241 284
#     4   9  15  27  48  72  92 115 157 203 232 262
#     4  10  19  31  50  72  94 123 158 194 230 274
#
# _framework density 18.826906999999999
#
# number of rings (size 3 to 8) (size 9 to 14) (size 15 to 20)
#    0.000    2.600    2.000    1.200    0.000    3.200 
#    0.000    0.000    0.000    4.200    0.000    0.000 
#    0.000    0.000    0.000    0.000    0.000    0.000 
#
# Total GULP energy -247978.226748 kJ/mol
# GULP energy per Si atom -12398.911337 kJ/mol
# Density = 1.878406 g / cm^3
# Si number density = 18.826907 Si / 1000 Ang^3
#
#
#
# Elastic Constant Matrix: (Units=GPa)
#
#
# Indices 1 2 3 4 5 6 
#
# 1 115.3409 12.0536 42.3549 0.0000 15.7617 0.0000
# 2 12.0536 8.1481 10.6675 0.0000 1.9495 0.0000
# 3 42.3549 10.6675 141.4172 0.0001 11.9443 0.0000
# 4 0.0000 0.0000 0.0001 13.7020 0.0000 9.4284
# 5 15.7617 1.9495 11.9443 0.0000 35.5922 0.0000
# 6 0.0000 0.0000 0.0000 9.4284 0.0000 19.8247
#
#
#
# Elastic Compliance Matrix: (Units=1/GPa)
#
#
# Indices 1 2 3 4 5 6 
#
# 1 0.011299 -0.013119 -0.002092 0.000000 -0.003583 0.000000
# 2 -0.013119 0.152001 -0.007538 0.000000 0.000013 0.000000
# 3 -0.002092 -0.007538 0.008391 0.000000 -0.001477 0.000000
# 4 0.000000 0.000000 0.000000 0.108485 0.000000 -0.051594
# 5 -0.003583 0.000013 -0.001477 0.000000 0.030178 0.000000
# 6 0.000000 0.000000 0.000000 -0.051594 0.000000 0.074980
#
#
# Mechanical properties :
#
#
# Convention : Reuss Voigt Hill
#
# Bulk Modulus (GPa) = 7.92430 43.89534 25.90982
# Shear Modulus (GPa) = 10.57320 27.14577 18.85949
#
# Velocity S-wave (km/s) = 2.37238 3.80130 3.16845
# Velocity P-wave (km/s) = 3.42380 6.52935 5.21319
#
# Compressibility (1/GPa) = 0.12619407
#
# Stress axis : x y z
#
# Youngs Moduli (GPa) = 88.50610 6.57892 119.17389
#
# Poissons Ratio (x) = 0.08631 0.24929
# Poissons Ratio (y) = 1.16107 0.89832
# Poissons Ratio (z) = 0.18514 0.04959
#
# Static dielectric constant tensor:
#      x y z
#    x 3.583240 0.000000 -0.093410 
#    y 0.000000 2.715710 0.000000 
#    z -0.093410 0.000000 3.788050 
# 
# 
# High freq. dielectric constant tensor:
#      x y z
#    x 1.741810 0.000000 -0.000420 
#    y 0.000000 1.655700 0.000000 
#    z -0.000420 0.000000 1.751410 
# 
# From -- ./inp_files/140798.got.cif
#   From: 2010.06.25/outbox.cif.g09.slc.cpg/sg12_71_cif.got.tgz:140798.got - 2010.06.28 00:19:55.
