data_PCOD8086287
_publ_section_title
;
Structure prediction by ZEFSAII (Michael W. Deem and Ramdas Pophale) SiO2 
 PCOD8086287
Probable space group: C 2/M
;
_chemical_formula_sum "Si O2"
_cell_formula_units_Z 64
_cell_length_a 28.658680
_cell_length_b 9.332263
_cell_length_c 18.864347
_cell_angle_alpha 90.000000
_cell_angle_beta 138.383815
_cell_angle_gamma 90.000000
_cell_volume 3350.756613
_symmetry_space_group_name_H-M "C 2/M"
_symmetry_group_IT_number 12
_symmetry_cell_setting 'monoclinic'
loop_
_space_group_symop_operation_xyz
x,y,z
-x,y,-z
-x,-y,-z
x,-y,z
1/2+x,1/2+y,z
1/2-x,1/2+y,-z
1/2-x,1/2-y,-z
1/2+x,1/2-y,z
loop_
_atom_site_type_symbol
_atom_site_label
_atom_site_fract_x
_atom_site_fract_y
_atom_site_fract_z
Si Si1 0.573477 0.663505 0.618846
Si Si2 0.418443 0.830430 0.826872
Si Si3 0.842976 0.333551 0.879353
Si Si4 0.185876 0.658116 0.404606
Si Si5 0.952740 0.332882 0.118079
Si Si6 0.300827 0.167155 0.306882
Si Si7 0.389810 0.842491 0.538009
Si Si8 0.020102 0.837096 0.709168
O O1 0.500000 0.715455 0.500000
O O2 0.588286 0.500000 0.611220
O O3 0.636431 0.766423 0.667665
O O4 0.573987 0.672081 0.705065
O O5 0.402861 0.784147 0.890072
O O6 0.351183 0.774984 0.706239
O O7 0.489181 0.768498 0.871042
O O8 0.425554 0.000000 0.829893
O O9 0.823932 0.500000 0.844856
O O10 0.772733 0.242053 0.793393
O O11 0.876810 0.310251 0.995230
O O12 0.214441 0.500000 0.420295
O O13 0.250000 0.750000 0.500000
O O14 0.128104 0.654988 0.400024
O O15 0.966799 0.500000 0.149735
O O16 0.952530 0.252094 0.192675
O O17 0.321014 0.192075 0.412432
O O18 0.293170 0.000000 0.279388
O O19 0.448070 0.722185 0.593647
O O20 0.418997 0.000000 0.548968
O O21 0.008277 0.000000 0.720468
#
# Coordination Sequence:
#
# PCOD8086287 Si02
#       8
#     8   8   8   8   8   8   8   8
#     4  10  21  39  61  86 116 147 186 234 284 346
#     4   9  17  33  57  83 110 148 197 238 274 328
#     4  10  21  37  60  85 113 155 199 238 282 334
#     4  10  19  31  48  74 112 151 184 227 274 327
#     4  10  20  38  61  84 115 153 196 242 283 334
#     4  11  23  37  58  87 120 153 187 235 289 344
#     4  10  20  35  54  79 115 153 184 224 282 342
#     4  11  22  36  59  88 113 143 184 236 287 336
#
# _framework density 19.100162000000001
#
# number of rings (size 3 to 8) (size 9 to 14) (size 15 to 20)
#    0.000    1.875    2.500    1.875    0.000    4.250 
#    0.000    1.250    0.000    1.500    0.000    0.000 
#    0.000    0.000    0.000    0.000    0.000    0.000 
#
# Total GULP energy -396666.381388 kJ/mol
# GULP energy per Si atom -12395.824418 kJ/mol
# Density = 1.905669 g / cm^3
# Si number density = 19.100162 Si / 1000 Ang^3
#
#
#
# Elastic Constant Matrix: (Units=GPa)
#
#
# Indices 1 2 3 4 5 6 
#
# 1 70.7461 37.2843 35.0517 0.0000 -7.6464 0.0000
# 2 37.2843 89.5754 50.6240 0.0000 -0.3794 0.0000
# 3 35.0517 50.6240 106.8667 0.0000 -8.4390 0.0000
# 4 0.0000 0.0000 0.0000 31.4028 0.0000 0.9459
# 5 -7.6464 -0.3794 -8.4390 0.0000 23.4184 0.0000
# 6 0.0000 0.0000 0.0000 0.9459 0.0000 25.7797
#
#
#
# Elastic Compliance Matrix: (Units=1/GPa)
#
#
# Indices 1 2 3 4 5 6 
#
# 1 0.019561 -0.006455 -0.002946 0.000000 0.005221 0.000000
# 2 -0.006455 0.017510 -0.006507 0.000000 -0.004169 0.000000
# 3 -0.002946 -0.006507 0.013712 0.000000 0.003874 0.000000
# 4 0.000000 0.000000 0.000000 0.031879 0.000000 -0.001170
# 5 0.005221 -0.004169 0.003874 0.000000 0.045735 0.000000
# 6 0.000000 0.000000 0.000000 -0.001170 0.000000 0.038833
#
#
# Mechanical properties :
#
#
# Convention : Reuss Voigt Hill
#
# Bulk Modulus (GPa) = 52.72080 57.01203 54.86641
# Shear Modulus (GPa) = 24.34659 25.73539 25.04099
#
# Velocity S-wave (km/s) = 3.57414 3.67467 3.62475
# Velocity P-wave (km/s) = 6.68542 6.92228 6.80488
#
# Compressibility (1/GPa) = 0.01896785
#
# Stress axis : x y z
#
# Youngs Moduli (GPa) = 51.12309 57.10945 72.92917
#
# Poissons Ratio (x) = 0.36863 0.21483
# Poissons Ratio (y) = 0.32999 0.47454
# Poissons Ratio (z) = 0.15060 0.37160
#
# Static dielectric constant tensor:
#      x y z
#    x 3.649560 0.000000 -0.221560 
#    y 0.000000 3.395170 0.000000 
#    z -0.221560 0.000000 3.575850 
# 
# 
# High freq. dielectric constant tensor:
#      x y z
#    x 1.732870 0.000000 -0.011270 
#    y 0.000000 1.725830 0.000000 
#    z -0.011270 0.000000 1.748330 
# 
# From -- ./inp_files/295724.got.cif
#   From: 2010.06.25/outbox.cif.g09.slc.cpg/sg12_148_cif.got.tgz:295724.got - 2010.06.28 00:19:55.
