data_PCOD8086062
_publ_section_title
;
Structure prediction by ZEFSAII (Michael W. Deem and Ramdas Pophale) SiO2 
 PCOD8086062
Probable space group: C 2/M
;
_chemical_formula_sum "Si O2"
_cell_formula_units_Z 64
_cell_length_a 31.996167
_cell_length_b 15.130589
_cell_length_c 15.244731
_cell_angle_alpha 90.000000
_cell_angle_beta 151.001843
_cell_angle_gamma 90.000000
_cell_volume 3577.829008
_symmetry_space_group_name_H-M "C 2/M"
_symmetry_group_IT_number 12
_symmetry_cell_setting 'monoclinic'
loop_
_space_group_symop_operation_xyz
x,y,z
-x,y,-z
-x,-y,-z
x,-y,z
1/2+x,1/2+y,z
1/2-x,1/2+y,-z
1/2-x,1/2-y,-z
1/2+x,1/2-y,z
loop_
_atom_site_type_symbol
_atom_site_label
_atom_site_fract_x
_atom_site_fract_y
_atom_site_fract_z
Si Si1 0.814935 0.897936 0.198495
Si Si2 0.714814 0.225202 0.138771
Si Si3 0.207083 0.595877 0.372394
Si Si4 0.151154 0.897342 0.940898
Si Si5 0.039025 0.900480 0.411120
Si Si6 0.909250 0.404041 0.007847
Si Si7 0.149647 0.175962 0.468890
Si Si8 0.056169 0.690157 0.186247
O O1 0.745059 0.831710 0.110594
O O2 0.812624 0.890421 0.090458
O O3 0.907646 0.865852 0.406746
O O4 0.797109 0.000000 0.195660
O O5 0.623105 0.178286 0.993157
O O6 0.782106 0.225738 0.342993
O O7 0.705516 0.329282 0.100116
O O8 0.218419 0.500000 0.438222
O O9 0.161502 0.584617 0.196387
O O10 0.301831 0.634828 0.526337
O O11 0.150890 0.656921 0.332762
O O12 0.054579 0.855830 0.768457
O O13 0.159643 0.000000 0.990011
O O14 0.098015 0.894874 0.432427
O O15 0.013325 0.000000 0.382834
O O16 0.915022 0.500000 0.067807
O O17 0.002266 0.386493 0.135242
O O18 0.073512 0.235930 0.290375
O O19 0.000000 0.725486 0.000000
#
# Coordination Sequence:
#
# PCOD8086062 Si02
#       8
#     8   8   8   8   8   8   8   8
#     4   9  17  30  50  74  95 120 158 200 235 266
#     4  10  19  31  48  70  97 126 156 191 233 280
#     4   9  17  30  48  68  89 115 150 194 239 276
#     4  10  19  31  47  69 100 131 156 186 228 280
#     4   9  17  30  49  71  93 120 157 198 234 267
#     4   9  17  30  49  71  91 114 151 199 241 272
#     4  10  19  31  48  69  93 122 156 193 233 280
#     4  10  19  31  48  68  92 120 152 191 235 282
#
# _framework density 17.887941999999999
#
# number of rings (size 3 to 8) (size 9 to 14) (size 15 to 20)
#    0.000    2.500    0.000    3.000    0.000    6.000 
#    0.000    1.250    0.000    3.000    0.000    0.000 
#    0.000   13.000    0.000    0.000    0.000    0.000 
#
# Total GULP energy -396473.279945 kJ/mol
# GULP energy per Si atom -12389.789998 kJ/mol
# Density = 1.784723 g / cm^3
# Si number density = 17.887942 Si / 1000 Ang^3
#
#
#
# Elastic Constant Matrix: (Units=GPa)
#
#
# Indices 1 2 3 4 5 6 
#
# 1 65.7949 22.3794 20.3423 0.0000 9.3764 0.0000
# 2 22.3794 83.1858 24.9507 0.0000 -4.7169 0.0000
# 3 20.3423 24.9507 47.4939 0.0000 2.1337 0.0000
# 4 0.0000 0.0000 0.0000 13.4528 0.0000 -3.2955
# 5 9.3764 -4.7169 2.1337 0.0000 21.1443 0.0000
# 6 0.0000 0.0000 0.0000 -3.2955 0.0000 21.0765
#
#
#
# Elastic Compliance Matrix: (Units=1/GPa)
#
#
# Indices 1 2 3 4 5 6 
#
# 1 0.019685 -0.004037 -0.005905 0.000000 -0.009034 0.000000
# 2 -0.004037 0.015435 -0.006645 0.000000 0.005904 0.000000
# 3 -0.005905 -0.006645 0.027147 0.000000 -0.001603 0.000000
# 4 0.000000 0.000000 0.000000 0.077294 0.000000 0.012086
# 5 -0.009034 0.005904 -0.001603 0.000000 0.052779 0.000000
# 6 0.000000 0.000000 0.000000 0.012086 0.000000 0.049336
#
#
# Mechanical properties :
#
#
# Convention : Reuss Voigt Hill
#
# Bulk Modulus (GPa) = 34.37110 36.86883 35.61997
# Shear Modulus (GPa) = 17.57172 19.72154 18.64663
#
# Velocity S-wave (km/s) = 3.13760 3.32400 3.23215
# Velocity P-wave (km/s) = 5.69056 5.94876 5.82109
#
# Compressibility (1/GPa) = 0.02909421
#
# Stress axis : x y z
#
# Youngs Moduli (GPa) = 50.80036 64.78692 36.83612
#
# Poissons Ratio (x) = 0.26155 0.21750
# Poissons Ratio (y) = 0.20508 0.24477
# Poissons Ratio (z) = 0.29996 0.43051
#
# Static dielectric constant tensor:
#      x y z
#    x 3.296810 0.000000 0.211820 
#    y 0.000000 3.324360 0.000000 
#    z 0.211820 0.000000 3.110250 
# 
# 
# High freq. dielectric constant tensor:
#      x y z
#    x 1.694710 0.000000 0.022670 
#    y 0.000000 1.682210 0.000000 
#    z 0.022670 0.000000 1.667130 
# 
# From -- ./inp_files/251675.got.cif
#   From: 2010.06.25/outbox.cif.g09.slc.cpg/sg12_126_cif.got.tgz:251675.got - 2010.06.28 00:19:55.
