data_PCOD8086119
_publ_section_title
;
Structure prediction by ZEFSAII (Michael W. Deem and Ramdas Pophale) SiO2 
 PCOD8086119
Probable space group: C 2/M
;
_chemical_formula_sum "Si O2"
_cell_formula_units_Z 48
_cell_length_a 28.452304
_cell_length_b 8.787369
_cell_length_c 12.126687
_cell_angle_alpha 90.000000
_cell_angle_beta 70.221715
_cell_angle_gamma 90.000000
_cell_volume 2853.069082
_symmetry_space_group_name_H-M "C 2/M"
_symmetry_group_IT_number 12
_symmetry_cell_setting 'monoclinic'
loop_
_space_group_symop_operation_xyz
x,y,z
-x,y,-z
-x,-y,-z
x,-y,z
1/2+x,1/2+y,z
1/2-x,1/2+y,-z
1/2-x,1/2-y,-z
1/2+x,1/2-y,z
loop_
_atom_site_type_symbol
_atom_site_label
_atom_site_fract_x
_atom_site_fract_y
_atom_site_fract_z
Si Si1 0.021152 0.169144 0.606291
Si Si2 0.221080 0.820858 0.421761
Si Si3 0.083991 0.823642 0.264756
Si Si4 0.252010 0.324649 0.176701
Si Si5 0.615998 0.822354 0.463711
Si Si6 0.679116 0.674010 0.068430
O O1 0.068617 0.280037 0.579175
O O2 0.000000 0.171130 0.500000
O O3 0.973483 0.222857 0.719008
O O4 0.038779 0.000000 0.626092
O O5 0.250000 0.750000 0.500000
O O6 0.249947 0.776891 0.286968
O O7 0.164520 0.762947 0.468916
O O8 0.220850 0.000000 0.433882
O O9 0.105913 0.723619 0.346122
O O10 0.119443 0.799969 0.129737
O O11 0.084269 0.000000 0.303781
O O12 0.246755 0.500000 0.216045
O O13 0.206979 0.285262 0.130205
O O14 0.304308 0.292604 0.070728
O O15 0.625951 0.000000 0.463201
O O16 0.693462 0.500000 0.087777
#
# Coordination Sequence:
#
# PCOD8086119 Si02
#       6
#     8   8   8   8   8   8
#     4   8  15  27  43  64  93 128 162 193 233 284
#     4  12  24  38  53  69  93 127 166 205 246 289
#     4   9  16  28  46  69  97 132 164 192 233 284
#     4  10  19  31  47  72  99 127 164 200 239 286
#     4  11  20  30  45  68  96 126 160 200 243 287
#     4   9  17  29  48  71 100 134 162 194 236 285
#
# _framework density 16.823988
#
# number of rings (size 3 to 8) (size 9 to 14) (size 15 to 20)
#    0.000    2.167    1.667    4.500    0.000    3.667 
#    0.000    0.000    0.000    0.000    0.000    1.167 
#    0.000    9.333    0.000    0.000    0.000    0.000 
#
# Total GULP energy -297461.413594 kJ/mol
# GULP energy per Si atom -12394.225566 kJ/mol
# Density = 1.678570 g / cm^3
# Si number density = 16.823988 Si / 1000 Ang^3
#
#
#
# Elastic Constant Matrix: (Units=GPa)
#
#
# Indices 1 2 3 4 5 6 
#
# 1 102.1004 48.2335 69.0979 0.0000 -31.2510 0.0000
# 2 48.2335 111.4116 39.9000 0.0000 -6.3382 0.0000
# 3 69.0979 39.9000 83.9603 0.0000 -26.3234 0.0000
# 4 0.0000 0.0000 0.0000 22.0000 0.0000 -1.8376
# 5 -31.2510 -6.3382 -26.3234 0.0000 36.7806 0.0000
# 6 0.0000 0.0000 0.0000 -1.8376 0.0000 24.6874
#
#
#
# Elastic Compliance Matrix: (Units=1/GPa)
#
#
# Indices 1 2 3 4 5 6 
#
# 1 0.025865 -0.004959 -0.015868 0.000000 0.009765 0.000000
# 2 -0.004959 0.011926 -0.002917 0.000000 -0.004247 0.000000
# 3 -0.015868 -0.002917 0.028328 0.000000 0.006289 0.000000
# 4 0.000000 0.000000 0.000000 0.045739 0.000000 0.003404
# 5 0.009765 -0.004247 0.006289 0.000000 0.039254 0.000000
# 6 0.000000 0.000000 0.000000 0.003404 0.000000 0.040760
#
#
# Mechanical properties :
#
#
# Convention : Reuss Voigt Hill
#
# Bulk Modulus (GPa) = 53.68016 67.99280 60.83648
# Shear Modulus (GPa) = 20.36070 26.04299 23.20185
#
# Velocity S-wave (km/s) = 3.48259 3.93869 3.71764
# Velocity P-wave (km/s) = 6.93884 7.82217 7.39371
#
# Compressibility (1/GPa) = 0.01862886
#
# Stress axis : x y z
#
# Youngs Moduli (GPa) = 38.66222 83.85010 35.30128
#
# Poissons Ratio (x) = 0.41584 0.56016
# Poissons Ratio (y) = 0.19174 0.10299
# Poissons Ratio (z) = 0.61349 0.24463
#
# Static dielectric constant tensor:
#      x y z
#    x 3.873880 0.000000 -0.182530 
#    y 0.000000 3.254050 0.000000 
#    z -0.182530 0.000000 3.546270 
# 
# 
# High freq. dielectric constant tensor:
#      x y z
#    x 1.631770 0.000000 -0.050320 
#    y 0.000000 1.654820 0.000000 
#    z -0.050320 0.000000 1.618920 
# 
# From -- ./inp_files/179225.got.cif
#   From: 2010.06.25/outbox.cif.g09.slc.cpg/sg12_90_cif.got.tgz:179225.got - 2010.06.28 00:19:55.
