data_PCOD8086022
_publ_section_title
;
Structure prediction by ZEFSAII (Michael W. Deem and Ramdas Pophale) SiO2 
 PCOD8086022
Probable space group: C 2/M
;
_chemical_formula_sum "Si O2"
_cell_formula_units_Z 48
_cell_length_a 9.449598
_cell_length_b 18.779022
_cell_length_c 18.262627
_cell_angle_alpha 90.000000
_cell_angle_beta 58.840137
_cell_angle_gamma 90.000000
_cell_volume 2773.222773
_symmetry_space_group_name_H-M "C 2/M"
_symmetry_group_IT_number 12
_symmetry_cell_setting 'monoclinic'
loop_
_space_group_symop_operation_xyz
x,y,z
-x,y,-z
-x,-y,-z
x,-y,z
1/2+x,1/2+y,z
1/2-x,1/2+y,-z
1/2-x,1/2-y,-z
1/2+x,1/2-y,z
loop_
_atom_site_type_symbol
_atom_site_label
_atom_site_fract_x
_atom_site_fract_y
_atom_site_fract_z
Si Si1 0.159176 0.914934 0.000000
Si Si2 0.677075 0.079089 0.654941
Si Si3 0.168720 0.823449 0.500000
Si Si4 0.998988 0.415272 0.843227
Si Si5 0.513043 0.420911 0.654941
Si Si6 0.185442 0.915272 0.156773
O O1 0.153331 0.884899 0.084333
O O2 0.160507 0.000000 0.000000
O O3 0.321996 0.884899 0.915668
O O4 0.000000 0.885246 0.000000
O O5 0.695296 0.133374 0.583132
O O6 0.535937 0.107098 0.749048
O O7 0.847197 0.073664 0.652803
O O8 0.632466 0.000000 0.636885
O O9 0.250000 0.750000 0.500000
O O10 0.138440 0.866627 0.583132
O O11 0.000000 0.811458 0.500000
O O12 0.001056 0.500000 0.847523
O O13 0.140356 0.384648 0.859645
O O14 0.593764 0.500000 0.636885
O O15 0.465968 0.392902 0.749047
O O16 0.196100 0.000000 0.152478
#
# Coordination Sequence:
#
# PCOD8086022 Si02
#       6
#     8   8   8   8   8   8
#     4   9  15  21  31  53  86 117 138 161 205 261
#     4   8  14  26  46  68  86 111 151 190 216 245
#     4  10  19  31  47  67  91 116 144 180 222 266
#     4   8  13  22  37  57  80 107 141 178 211 243
#     4   8  14  26  46  68  86 111 151 190 216 245
#     4   8  13  22  37  57  80 107 141 178 211 243
#
# _framework density 17.308382000000002
#
# number of rings (size 3 to 8) (size 9 to 14) (size 15 to 20)
#    0.000    3.500    0.000    3.000    0.000    4.000 
#    0.000    1.667    0.000    4.000    0.000    1.167 
#    0.000    0.000    0.000    0.000    0.000    0.000 
#
# Total GULP energy -297409.515099 kJ/mol
# GULP energy per Si atom -12392.063129 kJ/mol
# Density = 1.726899 g / cm^3
# Si number density = 17.308382 Si / 1000 Ang^3
#
#
#
# Elastic Constant Matrix: (Units=GPa)
#
#
# Indices 1 2 3 4 5 6 
#
# 1 71.2087 26.9516 66.8017 0.0000 0.0001 0.0000
# 2 26.9516 58.1882 57.9886 0.0000 0.0001 0.0000
# 3 66.8017 57.9886 194.6051 0.0000 0.0002 0.0000
# 4 0.0000 0.0000 0.0000 2.3954 0.0000 0.0000
# 5 0.0001 0.0001 0.0002 0.0000 12.5165 0.0000
# 6 0.0000 0.0000 0.0000 0.0000 0.0000 15.9050
#
#
#
# Elastic Compliance Matrix: (Units=1/GPa)
#
#
# Indices 1 2 3 4 5 6 
#
# 1 0.021248 -0.003660 -0.006203 0.000000 0.000000 0.000000
# 2 -0.003660 0.025075 -0.006216 0.000000 0.000000 0.000000
# 3 -0.006203 -0.006216 0.009120 0.000000 0.000000 0.000000
# 4 0.000000 0.000000 0.000000 0.417460 0.000000 0.000001
# 5 0.000000 0.000000 0.000000 0.000000 0.079895 0.000000
# 6 0.000000 0.000000 0.000000 0.000001 0.000000 0.062873
#
#
# Mechanical properties :
#
#
# Convention : Reuss Voigt Hill
#
# Bulk Modulus (GPa) = 42.94446 69.72065 56.33255
# Shear Modulus (GPa) = 7.62673 17.64739 12.63706
#
# Velocity S-wave (km/s) = 2.10141 3.19656 2.70499
# Velocity P-wave (km/s) = 5.54555 7.34798 6.50946
#
# Compressibility (1/GPa) = 0.02328589
#
# Stress axis : x y z
#
# Youngs Moduli (GPa) = 47.06424 39.88035 109.64812
#
# Poissons Ratio (x) = 0.14595 0.68016
# Poissons Ratio (y) = 0.17224 0.68153
# Poissons Ratio (z) = 0.29194 0.24788
#
# Static dielectric constant tensor:
#      x y z
#    x 3.005840 0.000000 0.000000 
#    y 0.000000 2.745790 0.000000 
#    z 0.000000 0.000000 3.832990 
# 
# 
# High freq. dielectric constant tensor:
#      x y z
#    x 1.631510 0.000000 0.000000 
#    y 0.000000 1.604890 0.000000 
#    z 0.000000 0.000000 1.692490 
# 
# From -- ./inp_files/229259.got.cif
#   From: 2010.06.25/outbox.cif.g09.slc.cpg/sg12_115_cif.got.tgz:229259.got - 2010.06.28 00:19:55.
