data_PCOD8086926
_publ_section_title
;
Structure prediction by ZEFSAII (Michael W. Deem and Ramdas Pophale) SiO2 
 PCOD8086926
Probable space group: C 2/M
;
_chemical_formula_sum "Si O2"
_cell_formula_units_Z 64
_cell_length_a 24.170895
_cell_length_b 8.681246
_cell_length_c 16.267838
_cell_angle_alpha 90.000000
_cell_angle_beta 91.830335
_cell_angle_gamma 90.000000
_cell_volume 3411.795529
_symmetry_space_group_name_H-M "C 2/M"
_symmetry_group_IT_number 12
_symmetry_cell_setting 'monoclinic'
loop_
_space_group_symop_operation_xyz
x,y,z
-x,y,-z
-x,-y,-z
x,-y,z
1/2+x,1/2+y,z
1/2-x,1/2+y,-z
1/2-x,1/2-y,-z
1/2+x,1/2-y,z
loop_
_atom_site_type_symbol
_atom_site_label
_atom_site_fract_x
_atom_site_fract_y
_atom_site_fract_z
Si Si1 0.715844 0.179332 0.111366
Si Si2 0.828472 0.678018 0.063209
Si Si3 0.600225 0.678241 0.544475
Si Si4 0.887991 0.822008 0.202379
Si Si5 0.694134 0.320674 0.278210
Si Si6 0.404144 0.178197 0.629515
Si Si7 0.486588 0.676158 0.316896
Si Si8 0.315651 0.820910 0.336212
O O1 0.771125 0.278601 0.104673
O O2 0.685523 0.225163 0.193910
O O3 0.732152 0.000000 0.111934
O O4 0.674355 0.216539 0.033822
O O5 0.840297 0.500000 0.079437
O O6 0.878700 0.775034 0.106713
O O7 0.602160 0.500000 0.519218
O O8 0.586952 0.780052 0.464884
O O9 0.551790 0.712562 0.606818
O O10 0.658991 0.724646 0.586942
O O11 0.951288 0.790416 0.232463
O O12 0.845712 0.719709 0.252740
O O13 0.873497 0.000000 0.217566
O O14 0.692579 0.500000 0.256049
O O15 0.645484 0.279631 0.337918
O O16 0.751424 0.275929 0.325281
O O17 0.460450 0.213855 0.681552
O O18 0.389471 0.000000 0.638789
O O19 0.507030 0.500000 0.320910
O O20 0.323872 0.000000 0.355686
#
# Coordination Sequence:
#
# PCOD8086926 Si02
#       8
#     8   8   8   8   8   8   8   8
#     4  10  20  33  52  79 113 147 182 222 265 319
#     4  10  19  31  51  82 115 146 179 220 268 318
#     4  10  21  38  60  82 108 141 177 225 278 324
#     4  10  19  32  55  83 112 145 178 223 274 322
#     4  11  23  38  56  77 110 150 183 222 272 327
#     4  12  25  38  56  80 106 143 186 227 272 323
#     4   9  20  38  58  81 108 140 180 226 276 321
#     4  10  20  34  54  81 110 141 180 223 272 325
#
# _framework density 18.758451000000001
#
# number of rings (size 3 to 8) (size 9 to 14) (size 15 to 20)
#    0.000    1.750    1.250    4.500    0.000    8.000 
#    0.000    0.000    0.000    0.750    0.000    5.250 
#    0.000    0.000    0.000    0.000    0.000    0.000 
#
# Total GULP energy -396912.585910 kJ/mol
# GULP energy per Si atom -12403.518310 kJ/mol
# Density = 1.871576 g / cm^3
# Si number density = 18.758451 Si / 1000 Ang^3
#
#
#
# Elastic Constant Matrix: (Units=GPa)
#
#
# Indices 1 2 3 4 5 6 
#
# 1 95.9613 30.9773 29.4967 0.0000 19.6365 0.0000
# 2 30.9773 50.5556 22.3947 0.0000 9.8070 0.0000
# 3 29.4967 22.3947 52.4039 0.0000 26.4894 0.0000
# 4 0.0000 0.0000 0.0000 33.2087 0.0000 3.9753
# 5 19.6365 9.8070 26.4894 0.0000 27.2085 0.0000
# 6 0.0000 0.0000 0.0000 3.9753 0.0000 28.7012
#
#
#
# Elastic Compliance Matrix: (Units=1/GPa)
#
#
# Indices 1 2 3 4 5 6 
#
# 1 0.014493 -0.006707 -0.002415 0.000000 -0.005691 0.000000
# 2 -0.006707 0.027602 -0.010708 0.000000 0.005316 0.000000
# 3 -0.002415 -0.010708 0.043684 0.000000 -0.036927 0.000000
# 4 0.000000 0.000000 0.000000 0.030620 0.000000 -0.004241
# 5 -0.005691 0.005316 -0.036927 0.000000 0.074896 0.000000
# 6 0.000000 0.000000 0.000000 -0.004241 0.000000 0.035429
#
#
# Mechanical properties :
#
#
# Convention : Reuss Voigt Hill
#
# Bulk Modulus (GPa) = 21.68266 40.51759 31.10012
# Shear Modulus (GPa) = 17.74596 25.56050 21.65323
#
# Velocity S-wave (km/s) = 3.07909 3.69536 3.40121
# Velocity P-wave (km/s) = 4.92189 6.31301 5.66035
#
# Compressibility (1/GPa) = 0.04611981
#
# Stress axis : x y z
#
# Youngs Moduli (GPa) = 69.00058 36.22978 22.89184
#
# Poissons Ratio (x) = 0.24298 0.05527
# Poissons Ratio (y) = 0.46276 0.24512
# Poissons Ratio (z) = 0.16660 0.38795
#
# Static dielectric constant tensor:
#      x y z
#    x 3.294940 0.000000 0.324900 
#    y 0.000000 3.454040 0.000000 
#    z 0.324900 0.000000 3.484380 
# 
# 
# High freq. dielectric constant tensor:
#      x y z
#    x 1.706990 0.000000 0.029250 
#    y 0.000000 1.739320 0.000000 
#    z 0.029250 0.000000 1.723420 
# 
# From -- ./inp_files/238703.got.cif
#   From: 2010.06.25/outbox.cif.g09.slc.cpg/sg12_120_cif.got.tgz:238703.got - 2010.06.28 00:19:55.
