data_PCOD8086624
_publ_section_title
;
Structure prediction by ZEFSAII (Michael W. Deem and Ramdas Pophale) SiO2 
 PCOD8086624
Probable space group: C 2/M
;
_chemical_formula_sum "Si O2"
_cell_formula_units_Z 56
_cell_length_a 19.108415
_cell_length_b 9.180588
_cell_length_c 18.599621
_cell_angle_alpha 90.000000
_cell_angle_beta 115.224380
_cell_angle_gamma 90.000000
_cell_volume 2951.738141
_symmetry_space_group_name_H-M "C 2/M"
_symmetry_group_IT_number 12
_symmetry_cell_setting 'monoclinic'
loop_
_space_group_symop_operation_xyz
x,y,z
-x,y,-z
-x,-y,-z
x,-y,z
1/2+x,1/2+y,z
1/2-x,1/2+y,-z
1/2-x,1/2-y,-z
1/2+x,1/2-y,z
loop_
_atom_site_type_symbol
_atom_site_label
_atom_site_fract_x
_atom_site_fract_y
_atom_site_fract_z
Si Si1 0.916350 0.834423 0.477001
Si Si2 0.403749 0.832714 0.731447
Si Si3 0.279392 0.668150 0.082306
Si Si4 0.156954 0.334263 0.676543
Si Si5 0.180008 0.831690 0.430071
Si Si6 0.077762 0.669379 0.786095
Si Si7 0.790376 0.663022 0.801366
O O1 0.854314 0.752279 0.401603
O O2 0.894373 0.821617 0.550623
O O3 0.000000 0.762090 0.500000
O O4 0.917246 0.000000 0.450489
O O5 0.344895 0.742661 0.655396
O O6 0.491581 0.774126 0.767009
O O7 0.375023 0.818947 0.802056
O O8 0.401850 0.000000 0.704176
O O9 0.294035 0.500000 0.069968
O O10 0.360696 0.735535 0.143252
O O11 0.211914 0.685134 0.113404
O O12 0.250000 0.750000 0.000000
O O13 0.163395 0.500000 0.656667
O O14 0.089547 0.307850 0.705773
O O15 0.237621 0.286112 0.744482
O O16 0.250000 0.750000 0.500000
O O17 0.203170 0.000000 0.426300
O O18 0.089162 0.500000 0.812240
O O19 0.758399 0.500000 0.770011
#
# Coordination Sequence:
#
# PCOD8086624 Si02
#       7
#     8   8   8   8   8   8   8
#     4  10  21  35  49  67  95 133 175 217 260 306
#     4  10  20  36  56  77 104 137 175 218 261 308
#     4  10  20  36  59  84 109 137 170 207 249 303
#     4  10  19  31  50  75 100 129 169 216 261 304
#     4  11  23  36  51  73 103 140 180 222 267 312
#     4   9  19  35  55  80 108 137 170 212 262 311
#     4   9  19  35  55  77 101 134 171 204 246 304
#
# _framework density 18.971872999999999
#
# number of rings (size 3 to 8) (size 9 to 14) (size 15 to 20)
#    0.000    2.143    0.000    3.000    0.000    7.143 
#    0.000    0.714    0.000    4.286    0.000    0.000 
#    0.000    0.000    0.000    0.000    0.000    0.000 
#
# Total GULP energy -347144.508532 kJ/mol
# GULP energy per Si atom -12398.018162 kJ/mol
# Density = 1.892869 g / cm^3
# Si number density = 18.971873 Si / 1000 Ang^3
#
#
#
# Elastic Constant Matrix: (Units=GPa)
#
#
# Indices 1 2 3 4 5 6 
#
# 1 113.4253 32.0309 30.8843 0.0000 -7.3950 0.0000
# 2 32.0309 89.7008 46.1985 0.0000 -3.6495 0.0000
# 3 30.8843 46.1985 91.0382 0.0000 -11.3545 0.0000
# 4 0.0000 0.0000 0.0000 32.4785 0.0000 -0.0562
# 5 -7.3950 -3.6495 -11.3545 0.0000 23.2941 0.0000
# 6 0.0000 0.0000 0.0000 -0.0562 0.0000 24.2520
#
#
#
# Elastic Compliance Matrix: (Units=1/GPa)
#
#
# Indices 1 2 3 4 5 6 
#
# 1 0.010188 -0.002576 -0.001912 0.000000 0.001899 0.000000
# 2 -0.002576 0.015791 -0.007382 0.000000 -0.001942 0.000000
# 3 -0.001912 -0.007382 0.016140 0.000000 0.006104 0.000000
# 4 0.000000 0.000000 0.000000 0.030790 0.000000 0.000071
# 5 0.001899 -0.001942 0.006104 0.000000 0.046203 0.000000
# 6 0.000000 0.000000 0.000000 0.000071 0.000000 0.041234
#
#
# Mechanical properties :
#
#
# Convention : Reuss Voigt Hill
#
# Bulk Modulus (GPa) = 54.40783 56.93242 55.67012
# Shear Modulus (GPa) = 26.28646 28.34164 27.31405
#
# Velocity S-wave (km/s) = 3.72633 3.86926 3.79847
# Velocity P-wave (km/s) = 6.87419 7.07358 6.97460
#
# Compressibility (1/GPa) = 0.01837971
#
# Stress axis : x y z
#
# Youngs Moduli (GPa) = 98.15172 63.32844 61.95682
#
# Poissons Ratio (x) = 0.16313 0.11848
# Poissons Ratio (y) = 0.25283 0.45733
# Poissons Ratio (z) = 0.18770 0.46746
#
# Static dielectric constant tensor:
#      x y z
#    x 3.752820 0.000000 -0.188350 
#    y 0.000000 3.539620 0.000000 
#    z -0.188350 0.000000 3.220620 
# 
# 
# High freq. dielectric constant tensor:
#      x y z
#    x 1.748930 0.000000 -0.013550 
#    y 0.000000 1.742580 0.000000 
#    z -0.013550 0.000000 1.709600 
# 
# From -- ./inp_files/275053.got.cif
#   From: 2010.06.25/outbox.cif.g09.slc.cpg/sg12_138_cif.got.tgz:275053.got - 2010.06.28 00:19:55.
