data_PCOD8086263
_publ_section_title
;
Structure prediction by ZEFSAII (Michael W. Deem and Ramdas Pophale) SiO2 
 PCOD8086263
Probable space group: C 2/M
;
_chemical_formula_sum "Si O2"
_cell_formula_units_Z 64
_cell_length_a 20.006684
_cell_length_b 8.977477
_cell_length_c 25.265920
_cell_angle_alpha 90.000000
_cell_angle_beta 126.649890
_cell_angle_gamma 90.000000
_cell_volume 3640.828701
_symmetry_space_group_name_H-M "C 2/M"
_symmetry_group_IT_number 12
_symmetry_cell_setting 'monoclinic'
loop_
_space_group_symop_operation_xyz
x,y,z
-x,y,-z
-x,-y,-z
x,-y,z
1/2+x,1/2+y,z
1/2-x,1/2+y,-z
1/2-x,1/2-y,-z
1/2+x,1/2-y,z
loop_
_atom_site_type_symbol
_atom_site_label
_atom_site_fract_x
_atom_site_fract_y
_atom_site_fract_z
Si Si1 0.026613 0.328372 0.954707
Si Si2 0.457415 0.672883 0.195835
Si Si3 0.404599 0.172395 0.801835
Si Si4 0.338047 0.673496 0.045059
Si Si5 0.129540 0.665773 0.568093
Si Si6 0.025362 0.331734 0.426979
Si Si7 0.729188 0.821357 0.709554
Si Si8 0.082404 0.174502 0.703117
O O1 0.054566 0.500000 0.967597
O O2 0.105499 0.230109 0.976338
O O3 0.950158 0.301146 0.878998
O O4 0.000000 0.275270 0.000000
O O5 0.481604 0.500000 0.201818
O O6 0.538734 0.768247 0.219407
O O7 0.381311 0.714617 0.121173
O O8 0.428353 0.714108 0.240664
O O9 0.320193 0.264684 0.765923
O O10 0.384443 0.000000 0.782242
O O11 0.324393 0.500000 0.032094
O O12 0.250000 0.750000 0.000000
O O13 0.155786 0.500000 0.564403
O O14 0.053131 0.661225 0.572026
O O15 0.204742 0.737889 0.638165
O O16 0.101776 0.740190 0.498620
O O17 0.046573 0.500000 0.417653
O O18 0.002365 0.228122 0.366411
O O19 0.664579 0.758620 0.722074
O O20 0.725188 0.000000 0.709779
O O21 0.094178 0.000000 0.698857
#
# Coordination Sequence:
#
# PCOD8086263 Si02
#       8
#     8   8   8   8   8   8   8   8
#     4   9  19  36  55  74  99 130 160 194 243 296
#     4   9  20  37  53  69  97 136 166 193 239 296
#     4  10  20  34  53  75  98 126 163 204 241 284
#     4  10  20  35  54  75  99 128 164 202 240 284
#     4   7  12  24  43  65  91 126 161 192 234 290
#     4   8  13  25  44  66  93 124 159 197 241 288
#     4  10  19  32  50  72 100 132 164 198 241 291
#     4  10  19  31  48  73 101 127 162 204 243 284
#
# _framework density 17.578415
#
# number of rings (size 3 to 8) (size 9 to 14) (size 15 to 20)
#    0.000    2.875    0.000    3.000    0.000    3.250 
#    0.000   10.625    0.000    0.750    0.000    0.000 
#    0.000    0.000    0.000    0.000    0.000    0.000 
#
# Total GULP energy -396548.572938 kJ/mol
# GULP energy per Si atom -12392.142904 kJ/mol
# Density = 1.753841 g / cm^3
# Si number density = 17.578415 Si / 1000 Ang^3
#
#
#
# Elastic Constant Matrix: (Units=GPa)
#
#
# Indices 1 2 3 4 5 6 
#
# 1 95.9072 53.7345 76.2305 0.0000 -3.6529 0.0000
# 2 53.7345 77.6943 51.3002 0.0000 -2.4644 0.0000
# 3 76.2305 51.3002 112.8268 0.0000 -6.5449 0.0000
# 4 0.0000 0.0000 0.0000 28.4209 0.0000 1.5783
# 5 -3.6529 -2.4644 -6.5449 0.0000 18.7270 0.0000
# 6 0.0000 0.0000 0.0000 1.5783 0.0000 28.1684
#
#
#
# Elastic Compliance Matrix: (Units=1/GPa)
#
#
# Indices 1 2 3 4 5 6 
#
# 1 0.026531 -0.009300 -0.013746 0.000000 -0.000853 0.000000
# 2 -0.009300 0.021657 -0.003576 0.000000 -0.000214 0.000000
# 3 -0.013746 -0.003576 0.020000 0.000000 0.003838 0.000000
# 4 0.000000 0.000000 0.000000 0.035295 0.000000 -0.001978
# 5 -0.000853 -0.000214 0.003838 0.000000 0.054546 0.000000
# 6 0.000000 0.000000 0.000000 -0.001978 0.000000 0.035612
#
#
# Mechanical properties :
#
#
# Convention : Reuss Voigt Hill
#
# Bulk Modulus (GPa) = 66.92178 72.10654 69.51416
# Shear Modulus (GPa) = 19.85184 22.07412 20.96298
#
# Velocity S-wave (km/s) = 3.36420 3.54750 3.45707
# Velocity P-wave (km/s) = 7.29682 7.60846 7.45427
#
# Compressibility (1/GPa) = 0.01494282
#
# Stress axis : x y z
#
# Youngs Moduli (GPa) = 37.69217 46.17373 50.00115
#
# Poissons Ratio (x) = 0.42939 0.68734
# Poissons Ratio (y) = 0.35052 0.17883
# Poissons Ratio (z) = 0.51813 0.16514
#
# Static dielectric constant tensor:
#      x y z
#    x 3.003950 0.000000 0.022230 
#    y 0.000000 3.240580 0.000000 
#    z 0.022230 0.000000 3.786900 
# 
# 
# High freq. dielectric constant tensor:
#      x y z
#    x 1.647530 0.000000 0.001270 
#    y 0.000000 1.672650 0.000000 
#    z 0.001270 0.000000 1.695720 
# 
# From -- ./inp_files/346104.got.cif
#   From: 2010.06.25/outbox.cif.g09.slc.cpg/sg12_174_cif.got.tgz:346104.got - 2010.06.28 00:19:55.
