data_PCOD8086866
_publ_section_title
;
Structure prediction by ZEFSAII (Michael W. Deem and Ramdas Pophale) SiO2 
 PCOD8086866
Probable space group: C 2/M
;
_chemical_formula_sum "Si O2"
_cell_formula_units_Z 40
_cell_length_a 18.856990
_cell_length_b 8.924024
_cell_length_c 19.848909
_cell_angle_alpha 90.000000
_cell_angle_beta 45.513319
_cell_angle_gamma 90.000000
_cell_volume 2382.928334
_symmetry_space_group_name_H-M "C 2/M"
_symmetry_group_IT_number 12
_symmetry_cell_setting 'monoclinic'
loop_
_space_group_symop_operation_xyz
x,y,z
-x,y,-z
-x,-y,-z
x,-y,z
1/2+x,1/2+y,z
1/2-x,1/2+y,-z
1/2-x,1/2-y,-z
1/2+x,1/2-y,z
loop_
_atom_site_type_symbol
_atom_site_label
_atom_site_fract_x
_atom_site_fract_y
_atom_site_fract_z
Si Si1 0.408380 0.670553 0.602973
Si Si2 0.645823 0.329860 0.218115
Si Si3 0.354917 0.175977 0.915126
Si Si4 0.976964 0.675088 0.091186
Si Si5 0.774960 0.822971 0.231843
O O1 0.500000 0.740643 0.500000
O O2 0.388785 0.500000 0.592076
O O3 0.433360 0.674147 0.667010
O O4 0.307585 0.767204 0.658192
O O5 0.672349 0.500000 0.179587
O O6 0.601975 0.241758 0.183557
O O7 0.747509 0.250428 0.177179
O O8 0.430055 0.218269 0.924455
O O9 0.341378 0.000000 0.916873
O O10 0.250000 0.250000 0.000000
O O11 0.951586 0.500000 0.111721
O O12 0.882978 0.766467 0.182107
O O13 0.000000 0.726516 0.000000
O O14 0.772846 0.000000 0.227829
#
# Coordination Sequence:
#
# PCOD8086866 Si02
#       5
#     8   8   8   8   8
#     4   8  16  32  55  79 104 138 175 212 259 311
#     4   9  18  33  52  74 104 136 171 212 257 308
#     4  11  22  34  52  76 104 138 176 216 260 310
#     4  10  21  36  52  71 101 141 178 213 258 310
#     4  10  19  31  51  79 106 132 170 217 260 304
#
# _framework density 16.786069000000001
#
# number of rings (size 3 to 8) (size 9 to 14) (size 15 to 20)
#    1.200    1.200    0.000    3.600    0.000    4.000 
#    0.000    0.000    0.000    1.200    0.000    0.000 
#    0.000    0.000    0.000    0.000    0.000    0.000 
#
# Total GULP energy -247847.668919 kJ/mol
# GULP energy per Si atom -12392.383446 kJ/mol
# Density = 1.674786 g / cm^3
# Si number density = 16.786069 Si / 1000 Ang^3
#
#
#
# Elastic Constant Matrix: (Units=GPa)
#
#
# Indices 1 2 3 4 5 6 
#
# 1 107.0290 61.3538 57.3970 0.0000 -5.6896 0.0000
# 2 61.3538 104.3032 51.0924 0.0000 -10.8591 0.0001
# 3 57.3970 51.0924 114.5016 0.0000 -12.2268 0.0000
# 4 0.0000 0.0000 0.0000 20.9995 0.0000 1.2166
# 5 -5.6896 -10.8591 -12.2268 0.0000 23.9739 0.0000
# 6 0.0000 0.0001 0.0000 1.2166 0.0000 27.1461
#
#
#
# Elastic Compliance Matrix: (Units=1/GPa)
#
#
# Indices 1 2 3 4 5 6 
#
# 1 0.016070 -0.007181 -0.005067 0.000000 -0.002023 0.000000
# 2 -0.007181 0.015675 -0.002981 0.000000 0.003876 0.000000
# 3 -0.005067 -0.002981 0.013041 0.000000 0.004098 0.000000
# 4 0.000000 0.000000 0.000000 0.047744 0.000000 -0.002140
# 5 -0.002023 0.003876 0.004098 0.000000 0.045078 0.000000
# 6 0.000000 0.000000 0.000000 -0.002140 0.000000 0.036934
#
#
# Mechanical properties :
#
#
# Convention : Reuss Voigt Hill
#
# Bulk Modulus (GPa) = 69.79396 73.94668 71.87032
# Shear Modulus (GPa) = 23.83499 24.82327 24.32913
#
# Velocity S-wave (km/s) = 3.77228 3.84969 3.81118
# Velocity P-wave (km/s) = 7.78731 7.99426 7.89146
#
# Compressibility (1/GPa) = 0.01432789
#
# Stress axis : x y z
#
# Youngs Moduli (GPa) = 62.22945 63.79481 76.67971
#
# Poissons Ratio (x) = 0.45812 0.38854
# Poissons Ratio (y) = 0.44688 0.22858
# Poissons Ratio (z) = 0.31532 0.19017
#
# Static dielectric constant tensor:
#      x y z
#    x 3.004380 0.000000 0.073970 
#    y 0.000000 3.126530 0.000000 
#    z 0.073970 0.000000 3.110460 
# 
# 
# High freq. dielectric constant tensor:
#      x y z
#    x 1.620570 0.000000 0.000310 
#    y 0.000000 1.654340 0.000000 
#    z 0.000310 0.000000 1.635630 
# 
# From -- ./inp_files/220183.got.cif
#   From: 2010.06.25/outbox.cif.g09.slc.cpg/sg12_111_cif.got.tgz:220183.got - 2010.06.28 00:19:55.
