data_PCOD8086091
_publ_section_title
;
Structure prediction by ZEFSAII (Michael W. Deem and Ramdas Pophale) SiO2 
 PCOD8086091
Probable space group: C 2/M
;
_chemical_formula_sum "Si O2"
_cell_formula_units_Z 64
_cell_length_a 24.043017
_cell_length_b 8.816979
_cell_length_c 21.459570
_cell_angle_alpha 90.000000
_cell_angle_beta 132.082656
_cell_angle_gamma 90.000000
_cell_volume 3376.278801
_symmetry_space_group_name_H-M "C 2/M"
_symmetry_group_IT_number 12
_symmetry_cell_setting 'monoclinic'
loop_
_space_group_symop_operation_xyz
x,y,z
-x,y,-z
-x,-y,-z
x,-y,z
1/2+x,1/2+y,z
1/2-x,1/2+y,-z
1/2-x,1/2-y,-z
1/2+x,1/2-y,z
loop_
_atom_site_type_symbol
_atom_site_label
_atom_site_fract_x
_atom_site_fract_y
_atom_site_fract_z
Si Si1 0.582563 0.332182 0.073202
Si Si2 0.565367 0.678067 0.595593
Si Si3 0.640593 0.824762 0.230250
Si Si4 0.557635 0.327062 0.730433
Si Si5 0.492557 0.178156 0.189271
Si Si6 0.854241 0.168990 0.014802
Si Si7 0.278109 0.820948 0.285704
Si Si8 0.730615 0.674760 0.854865
O O1 0.583834 0.500000 0.106545
O O2 0.618411 0.202720 0.142198
O O3 0.624144 0.343019 0.040203
O O4 0.500000 0.273736 0.000000
O O5 0.500000 0.728094 0.500000
O O6 0.583185 0.500000 0.605530
O O7 0.540594 0.722816 0.646802
O O8 0.640196 0.765417 0.632152
O O9 0.572365 0.762255 0.222128
O O10 0.719774 0.735753 0.295718
O O11 0.655307 0.000000 0.255191
O O12 0.532815 0.500000 0.722960
O O13 0.508949 0.219927 0.738902
O O14 0.644972 0.305224 0.811436
O O15 0.486386 0.000000 0.173946
O O16 0.420722 0.253881 0.103034
O O17 0.776936 0.264341 0.950242
O O18 0.839917 0.000000 0.031866
O O19 0.255572 0.761990 0.199908
O O20 0.275732 0.000000 0.281304
O O21 0.750682 0.500000 0.857548
#
# Coordination Sequence:
#
# PCOD8086091 Si02
#       8
#     8   8   8   8   8   8   8   8
#     4  10  19  31  47  70 100 136 183 236 282 318
#     4   9  19  39  67  94 116 138 167 209 265 327
#     4  11  22  34  51  74 105 145 187 229 272 317
#     4   9  20  38  58  80 107 141 177 216 268 326
#     4  11  24  37  51  74 106 149 193 230 270 317
#     4  11  21  32  50  75 104 142 189 237 282 322
#     4  11  21  33  54  85 116 143 175 220 272 320
#     4  10  20  35  54  76 105 142 186 234 280 324
#
# _framework density 18.955781000000002
#
# number of rings (size 3 to 8) (size 9 to 14) (size 15 to 20)
#    0.000    1.750    2.500    3.375    0.000    5.500 
#    0.000    0.000    0.000    0.750    0.000    0.000 
#    0.000    0.000    0.000    0.000    0.000    0.000 
#
# Total GULP energy -396629.469943 kJ/mol
# GULP energy per Si atom -12394.670936 kJ/mol
# Density = 1.891264 g / cm^3
# Si number density = 18.955781 Si / 1000 Ang^3
#
#
#
# Elastic Constant Matrix: (Units=GPa)
#
#
# Indices 1 2 3 4 5 6 
#
# 1 89.0407 41.1042 53.7062 0.0000 0.7040 0.0000
# 2 41.1042 96.6622 42.0114 0.0000 4.4321 -0.0001
# 3 53.7062 42.0114 102.6230 0.0000 13.8036 0.0000
# 4 0.0000 0.0000 0.0000 23.6227 0.0000 -0.3725
# 5 0.7040 4.4321 13.8036 0.0000 17.7788 0.0000
# 6 0.0000 -0.0001 0.0000 -0.3725 0.0000 23.8422
#
#
#
# Elastic Compliance Matrix: (Units=1/GPa)
#
#
# Indices 1 2 3 4 5 6 
#
# 1 0.018554 -0.004352 -0.008905 0.000000 0.007264 0.000000
# 2 -0.004352 0.013620 -0.003198 0.000000 -0.000740 0.000000
# 3 -0.008905 -0.003198 0.017374 0.000000 -0.012339 0.000000
# 4 0.000000 0.000000 0.000000 0.042343 0.000000 0.000661
# 5 0.007264 -0.000740 -0.012339 0.000000 0.065724 0.000000
# 6 0.000000 0.000000 0.000000 0.000661 0.000000 0.041953
#
#
# Mechanical properties :
#
#
# Convention : Reuss Voigt Hill
#
# Bulk Modulus (GPa) = 60.11182 62.44106 61.27644
# Shear Modulus (GPa) = 21.00621 23.14902 22.07761
#
# Velocity S-wave (km/s) = 3.33253 3.49838 3.41646
# Velocity P-wave (km/s) = 6.82555 7.02354 6.92525
#
# Compressibility (1/GPa) = 0.01663566
#
# Stress axis : x y z
#
# Youngs Moduli (GPa) = 53.89679 73.42049 57.55739
#
# Poissons Ratio (x) = 0.31956 0.51256
# Poissons Ratio (y) = 0.23458 0.18410
# Poissons Ratio (z) = 0.47997 0.23483
#
# Static dielectric constant tensor:
#      x y z
#    x 3.693330 0.000000 0.162290 
#    y 0.000000 3.657440 0.000000 
#    z 0.162290 0.000000 3.295040 
# 
# 
# High freq. dielectric constant tensor:
#      x y z
#    x 1.742770 0.000000 0.013370 
#    y 0.000000 1.739000 0.000000 
#    z 0.013370 0.000000 1.701810 
# 
# From -- ./inp_files/324326.got.cif
#   From: 2010.06.25/outbox.cif.g09.slc.cpg/sg12_163_cif.got.tgz:324326.got - 2010.06.28 00:19:55.
