data_PCOD8086611
_publ_section_title
;
Structure prediction by ZEFSAII (Michael W. Deem and Ramdas Pophale) SiO2 
 PCOD8086611
Probable space group: C 2/M
;
_chemical_formula_sum "Si O2"
_cell_formula_units_Z 64
_cell_length_a 18.714365
_cell_length_b 9.063495
_cell_length_c 34.719105
_cell_angle_alpha 90.000000
_cell_angle_beta 144.318690
_cell_angle_gamma 90.000000
_cell_volume 3434.896295
_symmetry_space_group_name_H-M "C 2/M"
_symmetry_group_IT_number 12
_symmetry_cell_setting 'monoclinic'
loop_
_space_group_symop_operation_xyz
x,y,z
-x,y,-z
-x,-y,-z
x,-y,z
1/2+x,1/2+y,z
1/2-x,1/2+y,-z
1/2-x,1/2-y,-z
1/2+x,1/2-y,z
loop_
_atom_site_type_symbol
_atom_site_label
_atom_site_fract_x
_atom_site_fract_y
_atom_site_fract_z
Si Si1 0.891934 0.675025 0.375245
Si Si2 0.185657 0.827045 0.007089
Si Si3 0.403864 0.329445 0.890944
Si Si4 0.686821 0.827904 0.741524
Si Si5 0.242696 0.327308 0.110036
Si Si6 0.237191 0.825013 0.378380
Si Si7 0.828876 0.675414 0.501383
Si Si8 0.462556 0.671767 0.261216
O O1 0.890566 0.500000 0.377994
O O2 0.819395 0.727801 0.305231
O O3 0.823423 0.742913 0.382593
O O4 0.031340 0.730722 0.434089
O O5 0.042086 0.792387 0.940590
O O6 0.212459 0.000000 0.018061
O O7 0.250000 0.750000 0.000000
O O8 0.242290 0.759887 0.070289
O O9 0.387420 0.500000 0.895828
O O10 0.320244 0.289651 0.817370
O O11 0.367134 0.229615 0.911106
O O12 0.579602 0.751669 0.718568
O O13 0.659375 0.000000 0.731584
O O14 0.224230 0.500000 0.094363
O O15 0.372913 0.291332 0.186600
O O16 0.280148 0.768056 0.438807
O O17 0.098073 0.773197 0.309505
O O18 0.247069 0.000000 0.381519
O O19 0.817808 0.500000 0.500713
O O20 0.750000 0.750000 0.500000
O O21 0.461518 0.500000 0.270420
#
# Coordination Sequence:
#
# PCOD8086611 Si02
#       8
#     8   8   8   8   8   8   8   8
#     4   9  17  29  48  74  99 126 164 205 242 286
#     4  11  23  37  53  75 104 135 169 209 254 304
#     4   9  19  35  54  75  99 131 169 207 249 300
#     4   9  17  31  52  74  97 127 162 202 245 290
#     4  10  20  34  54  78 102 131 169 210 251 298
#     4   9  17  30  49  72  99 131 166 203 243 288
#     4  10  19  31  50  74  98 127 164 206 247 289
#     4   9  18  32  51  74  99 129 164 202 243 291
#
# _framework density 18.632294000000002
#
# number of rings (size 3 to 8) (size 9 to 14) (size 15 to 20)
#    0.000    2.500    0.000    2.250    0.000    5.500 
#    0.000    3.750    0.000    3.750    0.000    0.000 
#    0.000    0.000    0.000    0.000    0.000    0.000 
#
# Total GULP energy -396824.153372 kJ/mol
# GULP energy per Si atom -12400.754793 kJ/mol
# Density = 1.858989 g / cm^3
# Si number density = 18.632294 Si / 1000 Ang^3
#
#
#
# Elastic Constant Matrix: (Units=GPa)
#
#
# Indices 1 2 3 4 5 6 
#
# 1 175.0970 49.9424 96.3473 0.0000 -13.5932 0.0000
# 2 49.9424 49.0374 41.9109 -0.0001 -5.9587 0.0001
# 3 96.3473 41.9109 129.3755 0.0000 -13.3619 0.0000
# 4 0.0000 -0.0001 0.0000 19.9819 0.0001 -2.3719
# 5 -13.5932 -5.9587 -13.3619 0.0001 30.8802 -0.0001
# 6 0.0000 0.0001 0.0000 -2.3719 -0.0001 31.1680
#
#
#
# Elastic Compliance Matrix: (Units=1/GPa)
#
#
# Indices 1 2 3 4 5 6 
#
# 1 0.010731 -0.005622 -0.006066 0.000000 0.001014 0.000000
# 2 -0.005622 0.031217 -0.005820 0.000000 0.001031 0.000000
# 3 -0.006066 -0.005820 0.014383 0.000000 0.002431 0.000000
# 4 0.000000 0.000000 0.000000 0.050501 0.000000 0.003843
# 5 0.001014 0.001031 0.002431 0.000000 0.034080 0.000000
# 6 0.000000 0.000000 0.000000 0.003843 0.000000 0.032377
#
#
# Mechanical properties :
#
#
# Convention : Reuss Voigt Hill
#
# Bulk Modulus (GPa) = 46.91076 81.10124 64.00600
# Shear Modulus (GPa) = 23.21167 27.42665 25.31916
#
# Velocity S-wave (km/s) = 3.53338 3.84082 3.69031
# Velocity P-wave (km/s) = 6.47134 7.95556 7.25152
#
# Compressibility (1/GPa) = 0.02131707
#
# Stress axis : x y z
#
# Youngs Moduli (GPa) = 93.18916 32.03351 69.52733
#
# Poissons Ratio (x) = 0.18008 0.42172
# Poissons Ratio (y) = 0.52388 0.40464
# Poissons Ratio (z) = 0.56524 0.18643
#
# Static dielectric constant tensor:
#      x y z
#    x 0.579840 0.000000 4.663490 
#    y 0.000000 3.180610 0.000000 
#    z 4.663490 0.000000 -3.684890 
# 
# 
# High freq. dielectric constant tensor:
#      x y z
#    x 1.725050 0.000000 -0.000290 
#    y 0.000000 1.694070 0.000000 
#    z -0.000290 0.000000 1.739920 
# 
# From -- ./inp_files/378445.got.cif
#   From: 2010.06.25/outbox.cif.g09.slc.cpg/sg12_190_cif.got.tgz:378445.got - 2010.06.28 00:19:55.
