data_PCOD8086670
_publ_section_title
;
Structure prediction by ZEFSAII (Michael W. Deem and Ramdas Pophale) SiO2 
 PCOD8086670
Probable space group: C 2/M
;
_chemical_formula_sum "Si O2"
_cell_formula_units_Z 48
_cell_length_a 24.659683
_cell_length_b 8.975357
_cell_length_c 16.610215
_cell_angle_alpha 90.000000
_cell_angle_beta 132.171042
_cell_angle_gamma 90.000000
_cell_volume 2724.689831
_symmetry_space_group_name_H-M "C 2/M"
_symmetry_group_IT_number 12
_symmetry_cell_setting 'monoclinic'
loop_
_space_group_symop_operation_xyz
x,y,z
-x,y,-z
-x,-y,-z
x,-y,z
1/2+x,1/2+y,z
1/2-x,1/2+y,-z
1/2-x,1/2-y,-z
1/2+x,1/2-y,z
loop_
_atom_site_type_symbol
_atom_site_label
_atom_site_fract_x
_atom_site_fract_y
_atom_site_fract_z
Si Si1 0.418046 0.324452 0.754357
Si Si2 0.052763 0.663980 0.628437
Si Si3 0.542418 0.836010 0.958829
Si Si4 0.916117 0.676564 0.585627
Si Si5 0.668427 0.826341 0.191121
Si Si6 0.163125 0.173164 0.639567
O O1 0.414123 0.500000 0.742674
O O2 0.393474 0.251893 0.646258
O O3 0.360687 0.270665 0.763819
O O4 0.501698 0.277938 0.858835
O O5 0.085825 0.500000 0.679551
O O6 0.118541 0.777695 0.675238
O O7 0.000000 0.652977 0.500000
O O8 0.001080 0.718408 0.650474
O O9 0.624869 0.784997 0.064866
O O10 0.542709 0.000000 0.918092
O O11 0.500000 0.843892 0.000000
O O12 0.905956 0.500000 0.580842
O O13 0.861622 0.736038 0.463068
O O14 0.752638 0.790352 0.259377
O O15 0.655217 0.000000 0.199027
O O16 0.148930 0.000000 0.609549
#
# Coordination Sequence:
#
# PCOD8086670 Si02
#       6
#     8   8   8   8   8   8
#     4  11  21  31  48  74  98 122 158 203 241 272
#     4   8  16  31  49  68  91 124 162 193 230 282
#     4   8  15  31  51  67  90 126 161 190 228 284
#     4  10  20  34  50  68  96 132 162 190 233 289
#     4   9  19  34  50  70  98 131 159 185 232 292
#     4  10  19  31  50  75  99 123 156 198 236 274
#
# _framework density 17.616682999999998
#
# number of rings (size 3 to 8) (size 9 to 14) (size 15 to 20)
#    0.000    2.667    0.000    4.500    0.000    8.667 
#    0.000    0.000    0.000    1.000    0.000    0.000 
#    0.000    0.000    0.000    0.000    0.000    0.000 
#
# Total GULP energy -297478.822401 kJ/mol
# GULP energy per Si atom -12394.950933 kJ/mol
# Density = 1.757659 g / cm^3
# Si number density = 17.616683 Si / 1000 Ang^3
#
#
#
# Elastic Constant Matrix: (Units=GPa)
#
#
# Indices 1 2 3 4 5 6 
#
# 1 47.4810 27.9094 18.9126 0.0000 22.6587 0.0000
# 2 27.9094 93.0525 28.5738 0.0000 16.2111 0.0000
# 3 18.9126 28.5738 61.4605 0.0000 28.2389 0.0000
# 4 0.0000 0.0000 0.0000 22.6655 0.0000 1.3218
# 5 22.6587 16.2111 28.2389 0.0000 23.9787 0.0000
# 6 0.0000 0.0000 0.0000 1.3218 0.0000 27.9709
#
#
#
# Elastic Compliance Matrix: (Units=1/GPa)
#
#
# Indices 1 2 3 4 5 6 
#
# 1 0.047622 -0.009176 0.016207 0.000000 -0.057884 0.000000
# 2 -0.009176 0.014442 -0.007384 0.000000 0.007603 0.000000
# 3 0.016207 -0.007384 0.042404 0.000000 -0.060260 0.000000
# 4 0.000000 0.000000 0.000000 0.044242 0.000000 -0.002091
# 5 -0.057884 0.007603 -0.060260 0.000000 0.162227 0.000000
# 6 0.000000 0.000000 0.000000 -0.002091 0.000000 0.035850
#
#
# Mechanical properties :
#
#
# Convention : Reuss Voigt Hill
#
# Bulk Modulus (GPa) = 9.63740 39.19839 24.41790
# Shear Modulus (GPa) = 13.08629 23.36291 18.22460
#
# Velocity S-wave (km/s) = 2.72846 3.64563 3.21987
# Velocity P-wave (km/s) = 3.92536 6.32612 5.26442
#
# Compressibility (1/GPa) = 0.10376241
#
# Stress axis : x y z
#
# Youngs Moduli (GPa) = 20.99857 69.24454 23.58292
#
# Poissons Ratio (x) = 0.63539 -0.38222
# Poissons Ratio (y) = 0.19268 0.17413
# Poissons Ratio (z) = -0.34033 0.51129
#
# Static dielectric constant tensor:
#      x y z
#    x 3.337790 0.000000 0.136320 
#    y 0.000000 3.287720 0.000000 
#    z 0.136320 0.000000 3.413840 
# 
# 
# High freq. dielectric constant tensor:
#      x y z
#    x 1.661690 0.000000 0.010380 
#    y 0.000000 1.683430 0.000000 
#    z 0.010380 0.000000 1.665490 
# 
# From -- ./inp_files/281804.got.cif
#   From: 2010.06.25/outbox.cif.g09.slc.cpg/sg12_141_cif.got.tgz:281804.got - 2010.06.28 00:19:55.
