data_PCOD8086614
_publ_section_title
;
Structure prediction by ZEFSAII (Michael W. Deem and Ramdas Pophale) SiO2 
 PCOD8086614
Probable space group: C 2/M
;
_chemical_formula_sum "Si O2"
_cell_formula_units_Z 64
_cell_length_a 28.936115
_cell_length_b 9.336220
_cell_length_c 15.403552
_cell_angle_alpha 90.000000
_cell_angle_beta 62.015900
_cell_angle_gamma 90.000000
_cell_volume 3674.778483
_symmetry_space_group_name_H-M "C 2/M"
_symmetry_group_IT_number 12
_symmetry_cell_setting 'monoclinic'
loop_
_space_group_symop_operation_xyz
x,y,z
-x,y,-z
-x,-y,-z
x,-y,z
1/2+x,1/2+y,z
1/2-x,1/2+y,-z
1/2-x,1/2-y,-z
1/2+x,1/2-y,z
loop_
_atom_site_type_symbol
_atom_site_label
_atom_site_fract_x
_atom_site_fract_y
_atom_site_fract_z
Si Si1 0.670538 0.167401 0.097360
Si Si2 0.076661 0.834554 0.263105
Si Si3 0.599450 0.334857 0.437017
Si Si4 0.458545 0.334482 0.339221
Si Si5 0.870633 0.667999 0.330261
Si Si6 0.702456 0.333669 0.722832
Si Si7 0.776729 0.165450 0.096945
Si Si8 0.313239 0.165413 0.556985
O O1 0.617249 0.234504 0.178635
O O2 0.716611 0.199212 0.125611
O O3 0.661832 0.000000 0.090460
O O4 0.684224 0.237598 0.993131
O O5 0.074342 0.795759 0.366905
O O6 0.019764 0.803384 0.273188
O O7 0.092666 0.000000 0.235756
O O8 0.614641 0.500000 0.429217
O O9 0.557799 0.293475 0.548119
O O10 0.653233 0.249439 0.401322
O O11 0.445324 0.500000 0.331946
O O12 0.427319 0.236741 0.298347
O O13 0.877629 0.500000 0.308916
O O14 0.846307 0.738980 0.265811
O O15 0.831866 0.704416 0.443970
O O16 0.687888 0.500000 0.725086
O O17 0.714906 0.294334 0.810745
O O18 0.752694 0.292679 0.620305
O O19 0.789787 0.000000 0.066347
O O20 0.321877 0.000000 0.570970
#
# Coordination Sequence:
#
# PCOD8086614 Si02
#       8
#     8   8   8   8   8   8   8   8
#     4  10  20  34  53  76 102 129 156 193 242 292
#     4  10  19  31  50  74  99 129 165 202 239 285
#     4   9  17  29  47  72 100 130 165 202 237 278
#     4   9  18  33  50  68  96 134 170 201 237 282
#     4  10  20  32  47  70 100 131 165 205 243 280
#     4  10  19  32  51  71  95 130 167 200 238 287
#     4   9  19  35  53  74 100 129 160 195 238 290
#     4   9  18  31  46  69 102 134 162 196 240 288
#
# _framework density 17.416015999999999
#
# number of rings (size 3 to 8) (size 9 to 14) (size 15 to 20)
#    0.000    2.500    0.000    2.250    0.000    5.500 
#    0.000    0.000    0.000    4.500    0.000    5.250 
#    0.000    0.000    0.000    0.000    0.000    0.000 
#
# Total GULP energy -396879.058729 kJ/mol
# GULP energy per Si atom -12402.470585 kJ/mol
# Density = 1.737638 g / cm^3
# Si number density = 17.416016 Si / 1000 Ang^3
#
#
#
# Elastic Constant Matrix: (Units=GPa)
#
#
# Indices 1 2 3 4 5 6 
#
# 1 109.8238 59.8203 47.6772 0.0000 2.2774 0.0000
# 2 59.8203 78.1654 44.1324 0.0000 -2.0366 0.0000
# 3 47.6772 44.1324 69.9280 0.0000 -4.3328 0.0000
# 4 0.0000 0.0000 0.0000 25.2864 0.0000 -2.4608
# 5 2.2774 -2.0366 -4.3328 0.0000 25.0034 0.0000
# 6 0.0000 0.0000 0.0000 -2.4608 0.0000 31.9373
#
#
#
# Elastic Compliance Matrix: (Units=1/GPa)
#
#
# Indices 1 2 3 4 5 6 
#
# 1 0.017004 -0.010002 -0.005486 0.000000 -0.003314 0.000000
# 2 -0.010002 0.025767 -0.009356 0.000000 0.001388 0.000000
# 3 -0.005486 -0.009356 0.024189 0.000000 0.003929 0.000000
# 4 0.000000 0.000000 0.000000 0.039846 0.000000 0.003070
# 5 -0.003314 0.001388 0.003929 0.000000 0.041090 0.000000
# 6 0.000000 0.000000 0.000000 0.003070 0.000000 0.031548
#
#
# Mechanical properties :
#
#
# Convention : Reuss Voigt Hill
#
# Bulk Modulus (GPa) = 57.90103 62.35299 60.12701
# Shear Modulus (GPa) = 21.28655 23.53124 22.40890
#
# Velocity S-wave (km/s) = 3.49985 3.67976 3.59093
# Velocity P-wave (km/s) = 7.04627 7.34397 7.19666
#
# Compressibility (1/GPa) = 0.01727085
#
# Stress axis : x y z
#
# Youngs Moduli (GPa) = 58.80976 38.80983 41.34049
#
# Poissons Ratio (x) = 0.38817 0.22681
# Poissons Ratio (y) = 0.58821 0.38679
# Poissons Ratio (z) = 0.32265 0.36311
#
# Static dielectric constant tensor:
#      x y z
#    x 3.200830 0.000000 -0.007150 
#    y 0.000000 3.224280 0.000000 
#    z -0.007150 0.000000 3.083450 
# 
# 
# High freq. dielectric constant tensor:
#      x y z
#    x 1.669860 0.000000 0.001390 
#    y 0.000000 1.674110 0.000000 
#    z 0.001390 0.000000 1.651420 
# 
# From -- ./inp_files/249015.got.cif
#   From: 2010.06.25/outbox.cif.g09.slc.cpg/sg12_125_cif.got.tgz:249015.got - 2010.06.28 00:19:55.
