data_PCOD8086477
_publ_section_title
;
Structure prediction by ZEFSAII (Michael W. Deem and Ramdas Pophale) SiO2 
 PCOD8086477
Probable space group: C 2/M
;
_chemical_formula_sum "Si O2"
_cell_formula_units_Z 56
_cell_length_a 19.721594
_cell_length_b 9.367269
_cell_length_c 27.732715
_cell_angle_alpha 90.000000
_cell_angle_beta 145.820459
_cell_angle_gamma 90.000000
_cell_volume 2878.192658
_symmetry_space_group_name_H-M "C 2/M"
_symmetry_group_IT_number 12
_symmetry_cell_setting 'monoclinic'
loop_
_space_group_symop_operation_xyz
x,y,z
-x,y,-z
-x,-y,-z
x,-y,z
1/2+x,1/2+y,z
1/2-x,1/2+y,-z
1/2-x,1/2-y,-z
1/2+x,1/2-y,z
loop_
_atom_site_type_symbol
_atom_site_label
_atom_site_fract_x
_atom_site_fract_y
_atom_site_fract_z
Si Si1 0.211426 0.835720 0.736515
Si Si2 0.509386 0.166123 0.428121
Si Si3 0.373072 0.336262 0.210913
Si Si4 0.589864 0.835712 0.218349
Si Si5 0.713268 0.662493 0.586381
Si Si6 0.653932 0.667317 0.911903
Si Si7 0.087828 0.339704 0.368226
O O1 0.120495 0.741561 0.650692
O O2 0.208740 0.788036 0.791367
O O3 0.347343 0.815157 0.797109
O O4 0.170611 0.000000 0.706534
O O5 0.595162 0.236221 0.519529
O O6 0.579466 0.196225 0.419478
O O7 0.491586 0.000000 0.429289
O O8 0.407581 0.500000 0.236595
O O9 0.307354 0.308192 0.121236
O O10 0.499528 0.255724 0.284306
O O11 0.690451 0.792811 0.316620
O O12 0.478125 0.729552 0.155479
O O13 0.547298 0.000000 0.200582
O O14 0.670477 0.500000 0.569222
O O15 0.776462 0.681527 0.571174
O O16 0.654085 0.500000 0.925176
O O17 0.750000 0.750000 0.000000
O O18 0.043548 0.500000 0.332621
#
# Coordination Sequence:
#
# PCOD8086477 Si02
#       7
#     8   8   8   8   8   8   8
#     4   9  19  37  58  79 109 148 187 224 267 321
#     4  10  20  31  47  75 109 149 190 230 270 312
#     4   9  18  34  57  83 108 140 180 221 268 320
#     4  10  21  38  60  83 109 144 183 226 275 324
#     4  10  19  31  49  74 107 145 186 230 273 319
#     4  11  23  39  62  89 114 139 172 219 272 329
#     4   9  17  30  49  74 106 142 184 229 273 318
#
# _framework density 19.456655000000001
#
# number of rings (size 3 to 8) (size 9 to 14) (size 15 to 20)
#    0.000    2.286    1.429    1.286    0.000    3.429 
#    0.000    3.571    0.000    4.286    0.000    0.000 
#    0.000    0.000    0.000    0.000    0.000    0.000 
#
# Total GULP energy -347126.222038 kJ/mol
# GULP energy per Si atom -12397.365073 kJ/mol
# Density = 1.941237 g / cm^3
# Si number density = 19.456655 Si / 1000 Ang^3
#
#
#
# Elastic Constant Matrix: (Units=GPa)
#
#
# Indices 1 2 3 4 5 6 
#
# 1 69.7039 32.6095 37.8780 0.0000 6.2105 0.0000
# 2 32.6095 97.5889 68.5447 0.0000 0.2615 0.0000
# 3 37.8780 68.5447 109.1682 0.0000 -4.9904 0.0000
# 4 0.0000 0.0000 0.0000 37.0632 0.0000 2.6025
# 5 6.2105 0.2615 -4.9904 0.0000 16.7306 0.0000
# 6 0.0000 0.0000 0.0000 2.6025 0.0000 22.0900
#
#
#
# Elastic Compliance Matrix: (Units=1/GPa)
#
#
# Indices 1 2 3 4 5 6 
#
# 1 0.019313 -0.002580 -0.005482 0.000000 -0.008764 0.000000
# 2 -0.002580 0.018914 -0.011102 0.000000 -0.002649 0.000000
# 3 -0.005482 -0.011102 0.018384 0.000000 0.007692 0.000000
# 4 0.000000 0.000000 0.000000 0.027206 0.000000 -0.003205
# 5 -0.008764 -0.002649 0.007692 0.000000 0.065360 0.000000
# 6 0.000000 0.000000 0.000000 -0.003205 0.000000 0.045647
#
#
# Mechanical properties :
#
#
# Convention : Reuss Voigt Hill
#
# Bulk Modulus (GPa) = 54.69035 61.61392 58.15213
# Shear Modulus (GPa) = 20.89906 24.33870 22.61888
#
# Velocity S-wave (km/s) = 3.28095 3.54067 3.41328
# Velocity P-wave (km/s) = 6.52094 6.96069 6.74440
#
# Compressibility (1/GPa) = 0.01828476
#
# Stress axis : x y z
#
# Youngs Moduli (GPa) = 51.77845 52.87165 54.39386
#
# Poissons Ratio (x) = 0.13638 0.29819
# Poissons Ratio (y) = 0.13356 0.60386
# Poissons Ratio (z) = 0.28385 0.58696
#
# Static dielectric constant tensor:
#      x y z
#    x 3.909210 0.000000 -0.099750 
#    y 0.000000 3.540460 0.000000 
#    z -0.099750 0.000000 3.256380 
# 
# 
# High freq. dielectric constant tensor:
#      x y z
#    x 1.770480 0.000000 -0.008260 
#    y 0.000000 1.757520 0.000000 
#    z -0.008260 0.000000 1.725420 
# 
# From -- ./inp_files/380769.got.cif
#   From: 2010.06.25/outbox.cif.g09.slc.cpg/sg12_191_cif.got.tgz:380769.got - 2010.06.28 00:19:55.
