data_PCOD8086092
_publ_section_title
;
Structure prediction by ZEFSAII (Michael W. Deem and Ramdas Pophale) SiO2 
 PCOD8086092
Probable space group: C 2/M
;
_chemical_formula_sum "Si O2"
_cell_formula_units_Z 64
_cell_length_a 14.628570
_cell_length_b 9.321259
_cell_length_c 34.529852
_cell_angle_alpha 90.000000
_cell_angle_beta 131.491661
_cell_angle_gamma 90.000000
_cell_volume 3526.819415
_symmetry_space_group_name_H-M "C 2/M"
_symmetry_group_IT_number 12
_symmetry_cell_setting 'monoclinic'
loop_
_space_group_symop_operation_xyz
x,y,z
-x,y,-z
-x,-y,-z
x,-y,z
1/2+x,1/2+y,z
1/2-x,1/2+y,-z
1/2-x,1/2-y,-z
1/2+x,1/2-y,z
loop_
_atom_site_type_symbol
_atom_site_label
_atom_site_fract_x
_atom_site_fract_y
_atom_site_fract_z
Si Si1 0.061096 0.169498 0.557412
Si Si2 0.487867 0.330305 0.809128
Si Si3 0.460309 0.830363 0.250205
Si Si4 0.405550 0.832105 0.006698
Si Si5 0.286061 0.169595 0.268667
Si Si6 0.375233 0.333139 0.074874
Si Si7 0.009104 0.330354 0.616607
Si Si8 0.834886 0.330396 0.635057
O O1 0.986909 0.247223 0.570501
O O2 0.198644 0.231915 0.597264
O O3 0.000000 0.213168 0.500000
O O4 0.056450 0.000000 0.562862
O O5 0.493856 0.500000 0.804320
O O6 0.561856 0.252854 0.795867
O O7 0.350241 0.268296 0.769119
O O8 0.547626 0.285621 0.866343
O O9 0.353340 0.777624 0.248725
O O10 0.589811 0.783259 0.305674
O O11 0.455580 0.000000 0.241449
O O12 0.266193 0.796827 0.955544
O O13 0.425408 0.000000 0.019483
O O14 0.500000 0.777888 0.000000
O O15 0.431163 0.751884 0.054217
O O16 0.361408 0.216919 0.327931
O O17 0.282493 0.000000 0.266204
O O18 0.391229 0.500000 0.069967
O O19 0.004490 0.500000 0.607939
O O20 0.902158 0.277499 0.615122
O O21 0.831282 0.500000 0.632461
#
# Coordination Sequence:
#
# PCOD8086092 Si02
#       8
#     8   8   8   8   8   8   8   8
#     4  10  20  32  46  67  94 120 147 186 237 279
#     4  10  19  31  47  70 101 125 145 187 237 270
#     4   9  17  31  50  69  90 122 160 186 216 273
#     4   9  18  34  53  69  90 123 160 195 228 265
#     4   8  16  31  49  68  92 123 153 183 226 276
#     4   9  19  33  48  70  97 124 154 188 230 275
#     4   9  17  32  52  68  86 119 159 189 218 268
#     4   8  16  32  50  66  90 123 153 185 227 273
#
# _framework density 18.146661999999999
#
# number of rings (size 3 to 8) (size 9 to 14) (size 15 to 20)
#    0.000    3.000    0.000    2.250    0.000    2.500 
#    0.000    3.750    0.000    0.000    0.000    0.000 
#    0.000    0.000    0.000    0.000    0.000    0.000 
#
# Total GULP energy -396716.598527 kJ/mol
# GULP energy per Si atom -12397.393704 kJ/mol
# Density = 1.810536 g / cm^3
# Si number density = 18.146662 Si / 1000 Ang^3
#
#
#
# Elastic Constant Matrix: (Units=GPa)
#
#
# Indices 1 2 3 4 5 6 
#
# 1 82.8778 25.9931 41.3951 0.0000 -20.9409 0.0000
# 2 25.9931 32.4766 37.4502 0.0000 -13.8980 0.0000
# 3 41.3951 37.4502 107.6377 0.0000 -26.2490 0.0000
# 4 0.0000 0.0000 0.0000 21.2602 0.0000 -7.9328
# 5 -20.9409 -13.8980 -26.2490 0.0000 28.8237 0.0000
# 6 0.0000 0.0000 0.0000 -7.9328 0.0000 25.1925
#
#
#
# Elastic Compliance Matrix: (Units=1/GPa)
#
#
# Indices 1 2 3 4 5 6 
#
# 1 0.017533 -0.008832 -0.002060 0.000000 0.006604 0.000000
# 2 -0.008832 0.058697 -0.015026 0.000000 0.008202 0.000000
# 3 -0.002060 -0.015026 0.016941 0.000000 0.006686 0.000000
# 4 0.000000 0.000000 0.000000 0.053298 0.000000 0.016783
# 5 0.006604 0.008202 0.006686 0.000000 0.049536 0.000000
# 6 0.000000 0.000000 0.000000 0.016783 0.000000 0.044979
#
#
# Mechanical properties :
#
#
# Convention : Reuss Voigt Hill
#
# Bulk Modulus (GPa) = 24.19135 48.07432 36.13284
# Shear Modulus (GPa) = 16.30805 22.93221 19.62013
#
# Velocity S-wave (km/s) = 3.00105 3.55873 3.29172
# Velocity P-wave (km/s) = 5.03670 6.59058 5.86533
#
# Compressibility (1/GPa) = 0.04133709
#
# Stress axis : x y z
#
# Youngs Moduli (GPa) = 57.03445 17.03670 59.02893
#
# Poissons Ratio (x) = 0.15047 0.12157
# Poissons Ratio (y) = 0.50372 0.88694
# Poissons Ratio (z) = 0.11746 0.25599
#
# Static dielectric constant tensor:
#      x y z
#    x 3.625680 0.000000 0.171470 
#    y 0.000000 2.963440 0.000000 
#    z 0.171470 0.000000 3.405750 
# 
# 
# High freq. dielectric constant tensor:
#      x y z
#    x 1.708990 0.000000 -0.004290 
#    y 0.000000 1.670490 0.000000 
#    z -0.004290 0.000000 1.703440 
# 
# From -- ./inp_files/359996.got.cif
#   From: 2010.06.25/outbox.cif.g09.slc.cpg/sg12_180_cif.got.tgz:359996.got - 2010.06.28 00:19:55.
