data_PCOD8086179
_publ_section_title
;
Structure prediction by ZEFSAII (Michael W. Deem and Ramdas Pophale) SiO2 
 PCOD8086179
Probable space group: C 2/M
;
_chemical_formula_sum "Si O2"
_cell_formula_units_Z 56
_cell_length_a 19.166919
_cell_length_b 9.455231
_cell_length_c 26.475548
_cell_angle_alpha 90.000000
_cell_angle_beta 39.512161
_cell_angle_gamma 90.000000
_cell_volume 3052.753459
_symmetry_space_group_name_H-M "C 2/M"
_symmetry_group_IT_number 12
_symmetry_cell_setting 'monoclinic'
loop_
_space_group_symop_operation_xyz
x,y,z
-x,y,-z
-x,-y,-z
x,-y,z
1/2+x,1/2+y,z
1/2-x,1/2+y,-z
1/2-x,1/2-y,-z
1/2+x,1/2-y,z
loop_
_atom_site_type_symbol
_atom_site_label
_atom_site_fract_x
_atom_site_fract_y
_atom_site_fract_z
Si Si1 0.831349 0.834677 0.730051
Si Si2 0.818558 0.840023 0.324046
Si Si3 0.540958 0.159640 0.031123
Si Si4 0.374712 0.339553 0.176396
Si Si5 0.884782 0.164658 0.586226
Si Si6 0.776676 0.160974 0.935925
Si Si7 0.456856 0.667802 0.758586
O O1 0.720427 0.746437 0.799167
O O2 0.884324 0.801032 0.646053
O O3 0.916547 0.784524 0.725594
O O4 0.802551 0.000000 0.751603
O O5 0.860015 0.834715 0.244023
O O6 0.711140 0.744401 0.390638
O O7 0.918078 0.779409 0.303027
O O8 0.788053 0.000000 0.356806
O O9 0.490838 0.265174 0.100738
O O10 0.500179 0.000000 0.065161
O O11 0.500000 0.212824 0.000000
O O12 0.671836 0.166963 0.957942
O O13 0.374826 0.500000 0.156222
O O14 0.000000 0.218467 0.500000
O O15 0.867167 0.000000 0.585483
O O16 0.877165 0.226907 0.847397
O O17 0.802030 0.000000 0.938441
O O18 0.750000 0.250000 0.000000
O O19 0.453746 0.500000 0.764786
#
# Coordination Sequence:
#
# PCOD8086179 Si02
#       7
#     8   8   8   8   8   8   8
#     4   9  17  32  54  73  94 129 166 197 234 286
#     4   9  18  32  51  73  96 125 160 195 234 285
#     4  10  20  33  49  68  91 125 169 208 241 285
#     4  10  19  31  48  70  96 124 158 204 251 288
#     4   9  18  33  53  77 102 126 155 193 237 285
#     4  10  20  33  49  69  95 127 163 204 246 286
#     4   9  17  32  52  71  93 126 167 202 233 280
#
# _framework density 18.344094999999999
#
# number of rings (size 3 to 8) (size 9 to 14) (size 15 to 20)
#    0.000    2.571    0.000    2.143    0.000    5.143 
#    0.000    4.286    0.000    0.000    0.000    0.000 
#    0.000    0.000    0.000    0.000    0.000    0.000 
#
# Total GULP energy -347190.515027 kJ/mol
# GULP energy per Si atom -12399.661251 kJ/mol
# Density = 1.830234 g / cm^3
# Si number density = 18.344095 Si / 1000 Ang^3
#
#
#
# Elastic Constant Matrix: (Units=GPa)
#
#
# Indices 1 2 3 4 5 6 
#
# 1 103.3197 25.1525 28.4025 0.0000 -19.4602 0.0000
# 2 25.1525 60.0795 34.1468 0.0001 -8.5511 -0.0004
# 3 28.4025 34.1468 97.3880 0.0000 -19.0397 0.0000
# 4 0.0000 0.0001 0.0000 26.4086 0.0000 -4.2015
# 5 -19.4602 -8.5511 -19.0397 0.0000 25.9902 0.0000
# 6 0.0000 -0.0004 0.0000 -4.2015 0.0000 20.6140
#
#
#
# Elastic Compliance Matrix: (Units=1/GPa)
#
#
# Indices 1 2 3 4 5 6 
#
# 1 0.012158 -0.003556 -0.000873 0.000000 0.007294 0.000000
# 2 -0.003556 0.021895 -0.006714 0.000000 -0.000377 0.000000
# 3 -0.000873 -0.006714 0.014376 0.000000 0.007669 0.000000
# 4 0.000000 0.000000 0.000000 0.039136 0.000000 0.007977
# 5 0.007294 -0.000377 0.007669 0.000000 0.049431 0.000000
# 6 0.000000 0.000000 0.000000 0.007977 0.000000 0.050136
#
#
# Mechanical properties :
#
#
# Convention : Reuss Voigt Hill
#
# Bulk Modulus (GPa) = 38.24885 48.46565 43.35725
# Shear Modulus (GPa) = 22.92177 26.14159 24.53168
#
# Velocity S-wave (km/s) = 3.53873 3.77910 3.66089
# Velocity P-wave (km/s) = 6.13130 6.74684 6.44642
#
# Compressibility (1/GPa) = 0.02614458
#
# Stress axis : x y z
#
# Youngs Moduli (GPa) = 82.24961 45.67166 69.55946
#
# Poissons Ratio (x) = 0.16239 0.06074
# Poissons Ratio (y) = 0.29245 0.46701
# Poissons Ratio (z) = 0.07182 0.30663
#
# Static dielectric constant tensor:
#      x y z
#    x 3.529720 0.000000 -0.197700 
#    y 0.000000 3.306430 0.000000 
#    z -0.197700 0.000000 3.343370 
# 
# 
# High freq. dielectric constant tensor:
#      x y z
#    x 1.714110 0.000000 -0.011960 
#    y 0.000000 1.691330 0.000000 
#    z -0.011960 0.000000 1.700290 
# 
# From -- ./inp_files/275676.got.cif
#   From: 2010.06.25/outbox.cif.g09.slc.cpg/sg12_138_cif.got.tgz:275676.got - 2010.06.28 00:19:55.
