data_PCOD8086227
_publ_section_title
;
Structure prediction by ZEFSAII (Michael W. Deem and Ramdas Pophale) SiO2 
 PCOD8086227
Probable space group: C 2/M
;
_chemical_formula_sum "Si O2"
_cell_formula_units_Z 64
_cell_length_a 14.270897
_cell_length_b 9.160934
_cell_length_c 30.426373
_cell_angle_alpha 90.000000
_cell_angle_beta 59.752818
_cell_angle_gamma 90.000000
_cell_volume 3436.249720
_symmetry_space_group_name_H-M "C 2/M"
_symmetry_group_IT_number 12
_symmetry_cell_setting 'monoclinic'
loop_
_space_group_symop_operation_xyz
x,y,z
-x,y,-z
-x,-y,-z
x,-y,z
1/2+x,1/2+y,z
1/2-x,1/2+y,-z
1/2-x,1/2-y,-z
1/2+x,1/2-y,z
loop_
_atom_site_type_symbol
_atom_site_label
_atom_site_fract_x
_atom_site_fract_y
_atom_site_fract_z
Si Si1 0.269654 0.829499 0.624355
Si Si2 0.822783 0.332610 0.105136
Si Si3 0.969896 0.829180 0.291377
Si Si4 0.021583 0.174095 0.098489
Si Si5 0.418414 0.332324 0.821234
Si Si6 0.209215 0.670561 0.552675
Si Si7 0.122436 0.838005 0.988149
Si Si8 0.031667 0.330935 0.361965
O O1 0.158183 0.796034 0.676460
O O2 0.273159 0.737366 0.578888
O O3 0.369684 0.777236 0.630726
O O4 0.279402 0.000000 0.609950
O O5 0.860145 0.500000 0.093456
O O6 0.709201 0.315681 0.157114
O O7 0.809994 0.273336 0.058119
O O8 0.906106 0.239953 0.113539
O O9 0.015570 0.761547 0.234947
O O10 0.035133 0.755888 0.315688
O O11 0.994605 0.000000 0.288624
O O12 0.051569 0.239933 0.139013
O O13 0.010774 0.000000 0.100669
O O14 0.114891 0.218225 0.040690
O O15 0.452976 0.500000 0.816307
O O16 0.236209 0.500000 0.543570
O O17 0.250000 0.750000 0.500000
O O18 0.080835 0.699608 0.586467
O O19 0.174479 0.000000 0.973011
O O20 0.000000 0.844004 0.000000
O O21 0.045197 0.500000 0.347134
#
# Coordination Sequence:
#
# PCOD8086227 Si02
#       8
#     8   8   8   8   8   8   8   8
#     4   9  18  34  55  76  99 133 174 208 244 292
#     4  10  19  31  48  71  98 124 155 199 246 291
#     4   9  18  34  54  73  96 128 167 207 245 295
#     4   9  18  34  52  68  93 129 163 195 239 299
#     4   9  19  34  50  71  99 129 159 197 250 300
#     4  10  20  34  52  77 111 142 168 205 248 289
#     4   8  15  29  48  68  92 124 159 194 237 293
#     4   9  19  35  54  77 104 133 167 210 254 287
#
# _framework density 18.624956999999998
#
# number of rings (size 3 to 8) (size 9 to 14) (size 15 to 20)
#    0.000    2.875    0.000    1.500    0.000    5.250 
#    0.000    6.875    0.000    0.000    0.000    0.000 
#    0.000    0.000    0.000    0.000    0.000    0.000 
#
# Total GULP energy -396723.211618 kJ/mol
# GULP energy per Si atom -12397.600363 kJ/mol
# Density = 1.858257 g / cm^3
# Si number density = 18.624957 Si / 1000 Ang^3
#
#
#
# Elastic Constant Matrix: (Units=GPa)
#
#
# Indices 1 2 3 4 5 6 
#
# 1 100.3235 25.4728 48.5504 0.0000 15.4608 0.0000
# 2 25.4728 47.5302 41.1961 0.0000 6.1342 0.0000
# 3 48.5504 41.1961 144.3507 0.0000 15.6263 0.0000
# 4 0.0000 0.0000 0.0000 25.8580 0.0000 1.7531
# 5 15.4608 6.1342 15.6263 0.0000 20.9904 0.0000
# 6 0.0000 0.0000 0.0000 1.7531 0.0000 23.2827
#
#
#
# Elastic Compliance Matrix: (Units=1/GPa)
#
#
# Indices 1 2 3 4 5 6 
#
# 1 0.013269 -0.003997 -0.002600 0.000000 -0.006670 0.000000
# 2 -0.003997 0.029272 -0.006963 0.000000 -0.000427 0.000000
# 3 -0.002600 -0.006963 0.010182 0.000000 -0.003630 0.000000
# 4 0.000000 0.000000 0.000000 0.038871 0.000000 -0.002927
# 5 -0.006670 -0.000427 -0.003630 0.000000 0.055380 0.000000
# 6 0.000000 0.000000 0.000000 -0.002927 0.000000 0.043171
#
#
# Mechanical properties :
#
#
# Convention : Reuss Voigt Hill
#
# Bulk Modulus (GPa) = 39.05907 58.07144 48.56525
# Shear Modulus (GPa) = 22.14354 25.82523 23.98439
#
# Velocity S-wave (km/s) = 3.45181 3.72774 3.59242
# Velocity P-wave (km/s) = 6.07483 7.05515 6.58326
#
# Compressibility (1/GPa) = 0.02560225
#
# Stress axis : x y z
#
# Youngs Moduli (GPa) = 75.36536 34.16277 98.20935
#
# Poissons Ratio (x) = 0.13654 0.25536
# Poissons Ratio (y) = 0.30121 0.68387
# Poissons Ratio (z) = 0.19596 0.23789
#
# Static dielectric constant tensor:
#      x y z
#    x 3.365150 0.000000 0.134010 
#    y 0.000000 3.303960 0.000000 
#    z 0.134010 0.000000 3.698730 
# 
# 
# High freq. dielectric constant tensor:
#      x y z
#    x 1.718420 0.000000 0.004580 
#    y 0.000000 1.707420 0.000000 
#    z 0.004580 0.000000 1.725860 
# 
# From -- ./inp_files/374984.got.cif
#   From: 2010.06.25/outbox.cif.g09.slc.cpg/sg12_188_cif.got.tgz:374984.got - 2010.06.28 00:19:55.
