data_PCOD8086808
_publ_section_title
;
Structure prediction by ZEFSAII (Michael W. Deem and Ramdas Pophale) SiO2 
 PCOD8086808
Probable space group: C 2/M
;
_chemical_formula_sum "Si O2"
_cell_formula_units_Z 40
_cell_length_a 17.923413
_cell_length_b 14.585718
_cell_length_c 10.678328
_cell_angle_alpha 90.000000
_cell_angle_beta 56.960541
_cell_angle_gamma 90.000000
_cell_volume 2340.177521
_symmetry_space_group_name_H-M "C 2/M"
_symmetry_group_IT_number 12
_symmetry_cell_setting 'monoclinic'
loop_
_space_group_symop_operation_xyz
x,y,z
-x,y,-z
-x,-y,-z
x,-y,z
1/2+x,1/2+y,z
1/2-x,1/2+y,-z
1/2-x,1/2-y,-z
1/2+x,1/2-y,z
loop_
_atom_site_type_symbol
_atom_site_label
_atom_site_fract_x
_atom_site_fract_y
_atom_site_fract_z
Si Si1 0.331706 0.266298 0.336676
Si Si2 0.044248 0.718364 0.583168
Si Si3 0.707554 0.105720 0.323339
Si Si4 0.895275 0.395281 0.105533
Si Si5 0.886060 0.603956 0.836846
O O1 0.250000 0.250000 0.500000
O O2 0.414911 0.291034 0.353435
O O3 0.303065 0.348621 0.270582
O O4 0.350932 0.173078 0.244117
O O5 0.122732 0.649223 0.470996
O O6 0.000000 0.765682 0.500000
O O7 0.970287 0.664340 0.726056
O O8 0.695185 0.119526 0.185283
O O9 0.712339 0.000000 0.357479
O O10 0.875626 0.500000 0.165801
O O11 0.852370 0.374756 0.008130
O O12 0.000000 0.377250 0.000000
O O13 0.920810 0.500000 0.797414
#
# Coordination Sequence:
#
# PCOD8086808 Si02
#       5
#     8   8   8   8   8
#     4  10  20  31  46  73 104 133 162 197 249 300
#     4   9  16  28  47  71  98 127 163 206 247 291
#     4   9  18  30  46  70 102 134 162 196 240 294
#     4  10  19  31  51  77 103 126 158 207 255 296
#     4   9  16  28  48  74  98 124 159 201 252 295
#
# _framework density 17.09272
#
# number of rings (size 3 to 8) (size 9 to 14) (size 15 to 20)
#    0.000    2.600    2.000    0.600    0.000    6.400 
#    0.000    0.000    0.000    1.200    0.000    4.200 
#    0.000    0.000    0.000    0.000    0.000    0.000 
#
# Total GULP energy -247766.449401 kJ/mol
# GULP energy per Si atom -12388.322470 kJ/mol
# Density = 1.705382 g / cm^3
# Si number density = 17.092720 Si / 1000 Ang^3
#
#
#
# Elastic Constant Matrix: (Units=GPa)
#
#
# Indices 1 2 3 4 5 6 
#
# 1 148.5460 50.3872 35.7339 0.0000 28.6953 0.0000
# 2 50.3872 55.7461 28.3099 0.0000 4.1577 0.0000
# 3 35.7339 28.3099 72.9749 0.0000 12.7500 0.0000
# 4 0.0000 0.0000 0.0000 22.3672 0.0000 -0.8196
# 5 28.6953 4.1577 12.7500 0.0000 24.4068 0.0000
# 6 0.0000 0.0000 0.0000 -0.8196 0.0000 28.1349
#
#
#
# Elastic Compliance Matrix: (Units=1/GPa)
#
#
# Indices 1 2 3 4 5 6 
#
# 1 0.012956 -0.010810 0.000208 0.000000 -0.013500 0.000000
# 2 -0.010810 0.031372 -0.008984 0.000000 0.012058 0.000000
# 3 0.000208 -0.008984 0.018556 0.000000 -0.008407 0.000000
# 4 0.000000 0.000000 0.000000 0.044756 0.000000 0.001304
# 5 -0.013500 0.012058 -0.008407 0.000000 0.059182 0.000000
# 6 0.000000 0.000000 0.000000 0.001304 0.000000 0.035581
#
#
# Mechanical properties :
#
#
# Convention : Reuss Voigt Hill
#
# Bulk Modulus (GPa) = 42.17174 56.23655 49.20414
# Shear Modulus (GPa) = 20.04174 25.83751 22.93962
#
# Velocity S-wave (km/s) = 3.42794 3.89216 3.66740
# Velocity P-wave (km/s) = 6.35559 7.29183 6.83975
#
# Compressibility (1/GPa) = 0.02371256
#
# Stress axis : x y z
#
# Youngs Moduli (GPa) = 77.18169 31.87564 53.89159
#
# Poissons Ratio (x) = 0.34456 -0.01119
# Poissons Ratio (y) = 0.83430 0.48416
# Poissons Ratio (z) = -0.01603 0.28637
#
# Static dielectric constant tensor:
#      x y z
#    x 4.091770 0.000000 0.466770 
#    y 0.000000 3.110430 0.000000 
#    z 0.466770 0.000000 3.282340 
# 
# 
# High freq. dielectric constant tensor:
#      x y z
#    x 1.673320 0.000000 0.034120 
#    y 0.000000 1.617040 0.000000 
#    z 0.034120 0.000000 1.650260 
# 
# From -- ./inp_files/145045.got.cif
#   From: 2010.06.25/outbox.cif.g09.slc.cpg/sg12_73_cif.got.tgz:145045.got - 2010.06.28 00:19:55.
