data_PCOD8086533
_publ_section_title
;
Structure prediction by ZEFSAII (Michael W. Deem and Ramdas Pophale) SiO2 
 PCOD8086533
Probable space group: C 2/M
;
_chemical_formula_sum "Si O2"
_cell_formula_units_Z 64
_cell_length_a 25.124221
_cell_length_b 8.743271
_cell_length_c 32.100825
_cell_angle_alpha 90.000000
_cell_angle_beta 152.631323
_cell_angle_gamma 90.000000
_cell_volume 3241.684955
_symmetry_space_group_name_H-M "C 2/M"
_symmetry_group_IT_number 12
_symmetry_cell_setting 'monoclinic'
loop_
_space_group_symop_operation_xyz
x,y,z
-x,y,-z
-x,-y,-z
x,-y,z
1/2+x,1/2+y,z
1/2-x,1/2+y,-z
1/2-x,1/2-y,-z
1/2+x,1/2-y,z
loop_
_atom_site_type_symbol
_atom_site_label
_atom_site_fract_x
_atom_site_fract_y
_atom_site_fract_z
Si Si1 0.130033 0.335035 0.582625
Si Si2 0.271991 0.676217 0.274123
Si Si3 0.879256 0.678338 0.191237
Si Si4 0.333284 0.179338 0.484920
Si Si5 0.198815 0.317527 0.006377
Si Si6 0.436738 0.817948 0.821150
Si Si7 0.441759 0.318552 0.321841
Si Si8 0.387269 0.822747 0.694516
O O1 0.197052 0.500000 0.634650
O O2 0.165493 0.201921 0.638618
O O3 0.140963 0.269192 0.544068
O O4 0.000000 0.376061 0.500000
O O5 0.264406 0.500000 0.257872
O O6 0.141171 0.738566 0.193159
O O7 0.346739 0.752688 0.288700
O O8 0.861472 0.500000 0.188383
O O9 0.764027 0.748693 0.091332
O O10 0.901149 0.768160 0.248661
O O11 0.983597 0.706379 0.231881
O O12 0.428307 0.257351 0.580435
O O13 0.201108 0.237857 0.398928
O O14 0.340297 0.000000 0.498165
O O15 0.208971 0.500000 0.012683
O O16 0.250000 0.250000 0.000000
O O17 0.066611 0.260066 0.918368
O O18 0.383776 0.757601 0.739900
O O19 0.436066 0.000000 0.817725
O O20 0.445751 0.500000 0.328177
O O21 0.354967 0.000000 0.670742
#
# Coordination Sequence:
#
# PCOD8086533 Si02
#       8
#     8   8   8   8   8   8   8   8
#     4  10  19  31  49  78 116 151 189 234 287 340
#     4  10  20  35  58  84 114 152 197 240 286 339
#     4  11  24  43  63  85 116 156 196 242 297 352
#     4  11  22  35  55  86 121 158 195 239 293 345
#     4  11  21  38  65  94 122 151 190 241 296 353
#     4   9  18  35  59  90 121 148 184 240 297 343
#     4  11  24  40  59  84 114 159 206 241 282 345
#     4  10  20  37  60  86 117 152 193 240 291 346
#
# _framework density 19.742819000000001
#
# number of rings (size 3 to 8) (size 9 to 14) (size 15 to 20)
#    0.000    1.625    3.750    1.500    0.000    2.750 
#    0.000    1.875    0.000    3.750    0.000    0.000 
#    0.000    0.000    0.000    0.000    0.000    0.000 
#
# Total GULP energy -396558.015584 kJ/mol
# GULP energy per Si atom -12392.437987 kJ/mol
# Density = 1.969788 g / cm^3
# Si number density = 19.742819 Si / 1000 Ang^3
#
#
#
# Elastic Constant Matrix: (Units=GPa)
#
#
# Indices 1 2 3 4 5 6 
#
# 1 48.2214 23.9733 34.8833 0.0001 0.3990 0.0008
# 2 23.9733 55.6538 36.2806 0.0015 5.6675 -0.0004
# 3 34.8833 36.2806 149.9122 0.0007 5.1403 0.0005
# 4 0.0001 0.0015 0.0007 31.4858 0.0001 -4.5449
# 5 0.3990 5.6675 5.1403 0.0001 33.5617 0.0004
# 6 0.0008 -0.0004 0.0005 -4.5449 0.0004 24.5859
#
#
#
# Elastic Compliance Matrix: (Units=1/GPa)
#
#
# Indices 1 2 3 4 5 6 
#
# 1 0.028733 -0.009707 -0.004404 0.000000 0.001972 -0.000001
# 2 -0.009707 0.024883 -0.003642 -0.000001 -0.003529 0.000001
# 3 -0.004404 -0.003642 0.008599 0.000000 -0.000650 0.000000
# 4 0.000000 -0.000001 0.000000 0.032631 0.000000 0.006032
# 5 0.001972 -0.003529 -0.000650 0.000000 0.030468 -0.000001
# 6 -0.000001 0.000001 0.000000 0.006032 -0.000001 0.041789
#
#
# Mechanical properties :
#
#
# Convention : Reuss Voigt Hill
#
# Bulk Modulus (GPa) = 37.44095 49.34017 43.39056
# Shear Modulus (GPa) = 23.63918 28.50336 26.07127
#
# Velocity S-wave (km/s) = 3.46404 3.80377 3.63787
# Velocity P-wave (km/s) = 5.91649 6.65862 6.29850
#
# Compressibility (1/GPa) = 0.02670872
#
# Stress axis : x y z
#
# Youngs Moduli (GPa) = 34.80294 40.18767 116.28932
#
# Poissons Ratio (x) = 0.39009 0.51219
# Poissons Ratio (y) = 0.33782 0.42357
# Poissons Ratio (z) = 0.15329 0.14638
#
# Static dielectric constant tensor:
#      x y z
#    x 3.787530 0.000000 0.280570 
#    y 0.000000 3.504810 0.000000 
#    z 0.280570 0.000000 3.707240 
# 
# 
# High freq. dielectric constant tensor:
#      x y z
#    x 1.769620 0.000000 0.015730 
#    y 0.000000 1.758760 0.000000 
#    z 0.015730 0.000000 1.766600 
# 
# From -- ./inp_files/382436.got.cif
#   From: 2010.06.25/outbox.cif.g09.slc.cpg/sg12_192_cif.got.tgz:382436.got - 2010.06.28 00:19:55.
