data_PCOD8086159
_publ_section_title
;
Structure prediction by ZEFSAII (Michael W. Deem and Ramdas Pophale) SiO2 
 PCOD8086159
Probable space group: C 2/M
;
_chemical_formula_sum "Si O2"
_cell_formula_units_Z 40
_cell_length_a 19.251021
_cell_length_b 7.915562
_cell_length_c 20.445204
_cell_angle_alpha 90.000000
_cell_angle_beta 45.541160
_cell_angle_gamma 90.000000
_cell_volume 2223.695892
_symmetry_space_group_name_H-M "C 2/M"
_symmetry_group_IT_number 12
_symmetry_cell_setting 'monoclinic'
loop_
_space_group_symop_operation_xyz
x,y,z
-x,y,-z
-x,-y,-z
x,-y,z
1/2+x,1/2+y,z
1/2-x,1/2+y,-z
1/2-x,1/2-y,-z
1/2+x,1/2-y,z
loop_
_atom_site_type_symbol
_atom_site_label
_atom_site_fract_x
_atom_site_fract_y
_atom_site_fract_z
Si Si1 0.893558 0.306872 0.584300
Si Si2 0.494426 0.500000 0.896063
Si Si3 0.245630 0.315462 0.781538
Si Si4 0.747668 0.804658 0.575818
Si Si5 0.339641 0.500000 0.103817
Si Si6 0.081963 0.312601 0.779850
O O1 0.903147 0.500000 0.600063
O O2 0.846340 0.207938 0.676172
O O3 0.828212 0.299259 0.562305
O O4 0.000000 0.229028 0.500000
O O5 0.580292 0.500000 0.892220
O O6 0.501466 0.668351 0.846440
O O7 0.389905 0.500000 0.999865
O O8 0.248417 0.500000 0.814566
O O9 0.227734 0.167292 0.846180
O O10 0.158827 0.311636 0.787360
O O11 0.750000 0.750000 0.500000
O O12 0.639500 0.768231 0.675180
O O13 0.773874 0.000000 0.567025
O O14 0.033180 0.500000 0.807481
#
# Coordination Sequence:
#
# PCOD8086159 Si02
#       6
#     8   4   8   8   4   8
#     4  10  19  31  48  69  96 131 163 197 239 284
#     4   9  16  24  42  56  84 122 145 194 231 276
#     4   9  16  27  42  59  87 121 152 189 231 281
#     4  10  20  31  47  69  95 130 163 198 236 284
#     4   9  16  26  37  62  84 114 159 184 233 282
#     4   8  16  27  39  60  85 117 154 184 231 278
#
# _framework density 17.988071999999999
#
# number of rings (size 3 to 8) (size 9 to 14) (size 15 to 20)
#    0.000    2.800    1.000    2.400    5.600    2.400 
#    0.000    4.000    0.000    0.000    0.000    0.000 
#    0.000    1.600    0.800    0.000    0.000    0.000 
#
# Total GULP energy -247902.837362 kJ/mol
# GULP energy per Si atom -12395.141868 kJ/mol
# Density = 1.794713 g / cm^3
# Si number density = 17.988072 Si / 1000 Ang^3
#
#
#
# Elastic Constant Matrix: (Units=GPa)
#
#
# Indices 1 2 3 4 5 6 
#
# 1 16.7681 11.4495 25.6319 0.0001 -4.2277 -0.0001
# 2 11.4495 145.9002 85.8986 0.0003 -7.6234 -0.0001
# 3 25.6319 85.8986 149.1369 0.0001 -7.1965 -0.0001
# 4 0.0001 0.0003 0.0001 25.6314 -0.0001 0.8784
# 5 -4.2277 -7.6234 -7.1965 -0.0001 17.9662 0.0001
# 6 -0.0001 -0.0001 -0.0001 0.8784 0.0001 10.4786
#
#
#
# Elastic Compliance Matrix: (Units=1/GPa)
#
#
# Indices 1 2 3 4 5 6 
#
# 1 0.085500 0.003487 -0.015970 0.000000 0.015202 0.000000
# 2 0.003487 0.010587 -0.006568 0.000000 0.002682 0.000000
# 3 -0.015970 -0.006568 0.013172 0.000000 -0.001269 0.000000
# 4 0.000000 0.000000 0.000000 0.039127 0.000000 -0.003280
# 5 0.015202 0.002682 -0.001269 0.000000 0.059867 0.000000
# 6 0.000000 0.000000 0.000000 -0.003280 0.000000 0.095708
#
#
# Mechanical properties :
#
#
# Convention : Reuss Voigt Hill
#
# Bulk Modulus (GPa) = 14.05320 61.97391 38.01356
# Shear Modulus (GPa) = 13.66934 23.40358 18.53646
#
# Velocity S-wave (km/s) = 2.75964 3.61094 3.21360
# Velocity P-wave (km/s) = 4.24071 7.20505 5.91170
#
# Compressibility (1/GPa) = 0.07115815
#
# Stress axis : x y z
#
# Youngs Moduli (GPa) = 11.69584 94.45262 75.92115
#
# Poissons Ratio (x) = -0.32933 1.21242
# Poissons Ratio (y) = -0.04078 0.49864
# Poissons Ratio (z) = 0.18678 0.62035
#
# Static dielectric constant tensor:
#      x y z
#    x 2.327100 0.000000 -0.642380 
#    y 0.000000 3.723660 0.000000 
#    z -0.642380 0.000000 2.567040 
# 
# 
# High freq. dielectric constant tensor:
#      x y z
#    x 1.610360 0.000000 -0.007730 
#    y 0.000000 1.718650 0.000000 
#    z -0.007730 0.000000 1.698830 
# 
# From -- ./inp_files/280727.got.cif
#   From: 2010.06.25/outbox.cif.g09.slc.cpg/sg12_141_cif.got.tgz:280727.got - 2010.06.28 00:19:55.
