data_PCOD8086341
_publ_section_title
;
Structure prediction by ZEFSAII (Michael W. Deem and Ramdas Pophale) SiO2 
 PCOD8086341
Probable space group: C 2/M
;
_chemical_formula_sum "Si O2"
_cell_formula_units_Z 64
_cell_length_a 22.918173
_cell_length_b 9.018556
_cell_length_c 17.710590
_cell_angle_alpha 90.000000
_cell_angle_beta 102.015588
_cell_angle_gamma 90.000000
_cell_volume 3580.381394
_symmetry_space_group_name_H-M "C 2/M"
_symmetry_group_IT_number 12
_symmetry_cell_setting 'monoclinic'
loop_
_space_group_symop_operation_xyz
x,y,z
-x,y,-z
-x,-y,-z
x,-y,z
1/2+x,1/2+y,z
1/2-x,1/2+y,-z
1/2-x,1/2-y,-z
1/2+x,1/2-y,z
loop_
_atom_site_type_symbol
_atom_site_label
_atom_site_fract_x
_atom_site_fract_y
_atom_site_fract_z
Si Si1 0.735556 0.670658 0.573076
Si Si2 0.131166 0.827705 0.646019
Si Si3 0.785734 0.674963 0.211577
Si Si4 0.812787 0.676217 0.736942
Si Si5 0.060491 0.174596 0.236226
Si Si6 0.022146 0.172455 0.927072
Si Si7 0.883849 0.663567 0.132140
Si Si8 0.965471 0.332243 0.301476
O O1 0.748357 0.500000 0.562823
O O2 0.750000 0.750000 0.500000
O O3 0.665622 0.697341 0.575767
O O4 0.779331 0.726720 0.651322
O O5 0.176964 0.773423 0.720873
O O6 0.069011 0.736957 0.635095
O O7 0.117038 0.000000 0.656138
O O8 0.788055 0.500000 0.232628
O O9 0.718624 0.739861 0.200058
O O10 0.814922 0.701073 0.135925
O O11 0.810747 0.500000 0.748891
O O12 0.879652 0.732490 0.750583
O O13 0.025199 0.212563 0.150135
O O14 0.023085 0.232596 0.298130
O O15 0.072720 0.000000 0.248307
O O16 0.088230 0.229443 0.923129
O O17 0.029868 0.000000 0.939958
O O18 0.000000 0.244334 0.000000
O O19 0.888031 0.500000 0.098442
O O20 0.920456 0.672318 0.219601
O O21 0.985305 0.500000 0.325725
#
# Coordination Sequence:
#
# PCOD8086341 Si02
#       8
#     8   8   8   8   8   8   8   8
#     4   9  19  32  48  70  96 125 155 190 231 276
#     4   9  16  27  43  67  95 121 153 193 234 274
#     4   9  16  27  44  67  92 119 154 194 234 275
#     4  10  20  33  48  70  98 125 155 193 235 278
#     4  10  19  31  49  71  95 126 158 191 235 281
#     4   9  18  31  47  69  96 124 155 191 231 276
#     4   8  15  26  42  66  92 117 150 191 231 271
#     4   9  16  27  44  67  93 121 154 194 235 274
#
# _framework density 17.875191000000001
#
# number of rings (size 3 to 8) (size 9 to 14) (size 15 to 20)
#    0.000    2.875    0.000    3.375    0.000    7.250 
#    0.000    0.000    0.000    1.500    0.000    5.250 
#    0.000    0.000    0.000    0.000    0.000    0.000 
#
# Total GULP energy -396528.026840 kJ/mol
# GULP energy per Si atom -12391.500839 kJ/mol
# Density = 1.783451 g / cm^3
# Si number density = 17.875191 Si / 1000 Ang^3
#
#
#
# Elastic Constant Matrix: (Units=GPa)
#
#
# Indices 1 2 3 4 5 6 
#
# 1 131.8412 49.8144 42.6575 0.0000 -34.0329 0.0000
# 2 49.8144 75.6601 37.3830 0.0000 -17.1639 0.0000
# 3 42.6575 37.3830 49.9443 0.0000 -25.3703 0.0000
# 4 0.0000 0.0000 0.0000 19.1850 0.0000 -7.8281
# 5 -34.0329 -17.1639 -25.3703 0.0000 26.3679 0.0000
# 6 0.0000 0.0000 0.0000 -7.8281 0.0000 37.9972
#
#
#
# Elastic Compliance Matrix: (Units=1/GPa)
#
#
# Indices 1 2 3 4 5 6 
#
# 1 0.013158 -0.005426 -0.000673 0.000000 0.012803 0.000000
# 2 -0.005426 0.023320 -0.016953 0.000000 -0.008135 0.000000
# 3 -0.000673 -0.016953 0.053281 0.000000 0.039361 0.000000
# 4 0.000000 0.000000 0.000000 0.056908 0.000000 0.011724
# 5 0.012803 -0.008135 0.039361 0.000000 0.087026 0.000000
# 6 0.000000 0.000000 0.000000 0.011724 0.000000 0.028733
#
#
# Mechanical properties :
#
#
# Convention : Reuss Voigt Hill
#
# Bulk Modulus (GPa) = 22.90729 57.46174 40.18451
# Shear Modulus (GPa) = 15.47597 25.21606 20.34602
#
# Velocity S-wave (km/s) = 2.94560 3.75997 3.37742
# Velocity P-wave (km/s) = 4.94082 7.14603 6.14318
#
# Compressibility (1/GPa) = 0.04365423
#
# Stress axis : x y z
#
# Youngs Moduli (GPa) = 76.00105 42.88092 18.76854
#
# Poissons Ratio (x) = 0.23267 0.01263
# Poissons Ratio (y) = 0.41238 0.31818
# Poissons Ratio (z) = 0.05116 0.72696
#
# Static dielectric constant tensor:
#      x y z
#    x 3.715760 0.000000 -0.470570 
#    y 0.000000 3.395170 0.000000 
#    z -0.470570 0.000000 3.033950 
# 
# 
# High freq. dielectric constant tensor:
#      x y z
#    x 1.702580 0.000000 -0.038390 
#    y 0.000000 1.702090 0.000000 
#    z -0.038390 0.000000 1.633910 
# 
# From -- ./inp_files/287554.got.cif
#   From: 2010.06.25/outbox.cif.g09.slc.cpg/sg12_144_cif.got.tgz:287554.got - 2010.06.28 00:19:55.
