data_PCOD8086837
_publ_section_title
;
Structure prediction by ZEFSAII (Michael W. Deem and Ramdas Pophale) SiO2 
 PCOD8086837
Probable space group: C 2/M
;
_chemical_formula_sum "Si O2"
_cell_formula_units_Z 64
_cell_length_a 14.938978
_cell_length_b 27.525193
_cell_length_c 9.844915
_cell_angle_alpha 90.000000
_cell_angle_beta 62.962353
_cell_angle_gamma 90.000000
_cell_volume 3605.774802
_symmetry_space_group_name_H-M "C 2/M"
_symmetry_group_IT_number 12
_symmetry_cell_setting 'monoclinic'
loop_
_space_group_symop_operation_xyz
x,y,z
-x,y,-z
-x,-y,-z
x,-y,z
1/2+x,1/2+y,z
1/2-x,1/2+y,-z
1/2-x,1/2-y,-z
1/2+x,1/2-y,z
loop_
_atom_site_type_symbol
_atom_site_label
_atom_site_fract_x
_atom_site_fract_y
_atom_site_fract_z
Si Si1 0.051284 0.173702 0.819877
Si Si2 0.233629 0.639534 0.375627
Si Si3 0.281871 0.144819 0.299379
Si Si4 0.417833 0.317103 0.671618
Si Si5 0.418149 0.792771 0.672243
Si Si6 0.907838 0.555106 0.479426
Si Si7 0.449216 0.781464 0.173928
Si Si8 0.588706 0.055158 0.834563
O O1 0.149197 0.139194 0.746032
O O2 0.085919 0.228292 0.748369
O O3 0.965636 0.158186 0.771976
O O4 0.000000 0.168707 0.000000
O O5 0.221420 0.657332 0.538382
O O6 0.174458 0.672739 0.306361
O O7 0.191196 0.584725 0.408843
O O8 0.173916 0.149209 0.307094
O O9 0.357893 0.184881 0.192235
O O10 0.317646 0.091869 0.222797
O O11 0.500000 0.317072 0.500000
O O12 0.377846 0.262052 0.722110
O O13 0.500000 0.796123 0.500000
O O14 0.474977 0.808484 0.772735
O O15 0.883889 0.500000 0.537360
O O16 0.945847 0.558866 0.297962
O O17 0.000000 0.577248 0.500000
O O18 0.500000 0.767557 0.000000
O O19 0.623753 0.000000 0.844821
O O20 0.500000 0.070785 0.000000
#
# Coordination Sequence:
#
# PCOD8086837 Si02
#       8
#     8   8   8   8   8   8   8   8
#     4  10  22  38  50  72 106 142 174 218 258 293
#     4  11  20  32  56  77 101 137 178 211 253 310
#     4  11  20  32  55  79 101 137 177 211 252 308
#     4  10  20  34  52  73 102 138 180 215 250 295
#     4  10  19  31  51  78 103 136 174 210 253 313
#     4   9  19  35  56  81 106 131 164 209 259 311
#     4  10  21  34  50  76 111 134 168 217 263 304
#     4   9  19  36  56  79 108 134 160 206 264 313
#
# _framework density 17.749307000000002
#
# number of rings (size 3 to 8) (size 9 to 14) (size 15 to 20)
#    0.000    2.000    2.500    1.500    1.750    2.000 
#    2.250    3.750    0.000    1.500    0.000    0.000 
#    0.000    0.000    0.000    0.000    0.000    0.000 
#
# Total GULP energy -396600.818568 kJ/mol
# GULP energy per Si atom -12393.775580 kJ/mol
# Density = 1.770891 g / cm^3
# Si number density = 17.749307 Si / 1000 Ang^3
#
#
#
# Elastic Constant Matrix: (Units=GPa)
#
#
# Indices 1 2 3 4 5 6 
#
# 1 127.3614 53.7633 39.0864 0.0000 4.3324 0.0000
# 2 53.7633 69.0384 32.2596 0.0000 -9.0468 0.0000
# 3 39.0864 32.2596 78.5121 0.0000 1.9140 0.0000
# 4 0.0000 0.0000 0.0000 26.4478 0.0000 -5.7521
# 5 4.3324 -9.0468 1.9140 0.0000 27.5214 0.0000
# 6 0.0000 0.0000 0.0000 -5.7521 0.0000 26.3605
#
#
#
# Elastic Compliance Matrix: (Units=1/GPa)
#
#
# Indices 1 2 3 4 5 6 
#
# 1 0.012736 -0.009483 -0.002323 0.000000 -0.004961 0.000000
# 2 -0.009483 0.026194 -0.006299 0.000000 0.010541 0.000000
# 3 -0.002323 -0.006299 0.016551 0.000000 -0.002856 0.000000
# 4 0.000000 0.000000 0.000000 0.039694 0.000000 0.008662
# 5 -0.004961 0.010541 -0.002856 0.000000 0.040780 0.000000
# 6 0.000000 0.000000 0.000000 0.008662 0.000000 0.039826
#
#
# Mechanical properties :
#
#
# Convention : Reuss Voigt Hill
#
# Bulk Modulus (GPa) = 51.88978 58.34783 55.11880
# Shear Modulus (GPa) = 22.89215 26.05276 24.47246
#
# Velocity S-wave (km/s) = 3.59520 3.83537 3.71723
# Velocity P-wave (km/s) = 6.82146 7.24969 7.03883
#
# Compressibility (1/GPa) = 0.01927162
#
# Stress axis : x y z
#
# Youngs Moduli (GPa) = 78.51482 38.17672 60.41813
#
# Poissons Ratio (x) = 0.36202 0.14038
# Poissons Ratio (y) = 0.74454 0.38056
# Poissons Ratio (z) = 0.18242 0.24047
#
# Static dielectric constant tensor:
#      x y z
#    x 2.426680 0.000000 -0.007150 
#    y 0.000000 3.253880 0.000000 
#    z -0.007150 0.000000 3.230230 
# 
# 
# High freq. dielectric constant tensor:
#      x y z
#    x 1.680360 0.000000 0.013280 
#    y 0.000000 1.666960 0.000000 
#    z 0.013280 0.000000 1.687160 
# 
# From -- ./inp_files/66911.got.cif
#   From: 2010.06.25/outbox.cif.g09.slc.cpg/sg12_34_cif.got.tgz:66911.got - 2010.06.28 00:19:55.
