data_PCOD8086323
_publ_section_title
;
Structure prediction by ZEFSAII (Michael W. Deem and Ramdas Pophale) SiO2 
 PCOD8086323
Probable space group: C 2/M
;
_chemical_formula_sum "Si O2"
_cell_formula_units_Z 56
_cell_length_a 17.752863
_cell_length_b 9.206976
_cell_length_c 26.846707
_cell_angle_alpha 90.000000
_cell_angle_beta 137.484592
_cell_angle_gamma 90.000000
_cell_volume 2965.426757
_symmetry_space_group_name_H-M "C 2/M"
_symmetry_group_IT_number 12
_symmetry_cell_setting 'monoclinic'
loop_
_space_group_symop_operation_xyz
x,y,z
-x,y,-z
-x,-y,-z
x,-y,z
1/2+x,1/2+y,z
1/2-x,1/2+y,-z
1/2-x,1/2-y,-z
1/2+x,1/2-y,z
loop_
_atom_site_type_symbol
_atom_site_label
_atom_site_fract_x
_atom_site_fract_y
_atom_site_fract_z
Si Si1 0.233758 0.833229 0.070573
Si Si2 0.806862 0.669281 0.621978
Si Si3 0.011327 0.328623 0.651635
Si Si4 0.099305 0.167446 0.916041
Si Si5 0.148476 0.835529 0.794349
Si Si6 0.067118 0.839746 0.241147
Si Si7 0.562333 0.333296 0.478605
O O1 0.324398 0.785366 0.074060
O O2 0.244455 0.737134 0.125945
O O3 0.255205 0.000000 0.096002
O O4 0.114136 0.814220 0.983437
O O5 0.799036 0.500000 0.626934
O O6 0.897912 0.713371 0.625310
O O7 0.839014 0.733051 0.691844
O O8 0.687737 0.728541 0.545773
O O9 0.030434 0.500000 0.659252
O O10 0.002795 0.265948 0.592201
O O11 0.117590 0.254895 0.729883
O O12 0.971300 0.195185 0.834764
O O13 0.132315 0.000000 0.917283
O O14 0.045505 0.827618 0.781754
O O15 0.178188 0.000000 0.793735
O O16 0.118936 0.000000 0.270314
O O17 0.500000 0.319192 0.500000
O O18 0.563715 0.500000 0.460468
#
# Coordination Sequence:
#
# PCOD8086323 Si02
#       7
#     8   8   8   8   8   8   8
#     4   9  14  20  32  51  78 112 149 185 219 257
#     4   9  18  31  47  68  91 117 151 188 225 265
#     4  10  19  31  49  71  92 115 149 191 228 263
#     4   8  14  22  31  48  78 115 149 180 219 265
#     4   9  16  26  39  57  84 116 149 182 220 267
#     4   8  14  24  38  57  82 114 149 183 220 261
#     4  10  21  36  51  67  91 121 149 180 224 276
#
# _framework density 18.884295999999999
#
# number of rings (size 3 to 8) (size 9 to 14) (size 15 to 20)
#    0.000    3.000    0.000    2.571    0.000    5.429 
#    0.000    0.000    0.000    0.000    0.000    0.000 
#    0.000    1.143    0.000   13.143    0.000   13.429 
#
# Total GULP energy -346953.309748 kJ/mol
# GULP energy per Si atom -12391.189634 kJ/mol
# Density = 1.884131 g / cm^3
# Si number density = 18.884296 Si / 1000 Ang^3
#
#
#
# Elastic Constant Matrix: (Units=GPa)
#
#
# Indices 1 2 3 4 5 6 
#
# 1 14.9912 14.5759 16.0549 0.0000 -6.0453 0.0000
# 2 14.5759 92.0217 67.9991 0.0000 -10.9415 0.0000
# 3 16.0549 67.9991 174.9996 0.0000 -20.9657 0.0000
# 4 0.0000 0.0000 0.0000 40.3069 0.0000 -3.5469
# 5 -6.0453 -10.9415 -20.9657 0.0000 6.3930 0.0000
# 6 0.0000 0.0000 0.0000 -3.5469 0.0000 10.0203
#
#
#
# Elastic Compliance Matrix: (Units=1/GPa)
#
#
# Indices 1 2 3 4 5 6 
#
# 1 0.115108 -0.009720 0.007023 0.000000 0.115246 0.000000
# 2 -0.009720 0.016547 -0.005347 0.000000 0.001594 0.000000
# 3 0.007023 -0.005347 0.011278 0.000000 0.034477 0.000000
# 4 0.000000 0.000000 0.000000 0.025607 0.000000 0.009064
# 5 0.115246 0.001594 0.034477 0.000000 0.381194 0.000000
# 6 0.000000 0.000000 0.000000 0.009064 0.000000 0.103006
#
#
# Mechanical properties :
#
#
# Convention : Reuss Voigt Hill
#
# Bulk Modulus (GPa) = 7.88356 53.25248 30.56802
# Shear Modulus (GPa) = 7.03127 23.56954 15.30040
#
# Velocity S-wave (km/s) = 1.93169 3.53668 2.84952
# Velocity P-wave (km/s) = 3.02638 6.70359 5.20082
#
# Compressibility (1/GPa) = 0.12684626
#
# Stress axis : x y z
#
# Youngs Moduli (GPa) = 8.68753 60.43298 88.66741
#
# Poissons Ratio (x) = 0.58739 -0.62275
# Poissons Ratio (y) = 0.08444 0.47411
# Poissons Ratio (z) = -0.06102 0.32314
#
# Static dielectric constant tensor:
#      x y z
#    x 2.706400 0.000000 0.014630 
#    y 0.000000 3.489200 0.000000 
#    z 0.014630 0.000000 4.088940 
# 
# 
# High freq. dielectric constant tensor:
#      x y z
#    x 1.643480 0.000000 -0.006100 
#    y 0.000000 1.737780 0.000000 
#    z -0.006100 0.000000 1.765080 
# 
# From -- ./inp_files/342603.got.cif
#   From: 2010.06.25/outbox.cif.g09.slc.cpg/sg12_172_cif.got.tgz:342603.got - 2010.06.28 00:19:55.
