data_PCOD8086922
_publ_section_title
;
Structure prediction by ZEFSAII (Michael W. Deem and Ramdas Pophale) SiO2 
 PCOD8086922
Probable space group: C 2/M
;
_chemical_formula_sum "Si O2"
_cell_formula_units_Z 56
_cell_length_a 25.998749
_cell_length_b 9.049777
_cell_length_c 13.092226
_cell_angle_alpha 90.000000
_cell_angle_beta 113.044543
_cell_angle_gamma 90.000000
_cell_volume 2834.565094
_symmetry_space_group_name_H-M "C 2/M"
_symmetry_group_IT_number 12
_symmetry_cell_setting 'monoclinic'
loop_
_space_group_symop_operation_xyz
x,y,z
-x,y,-z
-x,-y,-z
x,-y,z
1/2+x,1/2+y,z
1/2-x,1/2+y,-z
1/2-x,1/2-y,-z
1/2+x,1/2-y,z
loop_
_atom_site_type_symbol
_atom_site_label
_atom_site_fract_x
_atom_site_fract_y
_atom_site_fract_z
Si Si1 0.800673 0.173330 0.096349
Si Si2 0.688515 0.671775 0.300455
Si Si3 0.115899 0.831364 0.439480
Si Si4 0.022134 0.670651 0.260878
Si Si5 0.419888 0.325232 0.101195
Si Si6 0.297288 0.328238 0.327838
Si Si7 0.905928 0.328280 0.884123
O O1 0.858508 0.222513 0.089906
O O2 0.802522 0.223458 0.215365
O O3 0.791764 0.000000 0.080035
O O4 0.750000 0.250000 0.000000
O O5 0.687781 0.500000 0.271407
O O6 0.662779 0.703404 0.391140
O O7 0.751234 0.731508 0.349801
O O8 0.654281 0.757809 0.186448
O O9 0.061879 0.728114 0.382958
O O10 0.143244 0.799242 0.570887
O O11 0.095631 0.000000 0.414031
O O12 0.008850 0.500000 0.269529
O O13 0.052640 0.698554 0.177297
O O14 0.964632 0.762115 0.216901
O O15 0.426763 0.500000 0.099036
O O16 0.432613 0.251863 0.002056
O O17 0.280696 0.500000 0.324624
O O18 0.897910 0.500000 0.902683
#
# Coordination Sequence:
#
# PCOD8086922 Si02
#       7
#     8   8   8   8   8   8   8
#     4  10  23  40  57  79 106 138 177 218 259 309
#     4  10  19  31  51  82 113 139 173 217 266 317
#     4   9  19  35  55  79 108 141 176 217 264 315
#     4  10  21  36  55  80 109 140 175 216 264 318
#     4  11  22  36  55  79 107 140 179 221 265 311
#     4  10  20  36  56  77 105 143 182 218 263 315
#     4  10  20  34  53  79 110 142 176 215 263 319
#
# _framework density 19.756115999999999
#
# number of rings (size 3 to 8) (size 9 to 14) (size 15 to 20)
#    0.000    2.000    0.000    3.429    0.000    8.571 
#    0.000    0.714    0.000    4.286    0.000    0.000 
#    0.000    0.000    0.000    0.000    0.000    0.000 
#
# Total GULP energy -347334.694702 kJ/mol
# GULP energy per Si atom -12404.810525 kJ/mol
# Density = 1.971115 g / cm^3
# Si number density = 19.756116 Si / 1000 Ang^3
#
#
#
# Elastic Constant Matrix: (Units=GPa)
#
#
# Indices 1 2 3 4 5 6 
#
# 1 85.0239 51.9069 44.9755 0.0000 25.7894 0.0000
# 2 51.9069 95.4166 48.7670 0.0000 16.1153 0.0000
# 3 44.9755 48.7670 128.4563 0.0000 21.5442 0.0000
# 4 0.0000 0.0000 0.0000 30.7628 0.0000 10.3355
# 5 25.7894 16.1153 21.5442 0.0000 28.5337 0.0000
# 6 0.0000 0.0000 0.0000 10.3355 0.0000 31.1473
#
#
#
# Elastic Compliance Matrix: (Units=1/GPa)
#
#
# Indices 1 2 3 4 5 6 
#
# 1 0.022425 -0.008750 -0.002243 0.000000 -0.013633 0.000000
# 2 -0.008750 0.016860 -0.003511 0.000000 0.001038 0.000000
# 3 -0.002243 -0.003511 0.010569 0.000000 -0.003970 0.000000
# 4 0.000000 0.000000 0.000000 0.036586 0.000000 -0.012140
# 5 -0.013633 0.001038 -0.003970 0.000000 0.049779 0.000000
# 6 0.000000 0.000000 0.000000 -0.012140 0.000000 0.036134
#
#
# Mechanical properties :
#
#
# Convention : Reuss Voigt Hill
#
# Bulk Modulus (GPa) = 47.97387 66.68841 57.33114
# Shear Modulus (GPa) = 24.00276 28.97190 26.48733
#
# Velocity S-wave (km/s) = 3.48940 3.83362 3.66555
# Velocity P-wave (km/s) = 6.36948 7.30921 6.85547
#
# Compressibility (1/GPa) = 0.02084468
#
# Stress axis : x y z
#
# Youngs Moduli (GPa) = 44.59289 59.31278 94.61835
#
# Poissons Ratio (x) = 0.51901 0.21224
# Poissons Ratio (y) = 0.39021 0.33220
# Poissons Ratio (z) = 0.10003 0.20824
#
# Static dielectric constant tensor:
#      x y z
#    x 3.474590 0.000000 0.142420 
#    y 0.000000 3.572290 0.000000 
#    z 0.142420 0.000000 3.640530 
# 
# 
# High freq. dielectric constant tensor:
#      x y z
#    x 1.758060 0.000000 0.018580 
#    y 0.000000 1.772720 0.000000 
#    z 0.018580 0.000000 1.771610 
# 
# From -- ./inp_files/180997.got.cif
#   From: 2010.06.25/outbox.cif.g09.slc.cpg/sg12_91_cif.got.tgz:180997.got - 2010.06.28 00:19:55.
