data_PCOD8086222
_publ_section_title
;
Structure prediction by ZEFSAII (Michael W. Deem and Ramdas Pophale) SiO2 
 PCOD8086222
Probable space group: C 2/M
;
_chemical_formula_sum "Si O2"
_cell_formula_units_Z 48
_cell_length_a 14.214211
_cell_length_b 8.944279
_cell_length_c 22.619483
_cell_angle_alpha 90.000000
_cell_angle_beta 70.538455
_cell_angle_gamma 90.000000
_cell_volume 2711.442702
_symmetry_space_group_name_H-M "C 2/M"
_symmetry_group_IT_number 12
_symmetry_cell_setting 'monoclinic'
loop_
_space_group_symop_operation_xyz
x,y,z
-x,y,-z
-x,-y,-z
x,-y,z
1/2+x,1/2+y,z
1/2-x,1/2+y,-z
1/2-x,1/2-y,-z
1/2+x,1/2-y,z
loop_
_atom_site_type_symbol
_atom_site_label
_atom_site_fract_x
_atom_site_fract_y
_atom_site_fract_z
Si Si1 0.957471 0.823505 0.571750
Si Si2 0.398526 0.176049 0.992197
Si Si3 0.356660 0.322932 0.762873
Si Si4 0.695022 0.675593 0.095412
Si Si5 0.272144 0.178291 0.667480
Si Si6 0.062168 0.824636 0.666962
O O1 0.037662 0.775635 0.604870
O O2 0.000000 0.772248 0.500000
O O3 0.854423 0.738346 0.604683
O O4 0.936021 0.000000 0.578744
O O5 0.385564 0.248273 0.930543
O O6 0.404191 0.000000 0.982099
O O7 0.500000 0.238004 0.000000
O O8 0.306870 0.222706 0.053691
O O9 0.343133 0.500000 0.757298
O O10 0.323796 0.267898 0.834330
O O11 0.287062 0.240528 0.730211
O O12 0.471501 0.274265 0.728556
O O13 0.678780 0.500000 0.093860
O O14 0.166274 0.244664 0.667019
O O15 0.275856 0.000000 0.668032
O O16 0.074305 0.000000 0.667469
#
# Coordination Sequence:
#
# PCOD8086222 Si02
#       6
#     8   8   8   8   8   8
#     4   9  18  34  53  70  93 128 162 189 227 281
#     4   9  18  32  48  69  99 128 154 194 244 283
#     4   9  18  34  51  67  93 127 161 194 231 282
#     4   9  18  32  50  70  92 124 163 197 231 279
#     4  10  19  31  48  71  97 122 152 194 240 278
#     4   8  16  31  48  67  94 124 152 190 237 278
#
# _framework density 17.702752
#
# number of rings (size 3 to 8) (size 9 to 14) (size 15 to 20)
#    0.000    3.000    0.000    1.500    0.000    3.333 
#    0.000    6.667    0.000    0.000    0.000    0.000 
#    0.000    0.000    0.000    0.000    0.000    0.000 
#
# Total GULP energy -297564.703135 kJ/mol
# GULP energy per Si atom -12398.529297 kJ/mol
# Density = 1.766246 g / cm^3
# Si number density = 17.702752 Si / 1000 Ang^3
#
#
#
# Elastic Constant Matrix: (Units=GPa)
#
#
# Indices 1 2 3 4 5 6 
#
# 1 174.6760 34.3518 80.3143 0.0000 8.5600 0.0000
# 2 34.3518 31.9535 32.8802 0.0000 2.7368 0.0000
# 3 80.3143 32.8802 169.0476 0.0000 9.9925 0.0000
# 4 0.0000 0.0000 0.0000 25.0470 0.0000 3.2553
# 5 8.5600 2.7368 9.9925 0.0000 12.6817 0.0000
# 6 0.0000 0.0000 0.0000 3.2553 0.0000 24.9655
#
#
#
# Elastic Compliance Matrix: (Units=1/GPa)
#
#
# Indices 1 2 3 4 5 6 
#
# 1 0.008202 -0.005942 -0.002611 0.000000 -0.002196 0.000000
# 2 -0.005942 0.043512 -0.005582 0.000000 -0.000981 0.000000
# 3 -0.002611 -0.005582 0.008460 0.000000 -0.003699 0.000000
# 4 0.000000 0.000000 0.000000 0.040613 0.000000 -0.005296
# 5 -0.002196 -0.000981 -0.003699 0.000000 0.083463 0.000000
# 6 0.000000 0.000000 0.000000 -0.005296 0.000000 0.040746
#
#
# Mechanical properties :
#
#
# Convention : Reuss Voigt Hill
#
# Bulk Modulus (GPa) = 31.34496 74.52997 52.93746
# Shear Modulus (GPa) = 18.94653 27.74756 23.34704
#
# Velocity S-wave (km/s) = 3.27503 3.96335 3.63552
# Velocity P-wave (km/s) = 5.66090 7.94584 6.89863
#
# Compressibility (1/GPa) = 0.03190306
#
# Stress axis : x y z
#
# Youngs Moduli (GPa) = 121.92694 22.98234 118.19892
#
# Poissons Ratio (x) = 0.13657 0.30861
# Poissons Ratio (y) = 0.72454 0.65978
# Poissons Ratio (z) = 0.31834 0.12829
#
# Static dielectric constant tensor:
#      x y z
#    x 3.526120 0.000000 0.010420 
#    y 0.000000 3.038500 0.000000 
#    z 0.010420 0.000000 3.398440 
# 
# 
# High freq. dielectric constant tensor:
#      x y z
#    x 1.688840 0.000000 0.002450 
#    y 0.000000 1.664060 0.000000 
#    z 0.002450 0.000000 1.688360 
# 
# From -- ./inp_files/303875.got.cif
#   From: 2010.06.25/outbox.cif.g09.slc.cpg/sg12_152_cif.got.tgz:303875.got - 2010.06.28 00:19:55.
