data_PCOD8086114
_publ_section_title
;
Structure prediction by ZEFSAII (Michael W. Deem and Ramdas Pophale) SiO2 
 PCOD8086114
Probable space group: C 2/M
;
_chemical_formula_sum "Si O2"
_cell_formula_units_Z 64
_cell_length_a 31.329374
_cell_length_b 8.669586
_cell_length_c 14.208584
_cell_angle_alpha 90.000000
_cell_angle_beta 90.790274
_cell_angle_gamma 90.000000
_cell_volume 3858.864804
_symmetry_space_group_name_H-M "C 2/M"
_symmetry_group_IT_number 12
_symmetry_cell_setting 'monoclinic'
loop_
_space_group_symop_operation_xyz
x,y,z
-x,y,-z
-x,-y,-z
x,-y,z
1/2+x,1/2+y,z
1/2-x,1/2+y,-z
1/2-x,1/2-y,-z
1/2+x,1/2-y,z
loop_
_atom_site_type_symbol
_atom_site_label
_atom_site_fract_x
_atom_site_fract_y
_atom_site_fract_z
Si Si1 0.753149 0.178631 0.600749
Si Si2 0.048305 0.181008 0.096894
Si Si3 0.078452 0.322130 0.708128
Si Si4 0.499284 0.678793 0.609002
Si Si5 0.338971 0.819825 0.400007
Si Si6 0.956649 0.678731 0.095776
Si Si7 0.077818 0.320461 0.282355
Si Si8 0.345141 0.319016 0.604473
O O1 0.750000 0.250000 0.500000
O O2 0.707737 0.217611 0.649793
O O3 0.798534 0.230375 0.647874
O O4 0.758140 0.000000 0.584487
O O5 0.078533 0.230470 0.183480
O O6 0.999962 0.229346 0.118966
O O7 0.050662 0.000000 0.082328
O O8 0.064586 0.261400 0.001319
O O9 0.067886 0.500000 0.684260
O O10 0.045397 0.214730 0.652729
O O11 0.125838 0.276231 0.676485
O O12 0.076136 0.292159 0.819971
O O13 0.500000 0.723152 0.500000
O O14 0.488176 0.500000 0.624324
O O15 0.463525 0.779688 0.658075
O O16 0.346965 0.720666 0.493852
O O17 0.341456 0.000000 0.427886
O O18 0.968634 0.500000 0.086035
O O19 0.076681 0.500000 0.259918
O O20 0.120201 0.279453 0.339864
O O21 0.355092 0.500000 0.617276
#
# Coordination Sequence:
#
# PCOD8086114 Si02
#       8
#     8   8   8   8   8   8   8   8
#     4   8  15  28  47  68  95 126 161 200 239 279
#     4  11  21  34  52  72  93 122 158 203 247 288
#     4  10  20  32  49  71  97 129 163 195 233 282
#     4  11  23  35  47  66  96 131 165 199 234 277
#     4   9  17  31  49  72  99 132 166 197 234 283
#     4  10  19  33  51  72  96 125 159 199 241 287
#     4  12  23  35  50  69  94 128 164 201 242 290
#     4  10  19  31  47  71  99 130 164 203 243 282
#
# _framework density 16.585189
#
# number of rings (size 3 to 8) (size 9 to 14) (size 15 to 20)
#    0.000    1.875    1.250    4.875    0.000    4.500 
#    0.000    0.000    0.000    0.000    0.000    0.875 
#    0.000    0.000    0.000    0.000    0.000    0.000 
#
# Total GULP energy -396629.138449 kJ/mol
# GULP energy per Si atom -12394.660577 kJ/mol
# Density = 1.654744 g / cm^3
# Si number density = 16.585189 Si / 1000 Ang^3
#
#
#
# Elastic Constant Matrix: (Units=GPa)
#
#
# Indices 1 2 3 4 5 6 
#
# 1 118.1467 17.4325 42.4176 0.0000 -8.1437 0.0000
# 2 17.4325 47.6437 19.0953 0.0000 -4.6511 0.0000
# 3 42.4176 19.0953 83.6421 0.0000 -13.7443 0.0000
# 4 0.0000 0.0000 0.0000 22.5024 0.0000 1.8290
# 5 -8.1437 -4.6511 -13.7443 0.0000 8.2926 0.0000
# 6 0.0000 0.0000 0.0000 1.8290 0.0000 19.0824
#
#
#
# Elastic Compliance Matrix: (Units=1/GPa)
#
#
# Indices 1 2 3 4 5 6 
#
# 1 0.010514 -0.001827 -0.004654 0.000000 0.001587 0.000000
# 2 -0.001827 0.023625 -0.003552 0.000000 0.005570 0.000000
# 3 -0.004654 -0.003552 0.019307 0.000000 0.025437 0.000000
# 4 0.000000 0.000000 0.000000 0.044789 0.000000 -0.004293
# 5 0.001587 0.005570 0.025437 0.000000 0.167431 0.000000
# 6 0.000000 0.000000 0.000000 -0.004293 0.000000 0.052816
#
#
# Mechanical properties :
#
#
# Convention : Reuss Voigt Hill
#
# Bulk Modulus (GPa) = 29.95819 45.25813 37.60816
# Shear Modulus (GPa) = 14.29905 21.34128 17.82017
#
# Velocity S-wave (km/s) = 2.93944 3.59105 3.28146
# Velocity P-wave (km/s) = 5.44269 6.67395 6.08952
#
# Compressibility (1/GPa) = 0.03337985
#
# Stress axis : x y z
#
# Youngs Moduli (GPa) = 95.11210 42.32839 51.79550
#
# Poissons Ratio (x) = 0.07732 0.24107
# Poissons Ratio (y) = 0.17374 0.18397
# Poissons Ratio (z) = 0.44267 0.15035
#
# Static dielectric constant tensor:
#      x y z
#    x 3.525710 0.000000 -0.021110 
#    y 0.000000 3.483020 0.000000 
#    z -0.021110 0.000000 3.090760 
# 
# 
# High freq. dielectric constant tensor:
#      x y z
#    x 1.632090 0.000000 -0.000420 
#    y 0.000000 1.651120 0.000000 
#    z -0.000420 0.000000 1.616160 
# 
# From -- ./inp_files/248495.got.cif
#   From: 2010.06.25/outbox.cif.g09.slc.cpg/sg12_125_cif.got.tgz:248495.got - 2010.06.28 00:19:55.
