data_PCOD8086678
_publ_section_title
;
Structure prediction by ZEFSAII (Michael W. Deem and Ramdas Pophale) SiO2 
 PCOD8086678
Probable space group: C 2/M
;
_chemical_formula_sum "Si O2"
_cell_formula_units_Z 64
_cell_length_a 30.423338
_cell_length_b 9.242544
_cell_length_c 22.931548
_cell_angle_alpha 90.000000
_cell_angle_beta 148.249184
_cell_angle_gamma 90.000000
_cell_volume 3393.158075
_symmetry_space_group_name_H-M "C 2/M"
_symmetry_group_IT_number 12
_symmetry_cell_setting 'monoclinic'
loop_
_space_group_symop_operation_xyz
x,y,z
-x,y,-z
-x,-y,-z
x,-y,z
1/2+x,1/2+y,z
1/2-x,1/2+y,-z
1/2-x,1/2-y,-z
1/2+x,1/2-y,z
loop_
_atom_site_type_symbol
_atom_site_label
_atom_site_fract_x
_atom_site_fract_y
_atom_site_fract_z
Si Si1 0.879812 0.335064 0.088558
Si Si2 0.247851 0.826592 0.736873
Si Si3 0.932549 0.171435 0.263423
Si Si4 0.113905 0.834387 0.496577
Si Si5 0.579945 0.827850 0.124465
Si Si6 0.329228 0.334293 0.567183
Si Si7 0.451513 0.164392 0.780895
Si Si8 0.774572 0.170622 0.158300
O O1 0.866806 0.500000 0.095262
O O2 0.905475 0.239839 0.172181
O O3 0.949054 0.329294 0.115650
O O4 0.795472 0.269058 0.965170
O O5 0.169765 0.764111 0.611013
O O6 0.334860 0.768154 0.808200
O O7 0.237463 0.764845 0.790517
O O8 0.247389 0.000000 0.734380
O O9 0.865843 0.212711 0.237838
O O10 0.021906 0.236708 0.385316
O O11 0.938276 0.000000 0.259488
O O12 0.167519 0.819339 0.498476
O O13 0.097862 0.000000 0.494739
O O14 0.573523 0.775354 0.183969
O O15 0.577911 0.000000 0.119784
O O16 0.500000 0.764419 0.000000
O O17 0.322900 0.500000 0.579587
O O18 0.250000 0.250000 0.500000
O O19 0.412212 0.265955 0.687579
O O20 0.418515 0.000000 0.735832
O O21 0.762344 0.000000 0.148290
#
# Coordination Sequence:
#
# PCOD8086678 Si02
#       8
#     8   8   8   8   8   8   8   8
#     4  10  19  32  50  76 106 132 168 213 256 304
#     4   9  16  28  45  69 101 131 163 209 261 303
#     4  10  19  33  51  74 103 134 170 209 258 309
#     4   9  18  31  48  71 102 134 166 208 254 307
#     4   9  16  27  46  72 102 134 168 210 260 309
#     4  11  21  34  51  74 103 134 171 208 251 304
#     4  10  19  31  50  76 103 133 170 209 256 307
#     4   9  18  30  48  74 102 132 168 215 261 304
#
# _framework density 18.861484000000001
#
# number of rings (size 3 to 8) (size 9 to 14) (size 15 to 20)
#    0.000    2.375    1.250    2.250    0.000    5.500 
#    0.000    2.500    0.000    0.375    0.000   13.125 
#    0.000    0.000    0.000    0.000    0.000    0.000 
#
# Total GULP energy -396749.673098 kJ/mol
# GULP energy per Si atom -12398.427284 kJ/mol
# Density = 1.881855 g / cm^3
# Si number density = 18.861484 Si / 1000 Ang^3
#
#
#
# Elastic Constant Matrix: (Units=GPa)
#
#
# Indices 1 2 3 4 5 6 
#
# 1 120.7453 21.9208 62.5753 0.0000 -0.0052 0.0000
# 2 21.9208 34.2531 23.2695 0.0000 0.6476 0.0000
# 3 62.5753 23.2695 162.9036 0.0000 -1.0563 0.0000
# 4 0.0000 0.0000 0.0000 17.9731 0.0000 -0.8748
# 5 -0.0052 0.6476 -1.0563 0.0000 35.6888 0.0000
# 6 0.0000 0.0000 0.0000 -0.8748 0.0000 16.7919
#
#
#
# Elastic Compliance Matrix: (Units=1/GPa)
#
#
# Indices 1 2 3 4 5 6 
#
# 1 0.010958 -0.004599 -0.003552 0.000000 -0.000020 0.000000
# 2 -0.004599 0.034281 -0.003135 0.000000 -0.000715 0.000000
# 3 -0.003552 -0.003135 0.007953 0.000000 0.000292 0.000000
# 4 0.000000 0.000000 0.000000 0.055780 0.000000 0.002906
# 5 -0.000020 -0.000715 0.000292 0.000000 0.028042 0.000000
# 6 0.000000 0.000000 0.000000 0.002906 0.000000 0.059704
#
#
# Mechanical properties :
#
#
# Convention : Reuss Voigt Hill
#
# Bulk Modulus (GPa) = 32.65933 59.27034 45.96483
# Shear Modulus (GPa) = 21.78692 28.09986 24.94339
#
# Velocity S-wave (km/s) = 3.40236 3.86398 3.64050
# Velocity P-wave (km/s) = 5.72606 7.16934 6.48795
#
# Compressibility (1/GPa) = 0.03061913
#
# Stress axis : x y z
#
# Youngs Moduli (GPa) = 91.25913 29.17089 125.74141
#
# Poissons Ratio (x) = 0.13416 0.44668
# Poissons Ratio (y) = 0.41970 0.39417
# Poissons Ratio (z) = 0.32419 0.09144
#
# Static dielectric constant tensor:
#      x y z
#    x 3.554210 0.000000 0.063400 
#    y 0.000000 2.993810 0.000000 
#    z 0.063400 0.000000 3.821940 
# 
# 
# High freq. dielectric constant tensor:
#      x y z
#    x 1.741960 0.000000 0.005730 
#    y 0.000000 1.667010 0.000000 
#    z 0.005730 0.000000 1.749910 
# 
# From -- ./inp_files/353527.got.cif
#   From: 2010.06.25/outbox.cif.g09.slc.cpg/sg12_177_cif.got.tgz:353527.got - 2010.06.28 00:19:55.
