data_PCOD8086034
_publ_section_title
;
Structure prediction by ZEFSAII (Michael W. Deem and Ramdas Pophale) SiO2 
 PCOD8086034
Probable space group: C 2/M
;
_chemical_formula_sum "Si O2"
_cell_formula_units_Z 56
_cell_length_a 19.311377
_cell_length_b 9.213514
_cell_length_c 32.223606
_cell_angle_alpha 90.000000
_cell_angle_beta 31.830960
_cell_angle_gamma 90.000000
_cell_volume 3023.883997
_symmetry_space_group_name_H-M "C 2/M"
_symmetry_group_IT_number 12
_symmetry_cell_setting 'monoclinic'
loop_
_space_group_symop_operation_xyz
x,y,z
-x,y,-z
-x,-y,-z
x,-y,z
1/2+x,1/2+y,z
1/2-x,1/2+y,-z
1/2-x,1/2-y,-z
1/2+x,1/2-y,z
loop_
_atom_site_type_symbol
_atom_site_label
_atom_site_fract_x
_atom_site_fract_y
_atom_site_fract_z
Si Si1 0.869048 0.328963 0.189875
Si Si2 0.905084 0.827507 0.774007
Si Si3 0.889523 0.671948 0.086383
Si Si4 0.582919 0.668413 0.322392
Si Si5 0.350615 0.831180 0.566947
Si Si6 0.324369 0.669572 0.498354
Si Si7 0.402093 0.669464 0.253536
O O1 0.880447 0.500000 0.192035
O O2 0.925009 0.285902 0.115962
O O3 0.720481 0.266779 0.267411
O O4 0.941727 0.247576 0.190405
O O5 0.754271 0.771669 0.854660
O O6 0.959690 0.770883 0.701392
O O7 0.998691 0.764612 0.762357
O O8 0.911816 0.000000 0.773315
O O9 0.888840 0.500000 0.082925
O O10 0.000000 0.740691 0.000000
O O11 0.609543 0.500000 0.301251
O O12 0.477754 0.697711 0.411480
O O13 0.500000 0.780185 0.500000
O O14 0.291790 0.739644 0.558900
O O15 0.250233 0.800790 0.655888
O O16 0.349092 0.000000 0.555191
O O17 0.288159 0.500000 0.516713
O O18 0.250000 0.750000 0.500000
O O19 0.426242 0.500000 0.235000
#
# Coordination Sequence:
#
# PCOD8086034 Si02
#       7
#     8   8   8   8   8   8   8
#     4   9  17  30  50  72  92 117 152 192 228 269
#     4   8  14  26  45  66  89 121 156 185 221 273
#     4   8  14  27  49  74  94 115 150 192 226 261
#     4   8  15  29  47  65  86 117 157 196 231 271
#     4  10  21  35  49  67  94 128 165 205 246 285
#     4  11  21  32  48  69  94 124 161 205 248 288
#     4  10  19  31  47  67  95 127 154 186 232 285
#
# _framework density 18.519228999999999
#
# number of rings (size 3 to 8) (size 9 to 14) (size 15 to 20)
#    0.000    2.857    0.000    3.857    0.000    3.143 
#    0.000    1.429    0.000    3.857    0.000    0.000 
#    0.000    0.000    0.000    0.000    0.000    0.000 
#
# Total GULP energy -346964.680340 kJ/mol
# GULP energy per Si atom -12391.595726 kJ/mol
# Density = 1.847708 g / cm^3
# Si number density = 18.519229 Si / 1000 Ang^3
#
#
#
# Elastic Constant Matrix: (Units=GPa)
#
#
# Indices 1 2 3 4 5 6 
#
# 1 112.0645 27.3973 30.5829 0.0042 18.6261 0.0598
# 2 27.3973 38.3175 21.5279 0.0007 10.4822 0.0174
# 3 30.5829 21.5279 73.6696 0.0008 14.7823 -0.0005
# 4 0.0042 0.0007 0.0008 12.7021 -0.0018 7.8743
# 5 18.6261 10.4822 14.7823 -0.0018 27.3547 0.0051
# 6 0.0598 0.0174 -0.0005 7.8743 0.0051 28.8815
#
#
#
# Elastic Compliance Matrix: (Units=1/GPa)
#
#
# Indices 1 2 3 4 5 6 
#
# 1 0.011725 -0.005890 -0.002240 0.000010 -0.004516 -0.000023
# 2 -0.005890 0.035778 -0.006801 0.000006 -0.006024 -0.000010
# 3 -0.002240 -0.006801 0.017568 -0.000008 -0.005362 0.000012
# 4 0.000010 0.000006 -0.000008 0.094740 0.000007 -0.025830
# 5 -0.004516 -0.006024 -0.005362 0.000007 0.044838 0.000003
# 6 -0.000023 -0.000010 0.000012 -0.025830 0.000003 0.041667
#
#
# Mechanical properties :
#
#
# Convention : Reuss Voigt Hill
#
# Bulk Modulus (GPa) = 28.40221 42.56307 35.48264
# Shear Modulus (GPa) = 17.36629 23.42391 20.39510
#
# Velocity S-wave (km/s) = 3.06558 3.56032 3.32217
# Velocity P-wave (km/s) = 5.28207 6.31935 5.82385
#
# Compressibility (1/GPa) = 0.03520853
#
# Stress axis : x y z
#
# Youngs Moduli (GPa) = 85.28524 27.95009 56.92324
#
# Poissons Ratio (x) = 0.16461 0.12753
# Poissons Ratio (y) = 0.50229 0.38716
# Poissons Ratio (z) = 0.19107 0.19010
#
# Static dielectric constant tensor:
#      x y z
#    x 3.446490 -0.000010 0.609160 
#    y -0.000010 2.926620 -0.000290 
#    z 0.609160 -0.000290 -1.705500 
# 
# 
# High freq. dielectric constant tensor:
#      x y z
#    x 1.725690 0.000000 0.007890 
#    y 0.000000 1.668560 0.000000 
#    z 0.007890 0.000000 1.709870 
# 
# From -- ./inp_files/377641.got.cif
#   From: 2010.06.25/outbox.cif.g09.slc.cpg/sg12_189_cif.got.tgz:377641.got - 2010.06.28 00:19:55.
