data_PCOD8086430
_publ_section_title
;
Structure prediction by ZEFSAII (Michael W. Deem and Ramdas Pophale) SiO2 
 PCOD8086430
Probable space group: C 2/M
;
_chemical_formula_sum "Si O2"
_cell_formula_units_Z 64
_cell_length_a 14.272205
_cell_length_b 9.133941
_cell_length_c 30.027603
_cell_angle_alpha 90.000000
_cell_angle_beta 119.111501
_cell_angle_gamma 90.000000
_cell_volume 3419.949112
_symmetry_space_group_name_H-M "C 2/M"
_symmetry_group_IT_number 12
_symmetry_cell_setting 'monoclinic'
loop_
_space_group_symop_operation_xyz
x,y,z
-x,y,-z
-x,-y,-z
x,-y,z
1/2+x,1/2+y,z
1/2-x,1/2+y,-z
1/2-x,1/2-y,-z
1/2+x,1/2-y,z
loop_
_atom_site_type_symbol
_atom_site_label
_atom_site_fract_x
_atom_site_fract_y
_atom_site_fract_z
Si Si1 0.229872 0.174383 0.597411
Si Si2 0.476784 0.669842 0.861232
Si Si3 0.596086 0.337392 0.487085
Si Si4 0.043588 0.327983 0.791258
Si Si5 0.778671 0.171594 0.875892
Si Si6 0.958489 0.669978 0.678777
Si Si7 0.952727 0.669301 0.393072
Si Si8 0.213731 0.171329 0.947229
O O1 0.199874 0.219412 0.539307
O O2 0.345306 0.239468 0.637411
O O3 0.147846 0.240394 0.613694
O O4 0.223028 0.000000 0.599497
O O5 0.464058 0.500000 0.846879
O O6 0.473712 0.755495 0.814033
O O7 0.378619 0.724067 0.869131
O O8 0.587498 0.702262 0.912271
O O9 0.500000 0.343588 0.500000
O O10 0.615709 0.500000 0.471736
O O11 0.564848 0.225891 0.440523
O O12 0.024501 0.500000 0.789802
O O13 0.169389 0.290625 0.824474
O O14 0.003322 0.260914 0.734887
O O15 0.781783 0.261436 0.922404
O O16 0.786936 0.000000 0.889234
O O17 0.938661 0.500000 0.682512
O O18 0.043920 0.693877 0.659216
O O19 0.940373 0.500000 0.402953
O O20 0.238947 0.000000 0.956089
O O21 0.250000 0.250000 0.000000
#
# Coordination Sequence:
#
# PCOD8086430 Si02
#       8
#     8   8   8   8   8   8   8   8
#     4   9  18  34  51  66  93 131 162 190 237 302
#     4   9  19  35  54  76 103 135 169 207 251 292
#     4   8  15  29  48  67  91 126 160 190 235 297
#     4   9  18  34  54  73  96 128 167 207 245 293
#     4   9  18  34  55  76 100 134 171 205 247 295
#     4   9  19  34  50  71  99 129 159 197 250 300
#     4  10  19  31  49  73  98 122 156 204 248 288
#     4  10  20  34  52  77 110 141 170 207 246 287
#
# _framework density 18.713729000000001
#
# number of rings (size 3 to 8) (size 9 to 14) (size 15 to 20)
#    0.000    2.875    0.000    1.500    0.000    5.250 
#    0.000    6.875    0.000    0.000    0.000    0.000 
#    0.000    0.000    0.000    0.000    0.000    0.000 
#
# Total GULP energy -396722.641131 kJ/mol
# GULP energy per Si atom -12397.582535 kJ/mol
# Density = 1.867114 g / cm^3
# Si number density = 18.713729 Si / 1000 Ang^3
#
#
#
# Elastic Constant Matrix: (Units=GPa)
#
#
# Indices 1 2 3 4 5 6 
#
# 1 88.3041 18.4852 33.1184 0.0000 -9.0520 0.0000
# 2 18.4852 41.8769 32.6725 0.0000 -7.3745 0.0000
# 3 33.1184 32.6725 121.6557 0.0000 -15.7745 0.0000
# 4 0.0000 0.0000 0.0000 25.9849 0.0000 -6.1806
# 5 -9.0520 -7.3745 -15.7745 0.0000 22.0145 0.0000
# 6 0.0000 0.0000 0.0000 -6.1806 0.0000 24.0055
#
#
#
# Elastic Compliance Matrix: (Units=1/GPa)
#
#
# Indices 1 2 3 4 5 6 
#
# 1 0.013200 -0.003580 -0.002297 0.000000 0.002582 0.000000
# 2 -0.003580 0.031637 -0.006988 0.000000 0.004119 0.000000
# 3 -0.002297 -0.006988 0.011351 0.000000 0.004848 0.000000
# 4 0.000000 0.000000 0.000000 0.040994 0.000000 0.010555
# 5 0.002582 0.004119 0.004848 0.000000 0.051340 0.000000
# 6 0.000000 0.000000 0.000000 0.010555 0.000000 0.044375
#
#
# Mechanical properties :
#
#
# Convention : Reuss Voigt Hill
#
# Bulk Modulus (GPa) = 32.83225 46.70987 39.77106
# Shear Modulus (GPa) = 21.85512 25.57169 23.71340
#
# Velocity S-wave (km/s) = 3.42111 3.70059 3.56359
# Velocity P-wave (km/s) = 5.76089 6.57826 6.18310
#
# Compressibility (1/GPa) = 0.03045786
#
# Stress axis : x y z
#
# Youngs Moduli (GPa) = 75.75657 31.60849 88.10065
#
# Poissons Ratio (x) = 0.11315 0.20239
# Poissons Ratio (y) = 0.27119 0.61565
# Poissons Ratio (z) = 0.17403 0.22088
#
# Static dielectric constant tensor:
#      x y z
#    x 3.398100 0.000000 0.107330 
#    y 0.000000 3.292220 0.000000 
#    z 0.107330 0.000000 3.726510 
# 
# 
# High freq. dielectric constant tensor:
#      x y z
#    x 1.723440 0.000000 -0.000460 
#    y 0.000000 1.710590 0.000000 
#    z -0.000460 0.000000 1.728730 
# 
# From -- ./inp_files/375082.got.cif
#   From: 2010.06.25/outbox.cif.g09.slc.cpg/sg12_188_cif.got.tgz:375082.got - 2010.06.28 00:19:55.
