data_PCOD8086366
_publ_section_title
;
Structure prediction by ZEFSAII (Michael W. Deem and Ramdas Pophale) SiO2 
 PCOD8086366
Probable space group: C 2/M
;
_chemical_formula_sum "Si O2"
_cell_formula_units_Z 40
_cell_length_a 23.039211
_cell_length_b 8.668699
_cell_length_c 11.647072
_cell_angle_alpha 90.000000
_cell_angle_beta 71.577104
_cell_angle_gamma 90.000000
_cell_volume 2206.937238
_symmetry_space_group_name_H-M "C 2/M"
_symmetry_group_IT_number 12
_symmetry_cell_setting 'monoclinic'
loop_
_space_group_symop_operation_xyz
x,y,z
-x,y,-z
-x,-y,-z
x,-y,z
1/2+x,1/2+y,z
1/2-x,1/2+y,-z
1/2-x,1/2-y,-z
1/2+x,1/2-y,z
loop_
_atom_site_type_symbol
_atom_site_label
_atom_site_fract_x
_atom_site_fract_y
_atom_site_fract_z
Si Si1 0.527258 0.182269 0.648851
Si Si2 0.672401 0.182231 0.943542
Si Si3 0.054956 0.683531 0.886983
Si Si4 0.808376 0.180735 0.830100
Si Si5 0.587045 0.680779 0.402697
O O1 0.546752 0.241395 0.762074
O O2 0.465218 0.268363 0.653438
O O3 0.580898 0.227308 0.526053
O O4 0.515904 0.000000 0.652583
O O5 0.619177 0.249811 0.895174
O O6 0.738633 0.239382 0.856105
O O7 0.668775 0.000000 0.945317
O O8 0.660941 0.237350 0.080196
O O9 0.055016 0.500000 0.890338
O O10 0.000000 0.748297 0.000000
O O11 0.847089 0.222261 0.692613
O O12 0.809718 0.000000 0.854599
O O13 0.580423 0.500000 0.431082
#
# Coordination Sequence:
#
# PCOD8086366 Si02
#       5
#     8   8   8   8   8
#     4  10  19  31  49  72  93 117 157 196 226 270
#     4   9  17  31  50  70  94 122 154 192 230 270
#     4   9  17  29  47  71  95 118 147 189 237 275
#     4   9  18  31  48  70  94 123 156 189 228 274
#     4  10  19  32  48  67  95 126 154 187 232 277
#
# _framework density 18.124665
#
# number of rings (size 3 to 8) (size 9 to 14) (size 15 to 20)
#    0.000    2.600    0.000    3.600    0.000    3.200 
#    0.000    3.000    0.000    5.400    0.000    0.000 
#    0.000    0.000    0.000    0.000    0.000    0.000 
#
# Total GULP energy -247968.309819 kJ/mol
# GULP energy per Si atom -12398.415491 kJ/mol
# Density = 1.808341 g / cm^3
# Si number density = 18.124665 Si / 1000 Ang^3
#
#
#
# Elastic Constant Matrix: (Units=GPa)
#
#
# Indices 1 2 3 4 5 6 
#
# 1 115.5215 8.4454 80.5404 0.0000 7.1904 0.0000
# 2 8.4454 15.8774 11.2843 0.0000 -1.4537 0.0000
# 3 80.5404 11.2843 142.0667 0.0000 1.6494 0.0000
# 4 0.0000 0.0000 0.0000 20.1874 0.0000 0.0013
# 5 7.1904 -1.4537 1.6494 0.0000 33.9941 0.0000
# 6 0.0000 0.0000 0.0000 0.0013 0.0000 16.5980
#
#
#
# Elastic Compliance Matrix: (Units=1/GPa)
#
#
# Indices 1 2 3 4 5 6 
#
# 1 0.014632 -0.002297 -0.008080 0.000000 -0.002801 0.000000
# 2 -0.002297 0.067442 -0.004096 0.000000 0.003569 0.000000
# 3 -0.008080 -0.004096 0.011934 0.000000 0.000955 0.000000
# 4 0.000000 0.000000 0.000000 0.049536 0.000000 -0.000004
# 5 -0.002801 0.003569 0.000955 0.000000 0.030116 0.000000
# 6 0.000000 0.000000 0.000000 -0.000004 0.000000 0.060248
#
#
# Mechanical properties :
#
#
# Convention : Reuss Voigt Hill
#
# Bulk Modulus (GPa) = 15.36998 52.66732 34.01865
# Shear Modulus (GPa) = 17.57209 25.70226 21.63718
#
# Velocity S-wave (km/s) = 3.11708 3.76983 3.45889
# Velocity P-wave (km/s) = 4.63179 6.93327 5.89592
#
# Compressibility (1/GPa) = 0.06506190
#
# Stress axis : x y z
#
# Youngs Moduli (GPa) = 68.34253 14.82750 83.79337
#
# Poissons Ratio (x) = 0.03405 0.67708
# Poissons Ratio (y) = 0.15696 0.34324
# Poissons Ratio (z) = 0.55223 0.06074
#
# Static dielectric constant tensor:
#      x y z
#    x 3.605190 0.000000 -0.106070 
#    y 0.000000 3.147170 0.000000 
#    z -0.106070 0.000000 3.506710 
# 
# 
# High freq. dielectric constant tensor:
#      x y z
#    x 1.696390 0.000000 -0.010420 
#    y 0.000000 1.684430 0.000000 
#    z -0.010420 0.000000 1.705450 
# 
# From -- ./inp_files/162524.got.cif
#   From: 2010.06.25/outbox.cif.g09.slc.cpg/sg12_82_cif.got.tgz:162524.got - 2010.06.28 00:19:55.
