data_PCOD8086251
_publ_section_title
;
Structure prediction by ZEFSAII (Michael W. Deem and Ramdas Pophale) SiO2 
 PCOD8086251
Probable space group: C 2/M
;
_chemical_formula_sum "Si O2"
_cell_formula_units_Z 56
_cell_length_a 30.726492
_cell_length_b 9.713611
_cell_length_c 11.754281
_cell_angle_alpha 90.000000
_cell_angle_beta 62.856191
_cell_angle_gamma 90.000000
_cell_volume 3121.860595
_symmetry_space_group_name_H-M "C 2/M"
_symmetry_group_IT_number 12
_symmetry_cell_setting 'monoclinic'
loop_
_space_group_symop_operation_xyz
x,y,z
-x,y,-z
-x,-y,-z
x,-y,z
1/2+x,1/2+y,z
1/2-x,1/2+y,-z
1/2-x,1/2-y,-z
1/2+x,1/2-y,z
loop_
_atom_site_type_symbol
_atom_site_label
_atom_site_fract_x
_atom_site_fract_y
_atom_site_fract_z
Si Si1 0.956229 0.341300 0.706310
Si Si2 0.614609 0.660137 0.077857
Si Si3 0.066596 0.341289 0.521768
Si Si4 0.833059 0.159101 0.214075
Si Si5 0.209193 0.843816 0.102690
Si Si6 0.737738 0.656278 0.320479
Si Si7 0.143145 0.841759 0.563667
O O1 0.943680 0.500000 0.745587
O O2 0.932789 0.248328 0.832872
O O3 0.935466 0.297664 0.607798
O O4 0.014133 0.316751 0.641929
O O5 0.600599 0.500000 0.100581
O O6 0.656740 0.699754 0.117051
O O7 0.631684 0.702873 0.931126
O O8 0.082023 0.500000 0.514098
O O9 0.105876 0.251160 0.539856
O O10 0.783539 0.244474 0.270318
O O11 0.862578 0.186171 0.295118
O O12 0.817658 0.000000 0.220594
O O13 0.208076 0.824976 0.238843
O O14 0.221106 0.000000 0.052202
O O15 0.250000 0.750000 0.000000
O O16 0.756851 0.500000 0.311088
O O17 0.699203 0.694644 0.464882
O O18 0.131936 0.000000 0.545847
#
# Coordination Sequence:
#
# PCOD8086251 Si02
#       7
#     8   8   8   8   8   8   8
#     4   9  19  36  58  82 106 132 166 212 265 318
#     4  10  20  34  52  77 108 141 176 212 256 310
#     4   9  19  37  58  81 106 131 167 215 264 315
#     4  10  21  36  52  73 106 145 180 214 254 306
#     4  10  19  31  48  72 103 135 169 211 255 302
#     4  10  20  33  51  76 104 137 179 222 260 304
#     4  10  21  36  54  77 105 138 178 220 259 303
#
# _framework density 17.938020999999999
#
# number of rings (size 3 to 8) (size 9 to 14) (size 15 to 20)
#    0.000    2.286    1.429    2.143    0.000    4.571 
#    0.000    2.143    0.000    4.286    0.000    0.000 
#    0.000    0.000    0.000    0.000    0.000    0.000 
#
# Total GULP energy -347255.119846 kJ/mol
# GULP energy per Si atom -12401.968566 kJ/mol
# Density = 1.789719 g / cm^3
# Si number density = 17.938021 Si / 1000 Ang^3
#
#
#
# Elastic Constant Matrix: (Units=GPa)
#
#
# Indices 1 2 3 4 5 6 
#
# 1 58.2260 43.2901 41.9208 0.0000 -3.2192 0.0000
# 2 43.2901 75.2145 56.7509 0.0000 -9.9757 0.0000
# 3 41.9208 56.7509 115.7160 0.0000 -6.0265 0.0000
# 4 0.0000 0.0000 0.0000 32.1173 0.0000 -6.1855
# 5 -3.2192 -9.9757 -6.0265 0.0000 22.7175 0.0000
# 6 0.0000 0.0000 0.0000 -6.1855 0.0000 33.1288
#
#
#
# Elastic Compliance Matrix: (Units=1/GPa)
#
#
# Indices 1 2 3 4 5 6 
#
# 1 0.031368 -0.015555 -0.003913 0.000000 -0.003424 0.000000
# 2 -0.015555 0.029847 -0.008553 0.000000 0.008633 0.000000
# 3 -0.003913 -0.008553 0.014226 0.000000 -0.000536 0.000000
# 4 0.000000 0.000000 0.000000 0.032297 0.000000 0.006030
# 5 -0.003424 0.008633 -0.000536 0.000000 0.047182 0.000000
# 6 0.000000 0.000000 0.000000 0.006030 0.000000 0.031311
#
#
# Mechanical properties :
#
#
# Convention : Reuss Voigt Hill
#
# Bulk Modulus (GPa) = 51.55252 59.23114 55.39183
# Shear Modulus (GPa) = 20.10135 24.73904 22.42020
#
# Velocity S-wave (km/s) = 3.35117 3.71771 3.53919
# Velocity P-wave (km/s) = 6.61630 7.17775 6.90273
#
# Compressibility (1/GPa) = 0.01939769
#
# Stress axis : x y z
#
# Youngs Moduli (GPa) = 31.88000 33.50471 70.29335
#
# Poissons Ratio (x) = 0.52118 0.27506
# Poissons Ratio (y) = 0.49591 0.60121
# Poissons Ratio (z) = 0.12475 0.28656
#
# Static dielectric constant tensor:
#      x y z
#    x 3.056290 0.000000 0.150400 
#    y 0.000000 3.309810 0.000000 
#    z 0.150400 0.000000 3.455940 
# 
# 
# High freq. dielectric constant tensor:
#      x y z
#    x 1.680020 0.000000 0.004500 
#    y 0.000000 1.694470 0.000000 
#    z 0.004500 0.000000 1.702230 
# 
# From -- ./inp_files/186368.got.cif
#   From: 2010.06.25/outbox.cif.g09.slc.cpg/sg12_94_cif.got.tgz:186368.got - 2010.06.28 00:19:55.
