data_PCOD8086242
_publ_section_title
;
Structure prediction by ZEFSAII (Michael W. Deem and Ramdas Pophale) SiO2 
 PCOD8086242
Probable space group: C 2/M
;
_chemical_formula_sum "Si O2"
_cell_formula_units_Z 56
_cell_length_a 24.793686
_cell_length_b 8.742414
_cell_length_c 16.380449
_cell_angle_alpha 90.000000
_cell_angle_beta 66.786058
_cell_angle_gamma 90.000000
_cell_volume 3263.115324
_symmetry_space_group_name_H-M "C 2/M"
_symmetry_group_IT_number 12
_symmetry_cell_setting 'monoclinic'
loop_
_space_group_symop_operation_xyz
x,y,z
-x,y,-z
-x,-y,-z
x,-y,z
1/2+x,1/2+y,z
1/2-x,1/2+y,-z
1/2-x,1/2-y,-z
1/2+x,1/2-y,z
loop_
_atom_site_type_symbol
_atom_site_label
_atom_site_fract_x
_atom_site_fract_y
_atom_site_fract_z
Si Si1 0.643855 0.820923 0.757039
Si Si2 0.914055 0.319067 0.372001
Si Si3 0.768695 0.173158 0.728171
Si Si4 0.626882 0.672547 0.439884
Si Si5 0.473414 0.680520 0.767252
Si Si6 0.021451 0.679403 0.899071
Si Si7 0.377196 0.180214 0.721023
O O1 0.627488 0.758854 0.676777
O O2 0.704753 0.748240 0.753719
O O3 0.590723 0.782564 0.850419
O O4 0.655354 0.000000 0.743492
O O5 0.922449 0.500000 0.362066
O O6 0.884974 0.272812 0.473887
O O7 0.977653 0.243841 0.323966
O O8 0.802919 0.171635 0.620234
O O9 0.807961 0.272494 0.768383
O O10 0.763477 0.000000 0.765501
O O11 0.602991 0.500000 0.466147
O O12 0.595469 0.749849 0.379573
O O13 0.471690 0.500000 0.762849
O O14 0.484883 0.730686 0.853148
O O15 0.410865 0.748439 0.777767
O O16 0.010235 0.500000 0.892132
O O17 0.000000 0.735256 0.000000
O O18 0.384419 0.000000 0.716728
#
# Coordination Sequence:
#
# PCOD8086242 Si02
#       7
#     8   8   8   8   8   8   8
#     4   8  15  30  51  73 100 132 162 198 245 294
#     4  10  19  31  48  72 100 132 171 210 247 288
#     4   8  16  31  48  68  97 133 168 202 243 289
#     4   9  18  31  46  69  99 133 170 207 246 288
#     4  11  21  34  52  73 100 132 163 202 249 297
#     4   9  18  34  57  83 106 128 157 195 242 295
#     4  10  19  33  50  70  95 129 171 210 246 288
#
# _framework density 17.161512999999999
#
# number of rings (size 3 to 8) (size 9 to 14) (size 15 to 20)
#    0.857    1.857    0.000    3.857    0.000    1.429 
#    0.000    6.429    0.000    0.857    0.000    0.000 
#    0.000    0.000    0.000    0.000    0.000    0.000 
#
# Total GULP energy -346986.933442 kJ/mol
# GULP energy per Si atom -12392.390480 kJ/mol
# Density = 1.712245 g / cm^3
# Si number density = 17.161513 Si / 1000 Ang^3
#
#
#
# Elastic Constant Matrix: (Units=GPa)
#
#
# Indices 1 2 3 4 5 6 
#
# 1 139.7065 47.2144 42.3008 0.0000 1.5297 0.0000
# 2 47.2144 94.9698 25.8416 0.0000 4.2885 -0.0001
# 3 42.3008 25.8416 76.7899 0.0000 4.2225 0.0000
# 4 0.0000 0.0000 0.0000 19.6266 0.0000 3.2349
# 5 1.5297 4.2885 4.2225 0.0000 7.3289 0.0000
# 6 0.0000 -0.0001 0.0000 3.2349 0.0000 23.1804
#
#
#
# Elastic Compliance Matrix: (Units=1/GPa)
#
#
# Indices 1 2 3 4 5 6 
#
# 1 0.009682 -0.003788 -0.004203 0.000000 0.002617 0.000000
# 2 -0.003788 0.013231 -0.002048 0.000000 -0.005771 0.000000
# 3 -0.004203 -0.002048 0.016433 0.000000 -0.007392 0.000000
# 4 0.000000 0.000000 0.000000 0.052151 0.000000 -0.007278
# 5 0.002617 -0.005771 -0.007392 0.000000 0.143536 0.000000
# 6 0.000000 0.000000 0.000000 -0.007278 0.000000 0.044156
#
#
# Mechanical properties :
#
#
# Convention : Reuss Voigt Hill
#
# Bulk Modulus (GPa) = 51.89923 60.24220 56.07072
# Shear Modulus (GPa) = 16.35650 23.10115 19.72882
#
# Velocity S-wave (km/s) = 3.09057 3.67291 3.39425
# Velocity P-wave (km/s) = 6.56070 7.29152 6.93574
#
# Compressibility (1/GPa) = 0.01926811
#
# Stress axis : x y z
#
# Youngs Moduli (GPa) = 103.28623 75.58082 60.85165
#
# Poissons Ratio (x) = 0.28630 0.25573
# Poissons Ratio (y) = 0.39125 0.12465
# Poissons Ratio (z) = 0.43406 0.15483
#
# Static dielectric constant tensor:
#      x y z
#    x 3.305320 0.000000 -0.021890 
#    y 0.000000 3.067670 0.000000 
#    z -0.021890 0.000000 2.981150 
# 
# 
# High freq. dielectric constant tensor:
#      x y z
#    x 1.661380 0.000000 0.000560 
#    y 0.000000 1.657770 0.000000 
#    z 0.000560 0.000000 1.630420 
# 
# From -- ./inp_files/291444.got.cif
#   From: 2010.06.25/outbox.cif.g09.slc.cpg/sg12_146_cif.got.tgz:291444.got - 2010.06.28 00:19:55.
