data_PCOD8086254
_publ_section_title
;
Structure prediction by ZEFSAII (Michael W. Deem and Ramdas Pophale) SiO2 
 PCOD8086254
Probable space group: C 2/M
;
_chemical_formula_sum "Si O2"
_cell_formula_units_Z 48
_cell_length_a 23.644137
_cell_length_b 8.852715
_cell_length_c 23.708916
_cell_angle_alpha 90.000000
_cell_angle_beta 32.991771
_cell_angle_gamma 90.000000
_cell_volume 2702.242679
_symmetry_space_group_name_H-M "C 2/M"
_symmetry_group_IT_number 12
_symmetry_cell_setting 'monoclinic'
loop_
_space_group_symop_operation_xyz
x,y,z
-x,y,-z
-x,-y,-z
x,-y,z
1/2+x,1/2+y,z
1/2-x,1/2+y,-z
1/2-x,1/2-y,-z
1/2+x,1/2-y,z
loop_
_atom_site_type_symbol
_atom_site_label
_atom_site_fract_x
_atom_site_fract_y
_atom_site_fract_z
Si Si1 0.255152 0.324846 0.367073
Si Si2 0.661494 0.821720 0.111521
Si Si3 0.115697 0.826819 0.263689
Si Si4 0.931305 0.323056 0.272357
Si Si5 0.117739 0.826936 0.574180
Si Si6 0.889289 0.324451 0.616145
O O1 0.246652 0.500000 0.390110
O O2 0.375496 0.267939 0.267575
O O3 0.200680 0.223667 0.459457
O O4 0.202865 0.293683 0.350807
O O5 0.673032 0.762004 0.165573
O O6 0.551250 0.772527 0.176666
O O7 0.673602 0.000000 0.102423
O O8 0.750000 0.750000 0.000000
O O9 0.148414 0.761412 0.296650
O O10 0.993207 0.804955 0.361751
O O11 0.150394 0.000000 0.230688
O O12 0.921023 0.500000 0.270193
O O13 0.872395 0.278385 0.379353
O O14 0.136745 0.000000 0.576157
O O15 0.902122 0.500000 0.620163
O O16 0.000000 0.262861 0.500000
#
# Coordination Sequence:
#
# PCOD8086254 Si02
#       6
#     8   8   8   8   8   8
#     4  11  21  32  49  72 104 145 180 214 256 306
#     4  10  21  38  61  83 105 133 169 218 273 321
#     4  10  20  33  53  80 108 139 179 221 261 309
#     4  10  21  35  51  74 104 136 171 214 264 315
#     4  10  19  31  48  72 104 140 177 216 256 306
#     4  10  20  34  51  73 107 148 185 218 256 306
#
# _framework density 17.763024000000001
#
# number of rings (size 3 to 8) (size 9 to 14) (size 15 to 20)
#    0.000    1.833    1.667    3.000    0.000    5.000 
#    0.000    0.000    0.000    1.000    0.000    7.000 
#    0.000    0.000    0.000    0.000    0.000    0.000 
#
# Total GULP energy -297637.074413 kJ/mol
# GULP energy per Si atom -12401.544767 kJ/mol
# Density = 1.772259 g / cm^3
# Si number density = 17.763024 Si / 1000 Ang^3
#
#
#
# Elastic Constant Matrix: (Units=GPa)
#
#
# Indices 1 2 3 4 5 6 
#
# 1 116.3481 49.8268 48.3869 0.0018 4.3252 -0.0005
# 2 49.8268 70.0338 36.8516 0.0093 0.2716 -0.0037
# 3 48.3869 36.8516 90.9028 0.0032 12.2954 -0.0013
# 4 0.0018 0.0093 0.0032 29.0371 -0.0019 2.1082
# 5 4.3252 0.2716 12.2954 -0.0019 13.1972 0.0003
# 6 -0.0005 -0.0037 -0.0013 2.1082 0.0003 33.6277
#
#
#
# Elastic Compliance Matrix: (Units=1/GPa)
#
#
# Indices 1 2 3 4 5 6 
#
# 1 0.013511 -0.007447 -0.004113 0.000002 -0.000443 -0.000001
# 2 -0.007447 0.022912 -0.006397 -0.000006 0.007929 0.000002
# 3 -0.004113 -0.006397 0.017830 -0.000001 -0.015132 0.000000
# 4 0.000002 -0.000006 -0.000001 0.034596 0.000005 -0.002169
# 5 -0.000443 0.007929 -0.015132 0.000005 0.089854 -0.000001
# 6 -0.000001 0.000002 0.000000 -0.002169 -0.000001 0.029873
#
#
# Mechanical properties :
#
#
# Convention : Reuss Voigt Hill
#
# Bulk Modulus (GPa) = 54.52652 60.82393 57.67523
# Shear Modulus (GPa) = 19.95182 24.65371 22.30277
#
# Velocity S-wave (km/s) = 3.35509 3.72953 3.54725
# Velocity P-wave (km/s) = 6.76551 7.27063 7.02261
#
# Compressibility (1/GPa) = 0.01833970
#
# Stress axis : x y z
#
# Youngs Moduli (GPa) = 74.01402 43.64462 56.08430
#
# Poissons Ratio (x) = 0.32500 0.23068
# Poissons Ratio (y) = 0.55115 0.35879
# Poissons Ratio (z) = 0.30442 0.27921
#
# Static dielectric constant tensor:
#      x y z
#    x 3.509860 0.000000 -0.188920 
#    y 0.000000 3.361600 0.000000 
#    z -0.188920 0.000000 3.077980 
# 
# 
# High freq. dielectric constant tensor:
#      x y z
#    x 1.692320 0.000000 -0.009000 
#    y 0.000000 1.699690 0.000000 
#    z -0.009000 0.000000 1.653100 
# 
# From -- ./inp_files/172110.got.cif
#   From: 2010.06.25/outbox.cif.g09.slc.cpg/sg12_87_cif.got.tgz:172110.got - 2010.06.28 00:19:55.
