data_PCOD8086887
_publ_section_title
;
Structure prediction by ZEFSAII (Michael W. Deem and Ramdas Pophale) SiO2 
 PCOD8086887
Probable space group: C 2/M
;
_chemical_formula_sum "Si O2"
_cell_formula_units_Z 64
_cell_length_a 20.307318
_cell_length_b 9.462714
_cell_length_c 26.161609
_cell_angle_alpha 90.000000
_cell_angle_beta 47.586383
_cell_angle_gamma 90.000000
_cell_volume 3711.613104
_symmetry_space_group_name_H-M "C 2/M"
_symmetry_group_IT_number 12
_symmetry_cell_setting 'monoclinic'
loop_
_space_group_symop_operation_xyz
x,y,z
-x,y,-z
-x,-y,-z
x,-y,z
1/2+x,1/2+y,z
1/2-x,1/2+y,-z
1/2-x,1/2-y,-z
1/2+x,1/2-y,z
loop_
_atom_site_type_symbol
_atom_site_label
_atom_site_fract_x
_atom_site_fract_y
_atom_site_fract_z
Si Si1 0.412511 0.336665 0.675976
Si Si2 0.232802 0.664624 0.432874
Si Si3 0.229866 0.838196 0.167061
Si Si4 0.282272 0.161187 0.030011
Si Si5 0.115912 0.835248 0.568743
Si Si6 0.640655 0.665174 0.833897
Si Si7 0.783204 0.663631 0.675408
Si Si8 0.017007 0.663895 0.049639
O O1 0.407195 0.500000 0.662947
O O2 0.363619 0.309124 0.755676
O O3 0.514123 0.287200 0.630669
O O4 0.366228 0.250157 0.654673
O O5 0.210337 0.500000 0.450153
O O6 0.153648 0.750332 0.500880
O O7 0.327678 0.700579 0.409697
O O8 0.236692 0.711531 0.371932
O O9 0.304752 0.732983 0.148232
O O10 0.262531 0.000000 0.159132
O O11 0.218903 0.810546 0.112372
O O12 0.382324 0.205101 0.990980
O O13 0.277054 0.000000 0.015707
O O14 0.250000 0.250000 0.000000
O O15 0.122368 0.000000 0.552117
O O16 0.627758 0.500000 0.851272
O O17 0.692739 0.693888 0.753878
O O18 0.545069 0.741409 0.880985
O O19 0.810078 0.500000 0.664652
O O20 0.996350 0.500000 0.071044
O O21 0.000000 0.703668 0.000000
#
# Coordination Sequence:
#
# PCOD8086887 Si02
#       8
#     8   8   8   8   8   8   8   8
#     4   9  18  32  53  77  98 128 169 207 244 290
#     4   9  18  34  53  71  99 136 165 197 246 299
#     4   9  17  34  54  72  98 138 172 198 249 309
#     4  10  21  36  53  74 102 134 168 209 252 298
#     4   9  18  33  52  75  99 127 168 209 241 285
#     4  10  19  31  51  80 104 127 166 215 254 289
#     4   9  19  34  50  74 105 133 162 202 252 295
#     4  10  19  35  56  74  98 135 173 206 246 302
#
# _framework density 17.243175999999998
#
# number of rings (size 3 to 8) (size 9 to 14) (size 15 to 20)
#    0.000    2.625    1.250    0.375    0.000    3.250 
#    2.250    2.500    0.000    0.000    0.000    0.000 
#    0.000    0.000    0.000    0.000    0.000    0.000 
#
# Total GULP energy -396811.525032 kJ/mol
# GULP energy per Si atom -12400.360157 kJ/mol
# Density = 1.720393 g / cm^3
# Si number density = 17.243176 Si / 1000 Ang^3
#
#
#
# Elastic Constant Matrix: (Units=GPa)
#
#
# Indices 1 2 3 4 5 6 
#
# 1 121.5789 57.0918 85.6815 0.0000 4.2734 -0.0002
# 2 57.0918 65.1704 60.0306 -0.0001 -0.5823 -0.0007
# 3 85.6815 60.0306 127.0338 0.0000 1.6587 0.0000
# 4 0.0000 -0.0001 0.0000 30.2539 0.0000 -0.4855
# 5 4.2734 -0.5823 1.6587 0.0000 30.3436 0.0000
# 6 -0.0002 -0.0007 0.0000 -0.4855 0.0000 29.8502
#
#
#
# Elastic Compliance Matrix: (Units=1/GPa)
#
#
# Indices 1 2 3 4 5 6 
#
# 1 0.017912 -0.008163 -0.008194 0.000000 -0.002231 0.000000
# 2 -0.008163 0.030938 -0.009143 0.000000 0.002243 0.000001
# 3 -0.008194 -0.009143 0.017719 0.000000 0.000010 0.000000
# 4 0.000000 0.000000 0.000000 0.033062 0.000000 0.000538
# 5 -0.002231 0.002243 0.000010 0.000000 0.033313 0.000000
# 6 0.000000 0.000001 0.000000 0.000538 0.000000 0.033509
#
#
# Mechanical properties :
#
#
# Convention : Reuss Voigt Hill
#
# Bulk Modulus (GPa) = 64.23703 79.93231 72.08467
# Shear Modulus (GPa) = 22.45734 25.48813 23.97274
#
# Velocity S-wave (km/s) = 3.61278 3.84885 3.73268
# Velocity P-wave (km/s) = 7.39847 8.13684 7.77642
#
# Compressibility (1/GPa) = 0.01556734
#
# Stress axis : x y z
#
# Youngs Moduli (GPa) = 55.82907 32.32285 56.43519
#
# Poissons Ratio (x) = 0.26386 0.46245
# Poissons Ratio (y) = 0.45575 0.51600
# Poissons Ratio (z) = 0.45749 0.29554
#
# Static dielectric constant tensor:
#      x y z
#    x 2.604600 0.000000 -0.280530 
#    y 0.000000 3.226380 0.000000 
#    z -0.280530 0.000000 3.328680 
# 
# 
# High freq. dielectric constant tensor:
#      x y z
#    x 1.652540 0.000000 -0.004810 
#    y 0.000000 1.665120 0.000000 
#    z -0.004810 0.000000 1.671110 
# 
# From -- ./inp_files/346009.got.cif
#   From: 2010.06.25/outbox.cif.g09.slc.cpg/sg12_174_cif.got.tgz:346009.got - 2010.06.28 00:19:55.
