data_PCOD8086347
_publ_section_title
;
Structure prediction by ZEFSAII (Michael W. Deem and Ramdas Pophale) SiO2 
 PCOD8086347
Probable space group: C 2/M
;
_chemical_formula_sum "Si O2"
_cell_formula_units_Z 48
_cell_length_a 18.332844
_cell_length_b 9.180458
_cell_length_c 16.044435
_cell_angle_alpha 90.000000
_cell_angle_beta 86.266497
_cell_angle_gamma 90.000000
_cell_volume 2694.610156
_symmetry_space_group_name_H-M "C 2/M"
_symmetry_group_IT_number 12
_symmetry_cell_setting 'monoclinic'
loop_
_space_group_symop_operation_xyz
x,y,z
-x,y,-z
-x,-y,-z
x,-y,z
1/2+x,1/2+y,z
1/2-x,1/2+y,-z
1/2-x,1/2-y,-z
1/2+x,1/2-y,z
loop_
_atom_site_type_symbol
_atom_site_label
_atom_site_fract_x
_atom_site_fract_y
_atom_site_fract_z
Si Si1 0.467233 0.331760 0.593225
Si Si2 0.787804 0.331130 0.247799
Si Si3 0.835998 0.336725 0.665657
Si Si4 0.546869 0.829154 0.732411
Si Si5 0.213506 0.830596 0.079013
Si Si6 0.089173 0.338855 0.161047
O O1 0.500000 0.312177 0.500000
O O2 0.455810 0.500000 0.618125
O O3 0.388385 0.252910 0.599825
O O4 0.523996 0.261533 0.653418
O O5 0.776102 0.500000 0.269088
O O6 0.742553 0.240951 0.320012
O O7 0.871819 0.284130 0.247935
O O8 0.761359 0.295032 0.156692
O O9 0.824710 0.500000 0.631446
O O10 0.873441 0.340095 0.752154
O O11 0.494954 0.792021 0.816025
O O12 0.539710 0.000000 0.711095
O O13 0.130432 0.773348 0.097411
O O14 0.209666 0.000000 0.059179
O O15 0.250000 0.750000 0.000000
O O16 0.093380 0.500000 0.120202
#
# Coordination Sequence:
#
# PCOD8086347 Si02
#       6
#     8   8   8   8   8   8
#     4  10  20  33  50  73 100 129 162 200 241 287
#     4   9  18  33  52  74  99 127 161 201 244 288
#     4   9  17  30  50  73  96 127 165 200 237 286
#     4   9  18  33  53  75  98 126 161 201 244 289
#     4  10  19  31  49  71  96 127 161 198 240 285
#     4   8  15  29  48  69  93 122 158 196 235 285
#
# _framework density 17.813336
#
# number of rings (size 3 to 8) (size 9 to 14) (size 15 to 20)
#    0.000    2.833    0.000    2.500    0.000    6.667 
#    0.000    1.667    0.000    5.000    0.000    0.000 
#    0.000    0.000    0.000    0.000    0.000    0.000 
#
# Total GULP energy -297556.215639 kJ/mol
# GULP energy per Si atom -12398.175652 kJ/mol
# Density = 1.777279 g / cm^3
# Si number density = 17.813336 Si / 1000 Ang^3
#
#
#
# Elastic Constant Matrix: (Units=GPa)
#
#
# Indices 1 2 3 4 5 6 
#
# 1 160.0204 73.3776 48.2651 0.0000 -26.8436 0.0000
# 2 73.3776 121.1742 57.2280 0.0000 -21.6559 0.0000
# 3 48.2651 57.2280 63.0686 0.0000 -22.1897 0.0000
# 4 0.0000 0.0000 0.0000 27.8471 0.0000 -7.9635
# 5 -26.8436 -21.6559 -22.1897 0.0000 25.3177 0.0000
# 6 0.0000 0.0000 0.0000 -7.9635 0.0000 31.1594
#
#
#
# Elastic Compliance Matrix: (Units=1/GPa)
#
#
# Indices 1 2 3 4 5 6 
#
# 1 0.009471 -0.003936 -0.001920 0.000000 0.004992 0.000000
# 2 -0.003936 0.016105 -0.011889 0.000000 -0.000818 0.000000
# 3 -0.001920 -0.011889 0.034438 0.000000 0.017979 0.000000
# 4 0.000000 0.000000 0.000000 0.038742 0.000000 0.009901
# 5 0.004992 -0.000818 0.017979 0.000000 0.059849 0.000000
# 6 0.000000 0.000000 0.000000 0.009901 0.000000 0.034624
#
#
# Mechanical properties :
#
#
# Convention : Reuss Voigt Hill
#
# Bulk Modulus (GPa) = 40.77589 78.00051 59.38820
# Shear Modulus (GPa) = 21.10664 27.89100 24.49882
#
# Velocity S-wave (km/s) = 3.44594 3.96123 3.71254
# Velocity P-wave (km/s) = 6.22680 8.05013 7.19644
#
# Compressibility (1/GPa) = 0.02452430
#
# Stress axis : x y z
#
# Youngs Moduli (GPa) = 105.59048 62.09292 29.03744
#
# Poissons Ratio (x) = 0.24441 0.05574
# Poissons Ratio (y) = 0.41563 0.34523
# Poissons Ratio (z) = 0.20269 0.73822
#
# Static dielectric constant tensor:
#      x y z
#    x 3.653140 0.000000 -0.267600 
#    y 0.000000 3.486560 0.000000 
#    z -0.267600 0.000000 2.975880 
# 
# 
# High freq. dielectric constant tensor:
#      x y z
#    x 1.693580 0.000000 -0.027040 
#    y 0.000000 1.697250 0.000000 
#    z -0.027040 0.000000 1.655820 
# 
# From -- ./inp_files/221513.got.cif
#   From: 2010.06.25/outbox.cif.g09.slc.cpg/sg12_111_cif.got.tgz:221513.got - 2010.06.28 00:19:55.
