data_PCOD8086936
_publ_section_title
;
Structure prediction by ZEFSAII (Michael W. Deem and Ramdas Pophale) SiO2 
 PCOD8086936
Probable space group: C 2/M
;
_chemical_formula_sum "Si O2"
_cell_formula_units_Z 64
_cell_length_a 19.905264
_cell_length_b 24.279688
_cell_length_c 11.243070
_cell_angle_alpha 90.000000
_cell_angle_beta 40.408013
_cell_angle_gamma 90.000000
_cell_volume 3522.270224
_symmetry_space_group_name_H-M "C 2/M"
_symmetry_group_IT_number 12
_symmetry_cell_setting 'monoclinic'
loop_
_space_group_symop_operation_xyz
x,y,z
-x,y,-z
-x,-y,-z
x,-y,z
1/2+x,1/2+y,z
1/2-x,1/2+y,-z
1/2-x,1/2-y,-z
1/2+x,1/2-y,z
loop_
_atom_site_type_symbol
_atom_site_label
_atom_site_fract_x
_atom_site_fract_y
_atom_site_fract_z
Si Si1 0.695161 0.437332 0.530720
Si Si2 0.192032 0.349914 0.935908
Si Si3 0.568106 0.278199 0.626123
Si Si4 0.085156 0.301759 0.290349
Si Si5 0.095839 0.114520 0.442311
Si Si6 0.106337 0.158084 0.806467
Si Si7 0.617236 0.940451 0.873974
Si Si8 0.252615 0.738145 0.244709
O O1 0.676957 0.500000 0.600781
O O2 0.628541 0.427944 0.500754
O O3 0.668644 0.393435 0.668543
O O4 0.814705 0.425879 0.334789
O O5 0.310381 0.371832 0.775209
O O6 0.121348 0.393949 0.966386
O O7 0.181420 0.292004 0.879725
O O8 0.142743 0.348133 0.134489
O O9 0.470746 0.239297 0.727483
O O10 0.556024 0.329388 0.554452
O O11 0.571104 0.295957 0.758863
O O12 0.678657 0.248659 0.457329
O O13 0.178801 0.272406 0.231528
O O14 0.000000 0.325227 0.500000
O O15 0.000000 0.087979 0.500000
O O16 0.173121 0.187126 0.820984
O O17 0.000000 0.132916 0.000000
O O18 0.657428 0.000000 0.868525
O O19 0.500000 0.946300 0.000000
#
# Coordination Sequence:
#
# PCOD8086936 Si02
#       8
#     8   8   8   8   8   8   8   8
#     4   9  20  37  53  73  99 129 170 214 255 302
#     4  10  19  31  52  76 101 132 166 204 248 303
#     4   9  18  33  49  72 105 137 167 205 252 301
#     4  10  20  32  49  74 106 137 165 200 248 308
#     4   9  17  31  52  74  98 128 163 208 254 293
#     4  11  22  33  50  75 107 141 172 208 250 302
#     4   9  19  36  57  78  98 125 165 216 267 303
#     4  10  20  33  50  75 105 138 173 209 249 295
#
# _framework density 18.170099
#
# number of rings (size 3 to 8) (size 9 to 14) (size 15 to 20)
#    0.000    2.375    0.000    4.125    0.000    6.000 
#    0.000    0.000    0.000    1.125    0.000    0.000 
#    0.000    0.000    0.000    0.000    0.000    0.000 
#
# Total GULP energy -396613.721430 kJ/mol
# GULP energy per Si atom -12394.178795 kJ/mol
# Density = 1.812874 g / cm^3
# Si number density = 18.170099 Si / 1000 Ang^3
#
#
#
# Elastic Constant Matrix: (Units=GPa)
#
#
# Indices 1 2 3 4 5 6 
#
# 1 63.5178 28.4452 30.7110 0.0001 -10.5116 0.0000
# 2 28.4452 87.3074 45.3503 0.0001 0.5671 0.0000
# 3 30.7110 45.3503 93.9638 0.0001 -0.4418 0.0001
# 4 0.0001 0.0001 0.0001 95.4323 -0.0001 1.7136
# 5 -10.5116 0.5671 -0.4418 -0.0001 23.4656 0.0000
# 6 0.0000 0.0000 0.0001 1.7136 0.0000 11.3021
#
#
#
# Elastic Compliance Matrix: (Units=1/GPa)
#
#
# Indices 1 2 3 4 5 6 
#
# 1 0.021779 -0.004652 -0.004827 0.000000 0.009778 0.000000
# 2 -0.004652 0.016286 -0.006352 0.000000 -0.002597 0.000000
# 3 -0.004827 -0.006352 0.015278 0.000000 -0.001721 0.000000
# 4 0.000000 0.000000 0.000000 0.010507 0.000000 -0.001593
# 5 0.009778 -0.002597 -0.001721 0.000000 0.047026 0.000000
# 6 0.000000 0.000000 0.000000 -0.001593 0.000000 0.088721
#
#
# Mechanical properties :
#
#
# Convention : Reuss Voigt Hill
#
# Bulk Modulus (GPa) = 46.12420 50.42244 48.27332
# Shear Modulus (GPa) = 20.96572 35.39216 28.17894
#
# Velocity S-wave (km/s) = 3.40053 4.41820 3.94234
# Velocity P-wave (km/s) = 6.39202 7.33743 6.88098
#
# Compressibility (1/GPa) = 0.02168059
#
# Stress axis : x y z
#
# Youngs Moduli (GPa) = 45.91615 61.40397 65.45534
#
# Poissons Ratio (x) = 0.28564 0.31596
# Poissons Ratio (y) = 0.21359 0.41576
# Poissons Ratio (z) = 0.22164 0.39003
#
# Static dielectric constant tensor:
#      x y z
#    x 3.175620 0.000000 -0.101230 
#    y 0.000000 3.314940 0.000000 
#    z -0.101230 0.000000 3.547210 
# 
# 
# High freq. dielectric constant tensor:
#      x y z
#    x 1.690150 0.000000 -0.013260 
#    y 0.000000 1.682700 0.000000 
#    z -0.013260 0.000000 1.714580 
# 
# From -- ./inp_files/169655.got.cif
#   From: 2010.06.25/outbox.cif.g09.slc.cpg/sg12_85_cif.got.tgz:169655.got - 2010.06.28 00:19:55.
