data_PCOD8086145
_publ_section_title
;
Structure prediction by ZEFSAII (Michael W. Deem and Ramdas Pophale) SiO2 
 PCOD8086145
Probable space group: C 2/M
;
_chemical_formula_sum "Si O2"
_cell_formula_units_Z 60
_cell_length_a 12.458182
_cell_length_b 13.914749
_cell_length_c 20.212726
_cell_angle_alpha 90.000000
_cell_angle_beta 88.895396
_cell_angle_gamma 90.000000
_cell_volume 3503.274942
_symmetry_space_group_name_H-M "C 2/M"
_symmetry_group_IT_number 12
_symmetry_cell_setting 'monoclinic'
loop_
_space_group_symop_operation_xyz
x,y,z
-x,y,-z
-x,-y,-z
x,-y,z
1/2+x,1/2+y,z
1/2-x,1/2+y,-z
1/2-x,1/2-y,-z
1/2+x,1/2-y,z
loop_
_atom_site_type_symbol
_atom_site_label
_atom_site_fract_x
_atom_site_fract_y
_atom_site_fract_z
Si Si1 0.540987 0.889754 0.353913
Si Si2 0.265688 0.111907 0.552609
Si Si3 0.403942 0.771472 0.452229
Si Si4 0.268525 0.889380 0.884238
Si Si5 0.500000 0.704403 0.000000
Si Si6 0.781066 0.109766 0.968376
Si Si7 0.026522 0.611461 0.202318
Si Si8 0.373664 0.777239 0.118262
O O1 0.656844 0.873902 0.385580
O O2 0.451192 0.820632 0.386063
O O3 0.553619 0.862651 0.277253
O O4 0.503890 0.000000 0.364363
O O5 0.324953 0.150562 0.486346
O O6 0.158359 0.173977 0.566598
O O7 0.235230 0.000000 0.542905
O O8 0.500000 0.742524 0.500000
O O9 0.374324 0.857071 0.844375
O O10 0.166996 0.828168 0.858839
O O11 0.240000 0.000000 0.870894
O O12 0.283978 0.869199 0.962601
O O13 0.595278 0.636087 0.023472
O O14 0.464075 0.772267 0.060611
O O15 0.730536 0.168956 0.909093
O O16 0.771788 0.000000 0.948000
O O17 0.000786 0.500000 0.193127
O O18 0.920972 0.669093 0.181285
#
# Coordination Sequence:
#
# PCOD8086145 Si02
#       8
#     8   8   8   8   4   8   8   8
#     4   9  18  32  49  68  93 126 160 190 224 272
#     4   9  17  30  50  74 100 129 157 188 228 273
#     4   9  17  30  49  75 100 123 156 194 230 267
#     4   9  19  33  47  66  92 121 153 190 235 285
#     4  10  19  32  47  66  92 120 151 188 235 288
#     4  10  19  31  48  69  92 118 150 191 238 286
#     4  10  20  33  48  68  93 121 155 194 232 271
#     4  11  19  31  49  70  91 118 153 194 237 278
#
# _framework density 17.126832
#
# number of rings (size 3 to 8) (size 9 to 14) (size 15 to 20)
#    0.000    2.400    0.000    4.200    0.000    3.467 
#    0.000    2.667    0.000    0.000    0.000    0.000 
#    0.000    0.000    0.000    0.000    0.000    0.000 
#
# Total GULP energy -372024.190546 kJ/mol
# GULP energy per Si atom -12400.806352 kJ/mol
# Density = 1.708785 g / cm^3
# Si number density = 17.126832 Si / 1000 Ang^3
#
#
#
# Elastic Constant Matrix: (Units=GPa)
#
#
# Indices 1 2 3 4 5 6 
#
# 1 97.3313 53.8627 46.5984 0.0000 1.9573 0.0000
# 2 53.8627 94.2839 38.4990 0.0000 9.9814 0.0000
# 3 46.5984 38.4990 72.5297 0.0000 11.4217 0.0000
# 4 0.0000 0.0000 0.0000 21.4705 0.0000 1.4451
# 5 1.9573 9.9814 11.4217 0.0000 13.8949 0.0000
# 6 0.0000 0.0000 0.0000 1.4451 0.0000 34.8755
#
#
#
# Elastic Compliance Matrix: (Units=1/GPa)
#
#
# Indices 1 2 3 4 5 6 
#
# 1 0.019280 -0.008201 -0.009803 0.000000 0.011233 0.000000
# 2 -0.008201 0.017266 -0.002441 0.000000 -0.009241 0.000000
# 3 -0.009803 -0.002441 0.023993 0.000000 -0.016588 0.000000
# 4 0.000000 0.000000 0.000000 0.046706 0.000000 -0.001935
# 5 0.011233 -0.009241 -0.016588 0.000000 0.090661 0.000000
# 6 0.000000 0.000000 0.000000 -0.001935 0.000000 0.028754
#
#
# Mechanical properties :
#
#
# Convention : Reuss Voigt Hill
#
# Bulk Modulus (GPa) = 50.88876 60.22948 55.55912
# Shear Modulus (GPa) = 18.24167 22.39384 20.31776
#
# Velocity S-wave (km/s) = 3.26712 3.61990 3.44802
# Velocity P-wave (km/s) = 6.63396 7.26049 6.95428
#
# Compressibility (1/GPa) = 0.01965071
#
# Stress axis : x y z
#
# Youngs Moduli (GPa) = 51.86853 57.91673 41.67828
#
# Poissons Ratio (x) = 0.47495 0.40856
# Poissons Ratio (y) = 0.42535 0.10174
# Poissons Ratio (z) = 0.50845 0.14138
#
# Static dielectric constant tensor:
#      x y z
#    x 3.149090 0.000000 -0.032250 
#    y 0.000000 3.278640 0.000000 
#    z -0.032250 0.000000 3.044050 
# 
# 
# High freq. dielectric constant tensor:
#      x y z
#    x 1.658440 0.000000 -0.000610 
#    y 0.000000 1.666600 0.000000 
#    z -0.000610 0.000000 1.640500 
# 
# From -- ./inp_files/305151.got.cif
#   From: 2010.06.25/outbox.cif.g09.slc.cpg/sg12_153_cif.got.tgz:305151.got - 2010.06.28 00:19:55.
