data_PCOD8086705
_publ_section_title
;
Structure prediction by ZEFSAII (Michael W. Deem and Ramdas Pophale) SiO2 
 PCOD8086705
Probable space group: C 2/M
;
_chemical_formula_sum "Si O2"
_cell_formula_units_Z 64
_cell_length_a 25.104263
_cell_length_b 8.950198
_cell_length_c 16.576451
_cell_angle_alpha 90.000000
_cell_angle_beta 103.007097
_cell_angle_gamma 90.000000
_cell_volume 3628.968373
_symmetry_space_group_name_H-M "C 2/M"
_symmetry_group_IT_number 12
_symmetry_cell_setting 'monoclinic'
loop_
_space_group_symop_operation_xyz
x,y,z
-x,y,-z
-x,-y,-z
x,-y,z
1/2+x,1/2+y,z
1/2-x,1/2+y,-z
1/2-x,1/2-y,-z
1/2+x,1/2-y,z
loop_
_atom_site_type_symbol
_atom_site_label
_atom_site_fract_x
_atom_site_fract_y
_atom_site_fract_z
Si Si1 0.192590 0.174754 0.995294
Si Si2 0.092441 0.323241 0.507682
Si Si3 0.582211 0.326896 0.670995
Si Si4 0.321258 0.325441 0.185359
Si Si5 0.302756 0.823684 0.845112
Si Si6 0.193425 0.170932 0.468413
Si Si7 0.962148 0.171222 0.656457
Si Si8 0.639013 0.669135 0.279053
O O1 0.167073 0.251376 0.066260
O O2 0.199594 0.000000 0.013932
O O3 0.250000 0.250000 0.000000
O O4 0.159403 0.204815 0.900767
O O5 0.096021 0.500000 0.508066
O O6 0.072937 0.267886 0.587801
O O7 0.151572 0.254324 0.512169
O O8 0.049451 0.271440 0.425667
O O9 0.592804 0.500000 0.652680
O O10 0.632443 0.257085 0.739934
O O11 0.525675 0.311950 0.702826
O O12 0.319077 0.500000 0.200929
O O13 0.260088 0.262103 0.183280
O O14 0.337964 0.780967 0.779610
O O15 0.302776 0.000000 0.856311
O O16 0.250000 0.250000 0.500000
O O17 0.176700 0.185121 0.370012
O O18 0.197331 0.000000 0.497649
O O19 0.923095 0.217148 0.718272
O O20 0.947261 0.000000 0.627982
O O21 0.640600 0.500000 0.245957
#
# Coordination Sequence:
#
# PCOD8086705 Si02
#       8
#     8   8   8   8   8   8   8   8
#     4   9  16  30  50  73 102 133 162 199 248 301
#     4  11  22  34  49  73 102 135 174 212 253 301
#     4  10  19  34  55  75  98 131 169 217 263 305
#     4   8  17  31  49  76 102 125 159 203 253 304
#     4  10  19  31  50  77 103 132 167 201 246 305
#     4  10  21  36  52  72 102 137 171 210 257 303
#     4   9  19  36  55  72  95 132 176 216 261 303
#     4   9  19  34  50  72  98 128 168 210 247 297
#
# _framework density 17.635867000000001
#
# number of rings (size 3 to 8) (size 9 to 14) (size 15 to 20)
#    0.000    2.500    0.000    4.125    1.750    4.500 
#    0.000    3.125    0.000    0.750    0.000    5.250 
#    0.000    0.000    0.000    0.000    0.000    0.000 
#
# Total GULP energy -396638.515968 kJ/mol
# GULP energy per Si atom -12394.953624 kJ/mol
# Density = 1.759573 g / cm^3
# Si number density = 17.635867 Si / 1000 Ang^3
#
#
#
# Elastic Constant Matrix: (Units=GPa)
#
#
# Indices 1 2 3 4 5 6 
#
# 1 97.0180 34.6664 52.9082 0.0000 -8.5174 0.0000
# 2 34.6664 91.3514 37.6257 0.0000 -7.3827 0.0000
# 3 52.9082 37.6257 73.5955 0.0000 -13.0592 0.0000
# 4 0.0000 0.0000 0.0000 25.9371 0.0000 -5.4323
# 5 -8.5174 -7.3827 -13.0592 0.0000 20.2991 0.0000
# 6 0.0000 0.0000 0.0000 -5.4323 0.0000 23.6940
#
#
#
# Elastic Compliance Matrix: (Units=1/GPa)
#
#
# Indices 1 2 3 4 5 6 
#
# 1 0.017203 -0.001826 -0.011595 0.000000 -0.000905 0.000000
# 2 -0.001826 0.014066 -0.005765 0.000000 0.000641 0.000000
# 3 -0.011595 -0.005765 0.026681 0.000000 0.010203 0.000000
# 4 0.000000 0.000000 0.000000 0.040500 0.000000 0.009285
# 5 -0.000905 0.000641 0.010203 0.000000 0.055681 0.000000
# 6 0.000000 0.000000 0.000000 0.009285 0.000000 0.044334
#
#
# Mechanical properties :
#
#
# Convention : Reuss Voigt Hill
#
# Bulk Modulus (GPa) = 51.07389 56.92950 54.00169
# Shear Modulus (GPa) = 20.54555 23.10368 21.82461
#
# Velocity S-wave (km/s) = 3.41689 3.62337 3.52165
# Velocity P-wave (km/s) = 6.67757 7.06086 6.87189
#
# Compressibility (1/GPa) = 0.01957948
#
# Stress axis : x y z
#
# Youngs Moduli (GPa) = 58.12776 71.09427 37.47983
#
# Poissons Ratio (x) = 0.12982 0.43457
# Poissons Ratio (y) = 0.10614 0.21606
# Poissons Ratio (z) = 0.67398 0.40984
#
# Static dielectric constant tensor:
#      x y z
#    x 3.311750 0.000000 -0.015610 
#    y 0.000000 3.254770 0.000000 
#    z -0.015610 0.000000 3.499780 
# 
# 
# High freq. dielectric constant tensor:
#      x y z
#    x 1.672340 0.000000 -0.008140 
#    y 0.000000 1.675990 0.000000 
#    z -0.008140 0.000000 1.670040 
# 
# From -- ./inp_files/244219.got.cif
#   From: 2010.06.25/outbox.cif.g09.slc.cpg/sg12_123_cif.got.tgz:244219.got - 2010.06.28 00:19:55.
