data_PCOD8086127
_publ_section_title
;
Structure prediction by ZEFSAII (Michael W. Deem and Ramdas Pophale) SiO2 
 PCOD8086127
Probable space group: C 2/M
;
_chemical_formula_sum "Si O2"
_cell_formula_units_Z 52
_cell_length_a 12.225639
_cell_length_b 22.479498
_cell_length_c 17.371066
_cell_angle_alpha 90.000000
_cell_angle_beta 141.633940
_cell_angle_gamma 90.000000
_cell_volume 2963.157966
_symmetry_space_group_name_H-M "C 2/M"
_symmetry_group_IT_number 12
_symmetry_cell_setting 'monoclinic'
loop_
_space_group_symop_operation_xyz
x,y,z
-x,y,-z
-x,-y,-z
x,-y,z
1/2+x,1/2+y,z
1/2-x,1/2+y,-z
1/2-x,1/2-y,-z
1/2+x,1/2-y,z
loop_
_atom_site_type_symbol
_atom_site_label
_atom_site_fract_x
_atom_site_fract_y
_atom_site_fract_z
Si Si1 0.000000 0.221017 0.000000
Si Si2 0.597441 0.935071 0.352273
Si Si3 0.963947 0.310827 0.851248
Si Si4 0.468799 0.602275 0.571486
Si Si5 0.373824 0.824140 0.223180
Si Si6 0.340636 0.934422 0.794347
Si Si7 0.568412 0.730701 0.618488
O O1 0.052894 0.264681 0.959055
O O2 0.838079 0.178390 0.887981
O O3 0.782696 0.923693 0.499083
O O4 0.444401 0.888424 0.289019
O O5 0.643995 0.930901 0.288722
O O6 0.525136 0.000000 0.335473
O O7 0.956182 0.377475 0.886328
O O8 0.769290 0.290187 0.720447
O O9 0.078828 0.309656 0.838069
O O10 0.500000 0.586682 0.500000
O O11 0.636513 0.573755 0.708687
O O12 0.453300 0.672961 0.575799
O O13 0.459975 0.776824 0.328462
O O14 0.407146 0.000000 0.860450
O O15 0.500000 0.758463 0.500000
#
# Coordination Sequence:
#
# PCOD8086127 Si02
#       7
#     4   8   8   8   8   8   8
#     4  10  20  34  46  62  86 116 156 192 224 252
#     4   9  16  25  40  63  87 114 148 180 213 256
#     4   9  18  30  46  66  90 118 147 182 218 261
#     4   8  13  22  38  63  94 118 135 165 213 269
#     4  10  19  31  48  65  87 118 150 186 222 258
#     4   8  13  23  40  63  90 116 139 167 212 268
#     4   9  17  28  44  71  97 115 140 174 219 271
#
# _framework density 17.548845
#
# number of rings (size 3 to 8) (size 9 to 14) (size 15 to 20)
#    0.000    3.077    0.000    3.692    0.000    4.308 
#    0.000    0.769    0.000    0.462    0.000    0.000 
#    0.000    4.923    0.000    0.000    0.000    0.000 
#
# Total GULP energy -322133.665598 kJ/mol
# GULP energy per Si atom -12389.756369 kJ/mol
# Density = 1.750890 g / cm^3
# Si number density = 17.548845 Si / 1000 Ang^3
#
#
#
# Elastic Constant Matrix: (Units=GPa)
#
#
# Indices 1 2 3 4 5 6 
#
# 1 42.5366 37.6769 13.5284 -0.0004 3.9458 -0.0001
# 2 37.6769 106.7108 25.2204 0.0016 14.8697 0.0004
# 3 13.5284 25.2204 38.5379 0.0049 5.3402 0.0012
# 4 -0.0004 0.0016 0.0049 14.6006 0.0002 6.0669
# 5 3.9458 14.8697 5.3402 0.0002 17.9354 0.0000
# 6 -0.0001 0.0004 0.0012 6.0669 0.0000 21.0688
#
#
#
# Elastic Compliance Matrix: (Units=1/GPa)
#
#
# Indices 1 2 3 4 5 6 
#
# 1 0.035183 -0.011682 -0.005189 0.000004 0.003490 0.000000
# 2 -0.011682 0.015974 -0.005083 0.000000 -0.009160 0.000000
# 3 -0.005189 -0.005083 0.031661 -0.000011 -0.004071 0.000001
# 4 0.000004 0.000000 -0.000011 0.077799 0.000001 -0.022403
# 5 0.003490 -0.009160 -0.004071 0.000001 0.063794 0.000000
# 6 0.000000 0.000000 0.000001 -0.022403 0.000000 0.053914
#
#
# Mechanical properties :
#
#
# Convention : Reuss Voigt Hill
#
# Bulk Modulus (GPa) = 25.70153 37.84852 31.77502
# Shear Modulus (GPa) = 14.91625 18.14493 16.53059
#
# Velocity S-wave (km/s) = 2.91861 3.21902 3.07249
# Velocity P-wave (km/s) = 5.10247 5.95235 5.54372
#
# Compressibility (1/GPa) = 0.03890819
#
# Stress axis : x y z
#
# Youngs Moduli (GPa) = 28.42254 62.60321 31.58461
#
# Poissons Ratio (x) = 0.73135 0.16390
# Poissons Ratio (y) = 0.33204 0.16056
# Poissons Ratio (z) = 0.14749 0.31824
#
# Static dielectric constant tensor:
#      x y z
#    x 2.812490 0.000000 0.110290 
#    y 0.000000 3.555700 0.000000 
#    z 0.110290 0.000000 3.173830 
# 
# 
# High freq. dielectric constant tensor:
#      x y z
#    x 1.627990 0.000000 0.016070 
#    y 0.000000 1.681650 0.000000 
#    z 0.016070 0.000000 1.664460 
# 
# From -- ./inp_files/190187.got.cif
#   From: 2010.06.25/outbox.cif.g09.slc.cpg/sg12_96_cif.got.tgz:190187.got - 2010.06.28 00:19:55.
