data_PCOD8086458
_publ_section_title
;
Structure prediction by ZEFSAII (Michael W. Deem and Ramdas Pophale) SiO2 
 PCOD8086458
Probable space group: C 2/M
;
_chemical_formula_sum "Si O2"
_cell_formula_units_Z 64
_cell_length_a 31.549950
_cell_length_b 9.076139
_cell_length_c 14.161265
_cell_angle_alpha 90.000000
_cell_angle_beta 63.681472
_cell_angle_gamma 90.000000
_cell_volume 3634.763397
_symmetry_space_group_name_H-M "C 2/M"
_symmetry_group_IT_number 12
_symmetry_cell_setting 'monoclinic'
loop_
_space_group_symop_operation_xyz
x,y,z
-x,y,-z
-x,-y,-z
x,-y,z
1/2+x,1/2+y,z
1/2-x,1/2+y,-z
1/2-x,1/2-y,-z
1/2+x,1/2-y,z
loop_
_atom_site_type_symbol
_atom_site_label
_atom_site_fract_x
_atom_site_fract_y
_atom_site_fract_z
Si Si1 0.385808 0.173487 0.635154
Si Si2 0.072155 0.172374 0.572003
Si Si3 0.884528 0.830275 0.072261
Si Si4 0.976533 0.332030 0.662859
Si Si5 0.530260 0.168746 0.110494
Si Si6 0.200894 0.672435 0.938401
Si Si7 0.064146 0.168410 0.793103
Si Si8 0.202437 0.672327 0.153593
O O1 0.387348 0.251721 0.531577
O O2 0.431693 0.223179 0.648369
O O3 0.339751 0.226444 0.737555
O O4 0.384326 0.000000 0.621630
O O5 0.082325 0.213960 0.671121
O O6 0.020924 0.232064 0.591422
O O7 0.073707 0.000000 0.552511
O O8 0.837794 0.742774 0.091435
O O9 0.892618 0.812678 0.176857
O O10 0.878262 0.000000 0.049637
O O11 0.929808 0.767289 0.974930
O O12 0.989973 0.500000 0.624556
O O13 0.962770 0.316619 0.785069
O O14 0.478918 0.228441 0.130706
O O15 0.535020 0.000000 0.072180
O O16 0.201911 0.500000 0.917997
O O17 0.251462 0.738608 0.860957
O O18 0.188241 0.708241 0.059626
O O19 0.045592 0.000000 0.809877
O O20 0.213118 0.500000 0.154705
#
# Coordination Sequence:
#
# PCOD8086458 Si02
#       8
#     8   8   8   8   8   8   8   8
#     4  10  19  32  51  72  97 131 166 197 237 294
#     4  10  20  33  48  69  98 130 168 211 245 277
#     4  11  21  33  51  72  98 134 169 200 244 299
#     4   9  18  32  48  69 101 136 164 194 240 294
#     4  10  19  31  49  74 102 131 166 207 245 286
#     4  10  20  35  55  79 104 127 158 200 241 287
#     4   9  20  36  49  66  98 137 170 203 247 294
#     4   9  19  36  55  76 104 133 157 189 243 303
#
# _framework density 17.607748000000001
#
# number of rings (size 3 to 8) (size 9 to 14) (size 15 to 20)
#    0.000    2.250    0.000    3.000    0.000    8.500 
#    0.000    1.250    0.000    0.750    0.000    0.000 
#    0.000    0.000    0.000    0.000    0.000    0.000 
#
# Total GULP energy -396890.767214 kJ/mol
# GULP energy per Si atom -12402.836475 kJ/mol
# Density = 1.756767 g / cm^3
# Si number density = 17.607748 Si / 1000 Ang^3
#
#
#
# Elastic Constant Matrix: (Units=GPa)
#
#
# Indices 1 2 3 4 5 6 
#
# 1 113.3195 51.3333 62.1748 0.0000 -0.1448 0.0000
# 2 51.3333 66.0920 48.9217 0.0000 -4.3099 0.0000
# 3 62.1748 48.9217 114.9185 0.0000 -17.1117 0.0000
# 4 0.0000 0.0000 0.0000 30.6065 0.0000 -2.6344
# 5 -0.1448 -4.3099 -17.1117 0.0000 15.7289 0.0000
# 6 0.0000 0.0000 0.0000 -2.6344 0.0000 28.0787
#
#
#
# Elastic Compliance Matrix: (Units=1/GPa)
#
#
# Indices 1 2 3 4 5 6 
#
# 1 0.016204 -0.008288 -0.006628 0.000000 -0.009333 0.000000
# 2 -0.008288 0.026663 -0.006910 0.000000 -0.000288 0.000000
# 3 -0.006628 -0.006910 0.017826 0.000000 0.017439 0.000000
# 4 0.000000 0.000000 0.000000 0.032939 0.000000 0.003090
# 5 -0.009333 -0.000288 0.017439 0.000000 0.082385 0.000000
# 6 0.000000 0.000000 0.000000 0.003090 0.000000 0.035904
#
#
# Mechanical properties :
#
#
# Convention : Reuss Voigt Hill
#
# Bulk Modulus (GPa) = 58.67889 68.79884 63.73887
# Shear Modulus (GPa) = 19.13859 23.67617 21.40738
#
# Velocity S-wave (km/s) = 3.30046 3.67092 3.49061
# Velocity P-wave (km/s) = 6.92257 7.55813 7.24732
#
# Compressibility (1/GPa) = 0.01704190
#
# Stress axis : x y z
#
# Youngs Moduli (GPa) = 61.71444 37.50490 56.09712
#
# Poissons Ratio (x) = 0.31082 0.37183
# Poissons Ratio (y) = 0.51146 0.38761
# Poissons Ratio (z) = 0.40906 0.25915
#
# Static dielectric constant tensor:
#      x y z
#    x 3.230450 0.000000 0.113160 
#    y 0.000000 3.326910 0.000000 
#    z 0.113160 0.000000 3.341380 
# 
# 
# High freq. dielectric constant tensor:
#      x y z
#    x 1.664570 0.000000 0.009210 
#    y 0.000000 1.687480 0.000000 
#    z 0.009210 0.000000 1.678570 
# 
# From -- ./inp_files/248986.got.cif
#   From: 2010.06.25/outbox.cif.g09.slc.cpg/sg12_125_cif.got.tgz:248986.got - 2010.06.28 00:19:55.
