data_PCOD8086641
_publ_section_title
;
Structure prediction by ZEFSAII (Michael W. Deem and Ramdas Pophale) SiO2 
 PCOD8086641
Probable space group: C 2/M
;
_chemical_formula_sum "Si O2"
_cell_formula_units_Z 56
_cell_length_a 23.130127
_cell_length_b 9.220879
_cell_length_c 15.102475
_cell_angle_alpha 90.000000
_cell_angle_beta 92.087987
_cell_angle_gamma 90.000000
_cell_volume 3218.918808
_symmetry_space_group_name_H-M "C 2/M"
_symmetry_group_IT_number 12
_symmetry_cell_setting 'monoclinic'
loop_
_space_group_symop_operation_xyz
x,y,z
-x,y,-z
-x,-y,-z
x,-y,z
1/2+x,1/2+y,z
1/2-x,1/2+y,-z
1/2-x,1/2-y,-z
1/2+x,1/2-y,z
loop_
_atom_site_type_symbol
_atom_site_label
_atom_site_fract_x
_atom_site_fract_y
_atom_site_fract_z
Si Si1 0.431590 0.163530 0.487508
Si Si2 0.443322 0.669758 0.316014
Si Si3 0.751745 0.333216 0.908296
Si Si4 0.935654 0.666747 0.990018
Si Si5 0.364663 0.832744 0.813494
Si Si6 0.422586 0.670222 0.660452
Si Si7 0.123866 0.166533 0.860312
O O1 0.500000 0.161547 0.500000
O O2 0.414798 0.243661 0.395728
O O3 0.405113 0.252517 0.567837
O O4 0.406620 0.000000 0.485711
O O5 0.432908 0.500000 0.332432
O O6 0.511203 0.704768 0.309403
O O7 0.410556 0.726028 0.226664
O O8 0.763468 0.500000 0.933337
O O9 0.803617 0.276942 0.849097
O O10 0.692471 0.312815 0.850205
O O11 0.750000 0.250000 0.000000
O O12 0.935494 0.500000 0.019411
O O13 0.914323 0.687351 0.889173
O O14 0.893121 0.748979 0.052875
O O15 0.000000 0.732566 0.000000
O O16 0.380015 0.731776 0.732168
O O17 0.361007 0.000000 0.782314
O O18 0.412322 0.500000 0.648827
O O19 0.107366 0.000000 0.874731
#
# Coordination Sequence:
#
# PCOD8086641 Si02
#       7
#     8   8   8   8   8   8   8
#     4   9  17  30  50  75 102 132 163 196 240 297
#     4   9  18  32  49  74 105 131 160 201 248 297
#     4  10  20  35  53  71  94 130 174 214 252 291
#     4  10  20  32  47  70 101 134 164 200 249 299
#     4  10  20  33  48  69  99 131 166 209 249 290
#     4  10  19  31  50  75 102 132 163 199 247 299
#     4  10  20  33  51  73  98 130 168 209 249 293
#
# _framework density 17.397144000000001
#
# number of rings (size 3 to 8) (size 9 to 14) (size 15 to 20)
#    0.000    2.286    1.429    1.714    0.000    4.286 
#    0.000    0.000    0.000    0.857    0.000    0.000 
#    0.000    0.000    0.000    0.000    0.000    0.000 
#
# Total GULP energy -347258.836223 kJ/mol
# GULP energy per Si atom -12402.101294 kJ/mol
# Density = 1.735755 g / cm^3
# Si number density = 17.397144 Si / 1000 Ang^3
#
#
#
# Elastic Constant Matrix: (Units=GPa)
#
#
# Indices 1 2 3 4 5 6 
#
# 1 72.7663 25.8455 27.4445 0.0000 -20.2287 0.0000
# 2 25.8455 75.9519 52.1108 0.0000 -16.8785 0.0000
# 3 27.4445 52.1108 104.2822 0.0000 -24.4377 0.0000
# 4 0.0000 0.0000 0.0000 33.0871 0.0000 -8.0141
# 5 -20.2287 -16.8785 -24.4377 0.0000 24.0141 0.0000
# 6 0.0000 0.0000 0.0000 -8.0141 0.0000 19.8003
#
#
#
# Elastic Compliance Matrix: (Units=1/GPa)
#
#
# Indices 1 2 3 4 5 6 
#
# 1 0.018652 -0.003296 -0.000161 0.000000 0.013232 0.000000
# 2 -0.003296 0.021108 -0.009001 0.000000 0.002900 0.000000
# 3 -0.000161 -0.009001 0.016566 0.000000 0.010396 0.000000
# 4 0.000000 0.000000 0.000000 0.033508 0.000000 0.013562
# 5 0.013232 0.002900 0.010396 0.000000 0.065405 0.000000
# 6 0.000000 0.000000 0.000000 0.013562 0.000000 0.055994
#
#
# Mechanical properties :
#
#
# Convention : Reuss Voigt Hill
#
# Bulk Modulus (GPa) = 31.83717 51.53357 41.68537
# Shear Modulus (GPa) = 20.27417 25.22028 22.74723
#
# Velocity S-wave (km/s) = 3.41746 3.81160 3.61990
# Velocity P-wave (km/s) = 5.82340 7.00408 6.44085
#
# Compressibility (1/GPa) = 0.03140983
#
# Stress axis : x y z
#
# Youngs Moduli (GPa) = 53.61219 47.37602 60.36567
#
# Poissons Ratio (x) = 0.15617 0.00971
# Poissons Ratio (y) = 0.17673 0.54334
# Poissons Ratio (z) = 0.00863 0.42642
#
# Static dielectric constant tensor:
#      x y z
#    x 3.210630 0.000000 0.028570 
#    y 0.000000 3.265840 0.000000 
#    z 0.028570 0.000000 3.219110 
# 
# 
# High freq. dielectric constant tensor:
#      x y z
#    x 1.652390 0.000000 -0.003350 
#    y 0.000000 1.673390 0.000000 
#    z -0.003350 0.000000 1.670950 
# 
# From -- ./inp_files/230892.got.cif
#   From: 2010.06.25/outbox.cif.g09.slc.cpg/sg12_116_cif.got.tgz:230892.got - 2010.06.28 00:19:55.
