data_PCOD8086153
_publ_section_title
;
Structure prediction by ZEFSAII (Michael W. Deem and Ramdas Pophale) SiO2 
 PCOD8086153
Probable space group: C 2/M
;
_chemical_formula_sum "Si O2"
_cell_formula_units_Z 40
_cell_length_a 28.929655
_cell_length_b 13.011085
_cell_length_c 17.439472
_cell_angle_alpha 90.000000
_cell_angle_beta 20.737562
_cell_angle_gamma 90.000000
_cell_volume 2324.349024
_symmetry_space_group_name_H-M "C 2/M"
_symmetry_group_IT_number 12
_symmetry_cell_setting 'monoclinic'
loop_
_space_group_symop_operation_xyz
x,y,z
-x,y,-z
-x,-y,-z
x,-y,z
1/2+x,1/2+y,z
1/2-x,1/2+y,-z
1/2-x,1/2-y,-z
1/2+x,1/2-y,z
loop_
_atom_site_type_symbol
_atom_site_label
_atom_site_fract_x
_atom_site_fract_y
_atom_site_fract_z
Si Si1 0.513355 0.118830 0.718017
Si Si2 0.605394 0.380211 0.709517
Si Si3 0.411404 0.119336 0.568166
Si Si4 0.232348 0.761229 0.640468
Si Si5 0.351045 0.727176 0.062085
O O1 0.509630 0.138955 0.632733
O O2 0.650621 0.156490 0.538644
O O3 0.497231 0.000000 0.763240
O O4 0.394154 0.178151 0.942376
O O5 0.621188 0.500000 0.701836
O O6 0.718973 0.343647 0.475053
O O7 0.618261 0.315645 0.768398
O O8 0.463816 0.358918 0.892374
O O9 0.500000 0.161166 0.500000
O O10 0.275109 0.178676 0.781601
O O11 0.378559 0.000000 0.629745
O O12 0.180758 0.730706 0.803903
#
# Coordination Sequence:
#
# PCOD8086153 Si02
#       5
#     8   8   8   8   8
#     4   9  18  32  49  69  94 124 154 185 227 277
#     4  10  19  31  48  69  94 124 157 191 226 268
#     4   9  18  33  51  70  93 120 151 190 234 276
#     4   9  19  32  45  68  98 124 153 189 228 270
#     4  10  19  31  49  71  93 120 156 193 228 270
#
# _framework density 17.209119999999999
#
# number of rings (size 3 to 8) (size 9 to 14) (size 15 to 20)
#    0.000    2.600    0.000    1.800    0.000    4.800 
#    0.000    0.000    0.000    7.800    0.000    0.000 
#    0.000    0.000    0.000    0.000    0.000    0.000 
#
# Total GULP energy -248030.380248 kJ/mol
# GULP energy per Si atom -12401.519012 kJ/mol
# Density = 1.716995 g / cm^3
# Si number density = 17.209120 Si / 1000 Ang^3
#
#
#
# Elastic Constant Matrix: (Units=GPa)
#
#
# Indices 1 2 3 4 5 6 
#
# 1 99.9423 35.5247 46.4371 0.0000 -7.6978 0.0000
# 2 35.5247 72.8358 53.0577 0.0000 2.6377 0.0000
# 3 46.4371 53.0577 96.6447 0.0000 2.2750 0.0000
# 4 0.0000 0.0000 0.0000 23.8859 0.0000 2.5289
# 5 -7.6978 2.6377 2.2750 0.0000 26.5875 0.0000
# 6 0.0000 0.0000 0.0000 2.5289 0.0000 22.2309
#
#
#
# Elastic Compliance Matrix: (Units=1/GPa)
#
#
# Indices 1 2 3 4 5 6 
#
# 1 0.013851 -0.003330 -0.004939 0.000000 0.004763 0.000000
# 2 -0.003330 0.023718 -0.011366 0.000000 -0.002345 0.000000
# 3 -0.004939 -0.011366 0.019006 0.000000 -0.001929 0.000000
# 4 0.000000 0.000000 0.000000 0.042376 0.000000 -0.004820
# 5 0.004763 -0.002345 -0.001929 0.000000 0.039388 0.000000
# 6 0.000000 0.000000 0.000000 -0.004820 0.000000 0.045531
#
#
# Mechanical properties :
#
#
# Convention : Reuss Voigt Hill
#
# Bulk Modulus (GPa) = 57.78867 59.94021 58.86444
# Shear Modulus (GPa) = 21.84268 23.50110 22.67189
#
# Velocity S-wave (km/s) = 3.56652 3.69944 3.63359
# Velocity P-wave (km/s) = 7.11430 7.29067 7.20302
#
# Compressibility (1/GPa) = 0.01730443
#
# Stress axis : x y z
#
# Youngs Moduli (GPa) = 72.19475 42.16162 52.61573
#
# Poissons Ratio (x) = 0.14041 0.25989
# Poissons Ratio (y) = 0.24043 0.59802
# Poissons Ratio (z) = 0.35659 0.47920
#
# Static dielectric constant tensor:
#      x y z
#    x 3.314310 0.000000 0.061840 
#    y 0.000000 3.020460 0.000000 
#    z 0.061840 0.000000 3.195890 
# 
# 
# High freq. dielectric constant tensor:
#      x y z
#    x 1.667230 0.000000 0.003140 
#    y 0.000000 1.648940 0.000000 
#    z 0.003140 0.000000 1.664290 
# 
# From -- ./inp_files/129218.got.cif
#   From: 2010.06.25/outbox.cif.g09.slc.cpg/sg12_65_cif.got.tgz:129218.got - 2010.06.28 00:19:55.
