data_PCOD8086201
_publ_section_title
;
Structure prediction by ZEFSAII (Michael W. Deem and Ramdas Pophale) SiO2 
 PCOD8086201
Probable space group: C 2/M
;
_chemical_formula_sum "Si O2"
_cell_formula_units_Z 56
_cell_length_a 8.880178
_cell_length_b 27.757891
_cell_length_c 17.821272
_cell_angle_alpha 90.000000
_cell_angle_beta 42.707010
_cell_angle_gamma 90.000000
_cell_volume 2979.451836
_symmetry_space_group_name_H-M "C 2/M"
_symmetry_group_IT_number 12
_symmetry_cell_setting 'monoclinic'
loop_
_space_group_symop_operation_xyz
x,y,z
-x,y,-z
-x,-y,-z
x,-y,z
1/2+x,1/2+y,z
1/2-x,1/2+y,-z
1/2-x,1/2-y,-z
1/2+x,1/2-y,z
loop_
_atom_site_type_symbol
_atom_site_label
_atom_site_fract_x
_atom_site_fract_y
_atom_site_fract_z
Si Si1 0.912656 0.444090 0.312063
Si Si2 0.413669 0.635576 0.612358
Si Si3 0.081727 0.230627 0.209331
Si Si4 0.177208 0.311511 0.283626
Si Si5 0.619275 0.888318 0.530838
Si Si6 0.758681 0.120586 0.116684
Si Si7 0.559353 0.812570 0.837237
O O1 0.876923 0.500000 0.310172
O O2 0.146039 0.427649 0.190067
O O3 0.715021 0.414944 0.345453
O O4 0.904628 0.433033 0.403671
O O5 0.500000 0.653612 0.500000
O O6 0.628495 0.624664 0.584412
O O7 0.253971 0.676322 0.704834
O O8 0.075581 0.261324 0.289275
O O9 0.310309 0.198243 0.131789
O O10 0.867370 0.196504 0.277126
O O11 0.081470 0.265503 0.136713
O O12 0.277258 0.339906 0.175703
O O13 0.981631 0.340747 0.393935
O O14 0.500000 0.905145 0.500000
O O15 0.612863 0.142668 0.100071
O O16 0.000000 0.105979 0.000000
#
# Coordination Sequence:
#
# PCOD8086201 Si02
#       7
#     8   8   8   8   8   8   8
#     4   9  19  34  52  73  94 118 151 192 236 288
#     4   9  17  30  46  64  94 128 157 189 229 275
#     4   9  16  30  47  64  96 130 160 201 229 260
#     4   9  18  32  46  68 100 129 162 199 231 265
#     4  10  19  31  48  71 100 130 159 191 231 275
#     4   9  18  34  53  70  92 120 151 193 244 289
#     4   9  17  30  44  65  94 125 160 195 230 268
#
# _framework density 18.795403
#
# number of rings (size 3 to 8) (size 9 to 14) (size 15 to 20)
#    0.000    2.857    0.000    3.429    0.000    3.143 
#    0.000   26.429    0.000    0.000    0.000    0.000 
#    0.000    9.143    0.000    0.000    0.000    0.000 
#
# Total GULP energy -346950.215167 kJ/mol
# GULP energy per Si atom -12391.079113 kJ/mol
# Density = 1.875262 g / cm^3
# Si number density = 18.795403 Si / 1000 Ang^3
#
#
#
# Elastic Constant Matrix: (Units=GPa)
#
#
# Indices 1 2 3 4 5 6 
#
# 1 126.3346 17.6785 13.8846 0.0000 -15.6170 0.0000
# 2 17.6785 57.6208 -0.5121 0.0000 3.4625 0.0000
# 3 13.8846 -0.5121 63.7256 0.0000 -17.6519 0.0000
# 4 0.0000 0.0000 0.0000 6.9835 0.0000 -5.0234
# 5 -15.6170 3.4625 -17.6519 0.0000 17.6782 0.0000
# 6 0.0000 0.0000 0.0000 -5.0234 0.0000 19.0623
#
#
#
# Elastic Compliance Matrix: (Units=1/GPa)
#
#
# Indices 1 2 3 4 5 6 
#
# 1 0.009540 -0.003504 0.000578 0.000000 0.009691 0.000000
# 2 -0.003504 0.018907 -0.001338 0.000000 -0.008135 0.000000
# 3 0.000578 -0.001338 0.021799 0.000000 0.022539 0.000000
# 4 0.000000 0.000000 0.000000 0.176687 0.000000 0.046561
# 5 0.009691 -0.008135 0.022539 0.000000 0.089227 0.000000
# 6 0.000000 0.000000 0.000000 0.046561 0.000000 0.064730
#
#
# Mechanical properties :
#
#
# Convention : Reuss Voigt Hill
#
# Bulk Modulus (GPa) = 23.97098 34.42034 29.19566
# Shear Modulus (GPa) = 12.39698 23.18681 17.79189
#
# Velocity S-wave (km/s) = 2.57101 3.51613 3.08004
# Velocity P-wave (km/s) = 4.64702 5.90230 5.31187
#
# Compressibility (1/GPa) = 0.04171711
#
# Stress axis : x y z
#
# Youngs Moduli (GPa) = 104.81791 52.89065 45.87385
#
# Poissons Ratio (x) = 0.18534 -0.02650
# Poissons Ratio (y) = 0.36731 0.06137
# Poissons Ratio (z) = -0.06054 0.07076
#
# Static dielectric constant tensor:
#      x y z
#    x 3.872440 0.000000 -0.194250 
#    y 0.000000 3.162040 0.000000 
#    z -0.194250 0.000000 3.197340 
# 
# 
# High freq. dielectric constant tensor:
#      x y z
#    x 1.742660 0.000000 -0.021330 
#    y 0.000000 1.702480 0.000000 
#    z -0.021330 0.000000 1.700940 
# 
# From -- ./inp_files/125203.got.cif
#   From: 2010.06.25/outbox.cif.g09.slc.cpg/sg12_63_cif.got.tgz:125203.got - 2010.06.28 00:19:55.
