data_PCOD8086590
_publ_section_title
;
Structure prediction by ZEFSAII (Michael W. Deem and Ramdas Pophale) SiO2 
 PCOD8086590
Probable space group: C 2/M
;
_chemical_formula_sum "Si O2"
_cell_formula_units_Z 56
_cell_length_a 18.869862
_cell_length_b 8.869289
_cell_length_c 23.098050
_cell_angle_alpha 90.000000
_cell_angle_beta 127.745289
_cell_angle_gamma 90.000000
_cell_volume 3056.796349
_symmetry_space_group_name_H-M "C 2/M"
_symmetry_group_IT_number 12
_symmetry_cell_setting 'monoclinic'
loop_
_space_group_symop_operation_xyz
x,y,z
-x,y,-z
-x,-y,-z
x,-y,z
1/2+x,1/2+y,z
1/2-x,1/2+y,-z
1/2-x,1/2-y,-z
1/2+x,1/2-y,z
loop_
_atom_site_type_symbol
_atom_site_label
_atom_site_fract_x
_atom_site_fract_y
_atom_site_fract_z
Si Si1 0.997835 0.821892 0.935009
Si Si2 0.069576 0.328207 0.371263
Si Si3 0.730936 0.822079 0.369430
Si Si4 0.378421 0.323898 0.775931
Si Si5 0.158660 0.820532 0.933098
Si Si6 0.923757 0.821484 0.504681
Si Si7 0.961729 0.325863 0.209671
O O1 0.904278 0.779024 0.855300
O O2 0.083560 0.766841 0.941482
O O3 0.004393 0.000000 0.943803
O O4 0.000000 0.747050 0.000000
O O5 0.086067 0.500000 0.398971
O O6 0.156274 0.269593 0.378635
O O7 0.054472 0.226803 0.419491
O O8 0.978782 0.315841 0.287274
O O9 0.708271 0.760282 0.293560
O O10 0.827088 0.757137 0.436800
O O11 0.731266 0.000000 0.364698
O O12 0.360473 0.500000 0.761451
O O13 0.464040 0.279628 0.781463
O O14 0.133441 0.744651 0.858127
O O15 0.166012 0.000000 0.930420
O O16 0.250000 0.750000 0.000000
O O17 0.000000 0.756660 0.500000
O O18 0.922382 0.000000 0.501515
O O19 0.970933 0.500000 0.194102
#
# Coordination Sequence:
#
# PCOD8086590 Si02
#       7
#     8   8   8   8   8   8   8
#     4   8  15  29  48  70  96 125 159 199 240 284
#     4   9  18  32  52  75  94 120 160 204 245 284
#     4   9  18  33  51  71  96 125 160 201 242 285
#     4   9  16  27  48  75  96 121 160 201 243 287
#     4  10  19  31  50  74 100 132 167 203 244 289
#     4  10  21  35  50  70  99 133 161 192 243 297
#     4   9  17  31  50  72  99 127 159 202 247 288
#
# _framework density 18.319834
#
# number of rings (size 3 to 8) (size 9 to 14) (size 15 to 20)
#    0.000    2.857    0.000    3.429    0.000    3.714 
#    0.000    1.429    0.000   20.571    0.000    0.000 
#    0.000    0.000    0.000    0.000    0.000    0.000 
#
# Total GULP energy -346965.094878 kJ/mol
# GULP energy per Si atom -12391.610531 kJ/mol
# Density = 1.827814 g / cm^3
# Si number density = 18.319834 Si / 1000 Ang^3
#
#
#
# Elastic Constant Matrix: (Units=GPa)
#
#
# Indices 1 2 3 4 5 6 
#
# 1 70.5486 22.7630 62.1298 0.0000 0.7712 0.0000
# 2 22.7630 27.0606 37.8945 0.0000 -0.2390 0.0000
# 3 62.1298 37.8945 173.5758 0.0000 2.9609 0.0000
# 4 0.0000 0.0000 0.0000 36.1489 0.0000 1.2518
# 5 0.7712 -0.2390 2.9609 0.0000 26.8463 0.0000
# 6 0.0000 0.0000 0.0000 1.2518 0.0000 13.8422
#
#
#
# Elastic Compliance Matrix: (Units=1/GPa)
#
#
# Indices 1 2 3 4 5 6 
#
# 1 0.022829 -0.011183 -0.005728 0.000000 -0.000124 0.000000
# 2 -0.011183 0.058788 -0.008863 0.000000 0.001822 0.000000
# 3 -0.005728 -0.008863 0.009763 0.000000 -0.000991 0.000000
# 4 0.000000 0.000000 0.000000 0.027750 0.000000 -0.002510
# 5 -0.000124 0.001822 -0.000991 0.000000 0.037378 0.000000
# 6 0.000000 0.000000 0.000000 -0.002510 0.000000 0.072470
#
#
# Mechanical properties :
#
#
# Convention : Reuss Voigt Hill
#
# Bulk Modulus (GPa) = 25.10504 57.41773 41.26139
# Shear Modulus (GPa) = 17.01823 25.26065 21.13944
#
# Velocity S-wave (km/s) = 3.05118 3.71734 3.40061
# Velocity P-wave (km/s) = 5.11336 7.05937 6.16365
#
# Compressibility (1/GPa) = 0.03983264
#
# Stress axis : x y z
#
# Youngs Moduli (GPa) = 43.80489 17.01025 102.42697
#
# Poissons Ratio (x) = 0.19023 0.58666
# Poissons Ratio (y) = 0.48989 0.90776
# Poissons Ratio (z) = 0.25090 0.15075
#
# Static dielectric constant tensor:
#      x y z
#    x 3.178950 0.000000 0.050080 
#    y 0.000000 3.251120 0.000000 
#    z 0.050080 0.000000 4.062190 
# 
# 
# High freq. dielectric constant tensor:
#      x y z
#    x 1.661380 0.000000 0.003980 
#    y 0.000000 1.698930 0.000000 
#    z 0.003980 0.000000 1.736270 
# 
# From -- ./inp_files/345654.got.cif
#   From: 2010.06.25/outbox.cif.g09.slc.cpg/sg12_173_cif.got.tgz:345654.got - 2010.06.28 00:19:55.
