data_PCOD8086499
_publ_section_title
;
Structure prediction by ZEFSAII (Michael W. Deem and Ramdas Pophale) SiO2 
 PCOD8086499
Probable space group: C 2/M
;
_chemical_formula_sum "Si O2"
_cell_formula_units_Z 64
_cell_length_a 31.839278
_cell_length_b 9.034526
_cell_length_c 14.888728
_cell_angle_alpha 90.000000
_cell_angle_beta 130.602276
_cell_angle_gamma 90.000000
_cell_volume 3251.684345
_symmetry_space_group_name_H-M "C 2/M"
_symmetry_group_IT_number 12
_symmetry_cell_setting 'monoclinic'
loop_
_space_group_symop_operation_xyz
x,y,z
-x,y,-z
-x,-y,-z
x,-y,z
1/2+x,1/2+y,z
1/2-x,1/2+y,-z
1/2-x,1/2-y,-z
1/2+x,1/2-y,z
loop_
_atom_site_type_symbol
_atom_site_label
_atom_site_fract_x
_atom_site_fract_y
_atom_site_fract_z
Si Si1 0.449006 0.173447 0.709635
Si Si2 0.401392 0.326000 0.800160
Si Si3 0.140409 0.825953 0.064734
Si Si4 0.297705 0.162375 0.611626
Si Si5 0.746582 0.837222 0.255305
Si Si6 0.637154 0.826273 0.563079
Si Si7 0.437131 0.669126 0.398785
Si Si8 0.444335 0.330697 0.204898
O O1 0.450687 0.249400 0.811750
O O2 0.395193 0.214551 0.573962
O O3 0.502302 0.228367 0.729995
O O4 0.453385 0.000000 0.730856
O O5 0.408921 0.500000 0.802959
O O6 0.393943 0.275873 0.893425
O O7 0.349598 0.268434 0.670901
O O8 0.200749 0.751941 0.133846
O O9 0.151332 0.000000 0.086064
O O10 0.103665 0.778285 0.929215
O O11 0.250000 0.250000 0.500000
O O12 0.284022 0.136740 0.694774
O O13 0.308241 0.000000 0.581026
O O14 0.803087 0.749880 0.350028
O O15 0.758802 0.000000 0.229305
O O16 0.602503 0.774391 0.600453
O O17 0.646559 0.000000 0.584110
O O18 0.500000 0.721277 0.500000
O O19 0.430201 0.500000 0.422652
O O20 0.420286 0.685194 0.271363
O O21 0.461669 0.500000 0.208711
#
# Coordination Sequence:
#
# PCOD8086499 Si02
#       8
#     8   8   8   8   8   8   8   8
#     4  11  23  36  54  84 118 151 189 235 283 333
#     4  10  20  34  53  77 109 150 191 233 276 326
#     4   9  20  39  60  82 112 151 193 232 276 331
#     4  10  19  31  49  75 107 145 187 232 281 332
#     4  10  21  36  56  81 111 148 189 233 279 330
#     4  11  23  37  57  85 118 150 184 232 284 337
#     4  10  20  37  62  89 114 143 181 229 285 342
#     4  10  21  39  62  85 112 148 187 231 283 341
#
# _framework density 19.682107999999999
#
# number of rings (size 3 to 8) (size 9 to 14) (size 15 to 20)
#    0.000    1.875    1.250    2.625    0.000    7.250 
#    0.000    3.125    0.000    0.000    0.000    0.000 
#    0.000    0.000    0.000    0.000    0.000    0.000 
#
# Total GULP energy -396640.981397 kJ/mol
# GULP energy per Si atom -12395.030669 kJ/mol
# Density = 1.963731 g / cm^3
# Si number density = 19.682108 Si / 1000 Ang^3
#
#
#
# Elastic Constant Matrix: (Units=GPa)
#
#
# Indices 1 2 3 4 5 6 
#
# 1 74.4561 40.6776 27.7326 0.0000 1.7900 0.0000
# 2 40.6776 95.2552 45.8867 0.0000 4.2544 0.0000
# 3 27.7326 45.8867 109.9047 0.0000 1.1783 0.0000
# 4 0.0000 0.0000 0.0000 24.1861 0.0000 5.3913
# 5 1.7900 4.2544 1.1783 0.0000 27.7760 0.0000
# 6 0.0000 0.0000 0.0000 5.3913 0.0000 35.2244
#
#
#
# Elastic Compliance Matrix: (Units=1/GPa)
#
#
# Indices 1 2 3 4 5 6 
#
# 1 0.017752 -0.006787 -0.001646 0.000000 -0.000035 0.000000
# 2 -0.006787 0.015824 -0.004875 0.000000 -0.001780 0.000000
# 3 -0.001646 -0.004875 0.011546 0.000000 0.000363 0.000000
# 4 0.000000 0.000000 0.000000 0.042807 0.000000 -0.006552
# 5 -0.000035 -0.001780 0.000363 0.000000 0.036262 0.000000
# 6 0.000000 0.000000 0.000000 -0.006552 0.000000 0.029392
#
#
# Mechanical properties :
#
#
# Convention : Reuss Voigt Hill
#
# Bulk Modulus (GPa) = 54.03313 56.46775 55.25044
# Shear Modulus (GPa) = 26.82882 28.45855 27.64369
#
# Velocity S-wave (km/s) = 3.69603 3.80664 3.75174
# Velocity P-wave (km/s) = 6.76215 6.93346 6.84834
#
# Compressibility (1/GPa) = 0.01850716
#
# Stress axis : x y z
#
# Youngs Moduli (GPa) = 56.33093 63.19406 86.61284
#
# Poissons Ratio (x) = 0.42887 0.14253
# Poissons Ratio (y) = 0.38230 0.42226
# Poissons Ratio (z) = 0.09270 0.30809
#
# Static dielectric constant tensor:
#      x y z
#    x 3.494600 0.000000 0.059940 
#    y 0.000000 3.758250 0.000000 
#    z 0.059940 0.000000 3.432540 
# 
# 
# High freq. dielectric constant tensor:
#      x y z
#    x 1.762100 0.000000 0.001290 
#    y 0.000000 1.772130 0.000000 
#    z 0.001290 0.000000 1.758420 
# 
# From -- ./inp_files/244229.got.cif
#   From: 2010.06.25/outbox.cif.g09.slc.cpg/sg12_123_cif.got.tgz:244229.got - 2010.06.28 00:19:55.
