data_PCOD8086070
_publ_section_title
;
Structure prediction by ZEFSAII (Michael W. Deem and Ramdas Pophale) SiO2 
 PCOD8086070
Probable space group: C 2/M
;
_chemical_formula_sum "Si O2"
_cell_formula_units_Z 56
_cell_length_a 19.050930
_cell_length_b 9.234372
_cell_length_c 21.762075
_cell_angle_alpha 90.000000
_cell_angle_beta 51.337698
_cell_angle_gamma 90.000000
_cell_volume 2989.419088
_symmetry_space_group_name_H-M "C 2/M"
_symmetry_group_IT_number 12
_symmetry_cell_setting 'monoclinic'
loop_
_space_group_symop_operation_xyz
x,y,z
-x,y,-z
-x,-y,-z
x,-y,z
1/2+x,1/2+y,z
1/2-x,1/2+y,-z
1/2-x,1/2-y,-z
1/2+x,1/2-y,z
loop_
_atom_site_type_symbol
_atom_site_label
_atom_site_fract_x
_atom_site_fract_y
_atom_site_fract_z
Si Si1 0.612828 0.333998 0.178573
Si Si2 0.945696 0.167355 0.343955
Si Si3 0.401349 0.831127 0.932893
Si Si4 0.248424 0.330323 0.436470
Si Si5 0.947575 0.838279 0.092455
Si Si6 0.079422 0.171656 0.503502
Si Si7 0.805473 0.662564 0.110674
O O1 0.594966 0.500000 0.167921
O O2 0.527200 0.263182 0.260377
O O3 0.640095 0.239963 0.104911
O O4 0.698494 0.325782 0.176827
O O5 0.852107 0.189560 0.357234
O O6 0.944384 0.228298 0.414670
O O7 0.968959 0.000000 0.338577
O O8 0.499043 0.758935 0.888380
O O9 0.414748 0.000000 0.915157
O O10 0.334913 0.796075 0.025367
O O11 0.225275 0.500000 0.456589
O O12 0.250000 0.250000 0.500000
O O13 0.173430 0.253318 0.433898
O O14 0.849230 0.770279 0.136102
O O15 0.936573 0.000000 0.124810
O O16 0.000000 0.837708 0.000000
O O17 0.000000 0.216381 0.500000
O O18 0.097011 0.000000 0.491636
O O19 0.839609 0.500000 0.106054
#
# Coordination Sequence:
#
# PCOD8086070 Si02
#       7
#     8   8   8   8   8   8   8
#     4  10  19  32  49  68  95 129 161 195 240 289
#     4   8  16  31  49  69  95 128 161 193 233 281
#     4  10  19  31  47  69  95 122 161 207 245 284
#     4   9  16  29  50  73  97 125 156 189 227 275
#     4   9  17  30  49  69  89 118 157 199 243 291
#     4   9  17  31  52  76 100 126 157 193 232 278
#     4   9  18  31  48  69  94 126 161 202 247 285
#
# _framework density 18.732735999999999
#
# number of rings (size 3 to 8) (size 9 to 14) (size 15 to 20)
#    0.000    2.857    0.000    2.571    0.000    3.143 
#    0.000    5.000    0.000    1.714    0.000    0.000 
#    0.000    0.000    0.000    0.000    0.000    0.000 
#
# Total GULP energy -347006.701273 kJ/mol
# GULP energy per Si atom -12393.096474 kJ/mol
# Density = 1.869010 g / cm^3
# Si number density = 18.732736 Si / 1000 Ang^3
#
#
#
# Elastic Constant Matrix: (Units=GPa)
#
#
# Indices 1 2 3 4 5 6 
#
# 1 119.6674 44.9931 26.5339 0.0000 -25.1143 0.0000
# 2 44.9931 80.0070 20.1578 0.0000 -12.9031 0.0001
# 3 26.5339 20.1578 49.5177 0.0000 -23.1582 0.0000
# 4 0.0000 0.0000 0.0000 15.1619 0.0000 -3.1735
# 5 -25.1143 -12.9031 -23.1582 0.0000 26.3490 0.0000
# 6 0.0000 0.0001 0.0000 -3.1735 0.0000 33.8606
#
#
#
# Elastic Compliance Matrix: (Units=1/GPa)
#
#
# Indices 1 2 3 4 5 6 
#
# 1 0.012313 -0.005435 -0.000240 0.000000 0.008864 0.000000
# 2 -0.005435 0.016479 -0.004151 0.000000 -0.000758 0.000000
# 3 -0.000240 -0.004151 0.035581 0.000000 0.029010 0.000000
# 4 0.000000 0.000000 0.000000 0.067274 0.000000 0.006305
# 5 0.008864 -0.000758 0.029010 0.000000 0.071526 0.000000
# 6 0.000000 0.000000 0.000000 0.006305 0.000000 0.030124
#
#
# Mechanical properties :
#
#
# Convention : Reuss Voigt Hill
#
# Bulk Modulus (GPa) = 22.36077 48.06241 35.21159
# Shear Modulus (GPa) = 18.66679 25.57480 22.12080
#
# Velocity S-wave (km/s) = 3.16013 3.69893 3.44010
# Velocity P-wave (km/s) = 5.02771 6.62989 5.88359
#
# Compressibility (1/GPa) = 0.04472119
#
# Stress axis : x y z
#
# Youngs Moduli (GPa) = 81.21297 60.68487 28.10513
#
# Poissons Ratio (x) = 0.32979 0.00676
# Poissons Ratio (y) = 0.44135 0.11666
# Poissons Ratio (z) = 0.01952 0.25189
#
# Static dielectric constant tensor:
#      x y z
#    x 3.632230 0.000000 -0.280370 
#    y 0.000000 3.420550 0.000000 
#    z -0.280370 0.000000 3.271160 
# 
# 
# High freq. dielectric constant tensor:
#      x y z
#    x 1.733070 0.000000 -0.021930 
#    y 0.000000 1.716490 0.000000 
#    z -0.021930 0.000000 1.687360 
# 
# From -- ./inp_files/341919.got.cif
#   From: 2010.06.25/outbox.cif.g09.slc.cpg/sg12_171_cif.got.tgz:341919.got - 2010.06.28 00:19:55.
