data_PCOD8086881
_publ_section_title
;
Structure prediction by ZEFSAII (Michael W. Deem and Ramdas Pophale) SiO2 
 PCOD8086881
Probable space group: C 2/M
;
_chemical_formula_sum "Si O2"
_cell_formula_units_Z 64
_cell_length_a 29.040341
_cell_length_b 9.806786
_cell_length_c 13.953533
_cell_angle_alpha 90.000000
_cell_angle_beta 120.039025
_cell_angle_gamma 90.000000
_cell_volume 3440.109832
_symmetry_space_group_name_H-M "C 2/M"
_symmetry_group_IT_number 12
_symmetry_cell_setting 'monoclinic'
loop_
_space_group_symop_operation_xyz
x,y,z
-x,y,-z
-x,-y,-z
x,-y,z
1/2+x,1/2+y,z
1/2-x,1/2+y,-z
1/2-x,1/2-y,-z
1/2+x,1/2-y,z
loop_
_atom_site_type_symbol
_atom_site_label
_atom_site_fract_x
_atom_site_fract_y
_atom_site_fract_z
Si Si1 0.787574 0.652114 0.981326
Si Si2 0.975507 0.659004 0.251990
Si Si3 0.843871 0.156396 0.365110
Si Si4 0.048686 0.662143 0.988022
Si Si5 0.247386 0.340205 0.403329
Si Si6 0.366281 0.149622 0.226066
Si Si7 0.335933 0.161336 0.839134
Si Si8 0.463099 0.342327 0.551443
O O1 0.762458 0.500000 0.948273
O O2 0.843274 0.646172 0.095076
O O3 0.750000 0.750000 0.000000
O O4 0.799359 0.714481 0.888800
O O5 0.992059 0.500000 0.267143
O O6 0.927845 0.686972 0.276819
O O7 0.023719 0.749612 0.342548
O O8 0.959833 0.710734 0.129855
O O9 0.799192 0.196061 0.395103
O O10 0.835135 0.243214 0.259713
O O11 0.901748 0.189404 0.466625
O O12 0.838170 0.000000 0.328475
O O13 0.049967 0.500000 0.994327
O O14 0.104108 0.721151 0.090246
O O15 0.000000 0.720684 0.000000
O O16 0.246672 0.500000 0.429552
O O17 0.250000 0.250000 0.500000
O O18 0.193400 0.298562 0.290174
O O19 0.360602 0.000000 0.267974
O O20 0.338908 0.000000 0.853629
O O21 0.500000 0.302161 0.500000
O O22 0.471909 0.500000 0.587827
#
# Coordination Sequence:
#
# PCOD8086881 Si02
#       8
#     8   8   8   8   8   8   8   8
#     4  10  19  32  51  77 109 141 175 214 263 318
#     4  10  19  32  52  80 110 139 176 224 275 314
#     4  10  21  37  55  78 107 145 187 220 262 325
#     4   9  17  31  53  80 108 138 174 216 262 318
#     4  10  22  39  59  79 104 140 181 225 267 311
#     4  10  19  31  51  79 111 140 170 223 278 315
#     4   9  17  33  54  75 103 139 174 211 261 317
#     4  10  20  34  52  75 108 148 185 218 261 324
#
# _framework density 18.604057000000001
#
# number of rings (size 3 to 8) (size 9 to 14) (size 15 to 20)
#    0.000    2.250    2.500    0.750    0.000    3.750 
#    0.000    1.875    0.000    1.125    0.000    0.000 
#    0.000    0.000    0.000    0.000    0.000    0.000 
#
# Total GULP energy -396727.548020 kJ/mol
# GULP energy per Si atom -12397.735876 kJ/mol
# Density = 1.856171 g / cm^3
# Si number density = 18.604057 Si / 1000 Ang^3
#
#
#
# Elastic Constant Matrix: (Units=GPa)
#
#
# Indices 1 2 3 4 5 6 
#
# 1 103.9123 34.9929 53.6930 0.0000 -3.6665 0.0000
# 2 34.9929 51.3787 43.3798 0.0000 -11.1084 0.0000
# 3 53.6930 43.3798 127.6066 0.0000 -6.8460 0.0000
# 4 0.0000 0.0000 0.0000 26.9205 0.0000 -2.2509
# 5 -3.6665 -11.1084 -6.8460 0.0000 28.6576 0.0000
# 6 0.0000 0.0000 0.0000 -2.2509 0.0000 21.9218
#
#
#
# Elastic Compliance Matrix: (Units=1/GPa)
#
#
# Indices 1 2 3 4 5 6 
#
# 1 0.013648 -0.006640 -0.003576 0.000000 -0.001682 0.000000
# 2 -0.006640 0.032724 -0.007796 0.000000 0.009973 0.000000
# 3 -0.003576 -0.007796 0.011958 0.000000 -0.000623 0.000000
# 4 0.000000 0.000000 0.000000 0.037468 0.000000 0.003847
# 5 -0.001682 0.009973 -0.000623 0.000000 0.038397 0.000000
# 6 0.000000 0.000000 0.000000 0.003847 0.000000 0.046012
#
#
# Mechanical properties :
#
#
# Convention : Reuss Voigt Hill
#
# Bulk Modulus (GPa) = 44.82851 60.78100 52.80475
# Shear Modulus (GPa) = 22.35506 25.55545 23.95525
#
# Velocity S-wave (km/s) = 3.47020 3.71030 3.59226
# Velocity P-wave (km/s) = 6.34073 7.14821 6.75654
#
# Compressibility (1/GPa) = 0.02230723
#
# Stress axis : x y z
#
# Youngs Moduli (GPa) = 73.27244 30.55889 83.62784
#
# Poissons Ratio (x) = 0.20291 0.29901
# Poissons Ratio (y) = 0.48652 0.65192
# Poissons Ratio (z) = 0.26199 0.23822
#
# Static dielectric constant tensor:
#      x y z
#    x 3.478140 0.000000 0.198260 
#    y 0.000000 3.120240 0.000000 
#    z 0.198260 0.000000 3.552250 
# 
# 
# High freq. dielectric constant tensor:
#      x y z
#    x 1.720110 0.000000 0.010660 
#    y 0.000000 1.687840 0.000000 
#    z 0.010660 0.000000 1.730330 
# 
# From -- ./inp_files/249195.got.cif
#   From: 2010.06.25/outbox.cif.g09.slc.cpg/sg12_125_cif.got.tgz:249195.got - 2010.06.28 00:19:55.
