data_PCOD8086418
_publ_section_title
;
Structure prediction by ZEFSAII (Michael W. Deem and Ramdas Pophale) SiO2 
 PCOD8086418
Probable space group: C 2/M
;
_chemical_formula_sum "Si O2"
_cell_formula_units_Z 64
_cell_length_a 14.731507
_cell_length_b 9.162722
_cell_length_c 25.860455
_cell_angle_alpha 90.000000
_cell_angle_beta 92.127975
_cell_angle_gamma 90.000000
_cell_volume 3488.255184
_symmetry_space_group_name_H-M "C 2/M"
_symmetry_group_IT_number 12
_symmetry_cell_setting 'monoclinic'
loop_
_space_group_symop_operation_xyz
x,y,z
-x,y,-z
-x,-y,-z
x,-y,z
1/2+x,1/2+y,z
1/2-x,1/2+y,-z
1/2-x,1/2-y,-z
1/2+x,1/2-y,z
loop_
_atom_site_type_symbol
_atom_site_label
_atom_site_fract_x
_atom_site_fract_y
_atom_site_fract_z
Si Si1 0.873030 0.169726 0.628197
Si Si2 0.573512 0.328696 0.619523
Si Si3 0.390841 0.327760 0.268583
Si Si4 0.895913 0.328812 0.006068
Si Si5 0.261430 0.328987 0.075698
Si Si6 0.905967 0.832265 0.747190
Si Si7 0.265109 0.671462 0.446605
Si Si8 0.764455 0.326767 0.808340
O O1 0.865752 0.196491 0.689219
O O2 0.801277 0.271559 0.598756
O O3 0.970784 0.225662 0.609190
O O4 0.856106 0.000000 0.613850
O O5 0.567147 0.500000 0.629572
O O6 0.617569 0.262450 0.673190
O O7 0.633011 0.291069 0.570525
O O8 0.377114 0.500000 0.269409
O O9 0.489034 0.287350 0.248324
O O10 0.314911 0.259469 0.229574
O O11 0.896865 0.500000 0.017787
O O12 0.833312 0.291025 0.955111
O O13 0.849606 0.249957 0.053858
O O14 0.000000 0.273176 0.000000
O O15 0.281515 0.500000 0.073494
O O16 0.250944 0.271768 0.133818
O O17 0.859034 0.732913 0.789002
O O18 0.892319 0.000000 0.762120
O O19 0.250816 0.500000 0.453743
O O20 0.250000 0.750000 0.500000
O O21 0.767696 0.500000 0.806871
#
# Coordination Sequence:
#
# PCOD8086418 Si02
#       8
#     8   8   8   8   8   8   8   8
#     4   9  18  35  55  73  95 126 164 203 237 280
#     4   8  16  32  53  71  92 128 166 192 229 294
#     4   8  15  30  50  71  95 127 162 192 232 291
#     4   9  18  34  53  69  92 130 170 208 253 301
#     4   9  19  33  48  72 100 127 165 208 247 289
#     4   9  18  32  51  74  99 127 161 197 236 287
#     4  11  22  35  52  75 100 128 163 203 248 296
#     4  10  19  31  49  73 104 133 159 200 246 289
#
# _framework density 18.347282
#
# number of rings (size 3 to 8) (size 9 to 14) (size 15 to 20)
#    0.000    2.875    0.000    2.625    0.000    3.750 
#    0.000    4.375    0.000    2.250    0.000    0.000 
#    0.000    0.000    0.000    0.000    0.000    0.000 
#
# Total GULP energy -396686.231490 kJ/mol
# GULP energy per Si atom -12396.444734 kJ/mol
# Density = 1.830552 g / cm^3
# Si number density = 18.347282 Si / 1000 Ang^3
#
#
#
# Elastic Constant Matrix: (Units=GPa)
#
#
# Indices 1 2 3 4 5 6 
#
# 1 82.0560 29.3438 26.1752 0.0000 -15.9956 0.0000
# 2 29.3438 39.5403 33.2531 0.0000 -10.6428 0.0000
# 3 26.1752 33.2531 76.4796 0.0000 -21.6336 0.0000
# 4 0.0000 0.0000 0.0000 26.9214 0.0000 -4.4731
# 5 -15.9956 -10.6428 -21.6336 0.0000 25.0987 0.0000
# 6 0.0000 0.0000 0.0000 -4.4731 0.0000 26.8857
#
#
#
# Elastic Compliance Matrix: (Units=1/GPa)
#
#
# Indices 1 2 3 4 5 6 
#
# 1 0.017515 -0.012192 0.001325 0.000000 0.007134 0.000000
# 2 -0.012192 0.048484 -0.017576 0.000000 -0.002360 0.000000
# 3 0.001325 -0.017576 0.024325 0.000000 0.014359 0.000000
# 4 0.000000 0.000000 0.000000 0.038201 0.000000 0.006356
# 5 0.007134 -0.002360 0.014359 0.000000 0.055765 0.000000
# 6 0.000000 0.000000 0.000000 0.006356 0.000000 0.038252
#
#
# Mechanical properties :
#
#
# Convention : Reuss Voigt Hill
#
# Bulk Modulus (GPa) = 29.90553 41.73554 35.82053
# Shear Modulus (GPa) = 17.20727 23.06808 20.13768
#
# Velocity S-wave (km/s) = 3.06578 3.54969 3.31657
# Velocity P-wave (km/s) = 5.37281 6.29264 5.85083
#
# Compressibility (1/GPa) = 0.03343863
#
# Stress axis : x y z
#
# Youngs Moduli (GPa) = 57.09431 20.62527 41.10918
#
# Poissons Ratio (x) = 0.25146 -0.05445
# Poissons Ratio (y) = 0.69608 0.72252
# Poissons Ratio (z) = -0.07562 0.36250
#
# Static dielectric constant tensor:
#      x y z
#    x 3.552320 0.000000 -0.002910 
#    y 0.000000 3.049350 0.000000 
#    z -0.002910 0.000000 3.539910 
# 
# 
# High freq. dielectric constant tensor:
#      x y z
#    x 1.719990 0.000000 -0.003820 
#    y 0.000000 1.680640 0.000000 
#    z -0.003820 0.000000 1.711770 
# 
# From -- ./inp_files/338705.got.cif
#   From: 2010.06.25/outbox.cif.g09.slc.cpg/sg12_170_cif.got.tgz:338705.got - 2010.06.28 00:19:55.
