data_PCOD8086382
_publ_section_title
;
Structure prediction by ZEFSAII (Michael W. Deem and Ramdas Pophale) SiO2 
 PCOD8086382
Probable space group: C 2/M
;
_chemical_formula_sum "Si O2"
_cell_formula_units_Z 56
_cell_length_a 18.083809
_cell_length_b 9.176224
_cell_length_c 29.306204
_cell_angle_alpha 90.000000
_cell_angle_beta 141.581085
_cell_angle_gamma 90.000000
_cell_volume 3021.963779
_symmetry_space_group_name_H-M "C 2/M"
_symmetry_group_IT_number 12
_symmetry_cell_setting 'monoclinic'
loop_
_space_group_symop_operation_xyz
x,y,z
-x,y,-z
-x,-y,-z
x,-y,z
1/2+x,1/2+y,z
1/2-x,1/2+y,-z
1/2-x,1/2-y,-z
1/2+x,1/2-y,z
loop_
_atom_site_type_symbol
_atom_site_label
_atom_site_fract_x
_atom_site_fract_y
_atom_site_fract_z
Si Si1 0.297956 0.171788 0.207498
Si Si2 0.127250 0.329859 0.933080
Si Si3 0.525253 0.333781 0.648355
Si Si4 0.351601 0.661517 0.650405
Si Si5 0.838700 0.327994 0.508705
Si Si6 0.527814 0.169927 0.789825
Si Si7 0.944246 0.667739 0.924294
O O1 0.353497 0.253183 0.278227
O O2 0.370804 0.213998 0.197271
O O3 0.164666 0.225106 0.136415
O O4 0.300363 0.000000 0.217687
O O5 0.154569 0.500000 0.941156
O O6 0.065836 0.268344 0.857416
O O7 0.042592 0.295819 0.934354
O O8 0.250000 0.250000 0.000000
O O9 0.553427 0.500000 0.647871
O O10 0.433805 0.325799 0.645713
O O11 0.467969 0.247616 0.577313
O O12 0.358074 0.500000 0.674021
O O13 0.215692 0.696699 0.568656
O O14 0.399304 0.766540 0.713098
O O15 0.846522 0.500000 0.523862
O O16 0.750000 0.250000 0.500000
O O17 0.508107 0.000000 0.782827
O O18 0.901526 0.500000 0.900528
O O19 0.000000 0.702941 0.000000
#
# Coordination Sequence:
#
# PCOD8086382 Si02
#       7
#     8   8   8   8   8   8   8
#     4  10  19  31  49  72  98 128 162 201 243 287
#     4  10  21  36  53  74  98 125 159 198 240 286
#     4   9  16  26  41  63  93 128 163 199 241 287
#     4   8  15  25  39  62  92 126 161 197 237 282
#     4   9  15  23  36  59  92 127 163 201 241 285
#     4   9  18  31  47  69  97 127 160 200 242 284
#     4  10  21  36  53  73  98 128 160 196 240 290
#
# _framework density 18.530995000000001
#
# number of rings (size 3 to 8) (size 9 to 14) (size 15 to 20)
#    0.000    2.714    0.000    3.000    0.000    6.000 
#    0.000    0.000    0.000    0.000    0.000    1.000 
#    0.000    8.000    0.000    0.000    0.000    0.000 
#
# Total GULP energy -347086.279307 kJ/mol
# GULP energy per Si atom -12395.938547 kJ/mol
# Density = 1.848882 g / cm^3
# Si number density = 18.530995 Si / 1000 Ang^3
#
#
#
# Elastic Constant Matrix: (Units=GPa)
#
#
# Indices 1 2 3 4 5 6 
#
# 1 48.6602 35.0674 50.9814 0.0000 -4.6454 0.0000
# 2 35.0674 94.9375 78.2160 0.0000 0.4423 -0.0001
# 3 50.9814 78.2160 181.0730 0.0000 -8.5929 0.0000
# 4 0.0000 0.0000 0.0000 43.9390 0.0000 4.0142
# 5 -4.6454 0.4423 -8.5929 0.0000 17.7696 0.0000
# 6 0.0000 -0.0001 0.0000 4.0142 0.0000 13.9178
#
#
#
# Elastic Compliance Matrix: (Units=1/GPa)
#
#
# Indices 1 2 3 4 5 6 
#
# 1 0.032304 -0.007291 -0.005666 0.000000 0.005886 0.000000
# 2 -0.007291 0.018269 -0.006090 0.000000 -0.005306 0.000000
# 3 -0.005666 -0.006090 0.009913 0.000000 0.003464 0.000000
# 4 0.000000 0.000000 0.000000 0.023375 0.000000 -0.006742
# 5 0.005886 -0.005306 0.003464 0.000000 0.059622 0.000000
# 6 0.000000 0.000000 0.000000 -0.006742 0.000000 0.073795
#
#
# Mechanical properties :
#
#
# Convention : Reuss Voigt Hill
#
# Bulk Modulus (GPa) = 44.66295 72.57781 58.62038
# Shear Modulus (GPa) = 19.02327 25.81902 22.42114
#
# Velocity S-wave (km/s) = 3.20748 3.73673 3.48217
# Velocity P-wave (km/s) = 6.15397 7.60711 6.91880
#
# Compressibility (1/GPa) = 0.02238992
#
# Stress axis : x y z
#
# Youngs Moduli (GPa) = 30.95613 54.73827 100.87643
#
# Poissons Ratio (x) = 0.39911 0.57160
# Poissons Ratio (y) = 0.22571 0.61436
# Poissons Ratio (z) = 0.17541 0.33337
#
# Static dielectric constant tensor:
#      x y z
#    x 2.993900 0.000000 -0.205630 
#    y 0.000000 3.448900 0.000000 
#    z -0.205630 0.000000 4.080510 
# 
# 
# High freq. dielectric constant tensor:
#      x y z
#    x 1.659690 0.000000 -0.003440 
#    y 0.000000 1.722870 0.000000 
#    z -0.003440 0.000000 1.743520 
# 
# From -- ./inp_files/313722.got.cif
#   From: 2010.06.25/outbox.cif.g09.slc.cpg/sg12_157_cif.got.tgz:313722.got - 2010.06.28 00:19:55.
