data_PCOD8086538
_publ_section_title
;
Structure prediction by ZEFSAII (Michael W. Deem and Ramdas Pophale) SiO2 
 PCOD8086538
Probable space group: C 2/M
;
_chemical_formula_sum "Si O2"
_cell_formula_units_Z 64
_cell_length_a 25.042598
_cell_length_b 8.745599
_cell_length_c 31.810211
_cell_angle_alpha 90.000000
_cell_angle_beta 152.533964
_cell_angle_gamma 90.000000
_cell_volume 3213.262392
_symmetry_space_group_name_H-M "C 2/M"
_symmetry_group_IT_number 12
_symmetry_cell_setting 'monoclinic'
loop_
_space_group_symop_operation_xyz
x,y,z
-x,y,-z
-x,-y,-z
x,-y,z
1/2+x,1/2+y,z
1/2-x,1/2+y,-z
1/2-x,1/2-y,-z
1/2+x,1/2-y,z
loop_
_atom_site_type_symbol
_atom_site_label
_atom_site_fract_x
_atom_site_fract_y
_atom_site_fract_z
Si Si1 0.927586 0.180589 0.813014
Si Si2 0.553456 0.178969 0.663166
Si Si3 0.609881 0.678600 0.308855
Si Si4 0.346652 0.676079 0.983846
Si Si5 0.746523 0.680260 0.747596
Si Si6 0.803042 0.180365 0.495133
Si Si7 0.599983 0.179754 0.790440
Si Si8 0.870504 0.335873 0.917470
O O1 0.926269 0.223772 0.763366
O O2 0.813127 0.253100 0.753817
O O3 0.922755 0.000000 0.817693
O O4 0.049411 0.252561 0.916266
O O5 0.622358 0.242749 0.670532
O O6 0.431234 0.261391 0.577345
O O7 0.617994 0.214489 0.752997
O O8 0.533914 0.000000 0.643703
O O9 0.635168 0.500000 0.331055
O O10 0.725526 0.770012 0.401297
O O11 0.507613 0.723222 0.268943
O O12 0.350612 0.500000 0.997499
O O13 0.213287 0.733108 0.896973
O O14 0.366803 0.702629 0.948911
O O15 0.731203 0.500000 0.730730
O O16 0.820330 0.728535 0.839401
O O17 0.750000 0.250000 0.500000
O O18 0.803072 0.000000 0.499651
O O19 0.575010 0.000000 0.779349
O O20 0.810664 0.500000 0.889177
O O21 0.000000 0.379484 0.000000
#
# Coordination Sequence:
#
# PCOD8086538 Si02
#       8
#     8   8   8   8   8   8   8   8
#     4  10  23  41  60  84 120 167 211 248 296 356
#     4  11  22  38  62  95 128 156 192 249 309 360
#     4  11  24  42  63  88 120 159 202 251 304 363
#     4  10  20  35  56  84 119 160 206 248 293 352
#     4  11  22  36  58  88 124 163 204 251 301 355
#     4  12  24  41  67  96 122 153 194 247 306 365
#     4  10  21  36  58  89 123 158 199 248 302 359
#     4  10  19  31  49  80 117 152 197 249 296 342
#
# _framework density 19.917452000000001
#
# number of rings (size 3 to 8) (size 9 to 14) (size 15 to 20)
#    0.000    1.375    3.750    2.250    0.000    3.250 
#    0.000    0.625    0.000    3.750    0.000    0.000 
#    0.000    0.000    0.000    0.000    0.000    0.000 
#
# Total GULP energy -396604.446719 kJ/mol
# GULP energy per Si atom -12393.888960 kJ/mol
# Density = 1.987212 g / cm^3
# Si number density = 19.917452 Si / 1000 Ang^3
#
#
#
# Elastic Constant Matrix: (Units=GPa)
#
#
# Indices 1 2 3 4 5 6 
#
# 1 70.0273 28.7882 31.0388 0.0023 7.9143 0.0019
# 2 28.7882 78.7309 40.1185 0.0042 5.2475 0.0070
# 3 31.0388 40.1185 104.1418 0.0163 15.9045 0.0008
# 4 0.0023 0.0042 0.0163 27.8954 -0.0009 4.4149
# 5 7.9143 5.2475 15.9045 -0.0009 30.9581 -0.0008
# 6 0.0019 0.0070 0.0008 4.4149 -0.0008 29.4476
#
#
#
# Elastic Compliance Matrix: (Units=1/GPa)
#
#
# Indices 1 2 3 4 5 6 
#
# 1 0.017892 -0.004789 -0.003161 0.000001 -0.002138 0.000000
# 2 -0.004789 0.017092 -0.005319 0.000002 0.001060 -0.000004
# 3 -0.003161 -0.005319 0.013382 -0.000007 -0.005165 0.000002
# 4 0.000001 0.000002 -0.000007 0.036719 0.000004 -0.005505
# 5 -0.002138 0.001060 -0.005165 0.000004 0.035322 0.000000
# 6 0.000000 -0.000004 0.000002 -0.005505 0.000000 0.034784
#
#
# Mechanical properties :
#
#
# Convention : Reuss Voigt Hill
#
# Bulk Modulus (GPa) = 45.81207 50.31012 48.06109
# Shear Modulus (GPa) = 26.45417 27.85720 27.15568
#
# Velocity S-wave (km/s) = 3.64839 3.74389 3.69645
# Velocity P-wave (km/s) = 6.38737 6.63348 6.51159
#
# Compressibility (1/GPa) = 0.02182831
#
# Stress axis : x y z
#
# Youngs Moduli (GPa) = 55.89216 58.50586 74.72528
#
# Poissons Ratio (x) = 0.28017 0.23622
# Poissons Ratio (y) = 0.26766 0.39747
# Poissons Ratio (z) = 0.17668 0.31119
#
# Static dielectric constant tensor:
#      x y z
#    x 3.480930 0.000000 0.101680 
#    y 0.000000 3.618770 -0.000010 
#    z 0.101680 -0.000010 3.948790 
# 
# 
# High freq. dielectric constant tensor:
#      x y z
#    x 1.761790 0.000000 0.015380 
#    y 0.000000 1.777100 0.000000 
#    z 0.015380 0.000000 1.783500 
# 
# From -- ./inp_files/382493.got.cif
#   From: 2010.06.25/outbox.cif.g09.slc.cpg/sg12_192_cif.got.tgz:382493.got - 2010.06.28 00:19:55.
