data_PCOD8086061
_publ_section_title
;
Structure prediction by ZEFSAII (Michael W. Deem and Ramdas Pophale) SiO2 
 PCOD8086061
Probable space group: C 2/M
;
_chemical_formula_sum "Si O2"
_cell_formula_units_Z 56
_cell_length_a 14.521622
_cell_length_b 17.145526
_cell_length_c 17.395225
_cell_angle_alpha 90.000000
_cell_angle_beta 47.057220
_cell_angle_gamma 90.000000
_cell_volume 3170.498129
_symmetry_space_group_name_H-M "C 2/M"
_symmetry_group_IT_number 12
_symmetry_cell_setting 'monoclinic'
loop_
_space_group_symop_operation_xyz
x,y,z
-x,y,-z
-x,-y,-z
x,-y,z
1/2+x,1/2+y,z
1/2-x,1/2+y,-z
1/2-x,1/2-y,-z
1/2+x,1/2-y,z
loop_
_atom_site_type_symbol
_atom_site_label
_atom_site_fract_x
_atom_site_fract_y
_atom_site_fract_z
Si Si1 0.589720 0.090871 0.379708
Si Si2 0.461217 0.910415 0.760732
Si Si3 0.817375 0.912226 0.080141
Si Si4 0.326057 0.090685 0.069378
Si Si5 0.566918 0.412595 0.150302
Si Si6 0.061403 0.653851 0.850750
Si Si7 0.648705 0.671999 0.789855
O O1 0.500000 0.115637 0.500000
O O2 0.510784 0.103890 0.345584
O O3 0.709869 0.148088 0.314155
O O4 0.632079 0.000000 0.362145
O O5 0.321300 0.877803 0.857701
O O6 0.559738 0.868303 0.761499
O O7 0.470712 0.000000 0.777927
O O8 0.886619 0.866107 0.108358
O O9 0.800364 0.000000 0.121219
O O10 0.897838 0.909850 0.958613
O O11 0.183332 0.118888 0.134771
O O12 0.351466 0.097849 0.146141
O O13 0.342505 0.000000 0.033934
O O14 0.420469 0.146325 0.967082
O O15 0.531567 0.500000 0.196547
O O16 0.444229 0.357760 0.225885
O O17 0.126478 0.737397 0.816416
#
# Coordination Sequence:
#
# PCOD8086061 Si02
#       7
#     8   8   8   8   8   8   8
#     4   9  19  38  62  81  96 122 165 218 267 314
#     4   9  16  32  55  74  95 129 174 211 244 295
#     4   9  17  30  47  67  97 136 171 203 244 297
#     4  10  21  35  49  67 102 151 194 212 221 271
#     4  10  19  31  47  68  99 141 174 204 244 290
#     4  11  21  31  47  72 104 143 175 208 246 282
#     4  11  22  30  47  77 108 129 161 208 263 319
#
# _framework density 17.662839999999999
#
# number of rings (size 3 to 8) (size 9 to 14) (size 15 to 20)
#    0.000    2.143    1.429    4.286    4.000    4.000 
#    0.000    0.714    0.000    0.000    0.000    0.000 
#    0.000    9.714    0.000    0.000    0.000    0.000 
#
# Total GULP energy -346969.902683 kJ/mol
# GULP energy per Si atom -12391.782239 kJ/mol
# Density = 1.762264 g / cm^3
# Si number density = 17.662840 Si / 1000 Ang^3
#
#
#
# Elastic Constant Matrix: (Units=GPa)
#
#
# Indices 1 2 3 4 5 6 
#
# 1 135.1446 37.3083 35.2583 0.0000 6.9604 0.0000
# 2 37.3083 67.7800 23.0355 0.0000 -1.2543 0.0000
# 3 35.2583 23.0355 62.0400 0.0000 5.7257 -0.0001
# 4 0.0000 0.0000 0.0000 12.5727 0.0000 -9.8550
# 5 6.9604 -1.2543 5.7257 0.0000 17.3027 0.0001
# 6 0.0000 0.0000 -0.0001 -9.8550 0.0001 5.5048
#
#
#
# Elastic Compliance Matrix: (Units=1/GPa)
#
#
# Indices 1 2 3 4 5 6 
#
# 1 0.009648 -0.004114 -0.003683 0.000000 -0.002961 0.000000
# 2 -0.004114 0.018835 -0.005089 0.000000 0.004705 0.000000
# 3 -0.003683 -0.005089 0.020629 0.000000 -0.005714 -0.000001
# 4 0.000000 0.000000 0.000000 -0.197219 0.000001 -0.353075
# 5 -0.002961 0.004705 -0.005714 0.000001 0.061217 0.000001
# 6 0.000000 0.000000 -0.000001 -0.353075 0.000001 -0.450440
#
#
# Mechanical properties :
#
#
# Convention : Reuss Voigt Hill
#
# Bulk Modulus (GPa) = 42.84554 50.68542 46.76548
# Shear Modulus (GPa) = -9.92502 18.36688 4.22093
#
# Velocity S-wave (km/s) = -2.37305 3.22818 1.54755
# Velocity P-wave (km/s) = 4.09898 6.53095 5.45229
#
# Compressibility (1/GPa) = 0.02333965
#
# Stress axis : x y z
#
# Youngs Moduli (GPa) = 103.64328 53.09299 48.47658
#
# Poissons Ratio (x) = 0.21843 0.17852
# Poissons Ratio (y) = 0.42640 0.24672
# Poissons Ratio (z) = 0.38167 0.27022
#
# Static dielectric constant tensor:
#      x y z
#    x 3.617710 0.000000 0.082440 
#    y 0.000000 3.135890 0.000000 
#    z 0.082440 0.000000 2.881790 
# 
# 
# High freq. dielectric constant tensor:
#      x y z
#    x 1.702910 0.000000 0.006530 
#    y 0.000000 1.666480 0.000000 
#    z 0.006530 0.000000 1.626390 
# 
# From -- ./inp_files/270189.got.cif
#   From: 2010.06.25/outbox.cif.g09.slc.cpg/sg12_136_cif.got.tgz:270189.got - 2010.06.28 00:19:55.
