data_PCOD8086015
_publ_section_title
;
Structure prediction by ZEFSAII (Michael W. Deem and Ramdas Pophale) SiO2 
 PCOD8086015
Probable space group: C 2/M
;
_chemical_formula_sum "Si O2"
_cell_formula_units_Z 56
_cell_length_a 16.457971
_cell_length_b 14.573967
_cell_length_c 17.620488
_cell_angle_alpha 90.000000
_cell_angle_beta 52.361861
_cell_angle_gamma 90.000000
_cell_volume 3346.826538
_symmetry_space_group_name_H-M "C 2/M"
_symmetry_group_IT_number 12
_symmetry_cell_setting 'monoclinic'
loop_
_space_group_symop_operation_xyz
x,y,z
-x,y,-z
-x,-y,-z
x,-y,z
1/2+x,1/2+y,z
1/2-x,1/2+y,-z
1/2-x,1/2-y,-z
1/2+x,1/2-y,z
loop_
_atom_site_type_symbol
_atom_site_label
_atom_site_fract_x
_atom_site_fract_y
_atom_site_fract_z
Si Si1 0.294447 0.608798 0.761435
Si Si2 0.927328 0.722540 0.698190
Si Si3 0.837574 0.323017 0.457678
Si Si4 0.394428 0.892590 0.027739
Si Si5 0.561469 0.891349 0.163848
Si Si6 0.617878 0.899255 0.411620
Si Si7 0.335595 0.897071 0.300073
O O1 0.322786 0.500000 0.751411
O O2 0.394114 0.670686 0.723046
O O3 0.205543 0.640548 0.870178
O O4 0.257152 0.641508 0.698503
O O5 0.892322 0.666892 0.793130
O O6 0.865984 0.673904 0.664396
O O7 0.049329 0.720956 0.614277
O O8 0.750000 0.250000 0.500000
O O9 0.820268 0.371697 0.548036
O O10 0.816150 0.393235 0.401127
O O11 0.404892 0.000000 0.033833
O O12 0.500000 0.847303 0.000000
O O13 0.377603 0.869584 0.948287
O O14 0.445633 0.853330 0.217237
O O15 0.563426 0.000000 0.183618
O O16 0.500000 0.905360 0.500000
O O17 0.656214 0.000000 0.363112
O O18 0.344537 0.000000 0.266321
#
# Coordination Sequence:
#
# PCOD8086015 Si02
#       7
#     8   8   8   8   8   8   8
#     4  10  19  31  47  68  99 130 154 187 232 281
#     4  10  20  31  46  69  97 124 152 190 238 282
#     4  10  19  31  47  66  91 122 159 194 225 273
#     4   9  15  27  48  73  95 118 152 194 236 275
#     4   9  16  28  48  73  95 115 149 196 238 276
#     4   9  17  31  50  70  92 117 149 196 245 276
#     4   9  16  28  47  68  88 114 152 196 236 267
#
# _framework density 16.732268000000001
#
# number of rings (size 3 to 8) (size 9 to 14) (size 15 to 20)
#    0.000    2.571    1.429    1.714    0.000    4.000 
#    0.000    1.429    0.000    5.571    0.000    0.000 
#    0.000    1.714    0.000    0.000    0.000    0.000 
#
# Total GULP energy -346917.615422 kJ/mol
# GULP energy per Si atom -12389.914837 kJ/mol
# Density = 1.669418 g / cm^3
# Si number density = 16.732268 Si / 1000 Ang^3
#
#
#
# Elastic Constant Matrix: (Units=GPa)
#
#
# Indices 1 2 3 4 5 6 
#
# 1 70.3355 39.3716 36.8054 0.0000 16.4136 0.0000
# 2 39.3716 80.2146 28.8677 0.0000 3.5537 0.0000
# 3 36.8054 28.8677 68.7520 0.0000 16.5489 0.0000
# 4 0.0000 0.0000 0.0000 16.7823 0.0000 -1.2184
# 5 16.4136 3.5537 16.5489 0.0000 24.4545 0.0000
# 6 0.0000 0.0000 0.0000 -1.2184 0.0000 20.8564
#
#
#
# Elastic Compliance Matrix: (Units=1/GPa)
#
#
# Indices 1 2 3 4 5 6 
#
# 1 0.025999 -0.009691 -0.007153 0.000000 -0.011201 0.000000
# 2 -0.009691 0.018420 -0.004143 0.000000 0.006631 0.000000
# 3 -0.007153 -0.004143 0.022474 0.000000 -0.009805 0.000000
# 4 0.000000 0.000000 0.000000 0.059840 0.000000 0.003496
# 5 -0.011201 0.006631 -0.009805 0.000000 0.054083 0.000000
# 6 0.000000 0.000000 0.000000 0.003496 0.000000 0.048151
#
#
# Mechanical properties :
#
#
# Convention : Reuss Voigt Hill
#
# Bulk Modulus (GPa) = 40.12753 47.71017 43.91885
# Shear Modulus (GPa) = 17.90531 20.03580 18.97055
#
# Velocity S-wave (km/s) = 3.27480 3.46415 3.37080
# Velocity P-wave (km/s) = 6.19138 6.67654 6.43854
#
# Compressibility (1/GPa) = 0.02492055
#
# Stress axis : x y z
#
# Youngs Moduli (GPa) = 38.46273 54.28869 44.49585
#
# Poissons Ratio (x) = 0.52609 0.31829
# Poissons Ratio (y) = 0.37273 0.18433
# Poissons Ratio (z) = 0.27513 0.22489
#
# Static dielectric constant tensor:
#      x y z
#    x 2.731690 0.000000 -0.277400 
#    y 0.000000 2.880400 0.000000 
#    z -0.277400 0.000000 2.475390 
# 
# 
# High freq. dielectric constant tensor:
#      x y z
#    x 1.635970 0.000000 0.026900 
#    y 0.000000 1.616060 0.000000 
#    z 0.026900 0.000000 1.639820 
# 
# From -- ./inp_files/216014.got.cif
#   From: 2010.06.25/outbox.cif.g09.slc.cpg/sg12_109_cif.got.tgz:216014.got - 2010.06.28 00:19:55.
