data_PCOD8086327
_publ_section_title
;
Structure prediction by ZEFSAII (Michael W. Deem and Ramdas Pophale) SiO2 
 PCOD8086327
Probable space group: C 2/M
;
_chemical_formula_sum "Si O2"
_cell_formula_units_Z 56
_cell_length_a 17.888303
_cell_length_b 9.134724
_cell_length_c 23.437679
_cell_angle_alpha 90.000000
_cell_angle_beta 49.317375
_cell_angle_gamma 90.000000
_cell_volume 2904.280682
_symmetry_space_group_name_H-M "C 2/M"
_symmetry_group_IT_number 12
_symmetry_cell_setting 'monoclinic'
loop_
_space_group_symop_operation_xyz
x,y,z
-x,y,-z
-x,-y,-z
x,-y,z
1/2+x,1/2+y,z
1/2-x,1/2+y,-z
1/2-x,1/2-y,-z
1/2+x,1/2-y,z
loop_
_atom_site_type_symbol
_atom_site_label
_atom_site_fract_x
_atom_site_fract_y
_atom_site_fract_z
Si Si1 0.101923 0.834583 0.054205
Si Si2 0.558366 0.329083 0.622209
Si Si3 0.595905 0.165757 0.232393
Si Si4 0.253214 0.665656 0.910639
Si Si5 0.405354 0.169229 0.510325
Si Si6 0.304868 0.667688 0.340075
Si Si7 0.048183 0.664820 0.803306
O O1 0.173946 0.834168 0.072173
O O2 0.999186 0.756244 0.121276
O O3 0.079783 0.000000 0.045557
O O4 0.152117 0.747711 0.977106
O O5 0.534903 0.500000 0.629408
O O6 0.457166 0.246429 0.688633
O O7 0.599465 0.270695 0.542356
O O8 0.642397 0.295027 0.626578
O O9 0.696758 0.250261 0.167256
O O10 0.525462 0.167998 0.213059
O O11 0.621292 0.000000 0.237966
O O12 0.228743 0.500000 0.904245
O O13 0.500000 0.211161 0.500000
O O14 0.310411 0.202530 0.596495
O O15 0.406725 0.000000 0.490155
O O16 0.324526 0.500000 0.313698
O O17 0.348044 0.765033 0.267246
O O18 0.066959 0.500000 0.815048
#
# Coordination Sequence:
#
# PCOD8086327 Si02
#       7
#     8   8   8   8   8   8   8
#     4   9  15  22  33  51  80 118 154 187 227 274
#     4  10  19  31  49  71  94 121 155 195 236 278
#     4   9  16  26  40  59  85 117 153 190 229 275
#     4   9  15  22  33  52  81 116 153 190 228 271
#     4  10  21  36  52  70  94 123 154 190 234 284
#     4   9  18  32  49  69  93 122 156 193 234 280
#     4   9  16  25  39  60  85 115 152 192 231 272
#
# _framework density 19.281883000000001
#
# number of rings (size 3 to 8) (size 9 to 14) (size 15 to 20)
#    0.000    2.714    0.000    2.571    0.000    8.286 
#    0.000    0.000    0.000    0.000    0.000    0.000 
#    0.000    1.143    0.000   12.286    0.000   17.714 
#
# Total GULP energy -347226.383113 kJ/mol
# GULP energy per Si atom -12400.942254 kJ/mol
# Density = 1.923800 g / cm^3
# Si number density = 19.281883 Si / 1000 Ang^3
#
#
#
# Elastic Constant Matrix: (Units=GPa)
#
#
# Indices 1 2 3 4 5 6 
#
# 1 31.1659 27.3765 33.9110 0.0000 -16.2937 0.0001
# 2 27.3765 151.0136 74.2238 0.0000 -22.8940 0.0003
# 3 33.9110 74.2238 130.9710 0.0000 -39.6182 0.0000
# 4 0.0000 0.0000 0.0000 45.8391 0.0000 -3.9924
# 5 -16.2937 -22.8940 -39.6182 0.0000 15.6585 0.0000
# 6 0.0001 0.0003 0.0000 -3.9924 0.0000 8.8666
#
#
#
# Elastic Compliance Matrix: (Units=1/GPa)
#
#
# Indices 1 2 3 4 5 6 
#
# 1 0.083592 -0.005706 0.022922 0.000000 0.136637 -0.000001
# 2 -0.005706 0.009572 -0.006435 0.000000 -0.008223 0.000000
# 3 0.022922 -0.006435 0.041409 0.000000 0.119214 0.000000
# 4 0.000000 0.000000 0.000000 0.022706 0.000000 0.010224
# 5 0.136637 -0.008223 0.119214 0.000000 0.495648 -0.000002
# 6 -0.000001 0.000000 0.000000 0.010224 -0.000002 0.117387
#
#
# Mechanical properties :
#
#
# Convention : Reuss Voigt Hill
#
# Bulk Modulus (GPa) = 6.40469 64.90812 35.65640
# Shear Modulus (GPa) = 6.24378 25.91545 16.07961
#
# Velocity S-wave (km/s) = 1.80144 3.67008 2.89091
# Velocity P-wave (km/s) = 2.76690 7.18993 5.44752
#
# Compressibility (1/GPa) = 0.15613567
#
# Stress axis : x y z
#
# Youngs Moduli (GPa) = 11.96289 104.46593 24.14952
#
# Poissons Ratio (x) = 0.59606 -0.55356
# Poissons Ratio (y) = 0.06826 0.15540
# Poissons Ratio (z) = -0.27421 0.67223
#
# Static dielectric constant tensor:
#      x y z
#    x 2.832200 0.000000 -0.240090 
#    y 0.000000 3.684630 0.000000 
#    z -0.240090 0.000000 3.643160 
# 
# 
# High freq. dielectric constant tensor:
#      x y z
#    x 1.677550 0.000000 -0.020370 
#    y 0.000000 1.762420 0.000000 
#    z -0.020370 0.000000 1.763730 
# 
# From -- ./inp_files/280306.got.cif
#   From: 2010.06.25/outbox.cif.g09.slc.cpg/sg12_141_cif.got.tgz:280306.got - 2010.06.28 00:19:55.
