data_PCOD8086796
_publ_section_title
;
Structure prediction by ZEFSAII (Michael W. Deem and Ramdas Pophale) SiO2 
 PCOD8086796
Probable space group: C 2/M
;
_chemical_formula_sum "Si O2"
_cell_formula_units_Z 56
_cell_length_a 18.678941
_cell_length_b 9.464778
_cell_length_c 22.882435
_cell_angle_alpha 90.000000
_cell_angle_beta 51.975427
_cell_angle_gamma 90.000000
_cell_volume 3186.775554
_symmetry_space_group_name_H-M "C 2/M"
_symmetry_group_IT_number 12
_symmetry_cell_setting 'monoclinic'
loop_
_space_group_symop_operation_xyz
x,y,z
-x,y,-z
-x,-y,-z
x,-y,z
1/2+x,1/2+y,z
1/2-x,1/2+y,-z
1/2-x,1/2-y,-z
1/2+x,1/2-y,z
loop_
_atom_site_type_symbol
_atom_site_label
_atom_site_fract_x
_atom_site_fract_y
_atom_site_fract_z
Si Si1 0.661586 0.334507 0.060683
Si Si2 0.870089 0.157010 0.227922
Si Si3 0.423935 0.663839 0.489913
Si Si4 0.773607 0.336156 0.365951
Si Si5 0.503941 0.668420 0.933020
Si Si6 0.440751 0.833552 0.364009
Si Si7 0.542281 0.343722 0.225265
O O1 0.678831 0.500000 0.042459
O O2 0.584151 0.275740 0.056475
O O3 0.632142 0.304209 0.142793
O O4 0.750000 0.250000 0.000000
O O5 0.794593 0.256957 0.294687
O O6 0.903387 0.215179 0.147684
O O7 0.959085 0.151785 0.222705
O O8 0.827901 0.000000 0.243653
O O9 0.500000 0.693072 0.500000
O O10 0.423349 0.500000 0.470878
O O11 0.326167 0.709378 0.563814
O O12 0.444603 0.761376 0.424672
O O13 0.779390 0.500000 0.348249
O O14 0.845142 0.295813 0.380875
O O15 0.502707 0.500000 0.934701
O O16 0.500000 0.733130 0.000000
O O17 0.524762 0.772053 0.284145
O O18 0.454232 0.000000 0.364335
O O19 0.553292 0.500000 0.248196
#
# Coordination Sequence:
#
# PCOD8086796 Si02
#       7
#     8   8   8   8   8   8   8
#     4   9  17  29  47  70  95 125 158 193 233 276
#     4   8  14  26  47  71  91 118 156 194 231 270
#     4  10  21  36  51  67  94 132 160 179 221 286
#     4   9  18  32  50  72  94 118 153 195 235 273
#     4   8  14  27  47  69  93 122 157 193 229 274
#     4  10  19  31  51  76  95 114 150 202 244 268
#     4   8  15  29  47  67  93 125 159 190 226 279
#
# _framework density 17.572623
#
# number of rings (size 3 to 8) (size 9 to 14) (size 15 to 20)
#    0.000    3.143    0.000    2.571    0.000    2.000 
#    0.000    3.571    0.000    5.143    0.000    0.000 
#    0.000    0.000    0.000    0.000    0.000    0.000 
#
# Total GULP energy -347058.219567 kJ/mol
# GULP energy per Si atom -12394.936413 kJ/mol
# Density = 1.753263 g / cm^3
# Si number density = 17.572623 Si / 1000 Ang^3
#
#
#
# Elastic Constant Matrix: (Units=GPa)
#
#
# Indices 1 2 3 4 5 6 
#
# 1 57.0663 35.7530 57.1237 0.0000 1.3415 0.0000
# 2 35.7530 73.7039 76.7620 0.0000 3.0605 -0.0002
# 3 57.1237 76.7620 170.2310 0.0000 6.1851 0.0000
# 4 0.0000 0.0000 0.0000 36.2535 0.0000 -3.0179
# 5 1.3415 3.0605 6.1851 0.0000 25.9786 0.0000
# 6 0.0000 -0.0002 0.0000 -3.0179 0.0000 15.4071
#
#
#
# Elastic Compliance Matrix: (Units=1/GPa)
#
#
# Indices 1 2 3 4 5 6 
#
# 1 0.028315 -0.007246 -0.006266 0.000000 0.000883 0.000000
# 2 -0.007246 0.027438 -0.009923 0.000000 -0.000496 0.000000
# 3 -0.006266 -0.009923 0.012506 0.000000 -0.001485 0.000000
# 4 0.000000 0.000000 0.000000 0.028041 0.000000 0.005493
# 5 0.000883 -0.000496 -0.001485 0.000000 0.038860 0.000000
# 6 0.000000 0.000000 0.000000 0.005493 0.000000 0.065981
#
#
# Mechanical properties :
#
#
# Convention : Reuss Voigt Hill
#
# Bulk Modulus (GPa) = 46.75434 71.14207 58.94821
# Shear Modulus (GPa) = 19.59710 24.28534 21.94122
#
# Velocity S-wave (km/s) = 3.34309 3.72156 3.53739
# Velocity P-wave (km/s) = 6.44716 7.68369 7.09242
#
# Compressibility (1/GPa) = 0.02138839
#
# Stress axis : x y z
#
# Youngs Moduli (GPa) = 35.31718 36.44567 79.96306
#
# Poissons Ratio (x) = 0.26407 0.50108
# Poissons Ratio (y) = 0.25589 0.79349
# Poissons Ratio (z) = 0.22131 0.36166
#
# Static dielectric constant tensor:
#      x y z
#    x 3.014570 0.000000 0.048720 
#    y 0.000000 3.172430 0.000000 
#    z 0.048720 0.000000 3.633030 
# 
# 
# High freq. dielectric constant tensor:
#      x y z
#    x 1.642110 0.000000 0.000410 
#    y 0.000000 1.662870 0.000000 
#    z 0.000410 0.000000 1.696370 
# 
# From -- ./inp_files/345498.got.cif
#   From: 2010.06.25/outbox.cif.g09.slc.cpg/sg12_173_cif.got.tgz:345498.got - 2010.06.28 00:19:55.
