data_PCOD8086003
_publ_section_title
;
Structure prediction by ZEFSAII (Michael W. Deem and Ramdas Pophale) SiO2 
 PCOD8086003
Probable space group: C 2/M
;
_chemical_formula_sum "Si O2"
_cell_formula_units_Z 64
_cell_length_a 27.902675
_cell_length_b 9.096929
_cell_length_c 20.680918
_cell_angle_alpha 90.000000
_cell_angle_beta 133.808117
_cell_angle_gamma 90.000000
_cell_volume 3788.300278
_symmetry_space_group_name_H-M "C 2/M"
_symmetry_group_IT_number 12
_symmetry_cell_setting 'monoclinic'
loop_
_space_group_symop_operation_xyz
x,y,z
-x,y,-z
-x,-y,-z
x,-y,z
1/2+x,1/2+y,z
1/2-x,1/2+y,-z
1/2-x,1/2-y,-z
1/2+x,1/2-y,z
loop_
_atom_site_type_symbol
_atom_site_label
_atom_site_fract_x
_atom_site_fract_y
_atom_site_fract_z
Si Si1 0.560072 0.824859 0.100351
Si Si2 0.010094 0.161991 0.708535
Si Si3 0.356674 0.166491 0.030449
Si Si4 0.993185 0.328127 0.815257
Si Si5 0.819499 0.675119 0.246357
Si Si6 0.306297 0.831060 0.839992
Si Si7 0.666695 0.665112 0.871587
Si Si8 0.544510 0.326659 0.602815
O O1 0.552218 0.772892 0.167503
O O2 0.631631 0.767828 0.142981
O O3 0.557740 0.000000 0.092468
O O4 0.500000 0.760980 0.000000
O O5 0.087701 0.159874 0.795987
O O6 0.003127 0.222177 0.628409
O O7 0.971666 0.258564 0.726247
O O8 0.979039 0.000000 0.684355
O O9 0.432507 0.219885 0.096498
O O10 0.313747 0.261671 0.041492
O O11 0.355790 0.000000 0.054823
O O12 0.323498 0.183841 0.930853
O O13 0.985679 0.500000 0.799326
O O14 0.821685 0.500000 0.246805
O O15 0.758686 0.731900 0.234547
O O16 0.806752 0.738247 0.162764
O O17 0.887559 0.736407 0.340036
O O18 0.291089 0.000000 0.807193
O O19 0.696950 0.500000 0.894898
O O20 0.500000 0.288037 0.500000
O O21 0.561919 0.500000 0.623946
#
# Coordination Sequence:
#
# PCOD8086003 Si02
#       8
#     8   8   8   8   8   8   8   8
#     4   9  15  27  47  69  90 121 169 215 244 272
#     4   8  15  27  44  69  97 121 146 182 230 282
#     4   9  16  26  43  66  89 119 160 204 245 279
#     4   9  15  25  44  68  93 122 160 203 240 273
#     4  11  22  34  47  67  97 126 155 193 236 283
#     4  10  19  31  47  65  91 127 166 204 242 283
#     4   9  17  30  46  62  87 124 163 197 232 279
#     4   9  18  35  58  79  98 122 152 185 228 289
#
# _framework density 16.894120999999998
#
# number of rings (size 3 to 8) (size 9 to 14) (size 15 to 20)
#    0.000    2.750    1.250    2.250    0.000    4.250 
#    0.000    0.625    0.000    0.750    0.000    0.875 
#    0.000    0.000    0.000    0.000    0.000    0.000 
#
# Total GULP energy -396618.567031 kJ/mol
# GULP energy per Si atom -12394.330220 kJ/mol
# Density = 1.685567 g / cm^3
# Si number density = 16.894121 Si / 1000 Ang^3
#
#
#
# Elastic Constant Matrix: (Units=GPa)
#
#
# Indices 1 2 3 4 5 6 
#
# 1 130.8459 51.6078 57.7808 0.0000 -5.0180 0.0000
# 2 51.6078 72.9755 28.8975 0.0000 1.3171 0.0000
# 3 57.7808 28.8975 57.1082 0.0000 -11.8021 0.0000
# 4 0.0000 0.0000 0.0000 17.5716 0.0000 -4.5416
# 5 -5.0180 1.3171 -11.8021 0.0000 19.0443 0.0000
# 6 0.0000 0.0000 0.0000 -4.5416 0.0000 21.0110
#
#
#
# Elastic Compliance Matrix: (Units=1/GPa)
#
#
# Indices 1 2 3 4 5 6 
#
# 1 0.015943 -0.005588 -0.014170 0.000000 -0.004194 0.000000
# 2 -0.005588 0.020090 -0.005853 0.000000 -0.006489 0.000000
# 3 -0.014170 -0.005853 0.039133 0.000000 0.020923 0.000000
# 4 0.000000 0.000000 0.000000 0.060278 0.000000 0.013029
# 5 -0.004194 -0.006489 0.020923 0.000000 0.064819 0.000000
# 6 0.000000 0.000000 0.000000 0.013029 0.000000 0.050411
#
#
# Mechanical properties :
#
#
# Convention : Reuss Voigt Hill
#
# Bulk Modulus (GPa) = 41.76389 59.72240 50.74314
# Shear Modulus (GPa) = 16.13543 19.70160 17.91851
#
# Velocity S-wave (km/s) = 3.09381 3.41864 3.26027
# Velocity P-wave (km/s) = 6.12673 7.14217 6.65385
#
# Compressibility (1/GPa) = 0.02394413
#
# Stress axis : x y z
#
# Youngs Moduli (GPa) = 62.72280 49.77634 25.55371
#
# Poissons Ratio (x) = 0.27815 0.36210
# Poissons Ratio (y) = 0.35049 0.14957
# Poissons Ratio (z) = 0.88879 0.29134
#
# Static dielectric constant tensor:
#      x y z
#    x 3.402910 0.000000 -0.145170 
#    y 0.000000 3.118160 0.000000 
#    z -0.145170 0.000000 2.926720 
# 
# 
# High freq. dielectric constant tensor:
#      x y z
#    x 1.651980 0.000000 -0.010510 
#    y 0.000000 1.634100 0.000000 
#    z -0.010510 0.000000 1.612450 
# 
# From -- ./inp_files/326946.got.cif
#   From: 2010.06.25/outbox.cif.g09.slc.cpg/sg12_164_cif.got.tgz:326946.got - 2010.06.28 00:19:55.
