data_PCOD8086293
_publ_section_title
;
Structure prediction by ZEFSAII (Michael W. Deem and Ramdas Pophale) SiO2 
 PCOD8086293
Probable space group: C 2/M
;
_chemical_formula_sum "Si O2"
_cell_formula_units_Z 64
_cell_length_a 11.467279
_cell_length_b 23.083690
_cell_length_c 16.962077
_cell_angle_alpha 90.000000
_cell_angle_beta 53.757372
_cell_angle_gamma 90.000000
_cell_volume 3621.263688
_symmetry_space_group_name_H-M "C 2/M"
_symmetry_group_IT_number 12
_symmetry_cell_setting 'monoclinic'
loop_
_space_group_symop_operation_xyz
x,y,z
-x,y,-z
-x,-y,-z
x,-y,z
1/2+x,1/2+y,z
1/2-x,1/2+y,-z
1/2-x,1/2-y,-z
1/2+x,1/2-y,z
loop_
_atom_site_type_symbol
_atom_site_label
_atom_site_fract_x
_atom_site_fract_y
_atom_site_fract_z
Si Si1 0.615462 0.565875 0.889913
Si Si2 0.141215 0.218121 0.482818
Si Si3 0.145966 0.377919 0.978362
Si Si4 0.834788 0.344567 0.850074
Si Si5 0.002622 0.826951 0.681014
Si Si6 0.787374 0.728742 0.151158
Si Si7 0.112603 0.721263 0.723293
Si Si8 0.434060 0.565129 0.807476
O O1 0.656639 0.500000 0.895381
O O2 0.761925 0.603455 0.830380
O O3 0.549223 0.570600 0.830469
O O4 0.500000 0.590032 0.000000
O O5 0.250000 0.250000 0.500000
O O6 0.064110 0.168441 0.567087
O O7 0.239780 0.193531 0.371746
O O8 0.000000 0.252034 0.500000
O O9 0.165381 0.314471 0.935198
O O10 0.276357 0.420008 0.903821
O O11 0.136616 0.369965 0.075135
O O12 0.000000 0.405700 0.000000
O O13 0.726318 0.289793 0.888531
O O14 0.984343 0.323055 0.750184
O O15 0.107963 0.786978 0.692020
O O16 0.853758 0.792053 0.745844
O O17 0.985467 0.892237 0.718090
O O18 0.902514 0.729587 0.176273
O O19 0.430354 0.500000 0.774943
#
# Coordination Sequence:
#
# PCOD8086293 Si02
#       8
#     8   8   8   8   8   8   8   8
#     4  10  20  36  56  76 101 138 189 233 266 312
#     4  10  19  34  57  84 116 146 178 225 275 335
#     4  11  21  33  48  75 113 144 178 219 269 323
#     4  11  21  33  52  77 110 147 177 225 271 321
#     4   9  19  33  53  79 106 139 176 225 267 322
#     4  10  19  31  48  75 110 142 177 209 268 329
#     4  10  19  33  53  82 113 141 175 219 277 337
#     4  10  21  38  57  77 102 142 190 229 268 321
#
# _framework density 17.673389
#
# number of rings (size 3 to 8) (size 9 to 14) (size 15 to 20)
#    0.000    1.875    3.750    1.125    0.000    0.750 
#    0.000    0.000    0.000    1.125    0.000    1.750 
#    0.000    0.000    0.000    0.000    0.000    0.000 
#
# Total GULP energy -396420.981176 kJ/mol
# GULP energy per Si atom -12388.155662 kJ/mol
# Density = 1.763316 g / cm^3
# Si number density = 17.673389 Si / 1000 Ang^3
#
#
#
# Elastic Constant Matrix: (Units=GPa)
#
#
# Indices 1 2 3 4 5 6 
#
# 1 106.1899 39.1625 26.0066 0.0000 -8.9986 0.0000
# 2 39.1625 97.2182 32.8822 0.0000 -4.3142 0.0000
# 3 26.0066 32.8822 74.1839 0.0000 -8.9951 0.0000
# 4 0.0000 0.0000 0.0000 -2.8030 0.0000 -35.7126
# 5 -8.9986 -4.3142 -8.9951 0.0000 26.6897 0.0000
# 6 0.0000 0.0000 0.0000 -35.7126 0.0000 -56.4190
#
#
#
# Elastic Compliance Matrix: (Units=1/GPa)
#
#
# Indices 1 2 3 4 5 6 
#
# 1 0.011554 -0.003853 -0.002029 0.000000 0.002589 0.000000
# 2 -0.003853 0.013386 -0.004668 0.000000 -0.000709 0.000000
# 3 -0.002029 -0.004668 0.016771 0.000000 0.004214 0.000000
# 4 0.000000 0.000000 0.000000 0.050498 0.000000 -0.031965
# 5 0.002589 -0.000709 0.004214 0.000000 0.039646 0.000000
# 6 0.000000 0.000000 0.000000 -0.031965 0.000000 0.002509
#
#
# Mechanical properties :
#
#
# Convention : Reuss Voigt Hill
#
# Bulk Modulus (GPa) = 48.51820 52.63274 50.57547
# Shear Modulus (GPa) = 30.80029 5.46293 18.13161
#
# Velocity S-wave (km/s) = 4.17915 1.76005 3.20648
# Velocity P-wave (km/s) = 7.12737 5.82887 6.51057
#
# Compressibility (1/GPa) = 0.02061082
#
# Stress axis : x y z
#
# Youngs Moduli (GPa) = 86.54668 74.70504 59.62518
#
# Poissons Ratio (x) = 0.28787 0.12096
# Poissons Ratio (y) = 0.33350 0.27836
# Poissons Ratio (z) = 0.17557 0.34875
#
# Static dielectric constant tensor:
#      x y z
#    x 3.718830 0.000000 -0.081670 
#    y 0.000000 3.106640 0.000000 
#    z -0.081670 0.000000 3.376210 
# 
# 
# High freq. dielectric constant tensor:
#      x y z
#    x 1.704030 0.000000 -0.000330 
#    y 0.000000 1.646730 0.000000 
#    z -0.000330 0.000000 1.675720 
# 
# From -- ./inp_files/265075.got.cif
#   From: 2010.06.25/outbox.cif.g09.slc.cpg/sg12_133_cif.got.tgz:265075.got - 2010.06.28 00:19:55.
