data_PCOD8086863
_publ_section_title
;
Structure prediction by ZEFSAII (Michael W. Deem and Ramdas Pophale) SiO2 
 PCOD8086863
Probable space group: C 2/M
;
_chemical_formula_sum "Si O2"
_cell_formula_units_Z 56
_cell_length_a 25.174879
_cell_length_b 20.811402
_cell_length_c 17.066957
_cell_angle_alpha 90.000000
_cell_angle_beta 160.196806
_cell_angle_gamma 90.000000
_cell_volume 3029.394841
_symmetry_space_group_name_H-M "C 2/M"
_symmetry_group_IT_number 12
_symmetry_cell_setting 'monoclinic'
loop_
_space_group_symop_operation_xyz
x,y,z
-x,y,-z
-x,-y,-z
x,-y,z
1/2+x,1/2+y,z
1/2-x,1/2+y,-z
1/2-x,1/2-y,-z
1/2+x,1/2-y,z
loop_
_atom_site_type_symbol
_atom_site_label
_atom_site_fract_x
_atom_site_fract_y
_atom_site_fract_z
Si Si1 0.220868 0.612377 0.775406
Si Si2 0.716155 0.248076 0.167537
Si Si3 0.277562 0.171131 0.973750
Si Si4 0.005665 0.219057 0.335349
Si Si5 0.939748 0.572343 0.291738
Si Si6 0.539684 0.572371 0.145439
Si Si7 0.104880 0.797815 0.299516
O O1 0.224697 0.688836 0.797514
O O2 0.164860 0.577237 0.775476
O O3 0.108380 0.602997 0.544372
O O4 0.385412 0.581053 0.982922
O O5 0.724331 0.187013 0.120987
O O6 0.824815 0.233088 0.392144
O O7 0.537351 0.263837 0.946970
O O8 0.099332 0.169382 0.759962
O O9 0.396958 0.218205 0.184589
O O10 0.353806 0.102106 0.096734
O O11 0.039890 0.191264 0.297048
O O12 0.969034 0.500000 0.308374
O O13 0.609456 0.500000 0.257637
O O14 0.652258 0.632243 0.328328
O O15 0.500000 0.580896 0.000000
O O16 0.250000 0.750000 0.500000
#
# Coordination Sequence:
#
# PCOD8086863 Si02
#       7
#     8   8   8   8   8   8   8
#     4  10  19  32  50  78 104 138 174 209 268 321
#     4  10  20  33  56  76 106 136 170 228 264 308
#     4  10  19  31  51  79 104 137 177 209 259 312
#     4  10  19  34  52  77 104 136 173 222 264 301
#     4  11  20  30  49  76 112 143 168 210 256 318
#     4  10  21  36  54  76 107 142 174 216 271 325
#     4  10  23  34  53  80 106 140 178 220 269 320
#
# _framework density 18.48554
#
# number of rings (size 3 to 8) (size 9 to 14) (size 15 to 20)
#    0.000    1.857    1.429    5.571    6.000    0.000 
#    0.000    0.000    0.000    2.571    0.000    1.000 
#    0.000    0.000    0.000    0.000    0.000    0.000 
#
# Total GULP energy -346998.290468 kJ/mol
# GULP energy per Si atom -12392.796088 kJ/mol
# Density = 1.844347 g / cm^3
# Si number density = 18.485540 Si / 1000 Ang^3
#
#
#
# Elastic Constant Matrix: (Units=GPa)
#
#
# Indices 1 2 3 4 5 6 
#
# 1 39.8593 29.7594 8.8239 0.0000 -8.0247 0.0000
# 2 29.7594 105.4457 44.5376 0.0000 -5.0372 0.0000
# 3 8.8239 44.5376 102.4602 0.0000 -7.0621 0.0000
# 4 0.0000 0.0000 0.0000 26.5138 0.0000 -5.9322
# 5 -8.0247 -5.0372 -7.0621 0.0000 23.6294 0.0000
# 6 0.0000 0.0000 0.0000 -5.9322 0.0000 22.1325
#
#
#
# Elastic Compliance Matrix: (Units=1/GPa)
#
#
# Indices 1 2 3 4 5 6 
#
# 1 0.034157 -0.010055 0.002125 0.000000 0.010091 0.000000
# 2 -0.010055 0.014599 -0.005617 0.000000 -0.001981 0.000000
# 3 0.002125 -0.005617 0.012238 0.000000 0.003182 0.000000
# 4 0.000000 0.000000 0.000000 0.040122 0.000000 0.010754
# 5 0.010091 -0.001981 0.003182 0.000000 0.046276 0.000000
# 6 0.000000 0.000000 0.000000 0.010754 0.000000 0.048065
#
#
# Mechanical properties :
#
#
# Convention : Reuss Voigt Hill
#
# Bulk Modulus (GPa) = 29.49894 46.00077 37.74985
# Shear Modulus (GPa) = 21.38119 25.43144 23.40631
#
# Velocity S-wave (km/s) = 3.40464 3.71313 3.56222
# Velocity P-wave (km/s) = 5.60784 6.58194 6.11432
#
# Compressibility (1/GPa) = 0.03389953
#
# Stress axis : x y z
#
# Youngs Moduli (GPa) = 29.27659 68.49764 81.71541
#
# Poissons Ratio (x) = 0.68877 -0.17363
# Poissons Ratio (y) = 0.29439 0.45896
# Poissons Ratio (z) = -0.06221 0.38472
#
# Static dielectric constant tensor:
#      x y z
#    x 3.192720 0.000000 0.058320 
#    y 0.000000 3.435850 0.000000 
#    z 0.058320 0.000000 3.573790 
# 
# 
# High freq. dielectric constant tensor:
#      x y z
#    x 1.703100 0.000000 0.007300 
#    y 0.000000 1.696310 0.000000 
#    z 0.007300 0.000000 1.710840 
# 
# From -- ./inp_files/184624.got.cif
#   From: 2010.06.25/outbox.cif.g09.slc.cpg/sg12_93_cif.got.tgz:184624.got - 2010.06.28 00:19:55.
