data_PCOD8086584
_publ_section_title
;
Structure prediction by ZEFSAII (Michael W. Deem and Ramdas Pophale) SiO2 
 PCOD8086584
Probable space group: C 2/M
;
_chemical_formula_sum "Si O2"
_cell_formula_units_Z 32
_cell_length_a 19.057480
_cell_length_b 8.859964
_cell_length_c 29.254147
_cell_angle_alpha 90.000000
_cell_angle_beta 22.588051
_cell_angle_gamma 90.000000
_cell_volume 1897.283890
_symmetry_space_group_name_H-M "C 2/M"
_symmetry_group_IT_number 12
_symmetry_cell_setting 'monoclinic'
loop_
_space_group_symop_operation_xyz
x,y,z
-x,y,-z
-x,-y,-z
x,-y,z
1/2+x,1/2+y,z
1/2-x,1/2+y,-z
1/2-x,1/2-y,-z
1/2+x,1/2-y,z
loop_
_atom_site_type_symbol
_atom_site_label
_atom_site_fract_x
_atom_site_fract_y
_atom_site_fract_z
Si Si1 0.488488 0.171873 0.870352
Si Si2 0.542169 0.322660 0.201986
Si Si3 0.115889 0.822627 0.974518
Si Si4 0.701650 0.669833 0.381142
O O1 0.383923 0.268099 0.893033
O O2 0.482964 0.249158 0.922618
O O3 0.703232 0.169744 0.726116
O O4 0.411930 0.000000 0.918439
O O5 0.549770 0.500000 0.202151
O O6 0.334454 0.264873 0.335377
O O7 0.681211 0.246889 0.154337
O O8 0.130681 0.000000 0.972914
O O9 0.000000 0.779287 0.000000
O O10 0.500000 0.744326 0.500000
O O11 0.684762 0.500000 0.410867
#
# Coordination Sequence:
#
# PCOD8086584 Si02
#       4
#     8   8   8   8
#     4   9  18  32  51  73  98 127 160 198 240 285
#     4  10  19  31  50  74 100 127 160 200 239 284
#     4  11  22  34  48  69  99 132 163 199 243 288
#     4   8  16  31  51  74  98 125 158 198 241 281
#
# _framework density 16.866216999999999
#
# number of rings (size 3 to 8) (size 9 to 14) (size 15 to 20)
#    1.500    1.000    0.000    3.750    0.000    2.500 
#    0.000    0.000    0.000    1.500    0.000    0.000 
#    0.000    0.000    0.000    0.000    0.000    0.000 
#
# Total GULP energy -198230.559103 kJ/mol
# GULP energy per Si atom -12389.409944 kJ/mol
# Density = 1.682783 g / cm^3
# Si number density = 16.866217 Si / 1000 Ang^3
#
#
#
# Elastic Constant Matrix: (Units=GPa)
#
#
# Indices 1 2 3 4 5 6 
#
# 1 90.3838 59.5974 38.7987 0.0132 -26.5122 -0.0021
# 2 59.5974 118.8170 37.4044 0.0185 -21.4735 0.0105
# 3 38.7987 37.4044 77.7552 0.0213 -35.0040 0.0188
# 4 0.0132 0.0185 0.0213 20.0268 -0.0043 0.3252
# 5 -26.5122 -21.4735 -35.0040 -0.0043 25.5846 -0.0009
# 6 -0.0021 0.0105 0.0188 0.3252 -0.0009 22.7372
#
#
#
# Elastic Compliance Matrix: (Units=1/GPa)
#
#
# Indices 1 2 3 4 5 6 
#
# 1 0.020380 -0.007576 0.000312 -0.000004 0.015188 0.000006
# 2 -0.007576 0.012954 -0.002840 -0.000004 -0.000864 -0.000004
# 3 0.000312 -0.002840 0.034222 -0.000024 0.044761 -0.000025
# 4 -0.000004 -0.000004 -0.000024 0.049945 -0.000031 -0.000714
# 5 0.015188 -0.000864 0.044761 -0.000031 0.115340 -0.000030
# 6 0.000006 -0.000004 -0.000025 -0.000714 -0.000030 0.043991
#
#
# Mechanical properties :
#
#
# Convention : Reuss Voigt Hill
#
# Bulk Modulus (GPa) = 21.12003 62.06190 41.59096
# Shear Modulus (GPa) = 15.98345 23.74675 19.86510
#
# Velocity S-wave (km/s) = 3.08175 3.75633 3.43564
# Velocity P-wave (km/s) = 5.02117 7.46256 6.36011
#
# Compressibility (1/GPa) = 0.04734842
#
# Stress axis : x y z
#
# Youngs Moduli (GPa) = 49.06667 77.19389 29.22094
#
# Poissons Ratio (x) = 0.58482 -0.00912
# Poissons Ratio (y) = 0.37173 0.08300
# Poissons Ratio (z) = -0.01532 0.21926
#
# Static dielectric constant tensor:
#      x y z
#    x 2.851620 0.000010 -0.207300 
#    y 0.000010 3.150820 0.000050 
#    z -0.207300 0.000050 3.234850 
# 
# 
# High freq. dielectric constant tensor:
#      x y z
#    x 1.607290 0.000000 -0.023180 
#    y 0.000000 1.662870 0.000000 
#    z -0.023180 0.000000 1.647430 
# 
# From -- ./inp_files/150940.got.cif
#   From: 2010.06.25/outbox.cif.g09.slc.cpg/sg12_76_cif.got.tgz:150940.got - 2010.06.28 00:19:55.
