data_PCOD8086952
_publ_section_title
;
Structure prediction by ZEFSAII (Michael W. Deem and Ramdas Pophale) SiO2 
 PCOD8086952
Probable space group: C 2/M
;
_chemical_formula_sum "Si O2"
_cell_formula_units_Z 64
_cell_length_a 24.437310
_cell_length_b 8.940684
_cell_length_c 16.317498
_cell_angle_alpha 90.000000
_cell_angle_beta 92.915968
_cell_angle_gamma 90.000000
_cell_volume 3560.533128
_symmetry_space_group_name_H-M "C 2/M"
_symmetry_group_IT_number 12
_symmetry_cell_setting 'monoclinic'
loop_
_space_group_symop_operation_xyz
x,y,z
-x,y,-z
-x,-y,-z
x,-y,z
1/2+x,1/2+y,z
1/2-x,1/2+y,-z
1/2-x,1/2-y,-z
1/2+x,1/2-y,z
loop_
_atom_site_type_symbol
_atom_site_label
_atom_site_fract_x
_atom_site_fract_y
_atom_site_fract_z
Si Si1 0.789804 0.325695 0.750467
Si Si2 0.056129 0.324739 0.967501
Si Si3 0.388530 0.172179 0.867845
Si Si4 0.306038 0.824162 0.475583
Si Si5 0.681365 0.824853 0.712528
Si Si6 0.569502 0.822581 0.786231
Si Si7 0.361870 0.324434 0.620322
Si Si8 0.960596 0.174504 0.741290
O O1 0.787830 0.500000 0.728051
O O2 0.826525 0.295499 0.834293
O O3 0.729438 0.263231 0.763419
O O4 0.814586 0.237257 0.675795
O O5 0.047956 0.500000 0.954622
O O6 0.069731 0.257202 0.879275
O O7 0.105567 0.289933 0.035081
O O8 0.000000 0.255702 0.000000
O O9 0.431869 0.271025 0.822022
O O10 0.404616 0.000000 0.852226
O O11 0.250000 0.750000 0.500000
O O12 0.318394 0.783665 0.382953
O O13 0.356150 0.756439 0.532373
O O14 0.302187 0.000000 0.489670
O O15 0.624560 0.767678 0.746302
O O16 0.690159 0.000000 0.728252
O O17 0.518164 0.756780 0.732357
O O18 0.565238 0.000000 0.783541
O O19 0.351891 0.500000 0.609648
O O20 0.421814 0.287897 0.660833
O O21 0.971322 0.000000 0.749973
#
# Coordination Sequence:
#
# PCOD8086952 Si02
#       8
#     8   8   8   8   8   8   8   8
#     4  10  19  31  52  78 105 138 174 215 263 308
#     4   9  15  28  54  81 102 130 176 222 253 295
#     4   9  17  31  52  79 105 134 176 219 255 306
#     4  11  21  34  54  80 106 135 176 220 264 307
#     4  10  22  37  53  75 107 141 173 212 261 317
#     4  10  20  36  56  76 103 143 179 210 256 314
#     4  10  20  34  53  78 107 136 172 217 264 312
#     4  10  20  33  51  78 109 138 168 215 269 311
#
# _framework density 17.974834999999999
#
# number of rings (size 3 to 8) (size 9 to 14) (size 15 to 20)
#    0.000    2.125    2.500    1.500    0.000    3.000 
#    0.000    2.500    0.000    3.750    0.000    0.000 
#    0.000    0.000    0.000    0.000    0.000    0.000 
#
# Total GULP energy -396803.772239 kJ/mol
# GULP energy per Si atom -12400.117882 kJ/mol
# Density = 1.793392 g / cm^3
# Si number density = 17.974835 Si / 1000 Ang^3
#
#
#
# Elastic Constant Matrix: (Units=GPa)
#
#
# Indices 1 2 3 4 5 6 
#
# 1 149.0701 48.2846 73.4215 0.0000 7.5965 0.0000
# 2 48.2846 53.8444 38.3068 0.0000 4.8691 0.0000
# 3 73.4215 38.3068 115.9687 0.0000 8.9587 0.0000
# 4 0.0000 0.0000 0.0000 17.7761 0.0000 5.8437
# 5 7.5965 4.8691 8.9587 0.0000 29.8085 0.0000
# 6 0.0000 0.0000 0.0000 5.8437 0.0000 29.1928
#
#
#
# Elastic Compliance Matrix: (Units=1/GPa)
#
#
# Indices 1 2 3 4 5 6 
#
# 1 0.011294 -0.006575 -0.004954 0.000000 -0.000315 0.000000
# 2 -0.006575 0.028179 -0.005036 0.000000 -0.001414 0.000000
# 3 -0.004954 -0.005036 0.013577 0.000000 -0.001995 0.000000
# 4 0.000000 0.000000 0.000000 0.060218 0.000000 -0.012054
# 5 -0.000315 -0.001414 -0.001995 0.000000 0.034458 0.000000
# 6 0.000000 0.000000 0.000000 -0.012054 0.000000 0.036668
#
#
# Mechanical properties :
#
#
# Convention : Reuss Voigt Hill
#
# Bulk Modulus (GPa) = 50.20188 70.98990 60.59589
# Shear Modulus (GPa) = 22.30503 25.94684 24.12594
#
# Velocity S-wave (km/s) = 3.52647 3.80348 3.66759
# Velocity P-wave (km/s) = 6.67614 7.67257 7.19164
#
# Compressibility (1/GPa) = 0.01991957
#
# Stress axis : x y z
#
# Youngs Moduli (GPa) = 88.54227 35.48792 73.65191
#
# Poissons Ratio (x) = 0.23332 0.36489
# Poissons Ratio (y) = 0.58214 0.37093
# Poissons Ratio (z) = 0.43867 0.17873
#
# Static dielectric constant tensor:
#      x y z
#    x 3.333400 0.000000 0.246870 
#    y 0.000000 3.227930 0.000000 
#    z 0.246870 0.000000 3.525430 
# 
# 
# High freq. dielectric constant tensor:
#      x y z
#    x 1.684190 0.000000 0.025620 
#    y 0.000000 1.687540 0.000000 
#    z 0.025620 0.000000 1.693730 
# 
# From -- ./inp_files/287782.got.cif
#   From: 2010.06.25/outbox.cif.g09.slc.cpg/sg12_144_cif.got.tgz:287782.got - 2010.06.28 00:19:55.
