data_PCOD8086594
_publ_section_title
;
Structure prediction by ZEFSAII (Michael W. Deem and Ramdas Pophale) SiO2 
 PCOD8086594
Probable space group: C 2/M
;
_chemical_formula_sum "Si O2"
_cell_formula_units_Z 56
_cell_length_a 19.842661
_cell_length_b 8.766414
_cell_length_c 23.307859
_cell_angle_alpha 90.000000
_cell_angle_beta 50.153547
_cell_angle_gamma 90.000000
_cell_volume 3112.806927
_symmetry_space_group_name_H-M "C 2/M"
_symmetry_group_IT_number 12
_symmetry_cell_setting 'monoclinic'
loop_
_space_group_symop_operation_xyz
x,y,z
-x,y,-z
-x,-y,-z
x,-y,z
1/2+x,1/2+y,z
1/2-x,1/2+y,-z
1/2-x,1/2-y,-z
1/2+x,1/2-y,z
loop_
_atom_site_type_symbol
_atom_site_label
_atom_site_fract_x
_atom_site_fract_y
_atom_site_fract_z
Si Si1 0.556189 0.178844 0.655995
Si Si2 0.636394 0.179847 0.223504
Si Si3 0.290808 0.819500 0.344072
Si Si4 0.290430 0.680825 0.219955
Si Si5 0.263384 0.319400 0.054622
Si Si6 0.897652 0.676846 0.064091
Si Si7 0.182894 0.678324 0.492600
O O1 0.460399 0.255261 0.717781
O O2 0.626556 0.243303 0.663695
O O3 0.586963 0.209980 0.573123
O O4 0.549752 0.000000 0.670753
O O5 0.699250 0.236560 0.240702
O O6 0.678951 0.225129 0.139352
O O7 0.627898 0.000000 0.233066
O O8 0.300968 0.758803 0.275036
O O9 0.199449 0.756973 0.421830
O O10 0.286735 0.000000 0.346056
O O11 0.294035 0.500000 0.224643
O O12 0.370388 0.734580 0.136494
O O13 0.275466 0.500000 0.044510
O O14 0.350341 0.247472 0.034505
O O15 0.250000 0.250000 0.000000
O O16 0.872205 0.500000 0.083861
O O17 0.000000 0.700870 0.000000
O O18 0.200406 0.500000 0.476624
O O19 0.250000 0.750000 0.500000
#
# Coordination Sequence:
#
# PCOD8086594 Si02
#       7
#     8   8   8   8   8   8   8
#     4   8  15  29  50  73  94 123 166 208 245 291
#     4   8  16  32  51  71  96 127 164 204 247 296
#     4  10  19  31  50  74 101 133 167 205 247 298
#     4  10  20  34  53  75 101 132 164 206 256 302
#     4  10  20  34  54  78 105 136 170 212 259 308
#     4  10  21  37  56  76 101 136 174 211 255 308
#     4   9  16  28  48  72  98 128 163 207 254 297
#
# _framework density 17.990193000000001
#
# number of rings (size 3 to 8) (size 9 to 14) (size 15 to 20)
#    0.000    2.714    0.000    3.857    0.000    2.286 
#    0.000    3.571    0.000   34.286    0.000    0.000 
#    0.000    0.000    0.000    0.000    0.000    0.000 
#
# Total GULP energy -347041.278830 kJ/mol
# GULP energy per Si atom -12394.331387 kJ/mol
# Density = 1.794925 g / cm^3
# Si number density = 17.990193 Si / 1000 Ang^3
#
#
#
# Elastic Constant Matrix: (Units=GPa)
#
#
# Indices 1 2 3 4 5 6 
#
# 1 89.8606 33.8532 74.3058 -0.0001 -0.1197 0.0002
# 2 33.8532 67.9658 35.8094 -0.0002 -3.5940 0.0008
# 3 74.3058 35.8094 116.9292 -0.0001 -2.8171 0.0001
# 4 -0.0001 -0.0002 -0.0001 32.6289 0.0000 6.9317
# 5 -0.1197 -3.5940 -2.8171 0.0000 32.6405 0.0001
# 6 0.0002 0.0008 0.0001 6.9317 0.0001 24.1790
#
#
#
# Elastic Compliance Matrix: (Units=1/GPa)
#
#
# Indices 1 2 3 4 5 6 
#
# 1 0.024795 -0.004908 -0.014294 0.000000 -0.001683 0.000000
# 2 -0.004908 0.018586 -0.002530 0.000000 0.001810 -0.000001
# 3 -0.014294 -0.002530 0.018441 0.000000 0.001261 0.000000
# 4 0.000000 0.000000 0.000000 0.032635 0.000000 -0.009356
# 5 -0.001683 0.001810 0.001261 0.000000 0.030939 0.000000
# 6 0.000000 -0.000001 0.000000 -0.009356 0.000000 0.044040
#
#
# Mechanical properties :
#
#
# Convention : Reuss Voigt Hill
#
# Bulk Modulus (GPa) = 54.46956 62.52138 58.49547
# Shear Modulus (GPa) = 22.82907 26.60882 24.71895
#
# Velocity S-wave (km/s) = 3.56613 3.85004 3.71080
# Velocity P-wave (km/s) = 6.87746 7.38866 7.13764
#
# Compressibility (1/GPa) = 0.01835888
#
# Stress axis : x y z
#
# Youngs Moduli (GPa) = 40.33103 53.80284 54.22774
#
# Poissons Ratio (x) = 0.26406 0.77513
# Poissons Ratio (y) = 0.19794 0.13717
# Poissons Ratio (z) = 0.57649 0.13610
#
# Static dielectric constant tensor:
#      x y z
#    x 3.392970 0.000000 -0.158050 
#    y 0.000000 3.307390 0.000000 
#    z -0.158050 0.000000 3.772280 
# 
# 
# High freq. dielectric constant tensor:
#      x y z
#    x 1.676790 0.000000 0.000560 
#    y 0.000000 1.687370 0.000000 
#    z 0.000560 0.000000 1.711040 
# 
# From -- ./inp_files/342034.got.cif
#   From: 2010.06.25/outbox.cif.g09.slc.cpg/sg12_172_cif.got.tgz:342034.got - 2010.06.28 00:19:55.
