data_PCOD8086245
_publ_section_title
;
Structure prediction by ZEFSAII (Michael W. Deem and Ramdas Pophale) SiO2 
 PCOD8086245
Probable space group: C 2/M
;
_chemical_formula_sum "Si O2"
_cell_formula_units_Z 64
_cell_length_a 28.380086
_cell_length_b 8.582579
_cell_length_c 15.598295
_cell_angle_alpha 90.000000
_cell_angle_beta 88.633737
_cell_angle_gamma 90.000000
_cell_volume 3798.264112
_symmetry_space_group_name_H-M "C 2/M"
_symmetry_group_IT_number 12
_symmetry_cell_setting 'monoclinic'
loop_
_space_group_symop_operation_xyz
x,y,z
-x,y,-z
-x,-y,-z
x,-y,z
1/2+x,1/2+y,z
1/2-x,1/2+y,-z
1/2-x,1/2-y,-z
1/2+x,1/2-y,z
loop_
_atom_site_type_symbol
_atom_site_label
_atom_site_fract_x
_atom_site_fract_y
_atom_site_fract_z
Si Si1 0.450930 0.182222 0.910642
Si Si2 0.208049 0.316263 0.691165
Si Si3 0.301396 0.183511 0.983844
Si Si4 0.637370 0.681890 0.168175
Si Si5 0.142414 0.682617 0.847961
Si Si6 0.199239 0.680590 0.506398
Si Si7 0.688162 0.816853 0.323169
Si Si8 0.048651 0.818079 0.904040
O O1 0.411507 0.227207 0.843515
O O2 0.502299 0.227931 0.872435
O O3 0.448665 0.000000 0.930930
O O4 0.440113 0.273314 0.998642
O O5 0.218916 0.500000 0.699380
O O6 0.174953 0.257192 0.769120
O O7 0.179524 0.279560 0.602616
O O8 0.257124 0.224922 0.694534
O O9 0.322899 0.264053 0.899768
O O10 0.299129 0.000000 0.968648
O O11 0.250000 0.250000 0.000000
O O12 0.332839 0.226491 0.064203
O O13 0.628187 0.500000 0.157897
O O14 0.654837 0.718891 0.262637
O O15 0.132873 0.500000 0.840954
O O16 0.092680 0.770843 0.843138
O O17 0.206259 0.500000 0.495734
O O18 0.250000 0.750000 0.500000
O O19 0.171442 0.733544 0.421275
O O20 0.681274 0.000000 0.305755
O O21 0.038816 0.000000 0.897548
#
# Coordination Sequence:
#
# PCOD8086245 Si02
#       8
#     8   8   8   8   8   8   8   8
#     4  11  21  36  55  73  96 125 161 206 253 296
#     4   9  17  31  50  73 101 133 169 206 246 292
#     4  11  22  34  48  68 100 137 171 202 239 287
#     4  12  23  35  50  71  98 131 170 208 247 293
#     4  10  20  33  49  70  98 133 168 202 243 290
#     4   8  15  28  47  70  97 128 163 206 249 292
#     4  10  19  31  48  72 101 133 169 207 251 297
#     4  11  21  34  53  75  98 126 162 203 247 294
#
# _framework density 16.849802
#
# number of rings (size 3 to 8) (size 9 to 14) (size 15 to 20)
#    0.000    1.750    1.250    5.625    0.000    2.500 
#    0.000    0.000    0.000    0.000    0.000    0.875 
#    0.000    7.000    0.000    0.000    0.000    0.000 
#
# Total GULP energy -396666.952822 kJ/mol
# GULP energy per Si atom -12395.842276 kJ/mol
# Density = 1.681145 g / cm^3
# Si number density = 16.849802 Si / 1000 Ang^3
#
#
#
# Elastic Constant Matrix: (Units=GPa)
#
#
# Indices 1 2 3 4 5 6 
#
# 1 85.5774 17.1560 20.4851 0.0000 9.6681 0.0000
# 2 17.1560 52.6781 11.2446 0.0000 3.8499 0.0000
# 3 20.4851 11.2446 68.7747 0.0000 20.2927 0.0000
# 4 0.0000 0.0000 0.0000 17.0666 0.0000 0.0657
# 5 9.6681 3.8499 20.2927 0.0000 16.5236 0.0000
# 6 0.0000 0.0000 0.0000 0.0657 0.0000 28.2961
#
#
#
# Elastic Compliance Matrix: (Units=1/GPa)
#
#
# Indices 1 2 3 4 5 6 
#
# 1 0.013409 -0.003595 -0.002099 0.000000 -0.004430 0.000000
# 2 -0.003595 0.020644 -0.002362 0.000000 0.000194 0.000000
# 3 -0.002099 -0.002362 0.023566 0.000000 -0.027164 0.000000
# 4 0.000000 0.000000 0.000000 0.058595 0.000000 -0.000136
# 5 -0.004430 0.000194 -0.027164 0.000000 0.096426 0.000000
# 6 0.000000 0.000000 0.000000 -0.000136 0.000000 0.035341
#
#
# Mechanical properties :
#
#
# Convention : Reuss Voigt Hill
#
# Bulk Modulus (GPa) = 24.09182 33.86683 28.97933
# Shear Modulus (GPa) = 17.99023 22.92023 20.45523
#
# Velocity S-wave (km/s) = 3.27109 3.69218 3.48799
# Velocity P-wave (km/s) = 5.34749 6.19025 5.78424
#
# Compressibility (1/GPa) = 0.04150787
#
# Stress axis : x y z
#
# Youngs Moduli (GPa) = 74.57671 48.44016 42.43320
#
# Poissons Ratio (x) = 0.17415 0.08907
# Poissons Ratio (y) = 0.26812 0.10021
# Poissons Ratio (z) = 0.15653 0.11440
#
# Static dielectric constant tensor:
#      x y z
#    x 3.107610 0.000000 0.073990 
#    y 0.000000 3.258210 0.000000 
#    z 0.073990 0.000000 3.582250 
# 
# 
# High freq. dielectric constant tensor:
#      x y z
#    x 1.629130 0.000000 0.007140 
#    y 0.000000 1.661070 0.000000 
#    z 0.007140 0.000000 1.641860 
# 
# From -- ./inp_files/248277.got.cif
#   From: 2010.06.25/outbox.cif.g09.slc.cpg/sg12_125_cif.got.tgz:248277.got - 2010.06.28 00:19:55.
