data_PCOD8086315
_publ_section_title
;
Structure prediction by ZEFSAII (Michael W. Deem and Ramdas Pophale) SiO2 
 PCOD8086315
Probable space group: C 2/M
;
_chemical_formula_sum "Si O2"
_cell_formula_units_Z 64
_cell_length_a 17.415336
_cell_length_b 13.552205
_cell_length_c 19.776232
_cell_angle_alpha 90.000000
_cell_angle_beta 53.828115
_cell_angle_gamma 90.000000
_cell_volume 3767.848531
_symmetry_space_group_name_H-M "C 2/M"
_symmetry_group_IT_number 12
_symmetry_cell_setting 'monoclinic'
loop_
_space_group_symop_operation_xyz
x,y,z
-x,y,-z
-x,-y,-z
x,-y,z
1/2+x,1/2+y,z
1/2-x,1/2+y,-z
1/2-x,1/2-y,-z
1/2+x,1/2-y,z
loop_
_atom_site_type_symbol
_atom_site_label
_atom_site_fract_x
_atom_site_fract_y
_atom_site_fract_z
Si Si1 0.620257 0.220754 0.127986
Si Si2 0.275579 0.389127 0.444269
Si Si3 0.117670 0.695162 0.617777
Si Si4 0.771451 0.389021 0.040713
Si Si5 0.749086 0.111885 0.305396
Si Si6 0.412307 0.110972 0.085168
Si Si7 0.596023 0.230607 0.778619
Si Si8 0.411433 0.117568 0.716479
O O1 0.681070 0.319180 0.089472
O O2 0.514090 0.258892 0.170543
O O3 0.632073 0.166741 0.193700
O O4 0.651275 0.142531 0.055271
O O5 0.317363 0.500000 0.429724
O O6 0.194801 0.373828 0.542078
O O7 0.361611 0.311002 0.409474
O O8 0.225994 0.374691 0.396818
O O9 0.128267 0.677103 0.692607
O O10 0.013390 0.665474 0.645994
O O11 0.737714 0.500000 0.041583
O O12 0.817973 0.383831 0.089948
O O13 0.842968 0.172429 0.237235
O O14 0.657354 0.145422 0.310073
O O15 0.774375 0.000000 0.273847
O O16 0.386331 0.157354 0.169660
O O17 0.444945 0.000000 0.083981
O O18 0.500000 0.164267 0.000000
O O19 0.421905 0.000000 0.721183
#
# Coordination Sequence:
#
# PCOD8086315 Si02
#       8
#     8   8   8   8   8   8   8   8
#     4  10  20  32  50  71  95 126 161 202 249 289
#     4   9  17  33  52  75 104 131 162 200 242 291
#     4   9  19  31  50  79 101 129 166 199 244 289
#     4  10  20  34  49  69  95 126 162 203 246 293
#     4   9  19  33  51  72  99 132 161 196 245 292
#     4  10  19  31  49  70  93 124 160 199 243 285
#     4  10  19  33  51  72  98 127 162 204 241 289
#     4  10  19  32  50  74  99 126 161 203 242 284
#
# _framework density 16.985821000000001
#
# number of rings (size 3 to 8) (size 9 to 14) (size 15 to 20)
#    0.000    2.375    1.250    1.500    0.000    3.500 
#    0.000    3.750    0.000    1.125    0.000    7.875 
#    0.000    0.000    0.000    0.000    0.000    0.000 
#
# Total GULP energy -396762.142565 kJ/mol
# GULP energy per Si atom -12398.816955 kJ/mol
# Density = 1.694716 g / cm^3
# Si number density = 16.985821 Si / 1000 Ang^3
#
#
#
# Elastic Constant Matrix: (Units=GPa)
#
#
# Indices 1 2 3 4 5 6 
#
# 1 98.7985 54.5557 46.5424 0.0000 -1.6063 0.0000
# 2 54.5557 102.1855 51.9449 0.0000 -1.1498 0.0000
# 3 46.5424 51.9449 115.8844 0.0000 -1.2300 0.0000
# 4 0.0000 0.0000 0.0000 23.5337 0.0000 0.6388
# 5 -1.6063 -1.1498 -1.2300 0.0000 19.6743 0.0000
# 6 0.0000 0.0000 0.0000 0.6388 0.0000 25.8135
#
#
#
# Elastic Compliance Matrix: (Units=1/GPa)
#
#
# Indices 1 2 3 4 5 6 
#
# 1 0.015225 -0.006497 -0.003196 0.000000 0.000664 0.000000
# 2 -0.006497 0.015449 -0.004315 0.000000 0.000103 0.000000
# 3 -0.003196 -0.004315 0.011849 0.000000 0.000228 0.000000
# 4 0.000000 0.000000 0.000000 0.042521 0.000000 -0.001052
# 5 0.000664 0.000103 0.000228 0.000000 0.050902 0.000000
# 6 0.000000 0.000000 0.000000 -0.001052 0.000000 0.038766
#
#
# Mechanical properties :
#
#
# Convention : Reuss Voigt Hill
#
# Bulk Modulus (GPa) = 68.92051 69.21716 69.06884
# Shear Modulus (GPa) = 24.08914 24.72601 24.40757
#
# Velocity S-wave (km/s) = 3.76997 3.81948 3.79481
# Velocity P-wave (km/s) = 7.72099 7.76464 7.74285
#
# Compressibility (1/GPa) = 0.01450947
#
# Stress axis : x y z
#
# Youngs Moduli (GPa) = 65.68047 64.72887 84.39344
#
# Poissons Ratio (x) = 0.42052 0.26970
# Poissons Ratio (y) = 0.42670 0.36413
# Poissons Ratio (z) = 0.20990 0.27929
#
# Static dielectric constant tensor:
#      x y z
#    x 3.139980 0.000000 0.080460 
#    y 0.000000 3.209300 0.000000 
#    z 0.080460 0.000000 3.279620 
# 
# 
# High freq. dielectric constant tensor:
#      x y z
#    x 1.648850 0.000000 0.006200 
#    y 0.000000 1.653030 0.000000 
#    z 0.006200 0.000000 1.663200 
# 
# From -- ./inp_files/270270.got.cif
#   From: 2010.06.25/outbox.cif.g09.slc.cpg/sg12_136_cif.got.tgz:270270.got - 2010.06.28 00:19:55.
