data_PCOD8086446
_publ_section_title
;
Structure prediction by ZEFSAII (Michael W. Deem and Ramdas Pophale) SiO2 
 PCOD8086446
Probable space group: C 2/M
;
_chemical_formula_sum "Si O2"
_cell_formula_units_Z 52
_cell_length_a 11.899071
_cell_length_b 22.178944
_cell_length_c 16.483912
_cell_angle_alpha 90.000000
_cell_angle_beta 41.882019
_cell_angle_gamma 90.000000
_cell_volume 2904.222222
_symmetry_space_group_name_H-M "C 2/M"
_symmetry_group_IT_number 12
_symmetry_cell_setting 'monoclinic'
loop_
_space_group_symop_operation_xyz
x,y,z
-x,y,-z
-x,-y,-z
x,-y,z
1/2+x,1/2+y,z
1/2-x,1/2+y,-z
1/2-x,1/2-y,-z
1/2+x,1/2-y,z
loop_
_atom_site_type_symbol
_atom_site_label
_atom_site_fract_x
_atom_site_fract_y
_atom_site_fract_z
Si Si1 0.085684 0.066550 0.541349
Si Si2 0.139772 0.567052 0.090580
Si Si3 0.065014 0.755385 0.198972
Si Si4 0.323245 0.645188 0.750249
Si Si5 0.500000 0.095978 0.000000
Si Si6 0.850548 0.357306 0.322618
Si Si7 0.880488 0.824887 0.987613
O O1 0.242351 0.113542 0.453923
O O2 0.000000 0.062194 0.500000
O O3 0.950798 0.088125 0.681596
O O4 0.149261 0.000000 0.533041
O O5 0.191163 0.500000 0.093719
O O6 0.301802 0.610930 0.001347
O O7 0.055129 0.557110 0.047620
O O8 0.998579 0.595258 0.224365
O O9 0.077644 0.797612 0.269997
O O10 0.238245 0.721081 0.091209
O O11 0.923327 0.708301 0.303125
O O12 0.020130 0.794565 0.141945
O O13 0.271800 0.655971 0.686112
O O14 0.158927 0.637739 0.893973
O O15 0.000000 0.836901 0.000000
#
# Coordination Sequence:
#
# PCOD8086446 Si02
#       7
#     8   8   8   8   4   8   8
#     4   9  18  33  50  71 100 131 164 205 256 303
#     4  10  19  31  49  73  99 133 172 209 255 304
#     4  10  19  32  49  74  99 133 171 210 251 304
#     4  10  19  31  50  75 102 132 165 205 257 302
#     4  10  19  32  48  78 106 130 161 210 258 306
#     4   9  19  32  50  72  98 133 169 209 253 299
#     4  10  20  32  49  71 104 139 169 206 258 305
#
# _framework density 17.904965000000001
#
# number of rings (size 3 to 8) (size 9 to 14) (size 15 to 20)
#    0.000    2.308    1.538    1.615    3.231    5.231 
#    0.000    0.000    0.000    0.000    0.000    0.000 
#    0.000   12.308    0.000    0.000    0.000    0.000 
#
# Total GULP energy -322212.673080 kJ/mol
# GULP energy per Si atom -12392.795118 kJ/mol
# Density = 1.786421 g / cm^3
# Si number density = 17.904965 Si / 1000 Ang^3
#
#
#
# Elastic Constant Matrix: (Units=GPa)
#
#
# Indices 1 2 3 4 5 6 
#
# 1 60.5179 47.4260 19.8129 -0.0003 -9.4896 0.0000
# 2 47.4260 152.6482 52.6806 0.0004 -8.6222 -0.0002
# 3 19.8129 52.6806 86.5356 0.0011 -20.1705 -0.0005
# 4 -0.0003 0.0004 0.0011 8.1757 0.0000 0.4995
# 5 -9.4896 -8.6222 -20.1705 0.0000 14.5177 -0.0001
# 6 0.0000 -0.0002 -0.0005 0.4995 -0.0001 18.6026
#
#
#
# Elastic Compliance Matrix: (Units=1/GPa)
#
#
# Indices 1 2 3 4 5 6 
#
# 1 0.023827 -0.007431 0.002470 0.000001 0.014593 0.000000
# 2 -0.007431 0.010706 -0.006605 0.000000 -0.007676 0.000000
# 3 0.002470 -0.006605 0.021406 -0.000003 0.027432 0.000001
# 4 0.000001 0.000000 -0.000003 0.122515 -0.000003 -0.003290
# 5 0.014593 -0.007676 0.027432 -0.000003 0.111975 0.000001
# 6 0.000000 0.000000 0.000001 -0.003290 0.000001 0.053844
#
#
# Mechanical properties :
#
#
# Convention : Reuss Voigt Hill
#
# Bulk Modulus (GPa) = 30.48238 59.94895 45.21567
# Shear Modulus (GPa) = 13.21563 20.24467 16.73015
#
# Velocity S-wave (km/s) = 2.71974 3.36620 3.06009
# Velocity P-wave (km/s) = 5.18885 6.97587 6.14764
#
# Compressibility (1/GPa) = 0.03280584
#
# Stress axis : x y z
#
# Youngs Moduli (GPa) = 41.96908 93.40870 46.71665
#
# Poissons Ratio (x) = 0.69411 -0.11538
# Poissons Ratio (y) = 0.31187 0.30857
# Poissons Ratio (z) = -0.10366 0.61698
#
# Static dielectric constant tensor:
#      x y z
#    x 3.126550 0.000000 -0.116180 
#    y 0.000000 3.481070 0.000000 
#    z -0.116180 0.000000 3.291830 
# 
# 
# High freq. dielectric constant tensor:
#      x y z
#    x 1.659850 0.000000 -0.010700 
#    y 0.000000 1.700950 0.000000 
#    z -0.010700 0.000000 1.677990 
# 
# From -- ./inp_files/207611.got.cif
#   From: 2010.06.25/outbox.cif.g09.slc.cpg/sg12_104_cif.got.tgz:207611.got - 2010.06.28 00:19:55.
