data_PCOD8086838
_publ_section_title
;
Structure prediction by ZEFSAII (Michael W. Deem and Ramdas Pophale) SiO2 
 PCOD8086838
Probable space group: C 2/M
;
_chemical_formula_sum "Si O2"
_cell_formula_units_Z 64
_cell_length_a 28.516944
_cell_length_b 8.998236
_cell_length_c 14.328241
_cell_angle_alpha 90.000000
_cell_angle_beta 86.082606
_cell_angle_gamma 90.000000
_cell_volume 3668.067849
_symmetry_space_group_name_H-M "C 2/M"
_symmetry_group_IT_number 12
_symmetry_cell_setting 'monoclinic'
loop_
_space_group_symop_operation_xyz
x,y,z
-x,y,-z
-x,-y,-z
x,-y,z
1/2+x,1/2+y,z
1/2-x,1/2+y,-z
1/2-x,1/2-y,-z
1/2+x,1/2-y,z
loop_
_atom_site_type_symbol
_atom_site_label
_atom_site_fract_x
_atom_site_fract_y
_atom_site_fract_z
Si Si1 0.550222 0.674779 0.526206
Si Si2 0.525414 0.171311 0.204403
Si Si3 0.673879 0.673813 0.186924
Si Si4 0.865043 0.171567 0.125202
Si Si5 0.605666 0.172019 0.055204
Si Si6 0.064950 0.172971 0.729677
Si Si7 0.094062 0.172394 0.333405
Si Si8 0.759096 0.825258 0.098105
O O1 0.500000 0.741994 0.500000
O O2 0.544555 0.500000 0.538164
O O3 0.565925 0.741272 0.624414
O O4 0.590448 0.711987 0.443820
O O5 0.553870 0.196793 0.104554
O O6 0.475752 0.252550 0.203105
O O7 0.554796 0.233284 0.286935
O O8 0.516037 0.000000 0.224989
O O9 0.683839 0.500000 0.173383
O O10 0.643516 0.727703 0.103399
O O11 0.646118 0.709516 0.287119
O O12 0.723016 0.761389 0.180117
O O13 0.885202 0.202525 0.226276
O O14 0.810423 0.215396 0.129928
O O15 0.872208 0.000000 0.095824
O O16 0.894826 0.274428 0.051085
O O17 0.620785 0.000000 0.060905
O O18 0.053403 0.000000 0.727225
O O19 0.082228 0.000000 0.316758
O O20 0.751778 0.000000 0.087806
O O21 0.750000 0.750000 0.000000
#
# Coordination Sequence:
#
# PCOD8086838 Si02
#       8
#     8   8   8   8   8   8   8   8
#     4   9  15  28  54  80  98 125 169 211 247 290
#     4  10  20  32  47  73 105 136 169 204 247 299
#     4  10  19  31  51  78 104 129 165 210 255 299
#     4  10  22  36  51  73 100 132 171 211 250 299
#     4  10  20  33  50  71 101 139 171 203 246 298
#     4  10  20  35  53  73 100 135 171 208 251 296
#     4   9  17  31  52  77 102 131 167 209 249 295
#     4  11  21  34  53  76 101 131 170 211 256 300
#
# _framework density 17.447879
#
# number of rings (size 3 to 8) (size 9 to 14) (size 15 to 20)
#    0.000    2.125    2.500    1.500    0.000    3.500 
#    0.000    3.750    0.000    0.750    0.000    0.000 
#    0.000    0.000    0.000    0.000    0.000    0.500 
#
# Total GULP energy -396748.818897 kJ/mol
# GULP energy per Si atom -12398.400591 kJ/mol
# Density = 1.740817 g / cm^3
# Si number density = 17.447879 Si / 1000 Ang^3
#
#
#
# Elastic Constant Matrix: (Units=GPa)
#
#
# Indices 1 2 3 4 5 6 
#
# 1 121.7161 45.0420 71.6334 0.0000 -3.2918 0.0000
# 2 45.0420 60.8044 36.8274 0.0000 -2.5978 0.0000
# 3 71.6334 36.8274 121.6169 0.0000 -4.9903 0.0000
# 4 0.0000 0.0000 0.0000 15.5108 0.0000 -6.3688
# 5 -3.2918 -2.5978 -4.9903 0.0000 24.7238 0.0000
# 6 0.0000 0.0000 0.0000 -6.3688 0.0000 25.7433
#
#
#
# Elastic Compliance Matrix: (Units=1/GPa)
#
#
# Indices 1 2 3 4 5 6 
#
# 1 0.014590 -0.006863 -0.006519 0.000000 -0.000094 0.000000
# 2 -0.006863 0.023388 -0.003001 0.000000 0.000938 0.000000
# 3 -0.006519 -0.003001 0.013031 0.000000 0.001447 0.000000
# 4 0.000000 0.000000 0.000000 0.071761 0.000000 0.017753
# 5 -0.000094 0.000938 0.001447 0.000000 0.040825 0.000000
# 6 0.000000 0.000000 0.000000 0.017753 0.000000 0.043237
#
#
# Mechanical properties :
#
#
# Convention : Reuss Voigt Hill
#
# Bulk Modulus (GPa) = 54.82096 67.90477 61.36287
# Shear Modulus (GPa) = 20.35179 23.23789 21.79484
#
# Velocity S-wave (km/s) = 3.41901 3.65341 3.53815
# Velocity P-wave (km/s) = 6.86107 7.53655 7.20673
#
# Compressibility (1/GPa) = 0.01824120
#
# Stress axis : x y z
#
# Youngs Moduli (GPa) = 68.54134 42.75682 76.74294
#
# Poissons Ratio (x) = 0.29345 0.50029
# Poissons Ratio (y) = 0.47042 0.23033
# Poissons Ratio (z) = 0.44683 0.12832
#
# Static dielectric constant tensor:
#      x y z
#    x 3.265990 0.000000 -0.194720 
#    y 0.000000 3.204750 0.000000 
#    z -0.194720 0.000000 3.378580 
# 
# 
# High freq. dielectric constant tensor:
#      x y z
#    x 1.659500 0.000000 -0.017310 
#    y 0.000000 1.668470 0.000000 
#    z -0.017310 0.000000 1.665060 
# 
# From -- ./inp_files/248332.got.cif
#   From: 2010.06.25/outbox.cif.g09.slc.cpg/sg12_125_cif.got.tgz:248332.got - 2010.06.28 00:19:55.
