data_PCOD8086252
_publ_section_title
;
Structure prediction by ZEFSAII (Michael W. Deem and Ramdas Pophale) SiO2 
 PCOD8086252
Probable space group: C 2/M
;
_chemical_formula_sum "Si O2"
_cell_formula_units_Z 64
_cell_length_a 19.448848
_cell_length_b 13.628427
_cell_length_c 11.355432
_cell_angle_alpha 90.000000
_cell_angle_beta 88.207637
_cell_angle_gamma 90.000000
_cell_volume 3008.366471
_symmetry_space_group_name_H-M "C 2/M"
_symmetry_group_IT_number 12
_symmetry_cell_setting 'monoclinic'
loop_
_space_group_symop_operation_xyz
x,y,z
-x,y,-z
-x,-y,-z
x,-y,z
1/2+x,1/2+y,z
1/2-x,1/2+y,-z
1/2-x,1/2-y,-z
1/2+x,1/2-y,z
loop_
_atom_site_type_symbol
_atom_site_label
_atom_site_fract_x
_atom_site_fract_y
_atom_site_fract_z
Si Si1 0.951608 0.293141 0.758240
Si Si2 0.631623 0.606304 0.515211
Si Si3 0.589119 0.888086 0.737455
Si Si4 0.325365 0.885383 0.879276
Si Si5 0.777168 0.383215 0.130993
Si Si6 0.863207 0.109520 0.753421
Si Si7 0.771330 0.611562 0.635690
Si Si8 0.100684 0.312695 0.488265
O O1 0.902449 0.348796 0.851642
O O2 0.930884 0.177885 0.764064
O O3 0.944928 0.336440 0.624586
O O4 0.029833 0.315802 0.792303
O O5 0.595081 0.500000 0.543169
O O6 0.660233 0.604920 0.380864
O O7 0.693230 0.621381 0.602631
O O8 0.582654 0.701057 0.534027
O O9 0.662133 0.849841 0.783153
O O10 0.588204 0.886634 0.595374
O O11 0.574757 0.000000 0.778399
O O12 0.276029 0.857502 0.772604
O O13 0.330472 0.000000 0.899334
O O14 0.293930 0.840264 0.000733
O O15 0.771242 0.500000 0.135282
O O16 0.702035 0.342718 0.174319
O O17 0.882058 0.000000 0.798341
O O18 0.798508 0.500000 0.618116
O O19 0.819462 0.682475 0.555569
#
# Coordination Sequence:
#
# PCOD8086252 Si02
#       8
#     8   8   8   8   8   8   8   8
#     4  10  21  34  51  77 106 141 176 210 263 317
#     4   9  17  30  49  73 102 136 174 215 260 310
#     4  11  22  35  54  80 108 138 174 216 262 316
#     4   9  18  32  49  74 108 140 172 212 261 316
#     4   9  19  35  55  78 105 138 176 220 264 307
#     4   9  18  35  56  78 105 137 177 220 260 306
#     4   9  16  27  47  75 107 141 172 210 262 314
#     4  10  19  31  48  72 104 137 173 214 258 311
#
# _framework density 21.274003
#
# number of rings (size 3 to 8) (size 9 to 14) (size 15 to 20)
#    0.000    2.500    0.000    2.250    0.000    7.000 
#    0.000    2.500    0.000    3.000    0.000    3.500 
#    0.000    0.000    0.000    0.000    0.000    0.000 
#
# Total GULP energy -396598.368391 kJ/mol
# GULP energy per Si atom -12393.699012 kJ/mol
# Density = 2.122558 g / cm^3
# Si number density = 21.274003 Si / 1000 Ang^3
#
#
#
# Elastic Constant Matrix: (Units=GPa)
#
#
# Indices 1 2 3 4 5 6 
#
# 1 74.4886 30.0627 17.2710 0.0000 0.6897 0.0000
# 2 30.0627 68.2901 19.3878 0.0000 1.4893 0.0000
# 3 17.2710 19.3878 78.0675 0.0000 -10.4355 0.0000
# 4 0.0000 0.0000 0.0000 16.4987 0.0000 -2.3566
# 5 0.6897 1.4893 -10.4355 0.0000 7.5932 0.0000
# 6 0.0000 0.0000 0.0000 -2.3566 0.0000 27.7332
#
#
#
# Elastic Compliance Matrix: (Units=1/GPa)
#
#
# Indices 1 2 3 4 5 6 
#
# 1 0.016695 -0.006536 -0.002574 0.000000 -0.003773 0.000000
# 2 -0.006536 0.019010 -0.004525 0.000000 -0.009354 0.000000
# 3 -0.002574 -0.004525 0.017950 0.000000 0.025791 0.000000
# 4 0.000000 0.000000 0.000000 0.061355 0.000000 0.005214
# 5 -0.003773 -0.009354 0.025791 0.000000 0.169319 0.000000
# 6 0.000000 0.000000 0.000000 0.005214 0.000000 0.036501
#
#
# Mechanical properties :
#
#
# Convention : Reuss Voigt Hill
#
# Bulk Modulus (GPa) = 37.90366 39.36546 38.63456
# Shear Modulus (GPa) = 14.00970 20.64002 17.32486
#
# Velocity S-wave (km/s) = 2.56898 3.11818 2.85681
# Velocity P-wave (km/s) = 5.16286 5.61322 5.39274
#
# Compressibility (1/GPa) = 0.02638268
#
# Stress axis : x y z
#
# Youngs Moduli (GPa) = 59.89951 52.60522 55.70923
#
# Poissons Ratio (x) = 0.34384 0.14342
# Poissons Ratio (y) = 0.39151 0.25210
# Poissons Ratio (z) = 0.15421 0.23805
#
# Static dielectric constant tensor:
#      x y z
#    x 3.486040 0.000000 -0.062090 
#    y 0.000000 4.039710 0.000000 
#    z -0.062090 0.000000 3.848220 
# 
# 
# High freq. dielectric constant tensor:
#      x y z
#    x 1.804970 0.000000 -0.003930 
#    y 0.000000 1.839940 0.000000 
#    z -0.003930 0.000000 1.818790 
# 
# From -- ./inp_files/156611.got.cif
#   From: 2010.06.25/outbox.cif.g09.slc.cpg/sg12_79_cif.got.tgz:156611.got - 2010.06.28 00:19:55.
