data_PCOD8086467
_publ_section_title
;
Structure prediction by ZEFSAII (Michael W. Deem and Ramdas Pophale) SiO2 
 PCOD8086467
Probable space group: C 2/M
;
_chemical_formula_sum "Si O2"
_cell_formula_units_Z 64
_cell_length_a 31.205241
_cell_length_b 8.927822
_cell_length_c 14.314374
_cell_angle_alpha 90.000000
_cell_angle_beta 62.659185
_cell_angle_gamma 90.000000
_cell_volume 3542.422328
_symmetry_space_group_name_H-M "C 2/M"
_symmetry_group_IT_number 12
_symmetry_cell_setting 'monoclinic'
loop_
_space_group_symop_operation_xyz
x,y,z
-x,y,-z
-x,-y,-z
x,-y,z
1/2+x,1/2+y,z
1/2-x,1/2+y,-z
1/2-x,1/2-y,-z
1/2+x,1/2-y,z
loop_
_atom_site_type_symbol
_atom_site_label
_atom_site_fract_x
_atom_site_fract_y
_atom_site_fract_z
Si Si1 0.467835 0.671573 0.672686
Si Si2 0.427494 0.174799 0.215720
Si Si3 0.065645 0.671829 0.579669
Si Si4 0.194686 0.825700 0.149342
Si Si5 0.526530 0.328719 0.116148
Si Si6 0.617941 0.827627 0.344700
Si Si7 0.193669 0.325150 0.958387
Si Si8 0.618453 0.676441 0.904486
O O1 0.461029 0.500000 0.647892
O O2 0.521527 0.723556 0.591749
O O3 0.458904 0.690964 0.791310
O O4 0.429921 0.776628 0.660100
O O5 0.416431 0.215287 0.334715
O O6 0.481207 0.226901 0.134281
O O7 0.388024 0.262437 0.193964
O O8 0.422715 0.000000 0.200130
O O9 0.047462 0.500000 0.596639
O O10 0.109827 0.695865 0.463841
O O11 0.164078 0.768373 0.267954
O O12 0.250197 0.790145 0.114786
O O13 0.185003 0.000000 0.143972
O O14 0.176610 0.743825 0.073801
O O15 0.512463 0.500000 0.107464
O O16 0.571854 0.274803 0.010580
O O17 0.627870 0.000000 0.310651
O O18 0.182538 0.500000 0.971980
O O19 0.165722 0.250255 0.901110
O O20 0.625967 0.500000 0.895505
#
# Coordination Sequence:
#
# PCOD8086467 Si02
#       8
#     8   8   8   8   8   8   8   8
#     4  10  19  31  49  74 104 137 172 211 256 306
#     4  10  20  34  51  71  99 135 175 216 254 296
#     4   9  20  36  50  69 101 139 176 216 259 301
#     4  10  21  37  56  80 108 133 162 205 253 301
#     4   9  19  33  47  69 103 137 167 203 250 301
#     4  11  21  33  52  75 101 136 175 212 255 308
#     4  10  21  37  57  80 106 135 165 200 248 306
#     4  11  21  33  52  76 104 136 170 210 253 300
#
# _framework density 18.066732999999999
#
# number of rings (size 3 to 8) (size 9 to 14) (size 15 to 20)
#    0.000    2.000    0.000    3.750    0.000    8.500 
#    0.000    0.000    0.000    0.750    0.000    0.000 
#    0.000    0.000    0.000    0.000    0.000    0.000 
#
# Total GULP energy -396952.015743 kJ/mol
# GULP energy per Si atom -12404.750492 kJ/mol
# Density = 1.802561 g / cm^3
# Si number density = 18.066733 Si / 1000 Ang^3
#
#
#
# Elastic Constant Matrix: (Units=GPa)
#
#
# Indices 1 2 3 4 5 6 
#
# 1 100.5934 51.3337 47.2342 0.0000 11.6431 0.0000
# 2 51.3337 82.9748 39.8105 0.0000 1.9817 0.0000
# 3 47.2342 39.8105 94.5140 0.0000 -4.6259 0.0000
# 4 0.0000 0.0000 0.0000 28.4804 0.0000 -0.5040
# 5 11.6431 1.9817 -4.6259 0.0000 16.4918 0.0000
# 6 0.0000 0.0000 0.0000 -0.5040 0.0000 33.4644
#
#
#
# Elastic Compliance Matrix: (Units=1/GPa)
#
#
# Indices 1 2 3 4 5 6 
#
# 1 0.018888 -0.008123 -0.006715 0.000000 -0.014242 0.000000
# 2 -0.008123 0.018818 -0.003748 0.000000 0.002423 0.000000
# 3 -0.006715 -0.003748 0.015988 0.000000 0.009676 0.000000
# 4 0.000000 0.000000 0.000000 0.035121 0.000000 0.000529
# 5 -0.014242 0.002423 0.009676 0.000000 0.073114 0.000000
# 6 0.000000 0.000000 0.000000 0.000529 0.000000 0.029890
#
#
# Mechanical properties :
#
#
# Convention : Reuss Voigt Hill
#
# Bulk Modulus (GPa) = 60.52587 61.64877 61.08732
# Shear Modulus (GPa) = 21.32203 25.00093 23.16148
#
# Velocity S-wave (km/s) = 3.43910 3.72400 3.58438
# Velocity P-wave (km/s) = 7.02452 7.25863 7.14254
#
# Compressibility (1/GPa) = 0.01652186
#
# Stress axis : x y z
#
# Youngs Moduli (GPa) = 52.94405 53.14079 62.54505
#
# Poissons Ratio (x) = 0.43169 0.41997
# Poissons Ratio (y) = 0.43009 0.23442
# Poissons Ratio (z) = 0.35551 0.19917
#
# Static dielectric constant tensor:
#      x y z
#    x 3.189990 0.000000 0.109250 
#    y 0.000000 3.428560 0.000000 
#    z 0.109250 0.000000 3.430470 
# 
# 
# High freq. dielectric constant tensor:
#      x y z
#    x 1.682380 0.000000 0.011230 
#    y 0.000000 1.713210 0.000000 
#    z 0.011230 0.000000 1.695390 
# 
# From -- ./inp_files/249010.got.cif
#   From: 2010.06.25/outbox.cif.g09.slc.cpg/sg12_125_cif.got.tgz:249010.got - 2010.06.28 00:19:55.
