data_PCOD8086025
_publ_section_title
;
Structure prediction by ZEFSAII (Michael W. Deem and Ramdas Pophale) SiO2 
 PCOD8086025
Probable space group: C 2/M
;
_chemical_formula_sum "Si O2"
_cell_formula_units_Z 48
_cell_length_a 22.963151
_cell_length_b 9.337980
_cell_length_c 13.936507
_cell_angle_alpha 90.000000
_cell_angle_beta 103.845794
_cell_angle_gamma 90.000000
_cell_volume 2901.564551
_symmetry_space_group_name_H-M "C 2/M"
_symmetry_group_IT_number 12
_symmetry_cell_setting 'monoclinic'
loop_
_space_group_symop_operation_xyz
x,y,z
-x,y,-z
-x,-y,-z
x,-y,z
1/2+x,1/2+y,z
1/2-x,1/2+y,-z
1/2-x,1/2-y,-z
1/2+x,1/2-y,z
loop_
_atom_site_type_symbol
_atom_site_label
_atom_site_fract_x
_atom_site_fract_y
_atom_site_fract_z
Si Si1 0.948935 0.169432 0.848915
Si Si2 0.796884 0.168837 0.083760
Si Si3 0.695946 0.165547 0.525655
Si Si4 0.729220 0.667053 0.708571
Si Si5 0.139349 0.662575 0.311263
Si Si6 0.078733 0.169429 0.951116
O O1 0.914214 0.239428 0.747005
O O2 0.018232 0.222142 0.874022
O O3 0.944191 0.000000 0.835514
O O4 0.919735 0.222145 0.937853
O O5 0.785071 0.209797 0.188691
O O6 0.863086 0.225662 0.082189
O O7 0.790208 0.000000 0.063193
O O8 0.750000 0.250000 0.000000
O O9 0.750000 0.250000 0.500000
O O10 0.683454 0.241760 0.623086
O O11 0.641148 0.177649 0.428248
O O12 0.713324 0.000000 0.548830
O O13 0.718053 0.500000 0.683850
O O14 0.797657 0.710217 0.711764
O O15 0.125701 0.500000 0.275985
O O16 0.077052 0.000000 0.951941
#
# Coordination Sequence:
#
# PCOD8086025 Si02
#       6
#     8   8   8   8   8   8
#     4   9  16  28  47  66  85 115 152 183 214 260
#     4  10  19  31  47  67  93 121 148 182 223 267
#     4   9  17  29  45  65  91 119 147 183 225 266
#     4   9  18  30  44  65  93 121 148 182 223 266
#     4   9  17  28  42  65  92 112 138 181 226 261
#     4   8  16  30  45  64  90 117 147 183 219 255
#
# _framework density 16.5428
#
# number of rings (size 3 to 8) (size 9 to 14) (size 15 to 20)
#    0.000    3.000    0.000    3.500    0.000    4.000 
#    0.000    2.500    0.000    1.000    0.000    7.000 
#    0.000    0.000    0.000    0.000    0.000    0.000 
#
# Total GULP energy -297461.079140 kJ/mol
# GULP energy per Si atom -12394.211631 kJ/mol
# Density = 1.650515 g / cm^3
# Si number density = 16.542800 Si / 1000 Ang^3
#
#
#
# Elastic Constant Matrix: (Units=GPa)
#
#
# Indices 1 2 3 4 5 6 
#
# 1 92.8731 31.5132 65.3819 0.0000 2.1219 0.0000
# 2 31.5132 59.5140 60.7320 0.0000 5.7603 0.0000
# 3 65.3819 60.7320 144.4509 0.0000 5.3974 0.0000
# 4 0.0000 0.0000 0.0000 33.8336 0.0000 5.9348
# 5 2.1219 5.7603 5.3974 0.0000 23.7847 0.0000
# 6 0.0000 0.0000 0.0000 5.9348 0.0000 17.2202
#
#
#
# Elastic Compliance Matrix: (Units=1/GPa)
#
#
# Indices 1 2 3 4 5 6 
#
# 1 0.015929 -0.001938 -0.006414 0.000000 0.000504 0.000000
# 2 -0.001938 0.030119 -0.011618 0.000000 -0.004485 0.000000
# 3 -0.006414 -0.011618 0.014709 0.000000 0.000048 0.000000
# 4 0.000000 0.000000 0.000000 0.031458 0.000000 -0.010842
# 5 0.000504 -0.004485 0.000048 0.000000 0.043074 0.000000
# 6 0.000000 0.000000 0.000000 -0.010842 0.000000 0.061808
#
#
# Mechanical properties :
#
#
# Convention : Reuss Voigt Hill
#
# Bulk Modulus (GPa) = 48.03933 68.01025 58.02479
# Shear Modulus (GPa) = 20.49383 24.24840 22.37112
#
# Velocity S-wave (km/s) = 3.52353 3.83273 3.68138
# Velocity P-wave (km/s) = 6.75693 7.79662 7.29532
#
# Compressibility (1/GPa) = 0.02081628
#
# Stress axis : x y z
#
# Youngs Moduli (GPa) = 62.77978 33.20137 67.98735
#
# Poissons Ratio (x) = 0.06435 0.43604
# Poissons Ratio (y) = 0.12169 0.78989
# Poissons Ratio (z) = 0.40265 0.38574
#
# Static dielectric constant tensor:
#      x y z
#    x 3.172110 0.000000 -0.071600 
#    y 0.000000 3.033920 0.000000 
#    z -0.071600 0.000000 3.451530 
# 
# 
# High freq. dielectric constant tensor:
#      x y z
#    x 1.606240 0.000000 0.004270 
#    y 0.000000 1.624330 0.000000 
#    z 0.004270 0.000000 1.645800 
# 
# From -- ./inp_files/230393.got.cif
#   From: 2010.06.25/outbox.cif.g09.slc.cpg/sg12_116_cif.got.tgz:230393.got - 2010.06.28 00:19:55.
