data_PCOD8086554
_publ_section_title
;
Structure prediction by ZEFSAII (Michael W. Deem and Ramdas Pophale) SiO2 
 PCOD8086554
Probable space group: C 2/M
;
_chemical_formula_sum "Si O2"
_cell_formula_units_Z 64
_cell_length_a 23.388354
_cell_length_b 9.008259
_cell_length_c 21.048765
_cell_angle_alpha 90.000000
_cell_angle_beta 58.191265
_cell_angle_gamma 90.000000
_cell_volume 3768.687946
_symmetry_space_group_name_H-M "C 2/M"
_symmetry_group_IT_number 12
_symmetry_cell_setting 'monoclinic'
loop_
_space_group_symop_operation_xyz
x,y,z
-x,y,-z
-x,-y,-z
x,-y,z
1/2+x,1/2+y,z
1/2-x,1/2+y,-z
1/2-x,1/2-y,-z
1/2+x,1/2-y,z
loop_
_atom_site_type_symbol
_atom_site_label
_atom_site_fract_x
_atom_site_fract_y
_atom_site_fract_z
Si Si1 0.225899 0.164127 0.420778
Si Si2 0.432542 0.176450 0.273787
Si Si3 0.851698 0.336456 0.439208
Si Si4 0.285626 0.674099 0.919274
Si Si5 0.799478 0.174092 0.133027
Si Si6 0.313295 0.325976 0.271950
Si Si7 0.560268 0.673246 0.149156
Si Si8 0.060970 0.823678 0.004946
O O1 0.159078 0.231309 0.493376
O O2 0.283799 0.153677 0.438751
O O3 0.249705 0.266888 0.348889
O O4 0.208346 0.000000 0.405213
O O5 0.409780 0.224707 0.358262
O O6 0.383128 0.248134 0.250435
O O7 0.508300 0.233388 0.221710
O O8 0.427839 0.000000 0.268786
O O9 0.870733 0.500000 0.453423
O O10 0.271504 0.500000 0.932879
O O11 0.259282 0.737869 0.868167
O O12 0.364742 0.708171 0.872084
O O13 0.250000 0.750000 0.000000
O O14 0.796960 0.209992 0.208753
O O15 0.869440 0.235757 0.064216
O O16 0.790728 0.000000 0.124386
O O17 0.322176 0.500000 0.278928
O O18 0.542760 0.500000 0.165429
O O19 0.552537 0.729785 0.081722
O O20 0.060543 0.000000 0.000928
O O21 0.000000 0.755209 0.000000
#
# Coordination Sequence:
#
# PCOD8086554 Si02
#       8
#     8   8   8   8   8   8   8   8
#     4   9  16  26  43  68  99 132 166 204 240 285
#     4  10  20  32  48  73 105 134 164 208 250 292
#     4   8  15  27  42  64  96 133 167 197 238 291
#     4  11  22  37  56  74  96 127 166 215 257 294
#     4  10  20  35  53  73  97 130 171 208 247 295
#     4  10  19  31  50  73 102 138 168 201 247 302
#     4  10  20  34  51  71  96 130 168 203 248 301
#     4   9  16  29  49  70  95 127 162 197 235 289
#
# _framework density 16.982037999999999
#
# number of rings (size 3 to 8) (size 9 to 14) (size 15 to 20)
#    0.000    2.375    1.250    3.000    0.000    7.500 
#    0.000    0.000    0.000    1.500    0.000    0.875 
#    0.000    7.000    0.000    0.000    0.000    0.000 
#
# Total GULP energy -396763.825674 kJ/mol
# GULP energy per Si atom -12398.869552 kJ/mol
# Density = 1.694339 g / cm^3
# Si number density = 16.982038 Si / 1000 Ang^3
#
#
#
# Elastic Constant Matrix: (Units=GPa)
#
#
# Indices 1 2 3 4 5 6 
#
# 1 90.6907 41.7703 52.6944 -0.0005 -10.2976 0.0002
# 2 41.7703 82.3384 57.3190 -0.0006 -7.9543 0.0007
# 3 52.6944 57.3190 134.3412 -0.0005 -18.0097 0.0006
# 4 -0.0005 -0.0006 -0.0005 28.0368 -0.0002 -1.6307
# 5 -10.2976 -7.9543 -18.0097 -0.0002 9.8595 0.0002
# 6 0.0002 0.0007 0.0006 -1.6307 0.0002 23.2796
#
#
#
# Elastic Compliance Matrix: (Units=1/GPa)
#
#
# Indices 1 2 3 4 5 6 
#
# 1 0.016060 -0.005320 -0.003120 0.000000 0.006782 0.000000
# 2 -0.005320 0.019042 -0.006255 0.000000 -0.001619 0.000000
# 3 -0.003120 -0.006255 0.013538 0.000000 0.016424 0.000000
# 4 0.000000 0.000000 0.000000 0.035813 0.000001 0.002509
# 5 0.006782 -0.001619 0.016424 0.000001 0.137203 -0.000002
# 6 0.000000 0.000000 0.000000 0.002509 -0.000002 0.043132
#
#
# Mechanical properties :
#
#
# Convention : Reuss Voigt Hill
#
# Bulk Modulus (GPa) = 51.94936 67.88196 59.91566
# Shear Modulus (GPa) = 16.63374 22.60761 19.62067
#
# Velocity S-wave (km/s) = 3.13308 3.65261 3.40277
# Velocity P-wave (km/s) = 6.61403 7.60581 7.12719
#
# Compressibility (1/GPa) = 0.01924951
#
# Stress axis : x y z
#
# Youngs Moduli (GPa) = 62.26748 52.51679 73.86474
#
# Poissons Ratio (x) = 0.27937 0.23049
# Poissons Ratio (y) = 0.33125 0.46202
# Poissons Ratio (z) = 0.19430 0.32849
#
# Static dielectric constant tensor:
#      x y z
#    x 2.948280 0.000000 -0.063850 
#    y 0.000000 3.212700 0.000000 
#    z -0.063850 0.000000 3.349560 
# 
# 
# High freq. dielectric constant tensor:
#      x y z
#    x 1.616470 0.000000 -0.005670 
#    y 0.000000 1.652580 0.000000 
#    z -0.005670 0.000000 1.663960 
# 
# From -- ./inp_files/319774.got.cif
#   From: 2010.06.25/outbox.cif.g09.slc.cpg/sg12_160_cif.got.tgz:319774.got - 2010.06.28 00:19:55.
