data_PCOD8086009
_publ_section_title
;
Structure prediction by ZEFSAII (Michael W. Deem and Ramdas Pophale) SiO2 
 PCOD8086009
Probable space group: C 2/M
;
_chemical_formula_sum "Si O2"
_cell_formula_units_Z 56
_cell_length_a 18.272777
_cell_length_b 9.081995
_cell_length_c 22.695003
_cell_angle_alpha 90.000000
_cell_angle_beta 126.421350
_cell_angle_gamma 90.000000
_cell_volume 3030.646481
_symmetry_space_group_name_H-M "C 2/M"
_symmetry_group_IT_number 12
_symmetry_cell_setting 'monoclinic'
loop_
_space_group_symop_operation_xyz
x,y,z
-x,y,-z
-x,-y,-z
x,-y,z
1/2+x,1/2+y,z
1/2-x,1/2+y,-z
1/2-x,1/2-y,-z
1/2+x,1/2-y,z
loop_
_atom_site_type_symbol
_atom_site_label
_atom_site_fract_x
_atom_site_fract_y
_atom_site_fract_z
Si Si1 0.300212 0.665711 0.284507
Si Si2 0.905966 0.330315 0.428289
Si Si3 0.479446 0.666651 0.855831
Si Si4 0.237136 0.829203 0.432446
Si Si5 0.693672 0.333729 0.142179
Si Si6 0.627839 0.166734 0.287096
Si Si7 0.913432 0.333568 0.000920
O O1 0.327371 0.500000 0.280294
O O2 0.384260 0.740163 0.358688
O O3 0.278613 0.755064 0.214601
O O4 0.212713 0.667383 0.284071
O O5 0.914561 0.500000 0.413842
O O6 0.829033 0.306911 0.440073
O O7 0.000000 0.270219 0.500000
O O8 0.508261 0.500000 0.854463
O O9 0.392658 0.666904 0.856524
O O10 0.456750 0.752406 0.784650
O O11 0.563246 0.747971 0.927766
O O12 0.250000 0.750000 0.500000
O O13 0.152735 0.754485 0.358271
O O14 0.214361 0.000000 0.431253
O O15 0.721734 0.500000 0.139656
O O16 0.670479 0.247306 0.071101
O O17 0.599789 0.000000 0.289796
O O18 0.884549 0.500000 0.002468
O O19 0.000000 0.333507 0.000000
#
# Coordination Sequence:
#
# PCOD8086009 Si02
#       7
#     8   8   8   8   8   8   8
#     4   9  16  25  38  56  77 102 134 172 212 254
#     4   9  18  32  48  65  86 114 147 181 218 261
#     4   9  15  22  32  47  68  96 131 168 206 249
#     4  10  19  31  47  66  88 114 145 181 220 262
#     4   9  15  22  32  46  67  97 132 168 205 248
#     4   9  16  26  39  55  76 103 136 172 210 253
#     4   9  15  21  29  43  65  94 129 168 207 246
#
# _framework density 18.477905
#
# number of rings (size 3 to 8) (size 9 to 14) (size 15 to 20)
#    0.000    2.857    0.000    2.571    0.000    9.429 
#    0.000    0.000    0.000    0.000    0.000    0.000 
#    0.000    0.000    0.000    1.286    0.000   17.714 
#
# Total GULP energy -347179.326629 kJ/mol
# GULP energy per Si atom -12399.261665 kJ/mol
# Density = 1.843585 g / cm^3
# Si number density = 18.477905 Si / 1000 Ang^3
#
#
#
# Elastic Constant Matrix: (Units=GPa)
#
#
# Indices 1 2 3 4 5 6 
#
# 1 4.2597 14.1714 16.3698 0.0000 1.1743 0.0000
# 2 14.1714 191.1820 119.2302 0.0000 0.8189 0.0000
# 3 16.3698 119.2302 217.0233 0.0000 4.2041 0.0000
# 4 0.0000 0.0000 0.0000 46.6804 0.0000 -1.8746
# 5 1.1743 0.8189 4.2041 0.0000 15.6440 0.0000
# 6 0.0000 0.0000 0.0000 -1.8746 0.0000 8.1178
#
#
#
# Elastic Compliance Matrix: (Units=1/GPa)
#
#
# Indices 1 2 3 4 5 6 
#
# 1 0.362669 -0.015196 -0.018592 0.000000 -0.021432 0.000000
# 2 -0.015196 0.008603 -0.003612 0.000000 0.001661 0.000000
# 3 -0.018592 -0.003612 0.008006 0.000000 -0.000567 0.000000
# 4 0.000000 0.000000 0.000000 0.021623 0.000000 0.004993
# 5 -0.021432 0.001661 -0.000567 0.000000 0.065596 0.000000
# 6 0.000000 0.000000 0.000000 0.004993 0.000000 0.124339
#
#
# Mechanical properties :
#
#
# Convention : Reuss Voigt Hill
#
# Bulk Modulus (GPa) = 3.28432 79.11197 41.19815
# Shear Modulus (GPa) = 6.51782 31.60136 19.05959
#
# Velocity S-wave (km/s) = 1.88016 4.13997 3.21515
# Velocity P-wave (km/s) = 2.54846 8.10924 6.01059
#
# Compressibility (1/GPa) = 0.30447659
#
# Stress axis : x y z
#
# Youngs Moduli (GPa) = 2.75734 116.24357 124.91259
#
# Poissons Ratio (x) = 1.76647 2.32235
# Poissons Ratio (y) = 0.04190 0.45120
# Poissons Ratio (z) = 0.05126 0.41989
#
# Static dielectric constant tensor:
#      x y z
#    x 2.622030 0.000000 0.084680 
#    y 0.000000 3.647520 0.000000 
#    z 0.084680 0.000000 3.691990 
# 
# 
# High freq. dielectric constant tensor:
#      x y z
#    x 1.620390 0.000000 0.001700 
#    y 0.000000 1.735510 0.000000 
#    z 0.001700 0.000000 1.738940 
# 
# From -- ./inp_files/345662.got.cif
#   From: 2010.06.25/outbox.cif.g09.slc.cpg/sg12_173_cif.got.tgz:345662.got - 2010.06.28 00:19:55.
