data_PCOD8086432
_publ_section_title
;
Structure prediction by ZEFSAII (Michael W. Deem and Ramdas Pophale) SiO2 
 PCOD8086432
Probable space group: C 2/M
;
_chemical_formula_sum "Si O2"
_cell_formula_units_Z 48
_cell_length_a 14.221974
_cell_length_b 8.939428
_cell_length_c 22.609148
_cell_angle_alpha 90.000000
_cell_angle_beta 109.368078
_cell_angle_gamma 90.000000
_cell_volume 2711.771962
_symmetry_space_group_name_H-M "C 2/M"
_symmetry_group_IT_number 12
_symmetry_cell_setting 'monoclinic'
loop_
_space_group_symop_operation_xyz
x,y,z
-x,y,-z
-x,-y,-z
x,-y,z
1/2+x,1/2+y,z
1/2-x,1/2+y,-z
1/2-x,1/2-y,-z
1/2+x,1/2-y,z
loop_
_atom_site_type_symbol
_atom_site_label
_atom_site_fract_x
_atom_site_fract_y
_atom_site_fract_z
Si Si1 0.633237 0.322943 0.262489
Si Si2 0.195386 0.175669 0.405029
Si Si3 0.967617 0.176501 0.928346
Si Si4 0.237806 0.175557 0.167414
Si Si5 0.898417 0.676399 0.507490
Si Si6 0.447808 0.178371 0.167041
O O1 0.614144 0.500000 0.255402
O O2 0.676608 0.271107 0.334324
O O3 0.712520 0.272374 0.228999
O O4 0.529199 0.240430 0.229681
O O5 0.114542 0.253077 0.430467
O O6 0.306973 0.224940 0.446243
O O7 0.181428 0.000000 0.408810
O O8 0.852482 0.223595 0.894710
O O9 0.036346 0.261678 0.895781
O O10 0.982315 0.000000 0.921814
O O11 0.000000 0.228425 0.000000
O O12 0.341604 0.244699 0.166814
O O13 0.250690 0.000000 0.168910
O O14 0.903893 0.500000 0.516723
O O15 0.000000 0.738678 0.500000
O O16 0.451863 0.000000 0.167529
#
# Coordination Sequence:
#
# PCOD8086432 Si02
#       6
#     8   8   8   8   8   8
#     4   9  18  34  51  67  94 130 162 190 230 286
#     4   9  18  32  50  71  95 125 159 196 235 275
#     4   9  18  34  53  70  93 128 162 189 229 288
#     4   8  16  31  49  69  95 125 154 189 235 282
#     4   9  18  32  50  72  97 125 157 193 236 286
#     4  10  19  31  49  73  98 123 156 199 239 272
#
# _framework density 17.700603000000001
#
# number of rings (size 3 to 8) (size 9 to 14) (size 15 to 20)
#    0.000    3.000    0.000    1.500    0.000    3.333 
#    0.000   10.000    0.000    0.000    0.000    0.000 
#    0.000    0.000    0.000    0.000    0.000    0.000 
#
# Total GULP energy -297560.222905 kJ/mol
# GULP energy per Si atom -12398.342621 kJ/mol
# Density = 1.766032 g / cm^3
# Si number density = 17.700603 Si / 1000 Ang^3
#
#
#
# Elastic Constant Matrix: (Units=GPa)
#
#
# Indices 1 2 3 4 5 6 
#
# 1 175.9999 34.5724 81.0042 0.0000 -6.3139 0.0000
# 2 34.5724 31.0913 33.7816 0.0000 -2.5000 0.0000
# 3 81.0042 33.7816 168.1056 0.0000 -8.1624 0.0000
# 4 0.0000 0.0000 0.0000 26.7466 0.0000 -2.7894
# 5 -6.3139 -2.5000 -8.1624 0.0000 12.9066 0.0000
# 6 0.0000 0.0000 0.0000 -2.7894 0.0000 25.1647
#
#
#
# Elastic Compliance Matrix: (Units=1/GPa)
#
#
# Indices 1 2 3 4 5 6 
#
# 1 0.008133 -0.006082 -0.002642 0.000000 0.001130 0.000000
# 2 -0.006082 0.045797 -0.006176 0.000000 0.001990 0.000000
# 3 -0.002642 -0.006176 0.008606 0.000000 0.002954 0.000000
# 4 0.000000 0.000000 0.000000 0.037825 0.000000 0.004193
# 5 0.001130 0.001990 0.002954 0.000000 0.080286 0.000000
# 6 0.000000 0.000000 0.000000 0.004193 0.000000 0.040203
#
#
# Mechanical properties :
#
#
# Convention : Reuss Voigt Hill
#
# Bulk Modulus (GPa) = 30.54726 74.87926 52.71326
# Shear Modulus (GPa) = 19.11598 28.01950 23.56774
#
# Velocity S-wave (km/s) = 3.28984 3.98297 3.65288
# Velocity P-wave (km/s) = 5.63258 7.97165 6.90192
#
# Compressibility (1/GPa) = 0.03273616
#
# Stress axis : x y z
#
# Youngs Moduli (GPa) = 122.95475 21.83571 116.19627
#
# Poissons Ratio (x) = 0.13281 0.30698
# Poissons Ratio (y) = 0.74785 0.71758
# Poissons Ratio (z) = 0.32484 0.13485
#
# Static dielectric constant tensor:
#      x y z
#    x 3.531760 0.000000 -0.009700 
#    y 0.000000 3.042770 0.000000 
#    z -0.009700 0.000000 3.409710 
# 
# 
# High freq. dielectric constant tensor:
#      x y z
#    x 1.688620 0.000000 -0.002060 
#    y 0.000000 1.663760 0.000000 
#    z -0.002060 0.000000 1.688300 
# 
# From -- ./inp_files/303867.got.cif
#   From: 2010.06.25/outbox.cif.g09.slc.cpg/sg12_152_cif.got.tgz:303867.got - 2010.06.28 00:19:55.
