data_PCOD8086836
_publ_section_title
;
Structure prediction by ZEFSAII (Michael W. Deem and Ramdas Pophale) SiO2 
 PCOD8086836
Probable space group: C 2/M
;
_chemical_formula_sum "Si O2"
_cell_formula_units_Z 64
_cell_length_a 24.713548
_cell_length_b 8.775903
_cell_length_c 16.042308
_cell_angle_alpha 90.000000
_cell_angle_beta 80.504884
_cell_angle_gamma 90.000000
_cell_volume 3431.647340
_symmetry_space_group_name_H-M "C 2/M"
_symmetry_group_IT_number 12
_symmetry_cell_setting 'monoclinic'
loop_
_space_group_symop_operation_xyz
x,y,z
-x,y,-z
-x,-y,-z
x,-y,z
1/2+x,1/2+y,z
1/2-x,1/2+y,-z
1/2-x,1/2-y,-z
1/2+x,1/2-y,z
loop_
_atom_site_type_symbol
_atom_site_label
_atom_site_fract_x
_atom_site_fract_y
_atom_site_fract_z
Si Si1 0.105145 0.821915 0.990352
Si Si2 0.455182 0.179817 0.857376
Si Si3 0.011085 0.179087 0.406945
Si Si4 0.155538 0.178388 0.805160
Si Si5 0.887304 0.178853 0.726951
Si Si6 0.276893 0.831580 0.761913
Si Si7 0.449279 0.678341 0.263315
Si Si8 0.300522 0.169005 0.947595
O O1 0.051905 0.741623 0.045411
O O2 0.149889 0.783192 0.048945
O O3 0.093487 0.000000 0.985333
O O4 0.126558 0.754109 0.896227
O O5 0.408563 0.239504 0.805186
O O6 0.515341 0.232536 0.814147
O O7 0.450430 0.000000 0.859594
O O8 0.071632 0.222200 0.359112
O O9 0.000000 0.256817 0.500000
O O10 0.965264 0.236017 0.351830
O O11 0.004807 0.000000 0.417987
O O12 0.216034 0.246628 0.768206
O O13 0.115015 0.210251 0.737628
O O14 0.164918 0.000000 0.819356
O O15 0.826343 0.229596 0.712207
O O16 0.887633 0.000000 0.744663
O O17 0.289440 0.849485 0.854504
O O18 0.277596 0.000000 0.719381
O O19 0.463359 0.500000 0.249272
O O20 0.310984 0.000000 0.983455
O O21 0.250000 0.250000 0.000000
#
# Coordination Sequence:
#
# PCOD8086836 Si02
#       8
#     8   8   8   8   8   8   8   8
#     4  11  20  32  48  67  94 130 177 220 252 288
#     4  11  21  33  48  70 101 132 166 213 262 297
#     4   8  15  30  55  84 104 118 150 203 251 293
#     4   9  19  34  50  69  95 133 177 210 240 288
#     4  10  19  31  51  78 102 129 165 202 248 299
#     4  10  19  32  48  69 100 134 168 209 251 288
#     4   9  18  35  56  74  95 129 169 203 243 299
#     4  11  20  30  45  67  96 132 173 219 256 288
#
# _framework density 18.649936
#
# number of rings (size 3 to 8) (size 9 to 14) (size 15 to 20)
#    0.000    2.125    2.500    3.000    0.000    1.000 
#    0.000    4.375    0.000   10.125    0.000    0.000 
#    0.000    0.000    0.000    0.000    0.000    0.500 
#
# Total GULP energy -396474.349234 kJ/mol
# GULP energy per Si atom -12389.823414 kJ/mol
# Density = 1.860749 g / cm^3
# Si number density = 18.649936 Si / 1000 Ang^3
#
#
#
# Elastic Constant Matrix: (Units=GPa)
#
#
# Indices 1 2 3 4 5 6 
#
# 1 126.2861 24.1422 52.0246 0.0000 -0.7150 0.0000
# 2 24.1422 65.3044 24.2902 0.0000 -4.5137 0.0000
# 3 52.0246 24.2902 78.4855 0.0000 -7.4542 0.0000
# 4 0.0000 0.0000 0.0000 9.8538 0.0000 -4.7063
# 5 -0.7150 -4.5137 -7.4542 0.0000 18.4501 0.0000
# 6 0.0000 0.0000 0.0000 -4.7063 0.0000 23.4550
#
#
#
# Elastic Compliance Matrix: (Units=1/GPa)
#
#
# Indices 1 2 3 4 5 6 
#
# 1 0.011171 -0.001664 -0.007162 0.000000 -0.002868 0.000000
# 2 -0.001664 0.017635 -0.004109 0.000000 0.002590 0.000000
# 3 -0.007162 -0.004109 0.019382 0.000000 0.006548 0.000000
# 4 0.000000 0.000000 0.000000 0.112240 0.000000 0.022521
# 5 -0.002868 0.002590 0.006548 0.000000 0.057368 0.000000
# 6 0.000000 0.000000 0.000000 0.022521 0.000000 0.047154
#
#
# Mechanical properties :
#
#
# Convention : Reuss Voigt Hill
#
# Bulk Modulus (GPa) = 44.80602 52.33222 48.56912
# Shear Modulus (GPa) = 16.76390 21.65972 19.21181
#
# Velocity S-wave (km/s) = 3.00137 3.41160 3.21304
# Velocity P-wave (km/s) = 6.00732 6.60605 6.31379
#
# Compressibility (1/GPa) = 0.02231843
#
# Stress axis : x y z
#
# Youngs Moduli (GPa) = 89.51847 56.70415 51.59372
#
# Poissons Ratio (x) = 0.09436 0.36952
# Poissons Ratio (y) = 0.14896 0.21200
# Poissons Ratio (z) = 0.64114 0.23299
#
# Static dielectric constant tensor:
#      x y z
#    x 3.602300 0.000000 -0.108260 
#    y 0.000000 3.308160 0.000000 
#    z -0.108260 0.000000 3.384330 
# 
# 
# High freq. dielectric constant tensor:
#      x y z
#    x 1.730040 0.000000 -0.013530 
#    y 0.000000 1.700040 0.000000 
#    z -0.013530 0.000000 1.688660 
# 
# From -- ./inp_files/287577.got.cif
#   From: 2010.06.25/outbox.cif.g09.slc.cpg/sg12_144_cif.got.tgz:287577.got - 2010.06.28 00:19:55.
