data_PCOD8086690
_publ_section_title
;
Structure prediction by ZEFSAII (Michael W. Deem and Ramdas Pophale) SiO2 
 PCOD8086690
Probable space group: C 2/M
;
_chemical_formula_sum "Si O2"
_cell_formula_units_Z 64
_cell_length_a 23.722226
_cell_length_b 9.028696
_cell_length_c 23.992501
_cell_angle_alpha 90.000000
_cell_angle_beta 43.911200
_cell_angle_gamma 90.000000
_cell_volume 3563.930076
_symmetry_space_group_name_H-M "C 2/M"
_symmetry_group_IT_number 12
_symmetry_cell_setting 'monoclinic'
loop_
_space_group_symop_operation_xyz
x,y,z
-x,y,-z
-x,-y,-z
x,-y,z
1/2+x,1/2+y,z
1/2-x,1/2+y,-z
1/2-x,1/2-y,-z
1/2+x,1/2-y,z
loop_
_atom_site_type_symbol
_atom_site_label
_atom_site_fract_x
_atom_site_fract_y
_atom_site_fract_z
Si Si1 0.022565 0.170234 0.421217
Si Si2 0.757533 0.325012 0.359985
Si Si3 0.262572 0.824330 0.860221
Si Si4 0.379938 0.172662 0.470501
Si Si5 0.096726 0.325751 0.670507
Si Si6 0.316628 0.827587 0.989757
Si Si7 0.210469 0.828176 0.271507
Si Si8 0.080824 0.328239 0.184019
O O1 0.971758 0.276082 0.417040
O O2 0.000000 0.210405 0.500000
O O3 0.115972 0.206661 0.345115
O O4 0.001638 0.000000 0.422827
O O5 0.748813 0.500000 0.373305
O O6 0.681618 0.257834 0.446320
O O7 0.841583 0.264015 0.326469
O O8 0.755548 0.280991 0.296452
O O9 0.185893 0.753096 0.948395
O O10 0.253896 0.771819 0.803030
O O11 0.347269 0.763686 0.827414
O O12 0.255800 0.000000 0.868797
O O13 0.363603 0.211096 0.417488
O O14 0.371437 0.000000 0.488570
O O15 0.086753 0.500000 0.685843
O O16 0.006824 0.252469 0.741171
O O17 0.296482 0.000000 0.011874
O O18 0.250000 0.750000 0.000000
O O19 0.400518 0.805789 0.895451
O O20 0.225876 0.000000 0.246894
O O21 0.076208 0.500000 0.202352
#
# Coordination Sequence:
#
# PCOD8086690 Si02
#       8
#     8   8   8   8   8   8   8   8
#     4  10  19  34  51  69  98 132 164 200 248 301
#     4  10  20  36  53  67  93 135 173 207 250 295
#     4  10  19  31  50  76 106 133 159 199 250 303
#     4  11  21  32  50  76 101 127 166 211 253 297
#     4   9  18  32  51  73  97 127 166 210 252 294
#     4   9  16  28  49  76 106 134 161 198 246 300
#     4  10  20  33  50  71  96 129 169 207 244 294
#     4   8  15  29  49  75 102 125 155 200 247 290
#
# _framework density 17.957702999999999
#
# number of rings (size 3 to 8) (size 9 to 14) (size 15 to 20)
#    0.000    2.375    1.250    3.000    0.000    2.250 
#    0.000    0.625    0.000    7.500    0.000    5.250 
#    0.000    0.000    0.000    0.000    0.000    0.000 
#
# Total GULP energy -396669.002205 kJ/mol
# GULP energy per Si atom -12395.906319 kJ/mol
# Density = 1.791683 g / cm^3
# Si number density = 17.957703 Si / 1000 Ang^3
#
#
#
# Elastic Constant Matrix: (Units=GPa)
#
#
# Indices 1 2 3 4 5 6 
#
# 1 96.5048 27.1906 31.6291 0.0005 17.6395 -0.0015
# 2 27.1906 51.8774 38.2992 0.0016 12.0844 -0.0026
# 3 31.6291 38.2992 81.4485 0.0002 24.8092 -0.0007
# 4 0.0005 0.0016 0.0002 25.5288 -0.0003 4.1394
# 5 17.6395 12.0844 24.8092 -0.0003 24.5562 0.0009
# 6 -0.0015 -0.0026 -0.0007 4.1394 0.0009 15.4480
#
#
#
# Elastic Compliance Matrix: (Units=1/GPa)
#
#
# Indices 1 2 3 4 5 6 
#
# 1 0.013138 -0.004703 -0.001041 0.000000 -0.006071 0.000001
# 2 -0.004703 0.031219 -0.013294 -0.000003 0.001446 0.000005
# 3 -0.001041 -0.013294 0.024142 0.000000 -0.017101 0.000000
# 4 0.000000 -0.000003 0.000000 0.040951 0.000002 -0.010973
# 5 -0.006071 0.001446 -0.017101 0.000002 0.061649 -0.000005
# 6 0.000001 0.000005 0.000000 -0.010973 -0.000005 0.067674
#
#
# Mechanical properties :
#
#
# Convention : Reuss Voigt Hill
#
# Bulk Modulus (GPa) = 32.87055 47.11871 39.99463
# Shear Modulus (GPa) = 17.42214 21.95405 19.68810
#
# Velocity S-wave (km/s) = 3.11815 3.50028 3.31472
# Velocity P-wave (km/s) = 5.59535 6.52929 6.08028
#
# Compressibility (1/GPa) = 0.03042237
#
# Stress axis : x y z
#
# Youngs Moduli (GPa) = 76.11333 32.03178 41.42135
#
# Poissons Ratio (x) = 0.15066 0.04312
# Poissons Ratio (y) = 0.35799 0.55066
# Poissons Ratio (z) = 0.07924 0.42583
#
# Static dielectric constant tensor:
#      x y z
#    x 3.404730 0.000000 0.003740 
#    y 0.000000 3.151460 0.000000 
#    z 0.003740 0.000000 3.656760 
# 
# 
# High freq. dielectric constant tensor:
#      x y z
#    x 1.674860 0.000000 0.012730 
#    y 0.000000 1.675010 0.000000 
#    z 0.012730 0.000000 1.700400 
# 
# From -- ./inp_files/348553.got.cif
#   From: 2010.06.25/outbox.cif.g09.slc.cpg/sg12_175_cif.got.tgz:348553.got - 2010.06.28 00:19:55.
