data_PCOD8086833
_publ_section_title
;
Structure prediction by ZEFSAII (Michael W. Deem and Ramdas Pophale) SiO2 
 PCOD8086833
Probable space group: C 2/M
;
_chemical_formula_sum "Si O2"
_cell_formula_units_Z 64
_cell_length_a 22.119061
_cell_length_b 9.846655
_cell_length_c 23.442210
_cell_angle_alpha 90.000000
_cell_angle_beta 132.801200
_cell_angle_gamma 90.000000
_cell_volume 3746.120416
_symmetry_space_group_name_H-M "C 2/M"
_symmetry_group_IT_number 12
_symmetry_cell_setting 'monoclinic'
loop_
_space_group_symop_operation_xyz
x,y,z
-x,y,-z
-x,-y,-z
x,-y,z
1/2+x,1/2+y,z
1/2-x,1/2+y,-z
1/2-x,1/2-y,-z
1/2+x,1/2-y,z
loop_
_atom_site_type_symbol
_atom_site_label
_atom_site_fract_x
_atom_site_fract_y
_atom_site_fract_z
Si Si1 0.292407 0.151323 0.071785
Si Si2 0.470432 0.844182 0.223924
Si Si3 0.938726 0.344966 0.409950
Si Si4 0.749246 0.250703 0.166636
Si Si5 0.747299 0.148977 0.706113
Si Si6 0.573734 0.344647 0.703443
Si Si7 0.884791 0.658155 0.769236
Si Si8 0.424595 0.843888 0.917880
O O1 0.390392 0.177810 0.132949
O O2 0.259576 0.164327 0.115396
O O3 0.272084 0.000000 0.037706
O O4 0.250000 0.250000 0.000000
O O5 0.471115 0.736031 0.274808
O O6 0.551711 0.812888 0.240084
O O7 0.470567 0.000000 0.247091
O O8 0.952878 0.500000 0.396680
O O9 0.846179 0.329459 0.374065
O O10 0.953855 0.234915 0.370596
O O11 0.000000 0.308653 0.500000
O O12 0.747112 0.344782 0.221255
O O13 0.827409 0.150820 0.223966
O O14 0.662968 0.170891 0.106260
O O15 0.800231 0.259995 0.705527
O O16 0.778851 0.000000 0.708460
O O17 0.542215 0.500000 0.680768
O O18 0.861656 0.500000 0.759281
O O19 0.922054 0.715892 0.852369
O O20 0.447325 0.000000 0.926847
O O21 0.500000 0.770714 0.000000
#
# Coordination Sequence:
#
# PCOD8086833 Si02
#       8
#     8   8   8   8   8   8   8   8
#     4  10  21  33  48  67  91 124 164 210 257 300
#     4   9  19  35  51  67  94 134 173 204 242 301
#     4   9  18  33  54  80 108 136 162 189 233 297
#     4   9  18  32  48  64  95 127 162 196 249 300
#     4   9  17  31  53  75  97 126 159 197 241 287
#     4  10  19  31  51  78 102 127 162 207 251 286
#     4   9  18  32  49  70  95 127 169 206 243 293
#     4   9  17  27  45  67  89 120 161 205 245 287
#
# _framework density 17.084340999999998
#
# number of rings (size 3 to 8) (size 9 to 14) (size 15 to 20)
#    0.000    2.750    0.000    1.125    1.750    9.250 
#    0.000    0.000    0.000    2.625    0.000    0.000 
#    0.000    0.000    0.000    0.000    0.000    0.000 
#
# Total GULP energy -396630.974685 kJ/mol
# GULP energy per Si atom -12394.717959 kJ/mol
# Density = 1.704546 g / cm^3
# Si number density = 17.084341 Si / 1000 Ang^3
#
#
#
# Elastic Constant Matrix: (Units=GPa)
#
#
# Indices 1 2 3 4 5 6 
#
# 1 107.7124 56.7329 48.3355 0.0000 2.7291 0.0000
# 2 56.7329 118.5583 56.1297 0.0000 -5.4201 0.0000
# 3 48.3355 56.1297 101.7662 0.0000 7.4971 0.0000
# 4 0.0000 0.0000 0.0000 20.2276 0.0000 -0.7124
# 5 2.7291 -5.4201 7.4971 0.0000 14.7981 0.0000
# 6 0.0000 0.0000 0.0000 -0.7124 0.0000 26.5093
#
#
#
# Elastic Compliance Matrix: (Units=1/GPa)
#
#
# Indices 1 2 3 4 5 6 
#
# 1 0.013518 -0.004914 -0.003525 0.000000 -0.002507 0.000000
# 2 -0.004914 0.014103 -0.006120 0.000000 0.009173 0.000000
# 3 -0.003525 -0.006120 0.015575 0.000000 -0.009482 0.000000
# 4 0.000000 0.000000 0.000000 0.049484 0.000000 0.001330
# 5 -0.002507 0.009173 -0.009482 0.000000 0.076202 0.000000
# 6 0.000000 0.000000 0.000000 0.001330 0.000000 0.037758
#
#
# Mechanical properties :
#
#
# Convention : Reuss Voigt Hill
#
# Bulk Modulus (GPa) = 71.04129 72.27035 71.65582
# Shear Modulus (GPa) = 20.79410 23.42957 22.11184
#
# Velocity S-wave (km/s) = 3.49254 3.70727 3.60151
# Velocity P-wave (km/s) = 7.61162 7.79224 7.70246
#
# Compressibility (1/GPa) = 0.01407632
#
# Stress axis : x y z
#
# Youngs Moduli (GPa) = 73.97642 70.90630 64.20474
#
# Poissons Ratio (x) = 0.34844 0.22635
# Poissons Ratio (y) = 0.36353 0.39295
# Poissons Ratio (z) = 0.26080 0.43397
#
# Static dielectric constant tensor:
#      x y z
#    x 3.151040 0.000000 0.114460 
#    y 0.000000 3.125930 0.000000 
#    z 0.114460 0.000000 3.117550 
# 
# 
# High freq. dielectric constant tensor:
#      x y z
#    x 1.653300 0.000000 0.004770 
#    y 0.000000 1.653350 0.000000 
#    z 0.004770 0.000000 1.640200 
# 
# From -- ./inp_files/348593.got.cif
#   From: 2010.06.25/outbox.cif.g09.slc.cpg/sg12_175_cif.got.tgz:348593.got - 2010.06.28 00:19:55.
