data_PCOD8086532
_publ_section_title
;
Structure prediction by ZEFSAII (Michael W. Deem and Ramdas Pophale) SiO2 
 PCOD8086532
Probable space group: C 2/M
;
_chemical_formula_sum "Si O2"
_cell_formula_units_Z 64
_cell_length_a 25.320542
_cell_length_b 8.731199
_cell_length_c 15.547955
_cell_angle_alpha 90.000000
_cell_angle_beta 72.662822
_cell_angle_gamma 90.000000
_cell_volume 3281.155904
_symmetry_space_group_name_H-M "C 2/M"
_symmetry_group_IT_number 12
_symmetry_cell_setting 'monoclinic'
loop_
_space_group_symop_operation_xyz
x,y,z
-x,y,-z
-x,-y,-z
x,-y,z
1/2+x,1/2+y,z
1/2-x,1/2+y,-z
1/2-x,1/2-y,-z
1/2+x,1/2-y,z
loop_
_atom_site_type_symbol
_atom_site_label
_atom_site_fract_x
_atom_site_fract_y
_atom_site_fract_z
Si Si1 0.139568 0.820613 0.064112
Si Si2 0.684593 0.317164 0.863503
Si Si3 0.696651 0.318989 0.209387
Si Si4 0.975574 0.178855 0.815124
Si Si5 0.628471 0.825979 0.392880
Si Si6 0.599783 0.320834 0.573005
Si Si7 0.098852 0.819317 0.766376
Si Si8 0.486115 0.173650 0.635140
O O1 0.167808 0.753004 0.136670
O O2 0.073531 0.785886 0.093419
O O3 0.150028 0.000000 0.058997
O O4 0.167438 0.749686 0.965307
O O5 0.683338 0.500000 0.864373
O O6 0.744350 0.259210 0.808380
O O7 0.641157 0.249134 0.814963
O O8 0.703640 0.500000 0.201362
O O9 0.660635 0.278188 0.309735
O O10 0.960832 0.277493 0.738768
O O11 0.035761 0.226781 0.822889
O O12 0.975656 0.000000 0.788862
O O13 0.638806 0.765088 0.484903
O O14 0.562684 0.814207 0.410354
O O15 0.649713 0.000000 0.374406
O O16 0.610555 0.500000 0.558634
O O17 0.613504 0.260671 0.662930
O O18 0.535456 0.286675 0.585303
O O19 0.104415 0.000000 0.764474
O O20 0.508791 0.000000 0.628477
#
# Coordination Sequence:
#
# PCOD8086532 Si02
#       8
#     8   8   8   8   8   8   8   8
#     4   9  18  32  56  84 110 138 177 223 273 322
#     4  10  20  37  57  79 107 144 183 225 269 316
#     4  11  22  37  55  80 110 142 181 225 269 322
#     4   9  16  31  53  80 111 144 178 218 268 319
#     4  11  22  35  53  80 109 141 179 222 271 322
#     4  10  20  34  54  80 109 144 180 218 264 319
#     4   8  17  33  55  80 109 142 182 221 261 315
#     4  10  19  31  49  78 113 144 176 215 266 323
#
# _framework density 19.505320999999999
#
# number of rings (size 3 to 8) (size 9 to 14) (size 15 to 20)
#    0.000    2.250    1.250    3.000    0.000    3.500 
#    0.000    7.500    0.000    0.000    0.000    4.375 
#    0.000    0.000    0.000    0.000    0.000    0.000 
#
# Total GULP energy -396705.547585 kJ/mol
# GULP energy per Si atom -12397.048362 kJ/mol
# Density = 1.946093 g / cm^3
# Si number density = 19.505321 Si / 1000 Ang^3
#
#
#
# Elastic Constant Matrix: (Units=GPa)
#
#
# Indices 1 2 3 4 5 6 
#
# 1 106.4161 15.5895 48.0525 0.0000 10.7796 0.0000
# 2 15.5895 31.8600 15.2494 0.0000 6.5953 0.0000
# 3 48.0525 15.2494 114.3382 0.0000 2.3740 0.0000
# 4 0.0000 0.0000 0.0000 19.0786 0.0000 -5.3810
# 5 10.7796 6.5953 2.3740 0.0000 15.0611 0.0000
# 6 0.0000 0.0000 0.0000 -5.3810 0.0000 21.4142
#
#
#
# Elastic Compliance Matrix: (Units=1/GPa)
#
#
# Indices 1 2 3 4 5 6 
#
# 1 0.012675 -0.002372 -0.004860 0.000000 -0.007267 0.000000
# 2 -0.002372 0.037208 -0.003675 0.000000 -0.014017 0.000000
# 3 -0.004860 -0.003675 0.011210 0.000000 0.003321 0.000000
# 4 0.000000 0.000000 0.000000 0.056413 0.000000 0.014176
# 5 -0.007267 -0.014017 0.003321 0.000000 0.077212 0.000000
# 6 0.000000 0.000000 0.000000 0.014176 0.000000 0.050260
#
#
# Mechanical properties :
#
#
# Convention : Reuss Voigt Hill
#
# Bulk Modulus (GPa) = 25.45778 45.59967 35.52873
# Shear Modulus (GPa) = 17.86455 22.69231 20.27843
#
# Velocity S-wave (km/s) = 3.02964 3.41455 3.22784
# Velocity P-wave (km/s) = 5.03173 6.24295 5.66977
#
# Compressibility (1/GPa) = 0.03928072
#
# Stress axis : x y z
#
# Youngs Moduli (GPa) = 78.89503 26.87570 89.20984
#
# Poissons Ratio (x) = 0.06374 0.43353
# Poissons Ratio (y) = 0.18711 0.32782
# Poissons Ratio (z) = 0.38341 0.09876
#
# Static dielectric constant tensor:
#      x y z
#    x 3.565830 0.000000 0.142110 
#    y 0.000000 3.303740 0.000000 
#    z 0.142110 0.000000 3.777150 
# 
# 
# High freq. dielectric constant tensor:
#      x y z
#    x 1.743040 0.000000 -0.004020 
#    y 0.000000 1.733530 0.000000 
#    z -0.004020 0.000000 1.767800 
# 
# From -- ./inp_files/243880.got.cif
#   From: 2010.06.25/outbox.cif.g09.slc.cpg/sg12_122_cif.got.tgz:243880.got - 2010.06.28 00:19:55.
