data_PCOD8086388
_publ_section_title
;
Structure prediction by ZEFSAII (Michael W. Deem and Ramdas Pophale) SiO2 
 PCOD8086388
Probable space group: C 2/M
;
_chemical_formula_sum "Si O2"
_cell_formula_units_Z 48
_cell_length_a 18.351397
_cell_length_b 8.972667
_cell_length_c 31.083683
_cell_angle_alpha 90.000000
_cell_angle_beta 148.669135
_cell_angle_gamma 90.000000
_cell_volume 2661.394359
_symmetry_space_group_name_H-M "C 2/M"
_symmetry_group_IT_number 12
_symmetry_cell_setting 'monoclinic'
loop_
_space_group_symop_operation_xyz
x,y,z
-x,y,-z
-x,-y,-z
x,-y,z
1/2+x,1/2+y,z
1/2-x,1/2+y,-z
1/2-x,1/2-y,-z
1/2+x,1/2-y,z
loop_
_atom_site_type_symbol
_atom_site_label
_atom_site_fract_x
_atom_site_fract_y
_atom_site_fract_z
Si Si1 0.141861 0.174973 0.231230
Si Si2 0.333101 0.332820 0.164618
Si Si3 0.161857 0.673712 0.418739
Si Si4 0.340288 0.825876 0.253186
Si Si5 0.834104 0.164468 0.662991
Si Si6 0.845139 0.322672 0.083978
O O1 0.251173 0.219679 0.249692
O O2 0.217348 0.211660 0.315149
O O3 0.004138 0.273323 0.155555
O O4 0.100466 0.000000 0.208763
O O5 0.272075 0.500000 0.129390
O O6 0.275627 0.259416 0.179528
O O7 0.499348 0.336015 0.250354
O O8 0.286848 0.234539 0.100500
O O9 0.183622 0.500000 0.434083
O O10 0.250000 0.750000 0.500000
O O11 0.218886 0.723206 0.400488
O O12 0.000352 0.721990 0.342734
O O13 0.331800 0.000000 0.238733
O O14 0.777741 0.000000 0.622584
O O15 0.834197 0.500000 0.076936
O O16 0.750000 0.250000 0.000000
#
# Coordination Sequence:
#
# PCOD8086388 Si02
#       6
#     8   8   8   8   8   8
#     4   9  18  34  54  76 102 130 163 205 251 298
#     4   9  17  31  51  74 100 131 167 204 244 293
#     4  10  19  31  49  72  98 130 167 206 247 293
#     4   9  18  33  53  76 101 131 167 205 248 298
#     4   8  15  29  49  70  94 127 163 199 242 294
#     4  11  21  34  53  76 102 132 167 205 246 294
#
# _framework density 18.035658000000002
#
# number of rings (size 3 to 8) (size 9 to 14) (size 15 to 20)
#    0.000    2.667    0.000    3.500    0.000    5.333 
#    0.000    1.667    0.000   10.000    0.000    0.000 
#    0.000    0.000    0.000    0.000    0.000    0.000 
#
# Total GULP energy -297537.798129 kJ/mol
# GULP energy per Si atom -12397.408255 kJ/mol
# Density = 1.799461 g / cm^3
# Si number density = 18.035658 Si / 1000 Ang^3
#
#
#
# Elastic Constant Matrix: (Units=GPa)
#
#
# Indices 1 2 3 4 5 6 
#
# 1 155.2807 61.9533 55.6419 0.0000 -33.0878 0.0001
# 2 61.9533 115.0147 60.2446 0.0001 -22.3299 0.0003
# 3 55.6419 60.2446 87.2664 0.0000 -31.7643 0.0000
# 4 0.0000 0.0001 0.0000 30.1855 0.0000 -8.6997
# 5 -33.0878 -22.3299 -31.7643 0.0000 28.9673 0.0000
# 6 0.0001 0.0003 0.0000 -8.6997 0.0000 29.8312
#
#
#
# Elastic Compliance Matrix: (Units=1/GPa)
#
#
# Indices 1 2 3 4 5 6 
#
# 1 0.009711 -0.003075 -0.001488 0.000000 0.007090 0.000000
# 2 -0.003075 0.014595 -0.008818 0.000000 -0.001931 0.000000
# 3 -0.001488 -0.008818 0.025634 0.000000 0.019612 0.000000
# 4 0.000000 0.000000 0.000000 0.036168 0.000000 0.010548
# 5 0.007090 -0.001931 0.019612 0.000000 0.062637 0.000000
# 6 0.000000 0.000000 0.000000 0.010548 0.000000 0.036598
#
#
# Mechanical properties :
#
#
# Convention : Reuss Voigt Hill
#
# Bulk Modulus (GPa) = 43.14479 79.24904 61.19691
# Shear Modulus (GPa) = 22.74478 29.77828 26.26153
#
# Velocity S-wave (km/s) = 3.55505 4.06775 3.82001
# Velocity P-wave (km/s) = 6.38945 8.13005 7.31173
#
# Compressibility (1/GPa) = 0.02317777
#
# Stress axis : x y z
#
# Youngs Moduli (GPa) = 102.97902 68.51857 39.01050
#
# Poissons Ratio (x) = 0.21067 0.05807
# Poissons Ratio (y) = 0.31662 0.34398
# Poissons Ratio (z) = 0.15328 0.60418
#
# Static dielectric constant tensor:
#      x y z
#    x 3.657310 0.000000 -0.326840 
#    y 0.000000 3.460240 0.000000 
#    z -0.326840 0.000000 3.123430 
# 
# 
# High freq. dielectric constant tensor:
#      x y z
#    x 1.700960 0.000000 -0.030140 
#    y 0.000000 1.703170 0.000000 
#    z -0.030140 0.000000 1.670050 
# 
# From -- ./inp_files/273592.got.cif
#   From: 2010.06.25/outbox.cif.g09.slc.cpg/sg12_137_cif.got.tgz:273592.got - 2010.06.28 00:19:55.
