data_PCOD8086113
_publ_section_title
;
Structure prediction by ZEFSAII (Michael W. Deem and Ramdas Pophale) SiO2 
 PCOD8086113
Probable space group: C 2/M
;
_chemical_formula_sum "Si O2"
_cell_formula_units_Z 60
_cell_length_a 5.017471
_cell_length_b 26.654559
_cell_length_c 28.083453
_cell_angle_alpha 90.000000
_cell_angle_beta 65.832557
_cell_angle_gamma 90.000000
_cell_volume 3426.649892
_symmetry_space_group_name_H-M "C 2/M"
_symmetry_group_IT_number 12
_symmetry_cell_setting 'monoclinic'
loop_
_space_group_symop_operation_xyz
x,y,z
-x,y,-z
-x,-y,-z
x,-y,z
1/2+x,1/2+y,z
1/2-x,1/2+y,-z
1/2-x,1/2-y,-z
1/2+x,1/2-y,z
loop_
_atom_site_type_symbol
_atom_site_label
_atom_site_fract_x
_atom_site_fract_y
_atom_site_fract_z
Si Si1 0.574600 0.419611 0.875775
Si Si2 0.091687 0.123738 0.253523
Si Si3 0.660187 0.500000 0.036813
Si Si4 0.696327 0.217667 0.446791
Si Si5 0.604652 0.140062 0.861848
Si Si6 0.544695 0.783217 0.945694
Si Si7 0.624138 0.285229 0.667211
Si Si8 0.890256 0.443201 0.761070
O O1 0.448944 0.451562 0.927620
O O2 0.289400 0.407263 0.865937
O O3 0.795368 0.447611 0.823565
O O4 0.759065 0.372933 0.884721
O O5 0.271816 0.153839 0.199307
O O6 0.295491 0.083427 0.265313
O O7 0.986570 0.166900 0.296270
O O8 0.821914 0.092195 0.253410
O O9 0.500000 0.500000 0.000000
O O10 0.000000 0.500000 0.000000
O O11 0.500000 0.185981 0.500000
O O12 0.501632 0.267170 0.448678
O O13 0.760587 0.191180 0.391499
O O14 0.682565 0.182252 0.895057
O O15 0.246001 0.764028 0.943940
O O16 0.500000 0.812261 0.000000
O O17 0.378484 0.242961 0.677238
O O18 0.905818 0.500000 0.739283
#
# Coordination Sequence:
#
# PCOD8086113 Si02
#       8
#     8   8   4   8   8   8   8   8
#     4  10  21  37  52  73  95 121 147 182 237 294
#     4  10  21  32  50  80  98 126 174 199 247 314
#     4  12  24  36  52  76 100 118 144 180 229 298
#     4   8  14  25  42  64  93 137 181 204 237 292
#     4  10  21  35  54  71  94 122 154 191 234 287
#     4  10  21  36  52  69  88 117 156 194 225 261
#     4  10  19  31  47  71 111 145 164 210 256 286
#     4  10  19  36  56  70  96 130 163 210 251 291
#
# _framework density 17.509813000000001
#
# number of rings (size 3 to 8) (size 9 to 14) (size 15 to 20)
#    0.000    2.133    0.667    2.800    0.000    2.667 
#    0.000    0.000    0.000    0.000    0.000    0.000 
#    0.000    3.200    0.000    0.000    0.000    0.000 
#
# Total GULP energy -371676.065119 kJ/mol
# GULP energy per Si atom -12389.202171 kJ/mol
# Density = 1.746996 g / cm^3
# Si number density = 17.509813 Si / 1000 Ang^3
#
#
#
# Elastic Constant Matrix: (Units=GPa)
#
#
# Indices 1 2 3 4 5 6 
#
# 1 94.7435 15.9665 29.8201 0.0000 0.4930 0.0000
# 2 15.9665 66.1727 59.0185 0.0000 0.0541 0.0000
# 3 29.8201 59.0185 133.9933 0.0000 -2.9675 0.0000
# 4 0.0000 0.0000 0.0000 17.2018 0.0000 -1.9731
# 5 0.4930 0.0541 -2.9675 0.0000 21.3201 0.0000
# 6 0.0000 0.0000 0.0000 -1.9731 0.0000 19.1540
#
#
#
# Elastic Compliance Matrix: (Units=1/GPa)
#
#
# Indices 1 2 3 4 5 6 
#
# 1 0.011382 -0.000783 -0.002201 0.000000 -0.000568 0.000000
# 2 -0.000783 0.024998 -0.010871 0.000000 -0.001558 0.000000
# 3 -0.002201 -0.010871 0.012782 0.000000 0.001858 0.000000
# 4 0.000000 0.000000 0.000000 0.058829 0.000000 0.006060
# 5 -0.000568 -0.001558 0.001858 0.000000 0.047180 0.000000
# 6 0.000000 0.000000 0.000000 0.006060 0.000000 0.052833
#
#
# Mechanical properties :
#
#
# Convention : Reuss Voigt Hill
#
# Bulk Modulus (GPa) = 46.61355 56.05775 51.33565
# Shear Modulus (GPa) = 20.58772 24.20879 22.39826
#
# Velocity S-wave (km/s) = 3.43269 3.72235 3.58045
# Velocity P-wave (km/s) = 6.51078 7.11049 6.81723
#
# Compressibility (1/GPa) = 0.02145299
#
# Stress axis : x y z
#
# Youngs Moduli (GPa) = 87.85467 40.00393 78.23473
#
# Poissons Ratio (x) = 0.03133 0.17218
# Poissons Ratio (y) = 0.06880 0.85046
# Poissons Ratio (z) = 0.19335 0.43487
#
# Static dielectric constant tensor:
#      x y z
#    x 3.463940 0.000000 -0.016070 
#    y 0.000000 2.861900 0.000000 
#    z -0.016070 0.000000 3.484040 
# 
# 
# High freq. dielectric constant tensor:
#      x y z
#    x 1.705360 0.000000 0.002220 
#    y 0.000000 1.632640 0.000000 
#    z 0.002220 0.000000 1.669060 
# 
# From -- ./inp_files/355176.got.cif
#   From: 2010.06.25/outbox.cif.g09.slc.cpg/sg12_178_cif.got.tgz:355176.got - 2010.06.28 00:19:55.
