data_PCOD8086457
_publ_section_title
;
Structure prediction by ZEFSAII (Michael W. Deem and Ramdas Pophale) SiO2 
 PCOD8086457
Probable space group: C 2/M
;
_chemical_formula_sum "Si O2"
_cell_formula_units_Z 64
_cell_length_a 21.615368
_cell_length_b 14.332221
_cell_length_c 11.297530
_cell_angle_alpha 90.000000
_cell_angle_beta 107.212138
_cell_angle_gamma 90.000000
_cell_volume 3343.190186
_symmetry_space_group_name_H-M "C 2/M"
_symmetry_group_IT_number 12
_symmetry_cell_setting 'monoclinic'
loop_
_space_group_symop_operation_xyz
x,y,z
-x,y,-z
-x,-y,-z
x,-y,z
1/2+x,1/2+y,z
1/2-x,1/2+y,-z
1/2-x,1/2-y,-z
1/2+x,1/2-y,z
loop_
_atom_site_type_symbol
_atom_site_label
_atom_site_fract_x
_atom_site_fract_y
_atom_site_fract_z
Si Si1 0.138322 0.398803 0.808153
Si Si2 0.294993 0.643837 0.268116
Si Si3 0.585683 0.700933 0.796340
Si Si4 0.679075 0.606256 0.445589
Si Si5 0.665022 0.899652 0.090536
Si Si6 0.114444 0.798184 0.086893
Si Si7 0.754520 0.155799 0.741455
Si Si8 0.453655 0.388671 0.743600
O O1 0.100972 0.500000 0.784546
O O2 0.091332 0.309832 0.755971
O O3 0.197165 0.413490 0.747566
O O4 0.170553 0.380467 0.954034
O O5 0.362718 0.632262 0.237736
O O6 0.304160 0.620575 0.409849
O O7 0.237251 0.583039 0.181820
O O8 0.274088 0.747820 0.232304
O O9 0.516183 0.659745 0.720470
O O10 0.594037 0.691104 0.940919
O O11 0.685783 0.500000 0.410918
O O12 0.731499 0.657808 0.391544
O O13 0.605790 0.638423 0.376737
O O14 0.627438 0.811689 0.128075
O O15 0.628988 0.000000 0.093895
O O16 0.178326 0.860736 0.149929
O O17 0.057361 0.839828 0.135228
O O18 0.463179 0.500000 0.762818
#
# Coordination Sequence:
#
# PCOD8086457 Si02
#       8
#     8   8   8   8   8   8   8   8
#     4   9  17  31  52  77 102 127 157 196 245 297
#     4  10  19  31  49  74 102 130 159 194 241 293
#     4  10  20  33  50  73  99 130 164 203 245 287
#     4  10  20  33  48  69  96 127 166 204 238 283
#     4   9  17  30  50  77 106 130 153 191 246 300
#     4   9  18  33  51  73 100 126 163 205 241 288
#     4   9  17  31  51  73  98 128 158 196 244 291
#     4  10  22  37  51  68  94 132 173 208 240 279
#
# _framework density 19.143393
#
# number of rings (size 3 to 8) (size 9 to 14) (size 15 to 20)
#    0.000    2.500    0.000    2.250    0.000    6.000 
#    0.000    1.875    0.000    3.000    0.000    7.875 
#    0.000    0.000    0.000    0.000    0.000    0.000 
#
# Total GULP energy -396480.424799 kJ/mol
# GULP energy per Si atom -12390.013275 kJ/mol
# Density = 1.909982 g / cm^3
# Si number density = 19.143393 Si / 1000 Ang^3
#
#
#
# Elastic Constant Matrix: (Units=GPa)
#
#
# Indices 1 2 3 4 5 6 
#
# 1 95.5166 30.5035 21.6487 0.0000 -2.9565 0.0000
# 2 30.5035 89.4568 9.9526 0.0000 -1.7728 0.0000
# 3 21.6487 9.9526 60.1109 0.0000 -1.7076 0.0000
# 4 0.0000 0.0000 0.0000 -42.8710 0.0000 -35.4444
# 5 -2.9565 -1.7728 -1.7076 0.0000 13.4980 0.0000
# 6 0.0000 0.0000 0.0000 -35.4444 0.0000 2.0687
#
#
#
# Elastic Compliance Matrix: (Units=1/GPa)
#
#
# Indices 1 2 3 4 5 6 
#
# 1 0.012626 -0.003841 -0.003861 0.000000 0.001773 0.000000
# 2 -0.003841 0.012578 -0.000679 0.000000 0.000725 0.000000
# 3 -0.003861 -0.000679 0.018178 0.000000 0.001365 0.000000
# 4 0.000000 0.000000 0.000000 -0.001538 0.000000 -0.026353
# 5 0.001773 0.000725 0.001365 0.000000 0.074741 0.000000
# 6 0.000000 0.000000 0.000000 -0.026353 0.000000 0.031875
#
#
# Mechanical properties :
#
#
# Convention : Reuss Voigt Hill
#
# Bulk Modulus (GPa) = 37.56445 41.03266 39.29856
# Shear Modulus (GPa) = 28.72029 6.73777 17.72903
#
# Velocity S-wave (km/s) = 3.87754 1.87810 3.04652
# Velocity P-wave (km/s) = 6.30177 5.11702 5.74005
#
# Compressibility (1/GPa) = 0.02662091
#
# Stress axis : x y z
#
# Youngs Moduli (GPa) = 79.20284 79.50371 55.01284
#
# Poissons Ratio (x) = 0.30534 0.21240
# Poissons Ratio (y) = 0.30418 0.03734
# Poissons Ratio (z) = 0.30579 0.05397
#
# Static dielectric constant tensor:
#      x y z
#    x 3.559890 0.000000 -0.013120 
#    y 0.000000 3.685810 0.000000 
#    z -0.013120 0.000000 3.235350 
# 
# 
# High freq. dielectric constant tensor:
#      x y z
#    x 1.728310 0.000000 -0.007710 
#    y 0.000000 1.753950 0.000000 
#    z -0.007710 0.000000 1.725720 
# 
# From -- ./inp_files/167311.got.cif
#   From: 2010.06.25/outbox.cif.g09.slc.cpg/sg12_84_cif.got.tgz:167311.got - 2010.06.28 00:19:55.
