data_PCOD8086357
_publ_section_title
;
Structure prediction by ZEFSAII (Michael W. Deem and Ramdas Pophale) SiO2 
 PCOD8086357
Probable space group: C 2/M
;
_chemical_formula_sum "Si O2"
_cell_formula_units_Z 64
_cell_length_a 22.206385
_cell_length_b 9.485167
_cell_length_c 19.314265
_cell_angle_alpha 90.000000
_cell_angle_beta 124.537198
_cell_angle_gamma 90.000000
_cell_volume 3351.203724
_symmetry_space_group_name_H-M "C 2/M"
_symmetry_group_IT_number 12
_symmetry_cell_setting 'monoclinic'
loop_
_space_group_symop_operation_xyz
x,y,z
-x,y,-z
-x,-y,-z
x,-y,z
1/2+x,1/2+y,z
1/2-x,1/2+y,-z
1/2-x,1/2-y,-z
1/2+x,1/2-y,z
loop_
_atom_site_type_symbol
_atom_site_label
_atom_site_fract_x
_atom_site_fract_y
_atom_site_fract_z
Si Si1 0.910138 0.844555 0.781165
Si Si2 0.976376 0.346469 0.313163
Si Si3 0.345644 0.339831 0.244989
Si Si4 0.772486 0.849857 0.424201
Si Si5 0.369572 0.741202 0.606739
Si Si6 0.751624 0.664353 0.284998
Si Si7 0.179211 0.162385 0.934063
Si Si8 0.956387 0.341276 0.137236
O O1 0.897528 0.850134 0.690036
O O2 0.835237 0.809626 0.772126
O O3 0.969343 0.729003 0.843627
O O4 0.938585 0.000000 0.820502
O O5 0.956569 0.500000 0.331639
O O6 0.924617 0.228705 0.314237
O O7 0.961668 0.349375 0.222453
O O8 0.061589 0.319032 0.383159
O O9 0.346158 0.500000 0.272888
O O10 0.282852 0.249034 0.240511
O O11 0.329900 0.335358 0.153822
O O12 0.692111 0.848394 0.406316
O O13 0.833601 0.852631 0.523607
O O14 0.785504 0.723224 0.378825
O O15 0.778542 0.000000 0.388852
O O16 0.771613 0.500000 0.292606
O O17 0.111625 0.241495 0.927585
O O18 0.184196 0.000000 0.963705
O O19 0.250000 0.250000 0.000000
O O20 0.947523 0.500000 0.100634
#
# Coordination Sequence:
#
# PCOD8086357 Si02
#       8
#     8   8   8   8   8   8   8   8
#     4   9  17  30  49  73 100 131 168 208 249 294
#     4   9  17  30  49  71  97 129 164 203 247 294
#     4  10  21  36  54  75 100 130 165 202 241 291
#     4  10  19  31  49  72 100 132 168 212 257 301
#     4   9  18  29  48  74 100 129 166 210 259 301
#     4  10  21  35  51  71  98 134 172 208 250 299
#     4  10  20  34  55  82 108 133 160 196 242 291
#     4   9  17  29  48  76 105 132 163 200 243 290
#
# _framework density 19.097615999999999
#
# number of rings (size 3 to 8) (size 9 to 14) (size 15 to 20)
#    0.000    2.500    0.000    2.250    0.000   12.000 
#    0.000    0.625    0.000    3.750    0.000    5.250 
#    0.000    0.000    0.000    0.000    0.000    0.000 
#
# Total GULP energy -396635.941749 kJ/mol
# GULP energy per Si atom -12394.873180 kJ/mol
# Density = 1.905415 g / cm^3
# Si number density = 19.097616 Si / 1000 Ang^3
#
#
#
# Elastic Constant Matrix: (Units=GPa)
#
#
# Indices 1 2 3 4 5 6 
#
# 1 94.7152 66.5599 21.3700 0.0000 21.1286 0.0000
# 2 66.5599 177.2874 29.2733 0.0000 20.1482 0.0000
# 3 21.3700 29.2733 37.6646 0.0000 23.6178 0.0000
# 4 0.0000 0.0000 0.0000 13.0479 0.0000 -4.1761
# 5 21.1286 20.1482 23.6178 0.0000 28.2554 0.0000
# 6 0.0000 0.0000 0.0000 -4.1761 0.0000 24.8688
#
#
#
# Elastic Compliance Matrix: (Units=1/GPa)
#
#
# Indices 1 2 3 4 5 6 
#
# 1 0.015965 -0.005062 0.000207 0.000000 -0.008502 0.000000
# 2 -0.005062 0.008086 -0.004561 0.000000 0.001832 0.000000
# 3 0.000207 -0.004561 0.058914 0.000000 -0.046147 0.000000
# 4 0.000000 0.000000 0.000000 0.080994 0.000000 0.013601
# 5 -0.008502 0.001832 -0.046147 0.000000 0.079015 0.000000
# 6 0.000000 0.000000 0.000000 0.013601 0.000000 0.042495
#
#
# Mechanical properties :
#
#
# Convention : Reuss Voigt Hill
#
# Bulk Modulus (GPa) = 15.59254 60.45260 38.02257
# Shear Modulus (GPa) = 15.35259 26.06537 20.70898
#
# Velocity S-wave (km/s) = 2.83839 3.69839 3.29656
# Velocity P-wave (km/s) = 4.35021 7.06829 5.86878
#
# Compressibility (1/GPa) = 0.06413322
#
# Stress axis : x y z
#
# Youngs Moduli (GPa) = 62.63761 123.67260 16.97388
#
# Poissons Ratio (x) = 0.62600 -0.00351
# Poissons Ratio (y) = 0.31706 0.07742
# Poissons Ratio (z) = -0.01297 0.56407
#
# Static dielectric constant tensor:
#      x y z
#    x 3.482640 0.000000 0.263490 
#    y 0.000000 3.763660 0.000000 
#    z 0.263490 0.000000 3.140130 
# 
# 
# High freq. dielectric constant tensor:
#      x y z
#    x 1.734560 0.000000 0.025940 
#    y 0.000000 1.758500 0.000000 
#    z 0.025940 0.000000 1.699980 
# 
# From -- ./inp_files/320149.got.cif
#   From: 2010.06.25/outbox.cif.g09.slc.cpg/sg12_161_cif.got.tgz:320149.got - 2010.06.28 00:19:55.
