data_PCOD8086775
_publ_section_title
;
Structure prediction by ZEFSAII (Michael W. Deem and Ramdas Pophale) SiO2 
 PCOD8086775
Probable space group: C 2/M
;
_chemical_formula_sum "Si O2"
_cell_formula_units_Z 48
_cell_length_a 27.534724
_cell_length_b 9.167541
_cell_length_c 19.780887
_cell_angle_alpha 90.000000
_cell_angle_beta 34.035731
_cell_angle_gamma 90.000000
_cell_volume 2794.745485
_symmetry_space_group_name_H-M "C 2/M"
_symmetry_group_IT_number 12
_symmetry_cell_setting 'monoclinic'
loop_
_space_group_symop_operation_xyz
x,y,z
-x,y,-z
-x,-y,-z
x,-y,z
1/2+x,1/2+y,z
1/2-x,1/2+y,-z
1/2-x,1/2-y,-z
1/2+x,1/2-y,z
loop_
_atom_site_type_symbol
_atom_site_label
_atom_site_fract_x
_atom_site_fract_y
_atom_site_fract_z
Si Si1 0.666924 0.828972 0.451971
Si Si2 0.708385 0.669410 0.143215
Si Si3 0.793618 0.331605 0.388183
Si Si4 0.544010 0.165492 0.719215
Si Si5 0.400426 0.668469 0.599785
Si Si6 0.630754 0.670779 0.090250
O O1 0.758928 0.746944 0.360181
O O2 0.598850 0.790514 0.589617
O O3 0.629121 0.773093 0.425651
O O4 0.685489 0.000000 0.426459
O O5 0.732324 0.500000 0.113529
O O6 0.654048 0.711531 0.271550
O O7 0.650872 0.713077 0.144580
O O8 0.797877 0.758268 0.041198
O O9 0.764656 0.500000 0.420956
O O10 0.750000 0.250000 0.500000
O O11 0.897304 0.319064 0.280442
O O12 0.463478 0.271793 0.820749
O O13 0.510486 0.000000 0.750231
O O14 0.500000 0.700505 0.500000
O O15 0.386148 0.500000 0.595772
O O16 0.632363 0.500000 0.076083
#
# Coordination Sequence:
#
# PCOD8086775 Si02
#       6
#     8   8   8   8   8   8
#     4  10  20  32  48  73 103 133 163 200 246 291
#     4   9  19  34  49  69  99 131 161 196 241 289
#     4   9  17  30  48  71  99 130 163 200 244 291
#     4   9  18  31  48  72 100 128 159 197 243 290
#     4  10  20  34  52  73  99 132 166 198 238 292
#     4  10  19  31  51  74  95 125 164 204 241 282
#
# _framework density 17.175087999999999
#
# number of rings (size 3 to 8) (size 9 to 14) (size 15 to 20)
#    0.000    2.500    0.000    3.500    0.000    7.000 
#    0.000    0.000    0.000    1.000    0.000    7.000 
#    0.000    0.000    0.000    0.000    0.000    0.000 
#
# Total GULP energy -297576.393987 kJ/mol
# GULP energy per Si atom -12399.016416 kJ/mol
# Density = 1.713600 g / cm^3
# Si number density = 17.175088 Si / 1000 Ang^3
#
#
#
# Elastic Constant Matrix: (Units=GPa)
#
#
# Indices 1 2 3 4 5 6 
#
# 1 98.0377 58.0552 54.6726 -0.0003 -11.6128 -0.0009
# 2 58.0552 98.1026 57.1353 -0.0086 -11.2666 0.0019
# 3 54.6726 57.1353 101.8144 -0.0105 -9.9204 0.0033
# 4 -0.0003 -0.0086 -0.0105 25.2551 0.0009 -2.5027
# 5 -11.6128 -11.2666 -9.9204 0.0009 22.9214 0.0010
# 6 -0.0009 0.0019 0.0033 -2.5027 0.0010 33.9890
#
#
#
# Elastic Compliance Matrix: (Units=1/GPa)
#
#
# Indices 1 2 3 4 5 6 
#
# 1 0.017663 -0.007043 -0.005218 -0.000004 0.003229 0.000001
# 2 -0.007043 0.018298 -0.006220 0.000003 0.002734 0.000000
# 3 -0.005218 -0.006220 0.016244 0.000004 0.001329 -0.000001
# 4 -0.000004 0.000003 0.000004 0.039887 0.000000 0.002937
# 5 0.003229 0.002734 0.001329 0.000000 0.047182 -0.000002
# 6 0.000001 0.000000 -0.000001 0.002937 -0.000002 0.029638
#
#
# Mechanical properties :
#
#
# Convention : Reuss Voigt Hill
#
# Bulk Modulus (GPa) = 65.60355 70.85342 68.22849
# Shear Modulus (GPa) = 23.70189 24.97253 24.33721
#
# Velocity S-wave (km/s) = 3.71889 3.81727 3.76840
# Velocity P-wave (km/s) = 7.53127 7.79563 7.66459
#
# Compressibility (1/GPa) = 0.01524308
#
# Stress axis : x y z
#
# Youngs Moduli (GPa) = 56.61522 54.65173 61.56259
#
# Poissons Ratio (x) = 0.38491 0.32123
# Poissons Ratio (y) = 0.39874 0.38291
# Poissons Ratio (z) = 0.29541 0.33992
#
# Static dielectric constant tensor:
#      x y z
#    x 3.783280 0.000050 -0.224660 
#    y 0.000050 3.315460 0.000010 
#    z -0.224660 0.000010 3.055250 
# 
# 
# High freq. dielectric constant tensor:
#      x y z
#    x 1.662060 0.000000 -0.017340 
#    y 0.000000 1.673690 0.000000 
#    z -0.017340 0.000000 1.637320 
# 
# From -- ./inp_files/248802.got.cif
#   From: 2010.06.25/outbox.cif.g09.slc.cpg/sg12_125_cif.got.tgz:248802.got - 2010.06.28 00:19:55.
