data_PCOD8086039
_publ_section_title
;
Structure prediction by ZEFSAII (Michael W. Deem and Ramdas Pophale) SiO2 
 PCOD8086039
Probable space group: C 2/M
;
_chemical_formula_sum "Si O2"
_cell_formula_units_Z 56
_cell_length_a 14.249348
_cell_length_b 9.456261
_cell_length_c 24.209447
_cell_angle_alpha 90.000000
_cell_angle_beta 75.380593
_cell_angle_gamma 90.000000
_cell_volume 3156.500232
_symmetry_space_group_name_H-M "C 2/M"
_symmetry_group_IT_number 12
_symmetry_cell_setting 'monoclinic'
loop_
_space_group_symop_operation_xyz
x,y,z
-x,y,-z
-x,-y,-z
x,-y,z
1/2+x,1/2+y,z
1/2-x,1/2+y,-z
1/2-x,1/2-y,-z
1/2+x,1/2-y,z
loop_
_atom_site_type_symbol
_atom_site_label
_atom_site_fract_x
_atom_site_fract_y
_atom_site_fract_z
Si Si1 0.290776 0.332773 0.859435
Si Si2 0.601067 0.336243 0.267464
Si Si3 0.621134 0.667047 0.925355
Si Si4 0.565393 0.164530 0.657501
Si Si5 0.452897 0.835719 0.564085
Si Si6 0.403127 0.333047 0.948886
Si Si7 0.713935 0.335418 0.360589
O O1 0.272513 0.500000 0.863979
O O2 0.352279 0.288996 0.797038
O O3 0.188707 0.252024 0.872897
O O4 0.344416 0.272315 0.905814
O O5 0.571826 0.500000 0.271475
O O6 0.502656 0.248531 0.289948
O O7 0.679723 0.303826 0.303316
O O8 0.634256 0.500000 0.914215
O O9 0.513208 0.720221 0.928029
O O10 0.644562 0.711306 0.985521
O O11 0.530927 0.196478 0.600343
O O12 0.675708 0.217223 0.648464
O O13 0.556607 0.000000 0.673548
O O14 0.500000 0.785065 0.500000
O O15 0.353870 0.749580 0.587100
O O16 0.424815 0.000000 0.566545
O O17 0.405783 0.500000 0.945318
O O18 0.705032 0.500000 0.376827
#
# Coordination Sequence:
#
# PCOD8086039 Si02
#       7
#     8   8   8   8   8   8   8
#     4  10  19  31  47  68  93 119 148 188 234 270
#     4   9  19  33  47  66  93 122 153 189 227 269
#     4   9  17  31  49  67  88 118 153 185 222 275
#     4   9  18  33  51  68  91 124 156 187 225 267
#     4   9  18  32  49  72  99 122 150 189 226 264
#     4   8  16  31  48  65  90 121 149 181 227 279
#     4   9  18  33  50  68  93 125 156 186 225 269
#
# _framework density 17.741166
#
# number of rings (size 3 to 8) (size 9 to 14) (size 15 to 20)
#    0.000    3.000    0.000    1.286    0.000    3.143 
#    0.000    2.143    0.000    0.000    0.000    0.000 
#    0.000    0.000    0.000    0.000    0.000    0.000 
#
# Total GULP energy -347176.416605 kJ/mol
# GULP energy per Si atom -12399.157736 kJ/mol
# Density = 1.770079 g / cm^3
# Si number density = 17.741166 Si / 1000 Ang^3
#
#
#
# Elastic Constant Matrix: (Units=GPa)
#
#
# Indices 1 2 3 4 5 6 
#
# 1 115.0472 42.6190 52.9400 0.0000 -25.2274 0.0000
# 2 42.6190 45.2193 45.0319 0.0000 -16.8144 0.0000
# 3 52.9400 45.0319 114.6974 0.0000 -26.4551 0.0000
# 4 0.0000 0.0000 0.0000 25.9707 0.0000 -9.0628
# 5 -25.2274 -16.8144 -26.4551 0.0000 25.0827 0.0000
# 6 0.0000 0.0000 0.0000 -9.0628 0.0000 28.3470
#
#
#
# Elastic Compliance Matrix: (Units=1/GPa)
#
#
# Indices 1 2 3 4 5 6 
#
# 1 0.014345 -0.009856 -0.001252 0.000000 0.006500 0.000000
# 2 -0.009856 0.046200 -0.011540 0.000000 0.008887 0.000000
# 3 -0.001252 -0.011540 0.015531 0.000000 0.007385 0.000000
# 4 0.000000 0.000000 0.000000 0.043340 0.000000 0.013856
# 5 0.006500 0.008887 0.007385 0.000000 0.060152 0.000000
# 6 0.000000 0.000000 0.000000 0.013856 0.000000 0.039707
#
#
# Mechanical properties :
#
#
# Convention : Reuss Voigt Hill
#
# Bulk Modulus (GPa) = 32.48947 61.79395 47.14171
# Shear Modulus (GPa) = 18.19304 24.83828 21.51566
#
# Velocity S-wave (km/s) = 3.20577 3.74577 3.48624
# Velocity P-wave (km/s) = 5.66175 7.32217 6.54483
#
# Compressibility (1/GPa) = 0.03077920
#
# Stress axis : x y z
#
# Youngs Moduli (GPa) = 69.71260 21.64498 64.38838
#
# Poissons Ratio (x) = 0.21333 0.08063
# Poissons Ratio (y) = 0.68707 0.74305
# Poissons Ratio (z) = 0.08730 0.24978
#
# Static dielectric constant tensor:
#      x y z
#    x 3.439220 0.000000 0.112130 
#    y 0.000000 3.055520 0.000000 
#    z 0.112130 0.000000 3.363790 
# 
# 
# High freq. dielectric constant tensor:
#      x y z
#    x 1.689060 0.000000 -0.003290 
#    y 0.000000 1.666890 0.000000 
#    z -0.003290 0.000000 1.685770 
# 
# From -- ./inp_files/337843.got.cif
#   From: 2010.06.25/outbox.cif.g09.slc.cpg/sg12_169_cif.got.tgz:337843.got - 2010.06.28 00:19:55.
