data_PCOD8086468
_publ_section_title
;
Structure prediction by ZEFSAII (Michael W. Deem and Ramdas Pophale) SiO2 
 PCOD8086468
Probable space group: C 2/M
;
_chemical_formula_sum "Si O2"
_cell_formula_units_Z 64
_cell_length_a 17.977642
_cell_length_b 9.069527
_cell_length_c 30.588697
_cell_angle_alpha 90.000000
_cell_angle_beta 42.467640
_cell_angle_gamma 90.000000
_cell_volume 3367.393401
_symmetry_space_group_name_H-M "C 2/M"
_symmetry_group_IT_number 12
_symmetry_cell_setting 'monoclinic'
loop_
_space_group_symop_operation_xyz
x,y,z
-x,y,-z
-x,-y,-z
x,-y,z
1/2+x,1/2+y,z
1/2-x,1/2+y,-z
1/2-x,1/2-y,-z
1/2+x,1/2-y,z
loop_
_atom_site_type_symbol
_atom_site_label
_atom_site_fract_x
_atom_site_fract_y
_atom_site_fract_z
Si Si1 0.787018 0.325458 0.939723
Si Si2 0.091377 0.828692 0.690925
Si Si3 0.417084 0.833696 0.438204
Si Si4 0.991193 0.830989 0.178329
Si Si5 0.757999 0.165863 0.563430
Si Si6 0.079776 0.826775 0.309031
Si Si7 0.620531 0.674940 0.937192
Si Si8 0.698417 0.329689 0.809480
O O1 0.782399 0.500000 0.947722
O O2 0.908820 0.277523 0.874112
O O3 0.704715 0.270942 0.937603
O O4 0.750000 0.250000 0.000000
O O5 0.200972 0.740540 0.630028
O O6 0.062967 0.784269 0.752487
O O7 0.988237 0.785354 0.705075
O O8 0.119454 0.000000 0.673789
O O9 0.326442 0.831848 0.439843
O O10 0.368013 0.754557 0.502456
O O11 0.524975 0.747375 0.375271
O O12 0.450493 0.000000 0.436106
O O13 0.903881 0.809385 0.178067
O O14 0.033134 0.000000 0.161941
O O15 0.791927 0.000000 0.561030
O O16 0.202177 0.766866 0.251387
O O17 0.082783 0.000000 0.315741
O O18 0.612915 0.500000 0.938962
O O19 0.662486 0.732939 0.872240
O O20 0.500000 0.741546 0.000000
O O21 0.735748 0.500000 0.795989
#
# Coordination Sequence:
#
# PCOD8086468 Si02
#       8
#     8   8   8   8   8   8   8   8
#     4  11  22  36  57  82 108 138 172 212 257 305
#     4   9  18  32  50  74 104 137 171 210 260 312
#     4   9  16  27  45  70 101 135 172 213 258 310
#     4  10  21  37  56  77 104 138 175 215 257 304
#     4   9  16  26  44  72 103 134 170 213 260 308
#     4  10  19  31  49  74 105 136 169 213 261 309
#     4   9  18  34  56  80 105 135 172 211 251 299
#     4  10  20  35  55  76 101 136 176 214 255 305
#
# _framework density 19.005799
#
# number of rings (size 3 to 8) (size 9 to 14) (size 15 to 20)
#    0.000    2.375    0.000    3.000    0.000    6.500 
#    0.000    0.625    0.000    3.375    0.000    5.250 
#    0.000    0.000    0.000    0.000    0.000    0.000 
#
# Total GULP energy -396881.169611 kJ/mol
# GULP energy per Si atom -12402.536550 kJ/mol
# Density = 1.896254 g / cm^3
# Si number density = 19.005799 Si / 1000 Ang^3
#
#
#
# Elastic Constant Matrix: (Units=GPa)
#
#
# Indices 1 2 3 4 5 6 
#
# 1 75.2933 37.3552 57.1154 -0.0001 4.7838 0.0000
# 2 37.3552 97.0903 70.3042 -0.0001 -1.1969 0.0029
# 3 57.1154 70.3042 168.5680 0.0004 0.6531 0.0012
# 4 -0.0001 -0.0001 0.0004 37.1050 -0.0001 -2.6682
# 5 4.7838 -1.1969 0.6531 -0.0001 25.7759 0.0001
# 6 0.0000 0.0029 0.0012 -2.6682 0.0001 19.7082
#
#
#
# Elastic Compliance Matrix: (Units=1/GPa)
#
#
# Indices 1 2 3 4 5 6 
#
# 1 0.019112 -0.003895 -0.004837 0.000000 -0.003605 0.000001
# 2 -0.003895 0.015568 -0.005179 0.000000 0.001577 -0.000002
# 3 -0.004837 -0.005179 0.009730 0.000000 0.000411 0.000000
# 4 0.000000 0.000000 0.000000 0.027216 0.000000 0.003685
# 5 -0.003605 0.001577 0.000411 0.000000 0.039528 0.000000
# 6 0.000001 -0.000002 0.000000 0.003685 0.000000 0.051239
#
#
# Mechanical properties :
#
#
# Convention : Reuss Voigt Hill
#
# Bulk Modulus (GPa) = 60.28842 74.50014 67.39428
# Shear Modulus (GPa) = 25.54339 28.26294 26.90317
#
# Velocity S-wave (km/s) = 3.67001 3.86044 3.76643
# Velocity P-wave (km/s) = 7.05327 7.69119 7.37912
#
# Compressibility (1/GPa) = 0.01658693
#
# Stress axis : x y z
#
# Youngs Moduli (GPa) = 52.32209 64.23362 102.77654
#
# Poissons Ratio (x) = 0.25020 0.49716
# Poissons Ratio (y) = 0.20380 0.53231
# Poissons Ratio (z) = 0.25310 0.33269
#
# Static dielectric constant tensor:
#      x y z
#    x 3.254860 0.000000 0.046890 
#    y 0.000000 3.463120 -0.000010 
#    z 0.046890 -0.000010 3.893000 
# 
# 
# High freq. dielectric constant tensor:
#      x y z
#    x 1.711790 0.000000 0.002660 
#    y 0.000000 1.730810 0.000000 
#    z 0.002660 0.000000 1.757120 
# 
# From -- ./inp_files/378192.got.cif
#   From: 2010.06.25/outbox.cif.g09.slc.cpg/sg12_190_cif.got.tgz:378192.got - 2010.06.28 00:19:55.
