data_PCOD8086591
_publ_section_title
;
Structure prediction by ZEFSAII (Michael W. Deem and Ramdas Pophale) SiO2 
 PCOD8086591
Probable space group: C 2/M
;
_chemical_formula_sum "Si O2"
_cell_formula_units_Z 64
_cell_length_a 17.419402
_cell_length_b 22.962407
_cell_length_c 12.744872
_cell_angle_alpha 90.000000
_cell_angle_beta 47.395775
_cell_angle_gamma 90.000000
_cell_volume 3752.250108
_symmetry_space_group_name_H-M "C 2/M"
_symmetry_group_IT_number 12
_symmetry_cell_setting 'monoclinic'
loop_
_space_group_symop_operation_xyz
x,y,z
-x,y,-z
-x,-y,-z
x,-y,z
1/2+x,1/2+y,z
1/2-x,1/2+y,-z
1/2-x,1/2-y,-z
1/2+x,1/2-y,z
loop_
_atom_site_type_symbol
_atom_site_label
_atom_site_fract_x
_atom_site_fract_y
_atom_site_fract_z
Si Si1 0.226451 0.782934 0.816333
Si Si2 0.064993 0.353131 0.640824
Si Si3 0.035223 0.064457 0.848923
Si Si4 0.948834 0.814854 0.865053
Si Si5 0.579103 0.065143 0.330934
Si Si6 0.543761 0.253810 0.352779
Si Si7 0.243823 0.392547 0.330921
Si Si8 0.075960 0.709751 0.842776
O O1 0.346714 0.778452 0.734378
O O2 0.209588 0.830082 0.740743
O O3 0.184806 0.722995 0.801946
O O4 0.163012 0.802403 0.978629
O O5 0.163953 0.387126 0.501936
O O6 0.089386 0.337754 0.738979
O O7 0.961694 0.393837 0.726095
O O8 0.043105 0.293907 0.597868
O O9 0.160786 0.066870 0.722212
O O10 0.980484 0.117327 0.838492
O O11 0.001342 0.000000 0.838069
O O12 0.000000 0.072084 0.000000
O O13 0.942354 0.802779 0.747370
O O14 0.031251 0.771755 0.843666
O O15 0.500000 0.071913 0.500000
O O16 0.691695 0.082540 0.272276
O O17 0.583470 0.000000 0.282315
O O18 0.500000 0.282937 0.500000
O O19 0.000000 0.681925 0.000000
#
# Coordination Sequence:
#
# PCOD8086591 Si02
#       8
#     8   8   8   8   8   8   8   8
#     4  11  18  32  49  72 105 134 155 198 250 297
#     4  10  19  31  50  74 100 133 160 202 244 298
#     4  11  21  34  51  73 101 134 168 203 242 293
#     4  10  20  34  50  72 102 134 165 202 249 296
#     4   9  17  30  47  70 100 128 154 193 246 295
#     4  11  20  32  50  76 102 130 167 203 245 297
#     4  11  18  30  49  74 106 124 160 199 245 297
#     4   9  19  33  50  72 102 131 164 200 247 296
#
# _framework density 17.056432000000001
#
# number of rings (size 3 to 8) (size 9 to 14) (size 15 to 20)
#    0.000    1.750    5.000    1.500    0.000    2.000 
#    0.000    0.000    0.000    0.750    0.000    0.875 
#    0.000    0.000    0.000    0.000    0.000    0.000 
#
# Total GULP energy -396666.429315 kJ/mol
# GULP energy per Si atom -12395.825916 kJ/mol
# Density = 1.701761 g / cm^3
# Si number density = 17.056432 Si / 1000 Ang^3
#
#
#
# Elastic Constant Matrix: (Units=GPa)
#
#
# Indices 1 2 3 4 5 6 
#
# 1 50.2330 21.7498 39.8838 0.0000 2.1752 0.0001
# 2 21.7498 85.1423 31.8182 0.0000 11.4536 0.0000
# 3 39.8838 31.8182 91.9065 0.0000 6.5536 0.0001
# 4 0.0000 0.0000 0.0000 8.3894 0.0000 4.7566
# 5 2.1752 11.4536 6.5536 0.0000 27.9453 -0.0001
# 6 0.0001 0.0000 0.0001 4.7566 -0.0001 18.2736
#
#
#
# Elastic Compliance Matrix: (Units=1/GPa)
#
#
# Indices 1 2 3 4 5 6 
#
# 1 0.031279 -0.003594 -0.012469 0.000000 0.001963 0.000000
# 2 -0.003594 0.014486 -0.003104 0.000000 -0.004930 0.000000
# 3 -0.012469 -0.003104 0.017499 0.000000 -0.001861 0.000000
# 4 0.000000 0.000000 0.000000 0.139837 0.000000 -0.036400
# 5 0.001963 -0.004930 -0.001861 0.000000 0.038088 0.000000
# 6 0.000000 0.000000 0.000000 -0.036400 0.000000 0.064199
#
#
# Mechanical properties :
#
#
# Convention : Reuss Voigt Hill
#
# Bulk Modulus (GPa) = 40.11382 46.02061 43.06722
# Shear Modulus (GPa) = 14.20322 19.84364 17.02343
#
# Velocity S-wave (km/s) = 2.88882 3.41458 3.16264
# Velocity P-wave (km/s) = 5.89036 6.52578 6.21619
#
# Compressibility (1/GPa) = 0.02492906
#
# Stress axis : x y z
#
# Youngs Moduli (GPa) = 31.97038 69.03057 57.14577
#
# Poissons Ratio (x) = 0.24813 0.71257
# Poissons Ratio (y) = 0.11492 0.17737
# Poissons Ratio (z) = 0.39865 0.21426
#
# Static dielectric constant tensor:
#      x y z
#    x 3.206900 0.000000 -0.093960 
#    y 0.000000 3.111450 0.000000 
#    z -0.093960 0.000000 3.149680 
# 
# 
# High freq. dielectric constant tensor:
#      x y z
#    x 1.647050 0.000000 -0.019590 
#    y 0.000000 1.636530 0.000000 
#    z -0.019590 0.000000 1.647460 
# 
# From -- ./inp_files/160291.got.cif
#   From: 2010.06.25/outbox.cif.g09.slc.cpg/sg12_81_cif.got.tgz:160291.got - 2010.06.28 00:19:55.
