data_PCOD8086417
_publ_section_title
;
Structure prediction by ZEFSAII (Michael W. Deem and Ramdas Pophale) SiO2 
 PCOD8086417
Probable space group: C 2/M
;
_chemical_formula_sum "Si O2"
_cell_formula_units_Z 64
_cell_length_a 23.446896
_cell_length_b 8.633545
_cell_length_c 27.940862
_cell_angle_alpha 90.000000
_cell_angle_beta 142.221995
_cell_angle_gamma 90.000000
_cell_volume 3464.925615
_symmetry_space_group_name_H-M "C 2/M"
_symmetry_group_IT_number 12
_symmetry_cell_setting 'monoclinic'
loop_
_space_group_symop_operation_xyz
x,y,z
-x,y,-z
-x,-y,-z
x,-y,z
1/2+x,1/2+y,z
1/2-x,1/2+y,-z
1/2-x,1/2-y,-z
1/2+x,1/2-y,z
loop_
_atom_site_type_symbol
_atom_site_label
_atom_site_fract_x
_atom_site_fract_y
_atom_site_fract_z
Si Si1 0.618052 0.179604 0.298462
Si Si2 0.224184 0.318456 0.534011
Si Si3 0.839134 0.818171 0.770614
Si Si4 0.711424 0.322496 0.814781
Si Si5 0.969438 0.181388 0.593167
Si Si6 0.592519 0.179055 0.086346
Si Si7 0.643278 0.821752 0.674817
Si Si8 0.545536 0.819335 0.741433
O O1 0.696290 0.283770 0.374962
O O2 0.611176 0.222766 0.238235
O O3 0.517833 0.217842 0.254767
O O4 0.643593 0.000000 0.322435
O O5 0.210863 0.500000 0.519525
O O6 0.250000 0.250000 0.500000
O O7 0.128822 0.245124 0.490576
O O8 0.887424 0.773488 0.852408
O O9 0.728534 0.774198 0.696453
O O10 0.852453 0.000000 0.771352
O O11 0.688401 0.500000 0.785536
O O12 0.822397 0.302474 0.895605
O O13 0.680511 0.206578 0.752708
O O14 0.645553 0.269074 0.815333
O O15 0.992465 0.259857 0.659102
O O16 0.048547 0.222131 0.605603
O O17 0.962990 0.000000 0.596520
O O18 0.579103 0.000000 0.091684
O O19 0.500000 0.245784 0.000000
O O20 0.616855 0.000000 0.650427
O O21 0.564370 0.000000 0.748655
#
# Coordination Sequence:
#
# PCOD8086417 Si02
#       8
#     8   8   8   8   8   8   8   8
#     4  11  23  37  54  75 104 143 180 218 267 319
#     4  12  23  36  53  75 105 138 178 226 270 315
#     4  10  21  36  55  80 109 140 175 217 264 315
#     4   9  16  27  48  77 105 133 170 213 255 305
#     4  11  20  31  51  76 102 134 175 224 269 311
#     4   9  18  34  57  84 112 141 172 210 258 312
#     4   9  17  31  50  72 101 135 171 215 264 313
#     4  10  19  31  49  73 103 137 175 219 264 310
#
# _framework density 18.470815999999999
#
# number of rings (size 3 to 8) (size 9 to 14) (size 15 to 20)
#    0.000    1.875    1.250    5.625    0.000    3.750 
#    0.000    0.625    0.000    4.500    0.000    0.000 
#    0.000    0.000    0.000    0.000    0.000    0.000 
#
# Total GULP energy -396665.298286 kJ/mol
# GULP energy per Si atom -12395.790571 kJ/mol
# Density = 1.842878 g / cm^3
# Si number density = 18.470816 Si / 1000 Ang^3
#
#
#
# Elastic Constant Matrix: (Units=GPa)
#
#
# Indices 1 2 3 4 5 6 
#
# 1 129.6614 45.6991 48.2289 -0.0001 17.4343 0.0004
# 2 45.6991 55.4100 23.0553 -0.0001 10.8854 0.0007
# 3 48.2289 23.0553 66.8554 0.0000 19.1430 0.0000
# 4 -0.0001 -0.0001 0.0000 21.5659 0.0000 3.0018
# 5 17.4343 10.8854 19.1430 0.0000 28.9514 0.0000
# 6 0.0004 0.0007 0.0000 3.0018 0.0000 31.3223
#
#
#
# Elastic Compliance Matrix: (Units=1/GPa)
#
#
# Indices 1 2 3 4 5 6 
#
# 1 0.012983 -0.007901 -0.006480 0.000000 -0.000563 0.000000
# 2 -0.007901 0.026232 -0.002325 0.000000 -0.003568 0.000000
# 3 -0.006480 -0.002325 0.023519 0.000000 -0.010775 0.000000
# 4 0.000000 0.000000 0.000000 0.046996 0.000000 -0.004504
# 5 -0.000563 -0.003568 -0.010775 0.000000 0.043345 0.000000
# 6 0.000000 0.000000 0.000000 -0.004504 0.000000 0.032358
#
#
# Mechanical properties :
#
#
# Convention : Reuss Voigt Hill
#
# Bulk Modulus (GPa) = 34.10360 53.98817 44.04588
# Shear Modulus (GPa) = 21.87039 25.36415 23.61727
#
# Velocity S-wave (km/s) = 3.44474 3.70969 3.57967
# Velocity P-wave (km/s) = 5.85877 6.90228 6.40182
#
# Compressibility (1/GPa) = 0.02932242
#
# Stress axis : x y z
#
# Youngs Moduli (GPa) = 77.02337 38.12176 42.51840
#
# Poissons Ratio (x) = 0.30120 0.27552
# Poissons Ratio (y) = 0.60855 0.09885
# Poissons Ratio (z) = 0.49911 0.08863
#
# Static dielectric constant tensor:
#      x y z
#    x 3.950160 0.000000 0.429070 
#    y 0.000000 3.449060 0.000000 
#    z 0.429070 0.000000 3.105380 
# 
# 
# High freq. dielectric constant tensor:
#      x y z
#    x 1.727760 0.000000 0.028710 
#    y 0.000000 1.730800 0.000000 
#    z 0.028710 0.000000 1.665670 
# 
# From -- ./inp_files/346298.got.cif
#   From: 2010.06.25/outbox.cif.g09.slc.cpg/sg12_174_cif.got.tgz:346298.got - 2010.06.28 00:19:55.
