data_PCOD8086232
_publ_section_title
;
Structure prediction by ZEFSAII (Michael W. Deem and Ramdas Pophale) SiO2 
 PCOD8086232
Probable space group: C 2/M
;
_chemical_formula_sum "Si O2"
_cell_formula_units_Z 56
_cell_length_a 29.340415
_cell_length_b 9.097811
_cell_length_c 18.780382
_cell_angle_alpha 90.000000
_cell_angle_beta 37.970121
_cell_angle_gamma 90.000000
_cell_volume 3084.320693
_symmetry_space_group_name_H-M "C 2/M"
_symmetry_group_IT_number 12
_symmetry_cell_setting 'monoclinic'
loop_
_space_group_symop_operation_xyz
x,y,z
-x,y,-z
-x,-y,-z
x,-y,z
1/2+x,1/2+y,z
1/2-x,1/2+y,-z
1/2-x,1/2-y,-z
1/2+x,1/2-y,z
loop_
_atom_site_type_symbol
_atom_site_label
_atom_site_fract_x
_atom_site_fract_y
_atom_site_fract_z
Si Si1 0.726295 0.333128 0.236812
Si Si2 0.409520 0.669860 0.347063
Si Si3 0.106642 0.664383 0.915763
Si Si4 0.932325 0.831933 0.903894
Si Si5 0.316437 0.172516 0.575583
Si Si6 0.272660 0.326230 0.044511
Si Si7 0.153010 0.171139 0.726936
O O1 0.698394 0.500000 0.258883
O O2 0.809521 0.330964 0.161617
O O3 0.675733 0.253781 0.358213
O O4 0.721326 0.241746 0.169811
O O5 0.390347 0.500000 0.386561
O O6 0.497549 0.694809 0.233198
O O7 0.382198 0.770593 0.444898
O O8 0.369245 0.722184 0.324442
O O9 0.077420 0.500000 0.940961
O O10 0.100313 0.746567 0.848217
O O11 0.056434 0.740395 0.037620
O O12 0.926879 0.000000 0.935232
O O13 0.858689 0.786684 0.951851
O O14 0.238798 0.211402 0.633295
O O15 0.324873 0.000000 0.578281
O O16 0.258906 0.500000 0.057508
O O17 0.250000 0.250000 0.000000
O O18 0.137728 0.000000 0.756542
#
# Coordination Sequence:
#
# PCOD8086232 Si02
#       7
#     8   8   8   8   8   8   8
#     4   9  17  31  51  74  98 127 161 197 237 284
#     4  10  20  33  48  67  94 133 172 204 238 281
#     4   9  17  29  47  69  95 126 162 204 246 284
#     4   9  19  34  50  69  97 130 162 194 238 294
#     4  10  19  31  48  71  98 130 167 207 244 278
#     4  10  19  33  55  81 103 123 151 192 240 292
#     4   9  18  31  47  67  94 129 170 209 244 280
#
# _framework density 18.156348999999999
#
# number of rings (size 3 to 8) (size 9 to 14) (size 15 to 20)
#    0.000    2.571    0.000    2.143    0.000    6.286 
#    0.000    2.857    0.000    0.857    0.000    6.000 
#    0.000    0.000    0.000    0.000    0.000    0.000 
#
# Total GULP energy -347236.677538 kJ/mol
# GULP energy per Si atom -12401.309912 kJ/mol
# Density = 1.811502 g / cm^3
# Si number density = 18.156349 Si / 1000 Ang^3
#
#
#
# Elastic Constant Matrix: (Units=GPa)
#
#
# Indices 1 2 3 4 5 6 
#
# 1 59.2751 44.4373 61.4860 0.0115 22.9574 -0.0086
# 2 44.4373 107.0708 64.5015 -0.0098 19.9638 0.0032
# 3 61.4860 64.5015 113.0893 -0.0209 26.4366 0.0106
# 4 0.0115 -0.0098 -0.0209 36.5811 0.0011 10.2210
# 5 22.9574 19.9638 26.4366 0.0011 28.1807 0.0002
# 6 -0.0086 0.0032 0.0106 10.2210 0.0002 23.0720
#
#
#
# Elastic Compliance Matrix: (Units=1/GPa)
#
#
# Indices 1 2 3 4 5 6 
#
# 1 0.046101 -0.004971 -0.018283 -0.000038 -0.016883 0.000043
# 2 -0.004971 0.014988 -0.005521 0.000003 -0.001388 -0.000003
# 3 -0.018283 -0.005521 0.022461 0.000025 -0.002266 -0.000027
# 4 -0.000038 0.000003 0.000025 0.031198 0.000004 -0.013821
# 5 -0.016883 -0.001388 -0.002266 0.000004 0.052349 -0.000007
# 6 0.000043 -0.000003 -0.000027 -0.013821 -0.000007 0.049465
#
#
# Mechanical properties :
#
#
# Convention : Reuss Voigt Hill
#
# Bulk Modulus (GPa) = 38.46124 68.92053 53.69089
# Shear Modulus (GPa) = 17.68170 24.83412 21.25791
#
# Velocity S-wave (km/s) = 3.12405 3.70238 3.42544
# Velocity P-wave (km/s) = 5.85169 7.50458 6.72908
#
# Compressibility (1/GPa) = 0.02600020
#
# Stress axis : x y z
#
# Youngs Moduli (GPa) = 21.69158 66.72176 44.52098
#
# Poissons Ratio (x) = 0.33170 0.81396
# Poissons Ratio (y) = 0.10784 0.24579
# Poissons Ratio (z) = 0.39658 0.36836
#
# Static dielectric constant tensor:
#      x y z
#    x 3.132290 0.000000 0.124300 
#    y 0.000000 3.451280 0.000020 
#    z 0.124300 0.000020 3.332810 
# 
# 
# High freq. dielectric constant tensor:
#      x y z
#    x 1.671880 0.000000 0.016150 
#    y 0.000000 1.711370 0.000000 
#    z 0.016150 0.000000 1.700980 
# 
# From -- ./inp_files/280930.got.cif
#   From: 2010.06.25/outbox.cif.g09.slc.cpg/sg12_141_cif.got.tgz:280930.got - 2010.06.28 00:19:55.
