data_PCOD8086710
_publ_section_title
;
Structure prediction by ZEFSAII (Michael W. Deem and Ramdas Pophale) SiO2 
 PCOD8086710
Probable space group: C 2/M
;
_chemical_formula_sum "Si O2"
_cell_formula_units_Z 64
_cell_length_a 18.769790
_cell_length_b 8.729477
_cell_length_c 20.630040
_cell_angle_alpha 90.000000
_cell_angle_beta 94.028024
_cell_angle_gamma 90.000000
_cell_volume 3371.891509
_symmetry_space_group_name_H-M "C 2/M"
_symmetry_group_IT_number 12
_symmetry_cell_setting 'monoclinic'
loop_
_space_group_symop_operation_xyz
x,y,z
-x,y,-z
-x,-y,-z
x,-y,z
1/2+x,1/2+y,z
1/2-x,1/2+y,-z
1/2-x,1/2-y,-z
1/2+x,1/2-y,z
loop_
_atom_site_type_symbol
_atom_site_label
_atom_site_fract_x
_atom_site_fract_y
_atom_site_fract_z
Si Si1 0.332004 0.177645 0.933722
Si Si2 0.432142 0.819758 0.193325
Si Si3 0.696679 0.322616 0.282802
Si Si4 0.810847 0.821642 0.574740
Si Si5 0.582884 0.319949 0.170546
Si Si6 0.160752 0.176052 0.557534
Si Si7 0.817271 0.321479 0.080907
Si Si8 0.350713 0.317901 0.304328
O O1 0.390864 0.275428 0.899350
O O2 0.253015 0.225793 0.906310
O O3 0.343365 0.000000 0.918855
O O4 0.343705 0.214406 0.010068
O O5 0.510191 0.765557 0.180282
O O6 0.378641 0.766051 0.133329
O O7 0.409181 0.748118 0.259864
O O8 0.431315 0.000000 0.200351
O O9 0.714747 0.500000 0.272005
O O10 0.658097 0.298762 0.350872
O O11 0.641605 0.261559 0.225919
O O12 0.770822 0.233163 0.280279
O O13 0.865125 0.776377 0.517756
O O14 0.744718 0.708219 0.564339
O O15 0.787524 0.000000 0.563973
O O16 0.570155 0.500000 0.175001
O O17 0.128306 0.249214 0.621720
O O18 0.145105 0.000000 0.565965
O O19 0.798514 0.500000 0.087912
O O20 0.353324 0.500000 0.301511
#
# Coordination Sequence:
#
# PCOD8086710 Si02
#       8
#     8   8   8   8   8   8   8   8
#     4  10  20  36  59  83 105 131 164 202 247 299
#     4  11  23  38  54  72  99 136 174 209 248 295
#     4   9  18  32  51  74 101 134 169 206 248 296
#     4   8  13  24  43  67  95 127 162 198 242 294
#     4  11  23  37  52  74 105 136 169 210 252 294
#     4   8  14  24  41  68  99 126 156 200 248 292
#     4   9  20  38  58  80 105 132 165 206 247 291
#     4  10  19  31  50  77 105 131 164 208 254 299
#
# _framework density 18.980443000000001
#
# number of rings (size 3 to 8) (size 9 to 14) (size 15 to 20)
#    0.000    2.500    0.000    2.250    0.000    6.500 
#    0.000    2.500    0.000    0.750    0.000    5.250 
#    0.000    0.000    0.000    0.000    0.000    0.000 
#
# Total GULP energy -396458.393419 kJ/mol
# GULP energy per Si atom -12389.324794 kJ/mol
# Density = 1.893724 g / cm^3
# Si number density = 18.980443 Si / 1000 Ang^3
#
#
#
# Elastic Constant Matrix: (Units=GPa)
#
#
# Indices 1 2 3 4 5 6 
#
# 1 62.2966 12.5224 43.0230 0.0000 -19.3570 0.0000
# 2 12.5224 25.6720 18.3822 0.0000 -2.6886 0.0000
# 3 43.0230 18.3822 117.1117 0.0000 -29.1193 0.0000
# 4 0.0000 0.0000 0.0000 24.9059 0.0000 -3.8194
# 5 -19.3570 -2.6886 -29.1193 0.0000 16.7111 0.0000
# 6 0.0000 0.0000 0.0000 -3.8194 0.0000 27.6129
#
#
#
# Elastic Compliance Matrix: (Units=1/GPa)
#
#
# Indices 1 2 3 4 5 6 
#
# 1 0.027724 -0.009265 -0.001970 0.000000 0.027190 0.000000
# 2 -0.009265 0.047714 -0.008550 0.000000 -0.017953 0.000000
# 3 -0.001970 -0.008550 0.017107 0.000000 0.026152 0.000000
# 4 0.000000 0.000000 0.000000 0.041021 0.000000 0.005674
# 5 0.027190 -0.017953 0.026152 0.000000 0.134017 0.000000
# 6 0.000000 0.000000 0.000000 0.005674 0.000000 0.037000
#
#
# Mechanical properties :
#
#
# Convention : Reuss Voigt Hill
#
# Bulk Modulus (GPa) = 18.87666 39.21505 29.04585
# Shear Modulus (GPa) = 13.81941 22.58950 18.20446
#
# Velocity S-wave (km/s) = 2.70124 3.45359 3.10032
# Velocity P-wave (km/s) = 4.43800 6.05051 5.30587
#
# Compressibility (1/GPa) = 0.05297548
#
# Stress axis : x y z
#
# Youngs Moduli (GPa) = 36.07044 20.95823 58.45545
#
# Poissons Ratio (x) = 0.19418 0.11514
# Poissons Ratio (y) = 0.33420 0.49977
# Poissons Ratio (z) = 0.07105 0.17919
#
# Static dielectric constant tensor:
#      x y z
#    x 3.076130 0.000000 -0.100410 
#    y 0.000000 3.432510 0.000000 
#    z -0.100410 0.000000 4.190290 
# 
# 
# High freq. dielectric constant tensor:
#      x y z
#    x 1.689300 0.000000 -0.015210 
#    y 0.000000 1.734790 0.000000 
#    z -0.015210 0.000000 1.769930 
# 
# From -- ./inp_files/314073.got.cif
#   From: 2010.06.25/outbox.cif.g09.slc.cpg/sg12_158_cif.got.tgz:314073.got - 2010.06.28 00:19:55.
