data_PCOD8086195
_publ_section_title
;
Structure prediction by ZEFSAII (Michael W. Deem and Ramdas Pophale) SiO2 
 PCOD8086195
Probable space group: C 2/M
;
_chemical_formula_sum "Si O2"
_cell_formula_units_Z 64
_cell_length_a 9.006815
_cell_length_b 28.782288
_cell_length_c 12.267368
_cell_angle_alpha 90.000000
_cell_angle_beta 81.315045
_cell_angle_gamma 90.000000
_cell_volume 3143.687538
_symmetry_space_group_name_H-M "C 2/M"
_symmetry_group_IT_number 12
_symmetry_cell_setting 'monoclinic'
loop_
_space_group_symop_operation_xyz
x,y,z
-x,y,-z
-x,-y,-z
x,-y,z
1/2+x,1/2+y,z
1/2-x,1/2+y,-z
1/2-x,1/2-y,-z
1/2+x,1/2-y,z
loop_
_atom_site_type_symbol
_atom_site_label
_atom_site_fract_x
_atom_site_fract_y
_atom_site_fract_z
Si Si1 0.232918 0.447281 0.167225
Si Si2 0.255673 0.139218 0.558904
Si Si3 0.192533 0.304158 0.668310
Si Si4 0.250046 0.445825 0.699909
Si Si5 0.022825 0.212468 0.624998
Si Si6 0.590817 0.553225 0.641030
Si Si7 0.501452 0.117519 0.701398
Si Si8 0.339099 0.946321 0.054038
O O1 0.170941 0.500000 0.188499
O O2 0.370502 0.439158 0.234756
O O3 0.098534 0.411466 0.204353
O O4 0.277558 0.439234 0.035181
O O5 0.290011 0.166816 0.445679
O O6 0.124118 0.167292 0.636929
O O7 0.191495 0.086476 0.553415
O O8 0.406969 0.138012 0.611929
O O9 0.107532 0.255886 0.667018
O O10 0.358745 0.295103 0.698783
O O11 0.086512 0.338711 0.751429
O O12 0.217592 0.500000 0.692870
O O13 0.417674 0.434134 0.642648
O O14 0.226976 0.425637 0.826385
O O15 0.130954 0.417311 0.639103
O O16 0.000000 0.222496 0.500000
O O17 0.623772 0.500000 0.601972
O O18 0.362893 0.000000 0.076920
O O19 0.500000 0.924717 0.000000
#
# Coordination Sequence:
#
# PCOD8086195 Si02
#       8
#     8   8   8   8   8   8   8   8
#     4   9  17  30  47  68  98 135 167 208 250 286
#     4  10  20  34  50  71  99 131 165 201 242 290
#     4  11  21  34  54  77  99 126 158 200 250 295
#     4  10  19  31  48  70  98 133 169 208 247 290
#     4  10  19  34  54  74  97 120 155 203 254 293
#     4   9  19  33  47  68 102 137 168 201 243 287
#     4  11  19  29  47  70  99 129 164 199 243 293
#     4   9  15  26  46  70  95 124 166 209 250 290
#
# _framework density 20.358259
#
# number of rings (size 3 to 8) (size 9 to 14) (size 15 to 20)
#    0.000    2.125    1.250    4.500    0.000    1.000 
#    0.000    3.750    0.000   10.125    0.000    0.000 
#    0.000   38.000    0.000    0.000    0.000    0.125 
#
# Total GULP energy -396456.478354 kJ/mol
# GULP energy per Si atom -12389.264949 kJ/mol
# Density = 2.031192 g / cm^3
# Si number density = 20.358259 Si / 1000 Ang^3
#
#
#
# Elastic Constant Matrix: (Units=GPa)
#
#
# Indices 1 2 3 4 5 6 
#
# 1 127.5742 53.7187 5.6446 0.0000 4.0376 0.0000
# 2 53.7187 103.9323 7.3313 0.0000 -5.6923 0.0000
# 3 5.6446 7.3313 19.7031 0.0000 3.3139 0.0000
# 4 0.0000 0.0000 0.0000 10.6146 0.0000 -1.0186
# 5 4.0376 -5.6923 3.3139 0.0000 23.2249 0.0000
# 6 0.0000 0.0000 0.0000 -1.0186 0.0000 47.0501
#
#
#
# Elastic Compliance Matrix: (Units=1/GPa)
#
#
# Indices 1 2 3 4 5 6 
#
# 1 0.010240 -0.005432 -0.000399 0.000000 -0.003055 0.000000
# 2 -0.005432 0.012973 -0.004062 0.000000 0.004704 0.000000
# 3 -0.000399 -0.004062 0.053827 0.000000 -0.008607 0.000000
# 4 0.000000 0.000000 0.000000 0.094406 0.000000 0.002044
# 5 -0.003055 0.004704 -0.008607 0.000000 0.045969 0.000000
# 6 0.000000 0.000000 0.000000 0.002044 0.000000 0.021298
#
#
# Mechanical properties :
#
#
# Convention : Reuss Voigt Hill
#
# Bulk Modulus (GPa) = 17.46586 42.73319 30.09953
# Shear Modulus (GPa) = 18.01257 28.47891 23.24574
#
# Velocity S-wave (km/s) = 2.97775 3.74423 3.38277
# Velocity P-wave (km/s) = 4.51891 6.30305 5.48402
#
# Compressibility (1/GPa) = 0.05725454
#
# Stress axis : x y z
#
# Youngs Moduli (GPa) = 97.65472 77.08100 18.57815
#
# Poissons Ratio (x) = 0.41870 0.00741
# Poissons Ratio (y) = 0.53045 0.07547
# Poissons Ratio (z) = 0.03894 0.31312
#
# Static dielectric constant tensor:
#      x y z
#    x 4.165810 0.000000 -0.022670 
#    y 0.000000 3.855690 0.000000 
#    z -0.022670 0.000000 3.423530 
# 
# 
# High freq. dielectric constant tensor:
#      x y z
#    x 1.813780 0.000000 0.001650 
#    y 0.000000 1.788970 0.000000 
#    z 0.001650 0.000000 1.743350 
# 
# From -- ./inp_files/199822.got.cif
#   From: 2010.06.25/outbox.cif.g09.slc.cpg/sg12_100_cif.got.tgz:199822.got - 2010.06.28 00:19:55.
