data_PCOD8086309
_publ_section_title
;
Structure prediction by ZEFSAII (Michael W. Deem and Ramdas Pophale) SiO2 
 PCOD8086309
Probable space group: C 2/M
;
_chemical_formula_sum "Si O2"
_cell_formula_units_Z 48
_cell_length_a 19.272817
_cell_length_b 9.383171
_cell_length_c 15.504659
_cell_angle_alpha 90.000000
_cell_angle_beta 89.666430
_cell_angle_gamma 90.000000
_cell_volume 2803.817149
_symmetry_space_group_name_H-M "C 2/M"
_symmetry_group_IT_number 12
_symmetry_cell_setting 'monoclinic'
loop_
_space_group_symop_operation_xyz
x,y,z
-x,y,-z
-x,-y,-z
x,-y,z
1/2+x,1/2+y,z
1/2-x,1/2+y,-z
1/2-x,1/2-y,-z
1/2+x,1/2-y,z
loop_
_atom_site_type_symbol
_atom_site_label
_atom_site_fract_x
_atom_site_fract_y
_atom_site_fract_z
Si Si1 0.049759 0.830090 0.426335
Si Si2 0.044389 0.842248 0.239118
Si Si3 0.453254 0.834505 0.922199
Si Si4 0.293966 0.668036 0.569791
Si Si5 0.208618 0.667650 0.073535
Si Si6 0.209174 0.157991 0.237743
O O1 0.020525 0.781842 0.332671
O O2 0.127555 0.774598 0.441100
O O3 0.000000 0.764855 0.500000
O O4 0.050287 0.000000 0.428418
O O5 0.017900 0.740241 0.163865
O O6 0.126852 0.849918 0.240604
O O7 0.013742 0.000000 0.222634
O O8 0.372720 0.800578 0.940612
O O9 0.465686 0.000000 0.907714
O O10 0.500000 0.776180 0.000000
O O11 0.289491 0.500000 0.552484
O O12 0.250000 0.750000 0.500000
O O13 0.265516 0.703377 0.666588
O O14 0.225109 0.500000 0.069736
O O15 0.233851 0.727949 0.166141
O O16 0.250000 0.750000 0.000000
O O17 0.238192 0.000000 0.213890
#
# Coordination Sequence:
#
# PCOD8086309 Si02
#       6
#     8   8   8   8   8   8
#     4   8  14  27  47  68  90 117 149 184 222 263
#     4   8  14  26  46  68  87 114 152 187 217 255
#     4   9  18  32  48  66  90 120 149 179 222 271
#     4   9  17  29  47  69  92 120 151 186 227 267
#     4  10  19  31  49  70  91 118 151 187 226 268
#     4   8  15  29  46  64  89 121 155 186 219 264
#
# _framework density 17.119520000000001
#
# number of rings (size 3 to 8) (size 9 to 14) (size 15 to 20)
#    0.000    3.333    0.000    2.500    0.000    1.667 
#    0.000    4.167    0.000    6.000    0.000    0.000 
#    0.000    0.000    0.000    0.000    0.000    0.000 
#
# Total GULP energy -297439.619090 kJ/mol
# GULP energy per Si atom -12393.317462 kJ/mol
# Density = 1.708056 g / cm^3
# Si number density = 17.119520 Si / 1000 Ang^3
#
#
#
# Elastic Constant Matrix: (Units=GPa)
#
#
# Indices 1 2 3 4 5 6 
#
# 1 49.1212 32.2178 60.1485 0.0000 1.5072 0.0000
# 2 32.2178 70.9958 74.2946 0.0000 -0.5243 0.0000
# 3 60.1485 74.2946 187.2486 0.0000 2.4027 0.0000
# 4 0.0000 0.0000 0.0000 33.1477 0.0000 5.8331
# 5 1.5072 -0.5243 2.4027 0.0000 31.1432 0.0000
# 6 0.0000 0.0000 0.0000 5.8331 0.0000 14.5448
#
#
#
# Elastic Compliance Matrix: (Units=1/GPa)
#
#
# Indices 1 2 3 4 5 6 
#
# 1 0.035606 -0.007205 -0.008563 0.000000 -0.001184 0.000000
# 2 -0.007205 0.025585 -0.007855 0.000000 0.001385 0.000000
# 3 -0.008563 -0.007855 0.011215 0.000000 -0.000583 0.000000
# 4 0.000000 0.000000 0.000000 0.032459 0.000000 -0.013017
# 5 -0.001184 0.001385 -0.000583 0.000000 0.032235 0.000000
# 6 0.000000 0.000000 0.000000 -0.013017 0.000000 0.073974
#
#
# Mechanical properties :
#
#
# Convention : Reuss Voigt Hill
#
# Bulk Modulus (GPa) = 39.74675 71.18750 55.46712
# Shear Modulus (GPa) = 18.74720 25.14745 21.94733
#
# Velocity S-wave (km/s) = 3.31279 3.83683 3.58440
# Velocity P-wave (km/s) = 6.15633 7.82951 7.04278
#
# Compressibility (1/GPa) = 0.02515929
#
# Stress axis : x y z
#
# Youngs Moduli (GPa) = 28.08531 39.08556 89.16511
#
# Poissons Ratio (x) = 0.28163 0.76355
# Poissons Ratio (y) = 0.20237 0.70035
# Poissons Ratio (z) = 0.24050 0.30700
#
# Static dielectric constant tensor:
#      x y z
#    x 2.902540 0.000000 0.044060 
#    y 0.000000 3.131760 0.000000 
#    z 0.044060 0.000000 3.460410 
# 
# 
# High freq. dielectric constant tensor:
#      x y z
#    x 1.620970 0.000000 -0.000770 
#    y 0.000000 1.643420 0.000000 
#    z -0.000770 0.000000 1.677830 
# 
# From -- ./inp_files/229285.got.cif
#   From: 2010.06.25/outbox.cif.g09.slc.cpg/sg12_115_cif.got.tgz:229285.got - 2010.06.28 00:19:55.
