data_PCOD8086303
_publ_section_title
;
Structure prediction by ZEFSAII (Michael W. Deem and Ramdas Pophale) SiO2 
 PCOD8086303
Probable space group: C 2/M
;
_chemical_formula_sum "Si O2"
_cell_formula_units_Z 64
_cell_length_a 30.808125
_cell_length_b 9.415526
_cell_length_c 14.626052
_cell_angle_alpha 90.000000
_cell_angle_beta 62.290685
_cell_angle_gamma 90.000000
_cell_volume 3756.092529
_symmetry_space_group_name_H-M "C 2/M"
_symmetry_group_IT_number 12
_symmetry_cell_setting 'monoclinic'
loop_
_space_group_symop_operation_xyz
x,y,z
-x,y,-z
-x,-y,-z
x,-y,z
1/2+x,1/2+y,z
1/2-x,1/2+y,-z
1/2-x,1/2-y,-z
1/2+x,1/2-y,z
loop_
_atom_site_type_symbol
_atom_site_label
_atom_site_fract_x
_atom_site_fract_y
_atom_site_fract_z
Si Si1 0.613108 0.668361 0.859255
Si Si2 0.917733 0.335530 0.740732
Si Si3 0.581421 0.665990 0.084290
Si Si4 0.471006 0.838094 0.368064
Si Si5 0.801998 0.165645 0.551491
Si Si6 0.968191 0.165827 0.197706
Si Si7 0.382137 0.162744 0.580864
Si Si8 0.295197 0.334551 0.347373
O O1 0.611599 0.500000 0.859617
O O2 0.565059 0.723895 0.852742
O O3 0.662333 0.721925 0.761549
O O4 0.611286 0.720884 0.966137
O O5 0.914105 0.500000 0.770157
O O6 0.898419 0.247149 0.846545
O O7 0.883740 0.300371 0.686937
O O8 0.973590 0.292774 0.661414
O O9 0.589343 0.500000 0.093887
O O10 0.524543 0.701420 0.121030
O O11 0.450086 0.742429 0.307039
O O12 0.437118 0.815566 0.489444
O O13 0.469599 0.000000 0.335629
O O14 0.845823 0.230540 0.566887
O O15 0.752199 0.242670 0.630067
O O16 0.812754 0.191415 0.434000
O O17 0.797196 0.000000 0.579060
O O18 0.959662 0.000000 0.221906
O O19 0.364987 0.000000 0.581857
O O20 0.282980 0.500000 0.343268
#
# Coordination Sequence:
#
# PCOD8086303 Si02
#       8
#     8   8   8   8   8   8   8   8
#     4   9  16  28  48  70  92 123 160 190 221 270
#     4   9  18  32  47  65  93 127 159 191 227 267
#     4   9  17  29  46  68  94 125 159 193 226 262
#     4   9  17  29  45  67  95 125 157 190 223 266
#     4  10  20  33  50  73  98 119 145 188 235 276
#     4   9  16  27  44  68  98 127 154 186 226 271
#     4  10  19  31  49  69  91 124 160 189 225 276
#     4   9  18  33  51  70  95 125 152 181 225 280
#
# _framework density 17.038983999999999
#
# number of rings (size 3 to 8) (size 9 to 14) (size 15 to 20)
#    0.000    2.750    0.000    1.875    0.000    5.500 
#    0.000    1.875    0.000    7.500    0.000    0.000 
#    0.000    0.000    0.000    0.000    0.000    0.000 
#
# Total GULP energy -396769.540896 kJ/mol
# GULP energy per Si atom -12399.048153 kJ/mol
# Density = 1.700020 g / cm^3
# Si number density = 17.038984 Si / 1000 Ang^3
#
#
#
# Elastic Constant Matrix: (Units=GPa)
#
#
# Indices 1 2 3 4 5 6 
#
# 1 77.5410 39.6769 44.3833 0.0000 7.8880 0.0000
# 2 39.6769 56.3596 41.6335 0.0000 4.4697 0.0000
# 3 44.3833 41.6335 119.1028 0.0000 6.3147 0.0000
# 4 0.0000 0.0000 0.0000 23.0392 0.0000 2.9363
# 5 7.8880 4.4697 6.3147 0.0000 20.7490 0.0000
# 6 0.0000 0.0000 0.0000 2.9363 0.0000 25.5742
#
#
#
# Elastic Compliance Matrix: (Units=1/GPa)
#
#
# Indices 1 2 3 4 5 6 
#
# 1 0.021666 -0.012278 -0.003543 0.000000 -0.004513 0.000000
# 2 -0.012278 0.031022 -0.006263 0.000000 -0.000109 0.000000
# 3 -0.003543 -0.006263 0.011955 0.000000 -0.000943 0.000000
# 4 0.000000 0.000000 0.000000 0.044049 0.000000 -0.005057
# 5 -0.004513 -0.000109 -0.000943 0.000000 0.050221 0.000000
# 6 0.000000 0.000000 0.000000 -0.005057 0.000000 0.039683
#
#
# Mechanical properties :
#
#
# Convention : Reuss Voigt Hill
#
# Bulk Modulus (GPa) = 48.83622 56.04342 52.43982
# Shear Modulus (GPa) = 20.03308 22.35980 21.19644
#
# Velocity S-wave (km/s) = 3.43260 3.62646 3.53086
# Velocity P-wave (km/s) = 6.66588 7.10617 6.88954
#
# Compressibility (1/GPa) = 0.02047661
#
# Stress axis : x y z
#
# Youngs Moduli (GPa) = 46.15622 32.23544 83.64367
#
# Poissons Ratio (x) = 0.39577 0.29631
# Poissons Ratio (y) = 0.56669 0.52386
# Poissons Ratio (z) = 0.16351 0.20189
#
# Static dielectric constant tensor:
#      x y z
#    x 3.054270 0.000000 0.063510 
#    y 0.000000 3.087610 0.000000 
#    z 0.063510 0.000000 3.313180 
# 
# 
# High freq. dielectric constant tensor:
#      x y z
#    x 1.641080 0.000000 0.007310 
#    y 0.000000 1.643290 0.000000 
#    z 0.007310 0.000000 1.652880 
# 
# From -- ./inp_files/248958.got.cif
#   From: 2010.06.25/outbox.cif.g09.slc.cpg/sg12_125_cif.got.tgz:248958.got - 2010.06.28 00:19:55.
