data_PCOD8086984
_publ_section_title
;
Structure prediction by ZEFSAII (Michael W. Deem and Ramdas Pophale) SiO2 
 PCOD8086984
Probable space group: C 2/M
;
_chemical_formula_sum "Si O2"
_cell_formula_units_Z 64
_cell_length_a 19.966546
_cell_length_b 8.830480
_cell_length_c 20.393845
_cell_angle_alpha 90.000000
_cell_angle_beta 78.599150
_cell_angle_gamma 90.000000
_cell_volume 3524.774204
_symmetry_space_group_name_H-M "C 2/M"
_symmetry_group_IT_number 12
_symmetry_cell_setting 'monoclinic'
loop_
_space_group_symop_operation_xyz
x,y,z
-x,y,-z
-x,-y,-z
x,-y,z
1/2+x,1/2+y,z
1/2-x,1/2+y,-z
1/2-x,1/2-y,-z
1/2+x,1/2-y,z
loop_
_atom_site_type_symbol
_atom_site_label
_atom_site_fract_x
_atom_site_fract_y
_atom_site_fract_z
Si Si1 0.774690 0.673602 0.301669
Si Si2 0.258034 0.322623 0.928072
Si Si3 0.083753 0.325014 0.671632
Si Si4 0.363364 0.178674 0.680059
Si Si5 0.009876 0.678732 0.426026
Si Si6 0.022895 0.178111 0.810109
Si Si7 0.881347 0.320038 0.824970
Si Si8 0.148747 0.675408 0.843098
O O1 0.751576 0.500000 0.304132
O O2 0.834705 0.701385 0.343229
O O3 0.709532 0.771780 0.334781
O O4 0.801272 0.726606 0.225393
O O5 0.273514 0.500000 0.930610
O O6 0.319616 0.243554 0.879045
O O7 0.186902 0.293120 0.903800
O O8 0.250000 0.250000 0.000000
O O9 0.066217 0.500000 0.691713
O O10 0.046460 0.224280 0.732926
O O11 0.056187 0.280453 0.605275
O O12 0.422588 0.246382 0.621932
O O13 0.373627 0.239945 0.751880
O O14 0.367861 0.000000 0.679708
O O15 0.018386 0.500000 0.431531
O O16 0.000000 0.752124 0.500000
O O17 0.078878 0.229230 0.853241
O O18 0.951667 0.257984 0.841542
O O19 0.012992 0.000000 0.815901
O O20 0.880744 0.500000 0.828956
O O21 0.129507 0.500000 0.837234
#
# Coordination Sequence:
#
# PCOD8086984 Si02
#       8
#     8   8   8   8   8   8   8   8
#     4   9  17  30  51  76 105 139 174 219 269 323
#     4  11  23  40  60  85 116 150 185 222 274 332
#     4   9  17  33  52  75 106 142 182 222 275 330
#     4  10  19  31  52  80 106 135 179 231 270 313
#     4   9  17  32  54  77 103 141 188 229 268 325
#     4  11  21  32  54  85 112 141 182 232 278 323
#     4  11  21  36  57  82 113 146 185 231 277 324
#     4   9  19  36  56  79 111 147 181 220 272 328
#
# _framework density 18.157191000000001
#
# number of rings (size 3 to 8) (size 9 to 14) (size 15 to 20)
#    0.000    2.125    2.500    2.625    0.000    3.500 
#    0.000    1.250    0.000    5.250    0.000    0.000 
#    0.000    0.000    0.000    0.000    0.000    0.000 
#
# Total GULP energy -396810.256144 kJ/mol
# GULP energy per Si atom -12400.320505 kJ/mol
# Density = 1.811586 g / cm^3
# Si number density = 18.157191 Si / 1000 Ang^3
#
#
#
# Elastic Constant Matrix: (Units=GPa)
#
#
# Indices 1 2 3 4 5 6 
#
# 1 133.9125 48.0987 61.6947 0.0000 3.4909 0.0000
# 2 48.0987 65.5230 39.5710 0.0000 -0.6384 0.0000
# 3 61.6947 39.5710 117.1856 0.0000 4.1595 0.0000
# 4 0.0000 0.0000 0.0000 17.1688 0.0000 -2.6158
# 5 3.4909 -0.6384 4.1595 0.0000 28.3512 0.0000
# 6 0.0000 0.0000 0.0000 -2.6158 0.0000 32.6157
#
#
#
# Elastic Compliance Matrix: (Units=1/GPa)
#
#
# Indices 1 2 3 4 5 6 
#
# 1 0.011497 -0.006048 -0.003976 0.000000 -0.000968 0.000000
# 2 -0.006048 0.022407 -0.004450 0.000000 0.001902 0.000000
# 3 -0.003976 -0.004450 0.012179 0.000000 -0.001397 0.000000
# 4 0.000000 0.000000 0.000000 0.058966 0.000000 0.004729
# 5 -0.000968 0.001902 -0.001397 0.000000 0.035639 0.000000
# 6 0.000000 0.000000 0.000000 0.004729 0.000000 0.031039
#
#
# Mechanical properties :
#
#
# Convention : Reuss Voigt Hill
#
# Bulk Modulus (GPa) = 58.35866 68.37221 63.36543
# Shear Modulus (GPa) = 24.22632 26.77757 25.50194
#
# Velocity S-wave (km/s) = 3.65671 3.84443 3.75174
# Velocity P-wave (km/s) = 7.07384 7.57916 7.33086
#
# Compressibility (1/GPa) = 0.01713542
#
# Stress axis : x y z
#
# Youngs Moduli (GPa) = 86.98009 44.62835 82.10767
#
# Poissons Ratio (x) = 0.26990 0.32648
# Poissons Ratio (y) = 0.52602 0.36538
# Poissons Ratio (z) = 0.34585 0.19860
#
# Static dielectric constant tensor:
#      x y z
#    x 3.561650 0.000000 0.134650 
#    y 0.000000 3.174850 0.000000 
#    z 0.134650 0.000000 3.296350 
# 
# 
# High freq. dielectric constant tensor:
#      x y z
#    x 1.719250 0.000000 0.008250 
#    y 0.000000 1.688530 0.000000 
#    z 0.008250 0.000000 1.676280 
# 
# From -- ./inp_files/319122.got.cif
#   From: 2010.06.25/outbox.cif.g09.slc.cpg/sg12_160_cif.got.tgz:319122.got - 2010.06.28 00:19:55.
