data_PCOD8086067
_publ_section_title
;
Structure prediction by ZEFSAII (Michael W. Deem and Ramdas Pophale) SiO2 
 PCOD8086067
Probable space group: C 2/M
;
_chemical_formula_sum "Si O2"
_cell_formula_units_Z 64
_cell_length_a 19.917304
_cell_length_b 20.101194
_cell_length_c 19.538569
_cell_angle_alpha 90.000000
_cell_angle_beta 29.650484
_cell_angle_gamma 90.000000
_cell_volume 3869.848075
_symmetry_space_group_name_H-M "C 2/M"
_symmetry_group_IT_number 12
_symmetry_cell_setting 'monoclinic'
loop_
_space_group_symop_operation_xyz
x,y,z
-x,y,-z
-x,-y,-z
x,-y,z
1/2+x,1/2+y,z
1/2-x,1/2+y,-z
1/2-x,1/2-y,-z
1/2+x,1/2-y,z
loop_
_atom_site_type_symbol
_atom_site_label
_atom_site_fract_x
_atom_site_fract_y
_atom_site_fract_z
Si Si1 0.551488 0.831618 0.629291
Si Si2 0.347295 0.677787 0.305319
Si Si3 0.032934 0.182962 0.660436
Si Si4 0.829070 0.673601 0.334381
Si Si5 0.582196 0.076928 0.360429
Si Si6 0.782316 0.073597 0.662438
Si Si7 0.126327 0.075618 0.839370
Si Si8 0.072082 0.074314 0.333470
O O1 0.695158 0.836255 0.464302
O O2 0.485271 0.757927 0.685164
O O3 0.568687 0.848600 0.695097
O O4 0.453468 0.882550 0.676827
O O5 0.455956 0.666541 0.269334
O O6 0.363663 0.755184 0.269968
O O7 0.385072 0.628069 0.211488
O O8 0.181128 0.175871 0.497788
O O9 0.923345 0.130441 0.728928
O O10 0.830695 0.621173 0.270872
O O11 0.500000 0.102855 0.500000
O O12 0.740228 0.088325 0.233996
O O13 0.545727 0.000000 0.378945
O O14 0.809893 0.092425 0.717002
O O15 0.925431 0.077114 0.497736
O O16 0.721054 0.000000 0.711482
O O17 0.127958 0.000000 0.808399
O O18 0.000000 0.087472 0.000000
O O19 0.096107 0.000000 0.282125
#
# Coordination Sequence:
#
# PCOD8086067 Si02
#       8
#     8   8   8   8   8   8   8   8
#     4   9  16  27  42  65  93 116 146 190 234 272
#     4   9  16  28  44  62  90 120 148 189 231 270
#     4   8  15  25  38  61  89 118 152 184 225 278
#     4   8  15  25  39  61  89 120 150 183 225 276
#     4  10  19  31  47  69  94 119 154 199 236 274
#     4   8  13  21  32  50  80 113 142 173 214 263
#     4  10  21  35  49  67  93 126 161 194 234 282
#     4   8  13  21  31  48  78 113 147 179 209 256
#
# _framework density 16.538115999999999
#
# number of rings (size 3 to 8) (size 9 to 14) (size 15 to 20)
#    0.000    3.250    1.250    2.250    0.000    2.000 
#    2.250    2.500    0.000    3.000    0.000    0.000 
#    0.000    0.500    0.000    0.000    0.000    1.375 
#
# Total GULP energy -396510.266724 kJ/mol
# GULP energy per Si atom -12390.945835 kJ/mol
# Density = 1.650047 g / cm^3
# Si number density = 16.538116 Si / 1000 Ang^3
#
#
#
# Elastic Constant Matrix: (Units=GPa)
#
#
# Indices 1 2 3 4 5 6 
#
# 1 130.6760 106.8834 28.2695 0.0243 13.4552 -0.0116
# 2 106.8834 138.6033 28.0024 0.0588 17.8539 -0.0269
# 3 28.2695 28.0024 37.8638 0.0245 -1.5147 -0.0130
# 4 0.0243 0.0588 0.0245 10.1655 -0.0376 5.8941
# 5 13.4552 17.8539 -1.5147 -0.0376 12.8741 0.0183
# 6 -0.0116 -0.0269 -0.0130 5.8941 0.0183 41.3947
#
#
#
# Elastic Compliance Matrix: (Units=1/GPa)
#
#
# Indices 1 2 3 4 5 6 
#
# 1 0.021362 -0.015315 -0.004688 0.000050 -0.001639 -0.000012
# 2 -0.015315 0.022116 -0.005534 -0.000156 -0.015316 0.000037
# 3 -0.004688 -0.005534 0.034670 0.000024 0.016654 -0.000005
# 4 0.000050 -0.000156 0.000024 0.107228 0.000503 -0.015268
# 5 -0.001639 -0.015316 0.016654 0.000503 0.102590 -0.000122
# 6 -0.000012 0.000037 -0.000005 -0.015268 -0.000122 0.026332
#
#
# Mechanical properties :
#
#
# Convention : Reuss Voigt Hill
#
# Bulk Modulus (GPa) = 36.93762 70.38375 53.66069
# Shear Modulus (GPa) = 13.35481 22.48603 17.92042
#
# Velocity S-wave (km/s) = 2.84477 3.69134 3.29535
# Velocity P-wave (km/s) = 5.75965 7.79865 6.85538
#
# Compressibility (1/GPa) = 0.02707267
#
# Stress axis : x y z
#
# Youngs Moduli (GPa) = 46.81211 45.21629 28.84329
#
# Poissons Ratio (x) = 0.69248 0.13523
# Poissons Ratio (y) = 0.71692 0.15963
# Poissons Ratio (z) = 0.21948 0.25024
#
# Static dielectric constant tensor:
#      x y z
#    x 3.412560 -0.000020 0.115370 
#    y -0.000020 3.418330 0.000000 
#    z 0.115370 0.000000 2.489600 
# 
# 
# High freq. dielectric constant tensor:
#      x y z
#    x 1.644410 0.000000 0.008770 
#    y 0.000000 1.645600 0.000000 
#    z 0.008770 0.000000 1.563420 
# 
# From -- ./inp_files/285179.got.cif
#   From: 2010.06.25/outbox.cif.g09.slc.cpg/sg12_143_cif.got.tgz:285179.got - 2010.06.28 00:19:55.
