data_PCOD8086337
_publ_section_title
;
Structure prediction by ZEFSAII (Michael W. Deem and Ramdas Pophale) SiO2 
 PCOD8086337
Probable space group: C 2/M
;
_chemical_formula_sum "Si O2"
_cell_formula_units_Z 48
_cell_length_a 28.179268
_cell_length_b 8.811367
_cell_length_c 11.416323
_cell_angle_alpha 90.000000
_cell_angle_beta 102.041596
_cell_angle_gamma 90.000000
_cell_volume 2772.276237
_symmetry_space_group_name_H-M "C 2/M"
_symmetry_group_IT_number 12
_symmetry_cell_setting 'monoclinic'
loop_
_space_group_symop_operation_xyz
x,y,z
-x,y,-z
-x,-y,-z
x,-y,z
1/2+x,1/2+y,z
1/2-x,1/2+y,-z
1/2-x,1/2-y,-z
1/2+x,1/2-y,z
loop_
_atom_site_type_symbol
_atom_site_label
_atom_site_fract_x
_atom_site_fract_y
_atom_site_fract_z
Si Si1 0.973511 0.679553 0.166552
Si Si2 0.428364 0.820726 0.906121
Si Si3 0.047014 0.177896 0.597934
Si Si4 0.237389 0.178148 0.616793
Si Si5 0.158658 0.321670 0.286304
Si Si6 0.642029 0.820631 0.540476
O O1 0.968693 0.500000 0.189025
O O2 0.959542 0.775293 0.271792
O O3 0.028126 0.724346 0.158601
O O4 0.937924 0.735555 0.043387
O O5 0.378236 0.750395 0.828677
O O6 0.426002 0.000000 0.911865
O O7 0.092333 0.266519 0.569758
O O8 0.000000 0.226892 0.500000
O O9 0.056831 0.000000 0.593997
O O10 0.250000 0.250000 0.500000
O O11 0.285246 0.212723 0.721511
O O12 0.187817 0.253917 0.638897
O O13 0.229240 0.000000 0.599036
O O14 0.149523 0.500000 0.286732
O O15 0.145970 0.258300 0.409288
O O16 0.645027 0.000000 0.548643
#
# Coordination Sequence:
#
# PCOD8086337 Si02
#       6
#     8   8   8   8   8   8
#     4   9  17  30  50  72  94 123 157 193 229 271
#     4   8  14  27  48  73  96 119 154 195 231 270
#     4  11  23  35  47  67  97 128 155 188 232 282
#     4   9  16  27  44  68  98 129 159 194 236 278
#     4   8  14  25  45  72  97 121 152 191 233 276
#     4  10  19  31  49  71  95 125 159 196 237 280
#
# _framework density 17.314291000000001
#
# number of rings (size 3 to 8) (size 9 to 14) (size 15 to 20)
#    0.000    2.833    0.000    4.500    0.000    2.667 
#    0.000    1.667    0.000    8.000    0.000    0.000 
#    0.000    0.000    0.000    0.000    0.000    0.000 
#
# Total GULP energy -297392.729187 kJ/mol
# GULP energy per Si atom -12391.363716 kJ/mol
# Density = 1.727488 g / cm^3
# Si number density = 17.314291 Si / 1000 Ang^3
#
#
#
# Elastic Constant Matrix: (Units=GPa)
#
#
# Indices 1 2 3 4 5 6 
#
# 1 138.5967 40.9929 64.4648 0.0000 28.8886 0.0000
# 2 40.9929 52.7325 24.2806 0.0000 7.0571 0.0000
# 3 64.4648 24.2806 94.6057 0.0000 18.4319 0.0000
# 4 0.0000 0.0000 0.0000 17.3623 0.0000 -2.2945
# 5 28.8886 7.0571 18.4319 0.0000 31.6795 0.0000
# 6 0.0000 0.0000 0.0000 -2.2945 0.0000 19.5143
#
#
#
# Elastic Compliance Matrix: (Units=1/GPa)
#
#
# Indices 1 2 3 4 5 6 
#
# 1 0.013576 -0.006771 -0.006085 0.000000 -0.007332 0.000000
# 2 -0.006771 0.024971 -0.002159 0.000000 0.001868 0.000000
# 3 -0.006085 -0.002159 0.015898 0.000000 -0.003220 0.000000
# 4 0.000000 0.000000 0.000000 0.058505 0.000000 0.006879
# 5 -0.007332 0.001868 -0.003220 0.000000 0.039709 0.000000
# 6 0.000000 0.000000 0.000000 0.006879 0.000000 0.052053
#
#
# Mechanical properties :
#
#
# Convention : Reuss Voigt Hill
#
# Bulk Modulus (GPa) = 40.95686 60.60129 50.77907
# Shear Modulus (GPa) = 20.58621 24.12432 22.35527
#
# Velocity S-wave (km/s) = 3.45189 3.73677 3.59715
# Velocity P-wave (km/s) = 6.29235 7.32766 6.82965
#
# Compressibility (1/GPa) = 0.02441593
#
# Stress axis : x y z
#
# Youngs Moduli (GPa) = 73.65873 40.04596 62.90160
#
# Poissons Ratio (x) = 0.27115 0.38274
# Poissons Ratio (y) = 0.49873 0.13581
# Poissons Ratio (z) = 0.44819 0.08646
#
# Static dielectric constant tensor:
#      x y z
#    x 3.745030 0.000000 0.556140 
#    y 0.000000 3.042520 0.000000 
#    z 0.556140 0.000000 3.402590 
# 
# 
# High freq. dielectric constant tensor:
#      x y z
#    x 1.676920 0.000000 0.023890 
#    y 0.000000 1.646980 0.000000 
#    z 0.023890 0.000000 1.645180 
# 
# From -- ./inp_files/179159.got.cif
#   From: 2010.06.25/outbox.cif.g09.slc.cpg/sg12_90_cif.got.tgz:179159.got - 2010.06.28 00:19:55.
