data_PCOD8086168
_publ_section_title
;
Structure prediction by ZEFSAII (Michael W. Deem and Ramdas Pophale) SiO2 
 PCOD8086168
Probable space group: C 2/M
;
_chemical_formula_sum "Si O2"
_cell_formula_units_Z 48
_cell_length_a 23.465413
_cell_length_b 9.130948
_cell_length_c 13.535143
_cell_angle_alpha 90.000000
_cell_angle_beta 109.132855
_cell_angle_gamma 90.000000
_cell_volume 2739.863540
_symmetry_space_group_name_H-M "C 2/M"
_symmetry_group_IT_number 12
_symmetry_cell_setting 'monoclinic'
loop_
_space_group_symop_operation_xyz
x,y,z
-x,y,-z
-x,-y,-z
x,-y,z
1/2+x,1/2+y,z
1/2-x,1/2+y,-z
1/2-x,1/2-y,-z
1/2+x,1/2-y,z
loop_
_atom_site_type_symbol
_atom_site_label
_atom_site_fract_x
_atom_site_fract_y
_atom_site_fract_z
Si Si1 0.996849 0.827229 0.384606
Si Si2 0.305184 0.168011 0.754690
Si Si3 0.879328 0.669907 0.290182
Si Si4 0.759135 0.672557 0.108540
Si Si5 0.182768 0.836245 0.579155
Si Si6 0.881264 0.167862 0.652876
O O1 0.940391 0.754243 0.296199
O O2 0.000000 0.772782 0.500000
O O3 0.056502 0.777215 0.360169
O O4 0.988874 0.000000 0.376478
O O5 0.288712 0.259500 0.842481
O O6 0.252750 0.183392 0.643545
O O7 0.365466 0.234406 0.739509
O O8 0.316729 0.000000 0.791484
O O9 0.893980 0.500000 0.302830
O O10 0.827416 0.706233 0.181283
O O11 0.857605 0.720349 0.385497
O O12 0.746962 0.500000 0.093541
O O13 0.750000 0.750000 0.000000
O O14 0.172447 0.812875 0.457232
O O15 0.160631 0.000000 0.596903
O O16 0.886381 0.000000 0.690403
#
# Coordination Sequence:
#
# PCOD8086168 Si02
#       6
#     8   8   8   8   8   8
#     4  10  19  33  51  71 103 148 186 211 245 300
#     4  10  20  32  50  76 104 135 171 213 262 311
#     4  10  20  32  50  78 107 133 170 219 261 300
#     4  10  21  38  59  81 103 130 167 215 269 317
#     4   9  17  31  48  68 101 142 177 208 249 304
#     4  10  19  31  48  70 103 144 179 212 248 296
#
# _framework density 17.519120999999998
#
# number of rings (size 3 to 8) (size 9 to 14) (size 15 to 20)
#    0.000    2.167    1.667    2.000    0.000    4.333 
#    0.000    0.000    0.000    1.000    0.000    7.000 
#    0.000    0.000    0.000    0.000    0.000    0.000 
#
# Total GULP energy -297606.751976 kJ/mol
# GULP energy per Si atom -12400.281332 kJ/mol
# Density = 1.747925 g / cm^3
# Si number density = 17.519121 Si / 1000 Ang^3
#
#
#
# Elastic Constant Matrix: (Units=GPa)
#
#
# Indices 1 2 3 4 5 6 
#
# 1 119.0385 60.9804 52.0065 0.0000 -18.5083 0.0000
# 2 60.9804 86.5892 52.6984 0.0000 -9.9482 0.0000
# 3 52.0065 52.6984 82.0413 0.0000 -13.6336 0.0000
# 4 0.0000 0.0000 0.0000 28.3107 0.0000 -3.1571
# 5 -18.5083 -9.9482 -13.6336 0.0000 18.9133 0.0000
# 6 0.0000 0.0000 0.0000 -3.1571 0.0000 33.5672
#
#
#
# Elastic Compliance Matrix: (Units=1/GPa)
#
#
# Indices 1 2 3 4 5 6 
#
# 1 0.015035 -0.007672 -0.003213 0.000000 0.008361 0.000000
# 2 -0.007672 0.022907 -0.010334 0.000000 -0.002908 0.000000
# 3 -0.003213 -0.010334 0.022083 0.000000 0.007339 0.000000
# 4 0.000000 0.000000 0.000000 0.035697 0.000000 0.003357
# 5 0.008361 -0.002908 0.007339 0.000000 0.064816 0.000000
# 6 0.000000 0.000000 0.000000 0.003357 0.000000 0.030107
#
#
# Mechanical properties :
#
#
# Convention : Reuss Voigt Hill
#
# Bulk Modulus (GPa) = 56.86108 68.78217 62.82163
# Shear Modulus (GPa) = 20.92539 24.29048 22.60793
#
# Velocity S-wave (km/s) = 3.45980 3.72763 3.59621
# Velocity P-wave (km/s) = 6.96329 7.60746 7.29249
#
# Compressibility (1/GPa) = 0.01758672
#
# Stress axis : x y z
#
# Youngs Moduli (GPa) = 66.51350 43.65478 45.28315
#
# Poissons Ratio (x) = 0.33492 0.14549
# Poissons Ratio (y) = 0.51029 0.46796
# Poissons Ratio (z) = 0.21371 0.45113
#
# Static dielectric constant tensor:
#      x y z
#    x 3.243460 0.000000 0.055500 
#    y 0.000000 3.321810 0.000000 
#    z 0.055500 0.000000 3.007700 
# 
# 
# High freq. dielectric constant tensor:
#      x y z
#    x 1.674710 0.000000 -0.003430 
#    y 0.000000 1.684100 0.000000 
#    z -0.003430 0.000000 1.643150 
# 
# From -- ./inp_files/172045.got.cif
#   From: 2010.06.25/outbox.cif.g09.slc.cpg/sg12_87_cif.got.tgz:172045.got - 2010.06.28 00:19:55.
