data_PCOD8086342
_publ_section_title
;
Structure prediction by ZEFSAII (Michael W. Deem and Ramdas Pophale) SiO2 
 PCOD8086342
Probable space group: C 2/M
;
_chemical_formula_sum "Si O2"
_cell_formula_units_Z 48
_cell_length_a 18.160277
_cell_length_b 9.826150
_cell_length_c 19.869699
_cell_angle_alpha 90.000000
_cell_angle_beta 49.299917
_cell_angle_gamma 90.000000
_cell_volume 2688.083602
_symmetry_space_group_name_H-M "C 2/M"
_symmetry_group_IT_number 12
_symmetry_cell_setting 'monoclinic'
loop_
_space_group_symop_operation_xyz
x,y,z
-x,y,-z
-x,-y,-z
x,-y,z
1/2+x,1/2+y,z
1/2-x,1/2+y,-z
1/2-x,1/2-y,-z
1/2+x,1/2-y,z
loop_
_atom_site_type_symbol
_atom_site_label
_atom_site_fract_x
_atom_site_fract_y
_atom_site_fract_z
Si Si1 0.116467 0.150597 0.053559
Si Si2 0.553419 0.161667 0.811943
Si Si3 0.512469 0.149700 0.287119
Si Si4 0.563664 0.837964 0.397891
Si Si5 0.736600 0.654027 0.260362
Si Si6 0.710158 0.251200 0.129971
O O1 0.174267 0.155667 0.089719
O O2 0.031036 0.261362 0.096826
O O3 0.071464 0.000000 0.073204
O O4 0.191656 0.173417 0.947929
O O5 0.549648 0.218135 0.736285
O O6 0.655946 0.199880 0.782208
O O7 0.531449 0.000000 0.827843
O O8 0.505730 0.216931 0.365587
O O9 0.625681 0.143488 0.197771
O O10 0.470247 0.000000 0.320528
O O11 0.500000 0.799811 0.500000
O O12 0.664690 0.757054 0.341639
O O13 0.584626 0.000000 0.380802
O O14 0.715150 0.500000 0.297280
O O15 0.729304 0.657022 0.184109
#
# Coordination Sequence:
#
# PCOD8086342 Si02
#       6
#     8   8   8   8   8   8
#     4  10  19  31  49  71  95 126 166 203 236 278
#     4   9  19  33  48  68  97 131 161 194 237 281
#     4   8  14  29  50  68  92 126 159 190 231 281
#     4   9  18  33  54  77  97 120 153 194 238 284
#     4  10  20  34  51  71  96 126 159 195 238 284
#     4   9  18  30  47  70  96 124 160 204 240 272
#
# _framework density 17.856587000000001
#
# number of rings (size 3 to 8) (size 9 to 14) (size 15 to 20)
#    0.000    2.833    0.000    1.000    0.000    7.000 
#    0.000    3.333    0.000    0.000    0.000    0.000 
#    0.000    0.000    0.000    0.000    0.000    0.000 
#
# Total GULP energy -297375.459124 kJ/mol
# GULP energy per Si atom -12390.644130 kJ/mol
# Density = 1.781594 g / cm^3
# Si number density = 17.856587 Si / 1000 Ang^3
#
#
#
# Elastic Constant Matrix: (Units=GPa)
#
#
# Indices 1 2 3 4 5 6 
#
# 1 90.4221 24.2889 40.1381 0.0000 -10.0908 0.0000
# 2 24.2889 71.5614 31.6168 0.0000 -9.2823 0.0000
# 3 40.1381 31.6168 110.1787 0.0000 5.3246 0.0000
# 4 0.0000 0.0000 0.0000 23.6361 0.0000 -5.7924
# 5 -10.0908 -9.2823 5.3246 0.0000 19.2355 0.0000
# 6 0.0000 0.0000 0.0000 -5.7924 0.0000 21.7813
#
#
#
# Elastic Compliance Matrix: (Units=1/GPa)
#
#
# Indices 1 2 3 4 5 6 
#
# 1 0.014803 -0.001555 -0.005357 0.000000 0.008498 0.000000
# 2 -0.001555 0.017916 -0.005020 0.000000 0.009219 0.000000
# 3 -0.005357 -0.005020 0.012894 0.000000 -0.008802 0.000000
# 4 0.000000 0.000000 0.000000 0.045258 0.000000 0.012036
# 5 0.008498 0.009219 -0.008802 0.000000 0.063330 0.000000
# 6 0.000000 0.000000 0.000000 0.012036 0.000000 0.049112
#
#
# Mechanical properties :
#
#
# Convention : Reuss Voigt Hill
#
# Bulk Modulus (GPa) = 45.98187 51.58331 48.78259
# Shear Modulus (GPa) = 21.32862 24.67181 23.00021
#
# Velocity S-wave (km/s) = 3.45982 3.72111 3.59284
# Velocity P-wave (km/s) = 6.46274 6.88567 6.67755
#
# Compressibility (1/GPa) = 0.02174770
#
# Stress axis : x y z
#
# Youngs Moduli (GPa) = 67.55168 55.81736 77.55709
#
# Poissons Ratio (x) = 0.08681 0.41550
# Poissons Ratio (y) = 0.10506 0.38934
# Poissons Ratio (z) = 0.36190 0.28020
#
# Static dielectric constant tensor:
#      x y z
#    x 3.393240 0.000000 0.216080 
#    y 0.000000 3.090110 0.000000 
#    z 0.216080 0.000000 3.218460 
# 
# 
# High freq. dielectric constant tensor:
#      x y z
#    x 1.688370 0.000000 0.014290 
#    y 0.000000 1.674120 0.000000 
#    z 0.014290 0.000000 1.675610 
# 
# From -- ./inp_files/295375.got.cif
#   From: 2010.06.25/outbox.cif.g09.slc.cpg/sg12_148_cif.got.tgz:295375.got - 2010.06.28 00:19:55.
