data_PCOD8086511
_publ_section_title
;
Structure prediction by ZEFSAII (Michael W. Deem and Ramdas Pophale) SiO2 
 PCOD8086511
Probable space group: C 2/M
;
_chemical_formula_sum "Si O2"
_cell_formula_units_Z 56
_cell_length_a 9.821426
_cell_length_b 27.388854
_cell_length_c 19.272647
_cell_angle_alpha 90.000000
_cell_angle_beta 39.239663
_cell_angle_gamma 90.000000
_cell_volume 3279.407244
_symmetry_space_group_name_H-M "C 2/M"
_symmetry_group_IT_number 12
_symmetry_cell_setting 'monoclinic'
loop_
_space_group_symop_operation_xyz
x,y,z
-x,y,-z
-x,-y,-z
x,-y,z
1/2+x,1/2+y,z
1/2-x,1/2+y,-z
1/2-x,1/2-y,-z
1/2+x,1/2-y,z
loop_
_atom_site_type_symbol
_atom_site_label
_atom_site_fract_x
_atom_site_fract_y
_atom_site_fract_z
Si Si1 0.213011 0.866615 0.870121
Si Si2 0.187695 0.633883 0.873364
Si Si3 0.350230 0.442819 0.702610
Si Si4 0.656120 0.942114 0.500033
Si Si5 0.038802 0.442944 0.699645
Si Si6 0.461133 0.691094 0.866117
Si Si7 0.059321 0.701528 0.123283
O O1 0.315970 0.918835 0.812454
O O2 0.404758 0.836009 0.828929
O O3 0.161964 0.835353 0.821982
O O4 0.000000 0.875868 0.000000
O O5 0.231515 0.586400 0.810321
O O6 0.393650 0.652995 0.833696
O O7 0.126330 0.681048 0.852554
O O8 0.000000 0.618182 0.000000
O O9 0.330408 0.500000 0.727934
O O10 0.597448 0.425127 0.606668
O O11 0.239767 0.431513 0.671749
O O12 0.500000 0.921376 0.500000
O O13 0.586639 0.922950 0.603384
O O14 0.645143 0.000000 0.503469
O O15 0.992052 0.500000 0.716874
O O16 0.516318 0.745682 0.816986
O O17 0.282459 0.702473 0.994054
#
# Coordination Sequence:
#
# PCOD8086511 Si02
#       7
#     8   8   8   8   8   8   8
#     4  10  19  31  49  76 107 136 168 203 247 304
#     4  10  19  31  49  76 107 136 168 203 247 304
#     4  10  20  35  53  73 102 138 171 204 247 302
#     4   9  19  35  55  77  96 121 168 222 258 288
#     4  10  20  35  53  73 102 138 171 204 247 302
#     4   9  18  28  49  72 101 134 169 212 253 283
#     4   9  16  32  47  70 101 136 171 208 247 295
#
# _framework density 17.076256999999998
#
# number of rings (size 3 to 8) (size 9 to 14) (size 15 to 20)
#    0.000    2.429    1.429    1.286    2.000    5.714 
#    0.000    0.000    0.000    0.000    0.000    6.000 
#    0.000    0.000    0.000    0.000    0.000    0.000 
#
# Total GULP energy -347014.445869 kJ/mol
# GULP energy per Si atom -12393.373067 kJ/mol
# Density = 1.703739 g / cm^3
# Si number density = 17.076257 Si / 1000 Ang^3
#
#
#
# Elastic Constant Matrix: (Units=GPa)
#
#
# Indices 1 2 3 4 5 6 
#
# 1 111.5416 34.4419 49.2960 0.0000 10.4188 0.0000
# 2 34.4419 72.8968 44.3046 0.0000 5.1896 0.0000
# 3 49.2960 44.3046 69.9708 0.0000 2.8342 -0.0005
# 4 0.0000 0.0000 0.0000 6.3058 0.0000 -3.2658
# 5 10.4188 5.1896 2.8342 0.0000 24.1890 0.0001
# 6 0.0000 0.0000 -0.0005 -3.2658 0.0001 53.1512
#
#
#
# Elastic Compliance Matrix: (Units=1/GPa)
#
#
# Indices 1 2 3 4 5 6 
#
# 1 0.013555 -0.000624 -0.008967 0.000000 -0.004654 0.000000
# 2 -0.000624 0.022569 -0.013731 0.000000 -0.002965 0.000000
# 3 -0.008967 -0.013731 0.029166 0.000000 0.003391 0.000000
# 4 0.000000 0.000000 0.000000 0.163795 0.000000 0.010064
# 5 -0.004654 -0.002965 0.003391 0.000000 0.043584 0.000000
# 6 0.000000 0.000000 0.000000 0.010064 0.000000 0.019433
#
#
# Mechanical properties :
#
#
# Convention : Reuss Voigt Hill
#
# Bulk Modulus (GPa) = 53.62586 56.72156 55.17371
# Shear Modulus (GPa) = 14.49438 25.15366 19.82402
#
# Velocity S-wave (km/s) = 2.91658 3.84216 3.41091
# Velocity P-wave (km/s) = 6.54323 7.27816 6.92046
#
# Compressibility (1/GPa) = 0.01864772
#
# Stress axis : x y z
#
# Youngs Moduli (GPa) = 73.77132 44.30862 34.28662
#
# Poissons Ratio (x) = 0.02763 0.30744
# Poissons Ratio (y) = 0.04600 0.47079
# Poissons Ratio (z) = 0.66149 0.60840
#
# Static dielectric constant tensor:
#      x y z
#    x 3.509080 0.000000 0.036520 
#    y 0.000000 3.102830 0.000000 
#    z 0.036520 0.000000 2.901240 
# 
# 
# High freq. dielectric constant tensor:
#      x y z
#    x 1.682240 0.000000 0.001260 
#    y 0.000000 1.647150 0.000000 
#    z 0.001260 0.000000 1.616290 
# 
# From -- ./inp_files/125159.got.cif
#   From: 2010.06.25/outbox.cif.g09.slc.cpg/sg12_63_cif.got.tgz:125159.got - 2010.06.28 00:19:55.
