data_PCOD8086947
_publ_section_title
;
Structure prediction by ZEFSAII (Michael W. Deem and Ramdas Pophale) SiO2 
 PCOD8086947
Probable space group: C 2/M
;
_chemical_formula_sum "Si O2"
_cell_formula_units_Z 56
_cell_length_a 19.042591
_cell_length_b 9.189124
_cell_length_c 19.942453
_cell_angle_alpha 90.000000
_cell_angle_beta 117.710123
_cell_angle_gamma 90.000000
_cell_volume 3089.404868
_symmetry_space_group_name_H-M "C 2/M"
_symmetry_group_IT_number 12
_symmetry_cell_setting 'monoclinic'
loop_
_space_group_symop_operation_xyz
x,y,z
-x,y,-z
-x,-y,-z
x,-y,z
1/2+x,1/2+y,z
1/2-x,1/2+y,-z
1/2-x,1/2-y,-z
1/2+x,1/2-y,z
loop_
_atom_site_type_symbol
_atom_site_label
_atom_site_fract_x
_atom_site_fract_y
_atom_site_fract_z
Si Si1 0.395975 0.671205 0.143813
Si Si2 0.631091 0.169350 0.435428
Si Si3 0.075524 0.829169 0.994925
Si Si4 0.469282 0.168917 0.296409
Si Si5 0.216991 0.830630 0.584025
Si Si6 0.757352 0.829952 0.878392
Si Si7 0.806185 0.664833 0.293474
O O1 0.387745 0.500000 0.152590
O O2 0.431195 0.707022 0.086477
O O3 0.457538 0.737976 0.224092
O O4 0.309445 0.742195 0.111166
O O5 0.548494 0.223919 0.367974
O O6 0.698814 0.206171 0.411796
O O7 0.646617 0.253499 0.511562
O O8 0.627936 0.000000 0.451797
O O9 0.076443 0.000000 0.008649
O O10 0.157591 0.766688 0.061528
O O11 0.000000 0.759110 0.000000
O O12 0.397362 0.194998 0.315471
O O13 0.474986 0.000000 0.278003
O O14 0.220708 0.774097 0.661120
O O15 0.198597 0.000000 0.576428
O O16 0.748906 0.805049 0.795202
O O17 0.746478 0.000000 0.891521
O O18 0.795282 0.500000 0.314226
#
# Coordination Sequence:
#
# PCOD8086947 Si02
#       7
#     8   8   8   8   8   8   8
#     4  10  19  31  52  78 101 128 163 208 254 291
#     4   9  19  36  54  71  96 133 171 201 238 295
#     4   9  18  32  50  75 104 132 167 208 247 290
#     4   9  19  36  55  73  97 132 170 204 241 292
#     4  10  20  33  51  75 102 130 160 203 253 293
#     4   9  18  34  54  72  97 136 172 201 241 297
#     4   9  18  32  51  73  96 129 169 204 241 291
#
# _framework density 18.126469
#
# number of rings (size 3 to 8) (size 9 to 14) (size 15 to 20)
#    0.000    2.714    0.000    2.143    0.000    5.143 
#    0.000    5.000    0.000    3.857    0.000    0.000 
#    0.000    0.000    0.000    0.000    0.000    0.000 
#
# Total GULP energy -347250.361088 kJ/mol
# GULP energy per Si atom -12401.798610 kJ/mol
# Density = 1.808521 g / cm^3
# Si number density = 18.126469 Si / 1000 Ang^3
#
#
#
# Elastic Constant Matrix: (Units=GPa)
#
#
# Indices 1 2 3 4 5 6 
#
# 1 54.4404 26.8435 24.6805 0.0000 -7.1892 0.0000
# 2 26.8435 56.6717 31.4868 0.0000 -8.9605 0.0000
# 3 24.6805 31.4868 65.1559 0.0000 -1.7533 0.0000
# 4 0.0000 0.0000 0.0000 28.6756 0.0000 -4.9028
# 5 -7.1892 -8.9605 -1.7533 0.0000 32.4474 0.0000
# 6 0.0000 0.0000 0.0000 -4.9028 0.0000 24.5662
#
#
#
# Elastic Compliance Matrix: (Units=1/GPa)
#
#
# Indices 1 2 3 4 5 6 
#
# 1 0.025444 -0.008572 -0.005415 0.000000 0.002978 0.000000
# 2 -0.008572 0.028254 -0.010263 0.000000 0.005348 0.000000
# 3 -0.005415 -0.010263 0.022282 0.000000 -0.002830 0.000000
# 4 0.000000 0.000000 0.000000 0.036105 0.000000 0.007206
# 5 0.002978 0.005348 -0.002830 0.000000 0.032803 0.000000
# 6 0.000000 0.000000 0.000000 0.007206 0.000000 0.042144
#
#
# Mechanical properties :
#
#
# Convention : Reuss Voigt Hill
#
# Bulk Modulus (GPa) = 36.39092 38.03219 37.21155
# Shear Modulus (GPa) = 20.43389 23.35498 21.89444
#
# Velocity S-wave (km/s) = 3.36117 3.59339 3.47921
# Velocity P-wave (km/s) = 5.93152 6.18415 6.05915
#
# Compressibility (1/GPa) = 0.02747938
#
# Stress axis : x y z
#
# Youngs Moduli (GPa) = 39.30241 35.39384 44.87873
#
# Poissons Ratio (x) = 0.30341 0.24302
# Poissons Ratio (y) = 0.33692 0.46057
# Poissons Ratio (z) = 0.21283 0.36323
#
# Static dielectric constant tensor:
#      x y z
#    x 3.371280 0.000000 0.136070 
#    y 0.000000 3.203980 0.000000 
#    z 0.136070 0.000000 3.444140 
# 
# 
# High freq. dielectric constant tensor:
#      x y z
#    x 1.696400 0.000000 0.002190 
#    y 0.000000 1.687320 0.000000 
#    z 0.002190 0.000000 1.712070 
# 
# From -- ./inp_files/280934.got.cif
#   From: 2010.06.25/outbox.cif.g09.slc.cpg/sg12_141_cif.got.tgz:280934.got - 2010.06.28 00:19:55.
