data_PCOD8086419
_publ_section_title
;
Structure prediction by ZEFSAII (Michael W. Deem and Ramdas Pophale) SiO2 
 PCOD8086419
Probable space group: C 2/M
;
_chemical_formula_sum "Si O2"
_cell_formula_units_Z 64
_cell_length_a 24.952433
_cell_length_b 8.898916
_cell_length_c 22.946556
_cell_angle_alpha 90.000000
_cell_angle_beta 47.196881
_cell_angle_gamma 90.000000
_cell_volume 3738.366020
_symmetry_space_group_name_H-M "C 2/M"
_symmetry_group_IT_number 12
_symmetry_cell_setting 'monoclinic'
loop_
_space_group_symop_operation_xyz
x,y,z
-x,y,-z
-x,-y,-z
x,-y,z
1/2+x,1/2+y,z
1/2-x,1/2+y,-z
1/2-x,1/2-y,-z
1/2+x,1/2-y,z
loop_
_atom_site_type_symbol
_atom_site_label
_atom_site_fract_x
_atom_site_fract_y
_atom_site_fract_z
Si Si1 0.379837 0.676079 0.665994
Si Si2 0.165841 0.324974 0.414292
Si Si3 0.921640 0.674208 0.852854
Si Si4 0.804401 0.174044 0.004211
Si Si5 0.183732 0.670647 0.178362
Si Si6 0.715360 0.324614 0.581535
Si Si7 0.475079 0.823458 0.406190
Si Si8 0.549876 0.677764 0.698545
O O1 0.395931 0.500000 0.652993
O O2 0.334029 0.724303 0.643364
O O3 0.332124 0.715224 0.757932
O O4 0.455910 0.766252 0.608024
O O5 0.163466 0.500000 0.398910
O O6 0.239521 0.281988 0.394124
O O7 0.097566 0.282072 0.505294
O O8 0.934313 0.500000 0.855424
O O9 0.883101 0.745828 0.938863
O O10 0.871491 0.704292 0.833610
O O11 0.999450 0.753743 0.786424
O O12 0.812464 0.000000 0.982091
O O13 0.750000 0.250000 0.000000
O O14 0.767965 0.193466 0.095170
O O15 0.171913 0.500000 0.209067
O O16 0.719410 0.500000 0.566520
O O17 0.750000 0.250000 0.500000
O O18 0.632339 0.270652 0.651496
O O19 0.475695 0.740707 0.344331
O O20 0.482207 0.000000 0.389562
O O21 0.541267 0.500000 0.704109
#
# Coordination Sequence:
#
# PCOD8086419 Si02
#       8
#     8   8   8   8   8   8   8   8
#     4  12  24  34  50  76 105 136 174 218 256 298
#     4  10  22  39  55  71  98 138 177 213 259 312
#     4  10  19  31  49  73 104 139 172 205 252 308
#     4   9  17  29  47  71 101 135 170 207 250 303
#     4   9  18  32  49  70 101 139 171 201 249 310
#     4  10  21  37  56  77 100 132 172 217 264 307
#     4  11  21  35  54  73 100 138 175 209 258 315
#     4  11  21  32  52  79 105 133 171 217 258 301
#
# _framework density 17.119779000000001
#
# number of rings (size 3 to 8) (size 9 to 14) (size 15 to 20)
#    0.000    1.750    2.500    3.750    0.000    6.000 
#    0.000    0.000    0.000    0.000    0.000    0.875 
#    0.000    7.000    0.000    0.000    0.000    0.000 
#
# Total GULP energy -396831.120870 kJ/mol
# GULP energy per Si atom -12400.972527 kJ/mol
# Density = 1.708081 g / cm^3
# Si number density = 17.119779 Si / 1000 Ang^3
#
#
#
# Elastic Constant Matrix: (Units=GPa)
#
#
# Indices 1 2 3 4 5 6 
#
# 1 73.0959 25.2450 33.2343 -0.0008 -16.1081 0.0003
# 2 25.2450 82.3727 44.5791 -0.0056 -12.1797 -0.0035
# 3 33.2343 44.5791 95.1682 -0.0007 -25.3774 0.0000
# 4 -0.0008 -0.0056 -0.0007 31.7908 0.0007 0.2439
# 5 -16.1081 -12.1797 -25.3774 0.0007 19.8004 0.0001
# 6 0.0003 -0.0035 0.0000 0.2439 0.0001 20.3745
#
#
#
# Elastic Compliance Matrix: (Units=1/GPa)
#
#
# Indices 1 2 3 4 5 6 
#
# 1 0.017861 -0.002764 -0.002311 0.000000 0.009868 -0.000001
# 2 -0.002764 0.016692 -0.007164 0.000003 -0.001162 0.000003
# 3 -0.002311 -0.007164 0.019741 -0.000001 0.019014 -0.000001
# 4 0.000000 0.000003 -0.000001 0.031459 -0.000001 -0.000377
# 5 0.009868 -0.001162 0.019014 -0.000001 0.082187 -0.000001
# 6 -0.000001 0.000003 -0.000001 -0.000377 -0.000001 0.049086
#
#
# Mechanical properties :
#
#
# Convention : Reuss Voigt Hill
#
# Bulk Modulus (GPa) = 33.53933 50.75038 42.14485
# Shear Modulus (GPa) = 19.88542 24.23169 22.05856
#
# Velocity S-wave (km/s) = 3.41184 3.76629 3.59344
# Velocity P-wave (km/s) = 5.92912 6.97294 6.47211
#
# Compressibility (1/GPa) = 0.02981574
#
# Stress axis : x y z
#
# Youngs Moduli (GPa) = 55.98924 59.90873 50.65654
#
# Poissons Ratio (x) = 0.16558 0.11708
# Poissons Ratio (y) = 0.15475 0.36289
# Poissons Ratio (z) = 0.12940 0.42917
#
# Static dielectric constant tensor:
#      x y z
#    x 3.051110 0.000000 -0.217790 
#    y 0.000000 3.277020 0.000000 
#    z -0.217790 0.000000 3.534710 
# 
# 
# High freq. dielectric constant tensor:
#      x y z
#    x 1.622260 0.000000 -0.015860 
#    y 0.000000 1.671160 0.000000 
#    z -0.015860 0.000000 1.667230 
# 
# From -- ./inp_files/324183.got.cif
#   From: 2010.06.25/outbox.cif.g09.slc.cpg/sg12_163_cif.got.tgz:324183.got - 2010.06.28 00:19:55.
