data_PCOD8086824
_publ_section_title
;
Structure prediction by ZEFSAII (Michael W. Deem and Ramdas Pophale) SiO2 
 PCOD8086824
Probable space group: C 2/M
;
_chemical_formula_sum "Si O2"
_cell_formula_units_Z 48
_cell_length_a 26.541928
_cell_length_b 15.617024
_cell_length_c 10.285102
_cell_angle_alpha 90.000000
_cell_angle_beta 145.015288
_cell_angle_gamma 90.000000
_cell_volume 2444.359653
_symmetry_space_group_name_H-M "C 2/M"
_symmetry_group_IT_number 12
_symmetry_cell_setting 'monoclinic'
loop_
_space_group_symop_operation_xyz
x,y,z
-x,y,-z
-x,-y,-z
x,-y,z
1/2+x,1/2+y,z
1/2-x,1/2+y,-z
1/2-x,1/2-y,-z
1/2+x,1/2-y,z
loop_
_atom_site_type_symbol
_atom_site_label
_atom_site_fract_x
_atom_site_fract_y
_atom_site_fract_z
Si Si1 0.396342 0.402737 0.791461
Si Si2 0.560340 0.815834 0.505479
Si Si3 0.315642 0.252168 0.755932
Si Si4 0.707876 0.093388 0.964278
Si Si5 0.415630 0.906286 0.051013
Si Si6 0.830155 0.815301 0.392569
O O1 0.366542 0.500000 0.758894
O O2 0.368115 0.341763 0.853018
O O3 0.350777 0.375227 0.559617
O O4 0.500000 0.396466 0.000000
O O5 0.500000 0.787838 0.500000
O O6 0.655168 0.850244 0.749394
O O7 0.510816 0.886017 0.313592
O O8 0.581325 0.735265 0.457528
O O9 0.250000 0.250000 0.500000
O O10 0.254417 0.246593 0.754858
O O11 0.383534 0.171213 0.889809
O O12 0.653102 0.085293 0.979619
O O13 0.723208 0.000000 0.934728
O O14 0.802384 0.132027 0.204681
O O15 0.421387 0.000000 0.992035
#
# Coordination Sequence:
#
# PCOD8086824 Si02
#       6
#     8   8   8   8   8   8
#     4  10  20  35  55  75  99 136 178 217 259 310
#     4  10  19  31  51  77 106 139 173 211 256 310
#     4   9  19  33  52  76 100 130 172 218 258 304
#     4   9  17  30  49  73  99 132 175 214 253 307
#     4   9  17  31  52  76 102 134 171 211 258 312
#     4  10  19  33  53  75 104 138 173 214 263 310
#
# _framework density 19.637045000000001
#
# number of rings (size 3 to 8) (size 9 to 14) (size 15 to 20)
#    0.000    2.500    0.000    2.500    0.000    6.000 
#    0.000    1.667    0.000   14.500    0.000    0.000 
#    0.000    0.000    0.000    0.000    0.000    0.000 
#
# Total GULP energy -297373.625147 kJ/mol
# GULP energy per Si atom -12390.567714 kJ/mol
# Density = 1.959235 g / cm^3
# Si number density = 19.637045 Si / 1000 Ang^3
#
#
#
# Elastic Constant Matrix: (Units=GPa)
#
#
# Indices 1 2 3 4 5 6 
#
# 1 42.4039 45.2345 13.1699 0.0000 7.8526 0.0000
# 2 45.2345 155.8456 43.4141 0.0000 7.9654 0.0000
# 3 13.1699 43.4141 99.1294 0.0000 -3.9984 0.0000
# 4 0.0000 0.0000 0.0000 23.6426 0.0000 -1.3704
# 5 7.8526 7.9654 -3.9984 0.0000 21.9175 0.0000
# 6 0.0000 0.0000 0.0000 -1.3704 0.0000 20.4067
#
#
#
# Elastic Compliance Matrix: (Units=1/GPa)
#
#
# Indices 1 2 3 4 5 6 
#
# 1 0.035981 -0.009701 -0.000916 0.000000 -0.009533 0.000000
# 2 -0.009701 0.010163 -0.003194 0.000000 -0.000801 0.000000
# 3 -0.000916 -0.003194 0.011755 0.000000 0.003634 0.000000
# 4 0.000000 0.000000 0.000000 0.042462 0.000000 0.002852
# 5 -0.009533 -0.000801 0.003634 0.000000 0.049995 0.000000
# 6 0.000000 0.000000 0.000000 0.002852 0.000000 0.049195
#
#
# Mechanical properties :
#
#
# Convention : Reuss Voigt Hill
#
# Bulk Modulus (GPa) = 33.02934 55.66843 44.34888
# Shear Modulus (GPa) = 21.07328 26.23073 23.65200
#
# Velocity S-wave (km/s) = 3.27943 3.65879 3.47430
# Velocity P-wave (km/s) = 5.58534 6.80142 6.22315
#
# Compressibility (1/GPa) = 0.03027611
#
# Stress axis : x y z
#
# Youngs Moduli (GPa) = 27.79207 98.39425 85.06927
#
# Poissons Ratio (x) = 0.95454 0.07794
# Poissons Ratio (y) = 0.26962 0.27175
# Poissons Ratio (z) = 0.02546 0.31431
#
# Static dielectric constant tensor:
#      x y z
#    x 3.456800 0.000000 0.090260 
#    y 0.000000 4.206510 0.000000 
#    z 0.090260 0.000000 3.708810 
# 
# 
# High freq. dielectric constant tensor:
#      x y z
#    x 1.716920 0.000000 0.004740 
#    y 0.000000 1.765850 0.000000 
#    z 0.004740 0.000000 1.780080 
# 
# From -- ./inp_files/142989.got.cif
#   From: 2010.06.25/outbox.cif.g09.slc.cpg/sg12_72_cif.got.tgz:142989.got - 2010.06.28 00:19:55.
