data_PCOD8086692
_publ_section_title
;
Structure prediction by ZEFSAII (Michael W. Deem and Ramdas Pophale) SiO2 
 PCOD8086692
Probable space group: C 2/M
;
_chemical_formula_sum "Si O2"
_cell_formula_units_Z 64
_cell_length_a 20.003754
_cell_length_b 8.856938
_cell_length_c 25.409605
_cell_angle_alpha 90.000000
_cell_angle_beta 127.999271
_cell_angle_gamma 90.000000
_cell_volume 3547.557838
_symmetry_space_group_name_H-M "C 2/M"
_symmetry_group_IT_number 12
_symmetry_cell_setting 'monoclinic'
loop_
_space_group_symop_operation_xyz
x,y,z
-x,y,-z
-x,-y,-z
x,-y,z
1/2+x,1/2+y,z
1/2-x,1/2+y,-z
1/2-x,1/2-y,-z
1/2+x,1/2-y,z
loop_
_atom_site_type_symbol
_atom_site_label
_atom_site_fract_x
_atom_site_fract_y
_atom_site_fract_z
Si Si1 0.193464 0.325943 0.816930
Si Si2 0.177984 0.678252 0.929897
Si Si3 0.327042 0.672270 0.798926
Si Si4 0.254958 0.177681 0.664739
Si Si5 0.071815 0.320927 0.297196
Si Si6 0.069134 0.179596 0.573492
Si Si7 0.044729 0.178395 0.680565
Si Si8 0.503807 0.322210 0.841979
O O1 0.164387 0.500000 0.798270
O O2 0.196711 0.274425 0.878819
O O3 0.287820 0.302589 0.838011
O O4 0.127310 0.225160 0.753147
O O5 0.177416 0.500000 0.937286
O O6 0.088252 0.745577 0.905607
O O7 0.250000 0.750000 0.000000
O O8 0.317539 0.500000 0.775937
O O9 0.272297 0.769370 0.732144
O O10 0.426724 0.716421 0.844965
O O11 0.329893 0.230287 0.661755
O O12 0.162880 0.237406 0.601207
O O13 0.252192 0.000000 0.666501
O O14 0.061170 0.500000 0.288984
O O15 0.014871 0.248159 0.223997
O O16 0.039246 0.257611 0.336778
O O17 0.051216 0.236024 0.623864
O O18 0.000000 0.249837 0.500000
O O19 0.064785 0.000000 0.569562
O O20 0.033877 0.000000 0.678555
O O21 0.518235 0.500000 0.842804
#
# Coordination Sequence:
#
# PCOD8086692 Si02
#       8
#     8   8   8   8   8   8   8   8
#     4  10  20  35  55  79 107 138 174 217 267 313
#     4  11  23  38  56  78 108 146 180 216 266 317
#     4   9  18  32  53  80 107 135 169 218 267 312
#     4   9  17  31  51  75 102 138 178 214 260 315
#     4  10  19  31  50  76 107 137 171 219 267 314
#     4   9  18  33  52  76 106 140 179 221 266 316
#     4  11  20  31  53  80 104 135 179 225 264 309
#     4  10  19  33  54  80 108 137 174 215 261 317
#
# _framework density 18.040579999999999
#
# number of rings (size 3 to 8) (size 9 to 14) (size 15 to 20)
#    0.000    2.125    2.500    1.500    0.000    1.500 
#    0.000    1.250    0.000    7.125    0.000    0.000 
#    0.000    0.000    0.000    0.000    0.000    0.000 
#
# Total GULP energy -396733.919970 kJ/mol
# GULP energy per Si atom -12397.934999 kJ/mol
# Density = 1.799952 g / cm^3
# Si number density = 18.040580 Si / 1000 Ang^3
#
#
#
# Elastic Constant Matrix: (Units=GPa)
#
#
# Indices 1 2 3 4 5 6 
#
# 1 148.3686 34.6275 74.2706 0.0000 14.5382 0.0000
# 2 34.6275 47.2558 33.3050 0.0000 3.8417 0.0000
# 3 74.2706 33.3050 124.2191 0.0000 16.2572 0.0000
# 4 0.0000 0.0000 0.0000 18.2617 0.0000 -0.0284
# 5 14.5382 3.8417 16.2572 0.0000 29.7581 0.0000
# 6 0.0000 0.0000 0.0000 -0.0284 0.0000 24.7479
#
#
#
# Elastic Compliance Matrix: (Units=1/GPa)
#
#
# Indices 1 2 3 4 5 6 
#
# 1 0.010267 -0.003967 -0.004831 0.000000 -0.001864 0.000000
# 2 -0.003967 0.027631 -0.005195 0.000000 0.001209 0.000000
# 3 -0.004831 -0.005195 0.012854 0.000000 -0.003991 0.000000
# 4 0.000000 0.000000 0.000000 0.054759 0.000000 0.000063
# 5 -0.001864 0.001209 -0.003991 0.000000 0.036540 0.000000
# 6 0.000000 0.000000 0.000000 0.000063 0.000000 0.040408
#
#
# Mechanical properties :
#
#
# Convention : Reuss Voigt Hill
#
# Bulk Modulus (GPa) = 43.92373 67.13884 55.53128
# Shear Modulus (GPa) = 22.93238 26.39623 24.66430
#
# Velocity S-wave (km/s) = 3.56919 3.82928 3.70152
# Velocity P-wave (km/s) = 6.43316 7.53972 7.00831
#
# Compressibility (1/GPa) = 0.02276674
#
# Stress axis : x y z
#
# Youngs Moduli (GPa) = 97.40191 36.19108 77.79761
#
# Poissons Ratio (x) = 0.14356 0.37583
# Poissons Ratio (y) = 0.38638 0.40414
# Poissons Ratio (z) = 0.47054 0.18800
#
# Static dielectric constant tensor:
#      x y z
#    x 4.743910 0.000000 0.529300 
#    y 0.000000 3.266280 0.000000 
#    z 0.529300 0.000000 3.375860 
# 
# 
# High freq. dielectric constant tensor:
#      x y z
#    x 1.720580 0.000000 0.009810 
#    y 0.000000 1.693090 0.000000 
#    z 0.009810 0.000000 1.664660 
# 
# From -- ./inp_files/346267.got.cif
#   From: 2010.06.25/outbox.cif.g09.slc.cpg/sg12_174_cif.got.tgz:346267.got - 2010.06.28 00:19:55.
