data_PCOD8086146
_publ_section_title
;
Structure prediction by ZEFSAII (Michael W. Deem and Ramdas Pophale) SiO2 
 PCOD8086146
Probable space group: C 2/M
;
_chemical_formula_sum "Si O2"
_cell_formula_units_Z 64
_cell_length_a 19.345877
_cell_length_b 9.268705
_cell_length_c 22.743020
_cell_angle_alpha 90.000000
_cell_angle_beta 114.472748
_cell_angle_gamma 90.000000
_cell_volume 3711.697740
_symmetry_space_group_name_H-M "C 2/M"
_symmetry_group_IT_number 12
_symmetry_cell_setting 'monoclinic'
loop_
_space_group_symop_operation_xyz
x,y,z
-x,y,-z
-x,-y,-z
x,-y,z
1/2+x,1/2+y,z
1/2-x,1/2+y,-z
1/2-x,1/2-y,-z
1/2+x,1/2-y,z
loop_
_atom_site_type_symbol
_atom_site_label
_atom_site_fract_x
_atom_site_fract_y
_atom_site_fract_z
Si Si1 0.864391 0.660894 0.815281
Si Si2 0.859653 0.338606 0.302729
Si Si3 0.923869 0.328142 0.444435
Si Si4 0.234478 0.830000 0.054921
Si Si5 0.270240 0.170534 0.448011
Si Si6 0.701358 0.337523 0.817875
Si Si7 0.924006 0.832564 0.940529
Si Si8 0.695723 0.660014 0.304376
O O1 0.896510 0.500000 0.818928
O O2 0.781082 0.659147 0.813093
O O3 0.920256 0.747173 0.878001
O O4 0.861821 0.734197 0.749992
O O5 0.882639 0.500000 0.290165
O O6 0.916865 0.279811 0.373503
O O7 0.861803 0.231797 0.247596
O O8 0.776410 0.344499 0.300979
O O9 0.924260 0.500000 0.445931
O O10 0.852606 0.271797 0.456882
O O11 0.000000 0.262572 0.500000
O O12 0.292473 0.762371 0.122540
O O13 0.147803 0.799349 0.043229
O O14 0.250715 0.000000 0.054749
O O15 0.250000 0.750000 0.000000
O O16 0.250000 0.250000 0.500000
O O17 0.208204 0.211140 0.376046
O O18 0.271443 0.000000 0.458916
O O19 0.676317 0.500000 0.826396
O O20 0.927240 0.000000 0.925155
O O21 0.000000 0.781306 0.000000
O O22 0.659926 0.500000 0.290426
#
# Coordination Sequence:
#
# PCOD8086146 Si02
#       8
#     8   8   8   8   8   8   8   8
#     4   9  16  25  41  66  90 112 143 186 227 255
#     4   8  13  23  41  63  84 108 143 185 223 258
#     4   8  14  26  45  67  89 115 148 183 219 262
#     4  10  19  31  48  69  93 119 148 182 219 261
#     4   9  17  28  44  66  90 117 147 181 221 263
#     4   9  16  26  41  63  90 116 145 182 222 261
#     4   9  18  32  49  68  91 121 151 177 214 266
#     4   8  14  25  40  59  84 113 145 180 219 263
#
# _framework density 17.242781999999998
#
# number of rings (size 3 to 8) (size 9 to 14) (size 15 to 20)
#    0.000    3.250    0.000    2.625    0.000    4.250 
#    0.000    1.875    0.000    3.000    0.000    3.500 
#    0.000    0.000    0.000    0.000    0.000    0.000 
#
# Total GULP energy -396631.469108 kJ/mol
# GULP energy per Si atom -12394.733410 kJ/mol
# Density = 1.720354 g / cm^3
# Si number density = 17.242782 Si / 1000 Ang^3
#
#
#
# Elastic Constant Matrix: (Units=GPa)
#
#
# Indices 1 2 3 4 5 6 
#
# 1 33.0304 27.6961 47.8517 0.0000 -1.0121 0.0000
# 2 27.6961 101.0580 85.4159 0.0000 -4.6902 0.0000
# 3 47.8517 85.4159 188.3787 0.0000 -0.6852 0.0000
# 4 0.0000 0.0000 0.0000 32.7448 0.0000 -7.8193
# 5 -1.0121 -4.6902 -0.6852 0.0000 25.3169 0.0000
# 6 0.0000 0.0000 0.0000 -7.8193 0.0000 14.2133
#
#
#
# Elastic Compliance Matrix: (Units=1/GPa)
#
#
# Indices 1 2 3 4 5 6 
#
# 1 0.049283 -0.004686 -0.010391 0.000000 0.000821 0.000000
# 2 -0.004686 0.016687 -0.006366 0.000000 0.002732 0.000000
# 3 -0.010391 -0.006366 0.010830 0.000000 -0.001302 0.000000
# 4 0.000000 0.000000 0.000000 0.035158 0.000000 0.019342
# 5 0.000821 0.002732 -0.001302 0.000000 0.040003 0.000000
# 6 0.000000 0.000000 0.000000 0.019342 0.000000 0.080998
#
#
# Mechanical properties :
#
#
# Convention : Reuss Voigt Hill
#
# Bulk Modulus (GPa) = 29.48640 71.59940 50.54290
# Shear Modulus (GPa) = 17.41255 25.22191 21.31723
#
# Velocity S-wave (km/s) = 3.18125 3.82874 3.51992
# Velocity P-wave (km/s) = 5.53459 7.82049 6.77465
#
# Compressibility (1/GPa) = 0.03391394
#
# Stress axis : x y z
#
# Youngs Moduli (GPa) = 20.29088 59.92682 92.33715
#
# Poissons Ratio (x) = 0.28080 0.95950
# Poissons Ratio (y) = 0.09508 0.58783
# Poissons Ratio (z) = 0.21085 0.38150
#
# Static dielectric constant tensor:
#      x y z
#    x 2.756820 0.000000 0.081960 
#    y 0.000000 3.273260 0.000000 
#    z 0.081960 0.000000 3.575180 
# 
# 
# High freq. dielectric constant tensor:
#      x y z
#    x 1.602340 0.000000 -0.001970 
#    y 0.000000 1.658270 0.000000 
#    z -0.001970 0.000000 1.684330 
# 
# From -- ./inp_files/345575.got.cif
#   From: 2010.06.25/outbox.cif.g09.slc.cpg/sg12_173_cif.got.tgz:345575.got - 2010.06.28 00:19:55.
