data_PCOD8086084
_publ_section_title
;
Structure prediction by ZEFSAII (Michael W. Deem and Ramdas Pophale) SiO2 
 PCOD8086084
Probable space group: C 2/M
;
_chemical_formula_sum "Si O2"
_cell_formula_units_Z 64
_cell_length_a 20.611676
_cell_length_b 8.970018
_cell_length_c 24.435605
_cell_angle_alpha 90.000000
_cell_angle_beta 52.595606
_cell_angle_gamma 90.000000
_cell_volume 3588.818375
_symmetry_space_group_name_H-M "C 2/M"
_symmetry_group_IT_number 12
_symmetry_cell_setting 'monoclinic'
loop_
_space_group_symop_operation_xyz
x,y,z
-x,y,-z
-x,-y,-z
x,-y,z
1/2+x,1/2+y,z
1/2-x,1/2+y,-z
1/2-x,1/2-y,-z
1/2+x,1/2-y,z
loop_
_atom_site_type_symbol
_atom_site_label
_atom_site_fract_x
_atom_site_fract_y
_atom_site_fract_z
Si Si1 0.596792 0.324182 0.853753
Si Si2 0.010516 0.327018 0.708101
Si Si3 0.190656 0.176916 0.913297
Si Si4 0.254347 0.670716 0.571887
Si Si5 0.880106 0.169916 0.425511
Si Si6 0.637954 0.676966 0.161165
Si Si7 0.152723 0.331239 0.721577
Si Si8 0.415183 0.677059 0.930700
O O1 0.592389 0.500000 0.854537
O O2 0.635795 0.270190 0.890454
O O3 0.652428 0.272664 0.774641
O O4 0.505538 0.256628 0.895231
O O5 0.988420 0.500000 0.716584
O O6 0.044582 0.274598 0.631149
O O7 0.078195 0.290441 0.719213
O O8 0.929656 0.234448 0.762134
O O9 0.276570 0.257209 0.863729
O O10 0.203741 0.000000 0.907068
O O11 0.145914 0.233985 0.991071
O O12 0.226175 0.500000 0.571579
O O13 0.199746 0.792031 0.569011
O O14 0.349604 0.692527 0.504641
O O15 0.238646 0.693451 0.645032
O O16 0.906294 0.000000 0.401214
O O17 0.641153 0.500000 0.161482
O O18 0.617283 0.735977 0.110814
O O19 0.143976 0.500000 0.746610
O O20 0.419420 0.500000 0.929427
#
# Coordination Sequence:
#
# PCOD8086084 Si02
#       8
#     8   8   8   8   8   8   8   8
#     4  10  19  33  53  75  99 131 171 208 245 295
#     4  10  19  31  47  69  99 133 167 203 250 302
#     4  10  21  36  53  73 101 134 165 204 255 304
#     4   8  15  26  39  62  97 133 164 198 247 297
#     4   9  15  24  41  65  95 129 165 204 244 290
#     4  11  21  34  53  76 101 129 167 212 250 295
#     4   9  17  29  46  69  99 132 164 203 248 292
#     4   9  18  34  55  76  97 127 168 209 250 298
#
# _framework density 17.833167
#
# number of rings (size 3 to 8) (size 9 to 14) (size 15 to 20)
#    0.000    2.500    1.250    2.625    0.000    4.500 
#    0.000    1.250    0.000    1.500    0.000    0.875 
#    0.000    7.000    0.000    0.000    0.000    0.000 
#
# Total GULP energy -396639.621416 kJ/mol
# GULP energy per Si atom -12394.988169 kJ/mol
# Density = 1.779258 g / cm^3
# Si number density = 17.833167 Si / 1000 Ang^3
#
#
#
# Elastic Constant Matrix: (Units=GPa)
#
#
# Indices 1 2 3 4 5 6 
#
# 1 60.3416 25.4513 29.5362 0.0001 -12.0548 -0.0004
# 2 25.4513 34.7613 22.9073 -0.0001 -3.6860 -0.0008
# 3 29.5362 22.9073 130.5722 0.0000 -17.1890 -0.0002
# 4 0.0001 -0.0001 0.0000 29.1123 0.0000 -1.5385
# 5 -12.0548 -3.6860 -17.1890 0.0000 11.1475 0.0000
# 6 -0.0004 -0.0008 -0.0002 -1.5385 0.0000 19.5644
#
#
#
# Elastic Compliance Matrix: (Units=1/GPa)
#
#
# Indices 1 2 3 4 5 6 
#
# 1 0.029789 -0.019075 0.000023 0.000000 0.025942 0.000000
# 2 -0.019075 0.044797 -0.005407 0.000000 -0.014154 0.000001
# 3 0.000023 -0.005407 0.010502 0.000000 0.014430 0.000000
# 4 0.000000 0.000000 0.000000 0.034493 0.000000 0.002712
# 5 0.025942 -0.014154 0.014430 0.000000 0.135332 0.000000
# 6 0.000000 0.000001 0.000000 0.002712 0.000000 0.051326
#
#
# Mechanical properties :
#
#
# Convention : Reuss Voigt Hill
#
# Bulk Modulus (GPa) = 27.64827 42.38496 35.01662
# Shear Modulus (GPa) = 13.61604 21.81687 17.71646
#
# Velocity S-wave (km/s) = 2.76619 3.50149 3.15533
# Velocity P-wave (km/s) = 5.07345 6.33769 5.74048
#
# Compressibility (1/GPa) = 0.03616862
#
# Stress axis : x y z
#
# Youngs Moduli (GPa) = 33.56898 22.32313 95.22300
#
# Poissons Ratio (x) = 0.42582 -0.00221
# Poissons Ratio (y) = 0.64034 0.51490
# Poissons Ratio (z) = -0.00078 0.12071
#
# Static dielectric constant tensor:
#      x y z
#    x 2.949760 0.000000 -0.045100 
#    y 0.000000 3.146930 0.000000 
#    z -0.045100 0.000000 3.745000 
# 
# 
# High freq. dielectric constant tensor:
#      x y z
#    x 1.633900 0.000000 -0.007820 
#    y 0.000000 1.681090 0.000000 
#    z -0.007820 0.000000 1.715210 
# 
# From -- ./inp_files/345952.got.cif
#   From: 2010.06.25/outbox.cif.g09.slc.cpg/sg12_173_cif.got.tgz:345952.got - 2010.06.28 00:19:55.
