data_PCOD8086850
_publ_section_title
;
Structure prediction by ZEFSAII (Michael W. Deem and Ramdas Pophale) SiO2 
 PCOD8086850
Probable space group: C 2/M
;
_chemical_formula_sum "Si O2"
_cell_formula_units_Z 56
_cell_length_a 19.402119
_cell_length_b 8.802583
_cell_length_c 32.683382
_cell_angle_alpha 90.000000
_cell_angle_beta 148.181675
_cell_angle_gamma 90.000000
_cell_volume 2942.960360
_symmetry_space_group_name_H-M "C 2/M"
_symmetry_group_IT_number 12
_symmetry_cell_setting 'monoclinic'
loop_
_space_group_symop_operation_xyz
x,y,z
-x,y,-z
-x,-y,-z
x,-y,z
1/2+x,1/2+y,z
1/2-x,1/2+y,-z
1/2-x,1/2-y,-z
1/2+x,1/2-y,z
loop_
_atom_site_type_symbol
_atom_site_label
_atom_site_fract_x
_atom_site_fract_y
_atom_site_fract_z
Si Si1 0.393900 0.180490 0.218322
Si Si2 0.630877 0.831356 0.184134
Si Si3 0.148353 0.321266 0.479329
Si Si4 0.066069 0.829739 0.676730
Si Si5 0.893190 0.680538 0.739522
Si Si6 0.147727 0.821478 0.563630
Si Si7 0.618121 0.181114 0.088625
O O1 0.453082 0.241078 0.290472
O O2 0.489270 0.237322 0.230115
O O3 0.249991 0.246619 0.137199
O O4 0.386987 0.000000 0.216835
O O5 0.786145 0.837247 0.262800
O O6 0.586495 0.749080 0.204161
O O7 0.586949 0.753860 0.118877
O O8 0.570818 0.000000 0.153950
O O9 0.148076 0.500000 0.475223
O O10 0.250000 0.250000 0.500000
O O11 0.189948 0.271685 0.545328
O O12 0.006340 0.256404 0.396368
O O13 0.009557 0.000000 0.653703
O O14 0.895414 0.500000 0.744212
O O15 0.750746 0.728900 0.650521
O O16 0.000000 0.774939 0.500000
O O17 0.158277 0.000000 0.559619
O O18 0.638724 0.000000 0.100946
O O19 0.500000 0.230001 0.000000
#
# Coordination Sequence:
#
# PCOD8086850 Si02
#       7
#     8   8   8   8   8   8   8
#     4  10  19  31  51  78 107 137 169 211 262 316
#     4   8  15  30  53  76  97 128 170 208 247 304
#     4  12  24  36  51  73 103 138 180 230 280 325
#     4  10  19  34  55  75  98 133 177 220 262 312
#     4   9  17  30  49  74 102 133 171 213 258 311
#     4  10  20  35  55  77 104 141 184 228 276 328
#     4   9  18  34  56  79 103 134 173 215 256 305
#
# _framework density 19.028459000000002
#
# number of rings (size 3 to 8) (size 9 to 14) (size 15 to 20)
#    0.000    2.286    0.000    4.714    0.000    4.000 
#    0.000    1.429    0.000    9.429    0.000    0.000 
#    0.000    0.000    0.000    0.000    0.000    0.000 
#
# Total GULP energy -347063.385485 kJ/mol
# GULP energy per Si atom -12395.120910 kJ/mol
# Density = 1.898515 g / cm^3
# Si number density = 19.028459 Si / 1000 Ang^3
#
#
#
# Elastic Constant Matrix: (Units=GPa)
#
#
# Indices 1 2 3 4 5 6 
#
# 1 134.2973 24.3635 55.1706 -0.0001 -17.6160 0.0002
# 2 24.3635 61.7209 20.8247 -0.0003 -2.7696 0.0006
# 3 55.1706 20.8247 115.9658 -0.0001 -16.0919 0.0003
# 4 -0.0001 -0.0003 -0.0001 24.0280 0.0000 -0.2266
# 5 -17.6160 -2.7696 -16.0919 0.0000 26.0563 0.0000
# 6 0.0002 0.0006 0.0003 -0.2266 0.0000 23.0881
#
#
#
# Elastic Compliance Matrix: (Units=1/GPa)
#
#
# Indices 1 2 3 4 5 6 
#
# 1 0.009974 -0.002496 -0.003717 0.000000 0.004183 0.000000
# 2 -0.002496 0.017871 -0.002179 0.000000 -0.001134 0.000000
# 3 -0.003717 -0.002179 0.011377 0.000000 0.004282 0.000000
# 4 0.000000 0.000000 0.000000 0.041622 0.000000 0.000409
# 5 0.004183 -0.001134 0.004282 0.000000 0.043730 0.000000
# 6 0.000000 0.000000 0.000000 0.000409 0.000000 0.043316
#
#
# Mechanical properties :
#
#
# Convention : Reuss Voigt Hill
#
# Bulk Modulus (GPa) = 44.56398 56.96684 50.76541
# Shear Modulus (GPa) = 26.02071 28.74282 27.38177
#
# Velocity S-wave (km/s) = 3.70193 3.89075 3.79752
# Velocity P-wave (km/s) = 6.46088 7.08425 6.77973
#
# Compressibility (1/GPa) = 0.02243965
#
# Stress axis : x y z
#
# Youngs Moduli (GPa) = 100.25623 55.95503 87.89665
#
# Poissons Ratio (x) = 0.13964 0.32669
# Poissons Ratio (y) = 0.25019 0.19156
# Poissons Ratio (z) = 0.37263 0.12195
#
# Static dielectric constant tensor:
#      x y z
#    x 3.464530 0.000000 0.140320 
#    y 0.000000 3.317720 0.000000 
#    z 0.140320 0.000000 3.036180 
# 
# 
# High freq. dielectric constant tensor:
#      x y z
#    x 1.746500 0.000000 -0.011640 
#    y 0.000000 1.710450 0.000000 
#    z -0.011640 0.000000 1.735090 
# 
# From -- ./inp_files/313712.got.cif
#   From: 2010.06.25/outbox.cif.g09.slc.cpg/sg12_157_cif.got.tgz:313712.got - 2010.06.28 00:19:55.
