data_PCOD8086361
_publ_section_title
;
Structure prediction by ZEFSAII (Michael W. Deem and Ramdas Pophale) SiO2 
 PCOD8086361
Probable space group: C 2/M
;
_chemical_formula_sum "Si O2"
_cell_formula_units_Z 48
_cell_length_a 20.287466
_cell_length_b 8.895259
_cell_length_c 22.821080
_cell_angle_alpha 90.000000
_cell_angle_beta 139.081480
_cell_angle_gamma 90.000000
_cell_volume 2697.453801
_symmetry_space_group_name_H-M "C 2/M"
_symmetry_group_IT_number 12
_symmetry_cell_setting 'monoclinic'
loop_
_space_group_symop_operation_xyz
x,y,z
-x,y,-z
-x,-y,-z
x,-y,z
1/2+x,1/2+y,z
1/2-x,1/2+y,-z
1/2-x,1/2-y,-z
1/2+x,1/2-y,z
loop_
_atom_site_type_symbol
_atom_site_label
_atom_site_fract_x
_atom_site_fract_y
_atom_site_fract_z
Si Si1 0.037750 0.673198 0.960122
Si Si2 0.920025 0.827402 0.782233
Si Si3 0.927968 0.830321 0.222679
Si Si4 0.886692 0.172495 0.585104
Si Si5 0.270583 0.171094 0.606937
Si Si6 0.238304 0.823657 0.055167
O O1 0.061368 0.500000 0.962417
O O2 0.950295 0.729516 0.858347
O O3 0.138269 0.768690 0.019598
O O4 0.000000 0.698193 0.000000
O O5 0.808812 0.775732 0.685728
O O6 0.000740 0.799401 0.785212
O O7 0.914497 0.000000 0.797357
O O8 0.834155 0.717686 0.159653
O O9 0.992881 0.803768 0.325993
O O10 0.885887 0.000000 0.191831
O O11 0.847360 0.196039 0.491414
O O12 0.832534 0.293274 0.589803
O O13 0.861462 0.000000 0.588491
O O14 0.290228 0.000000 0.639030
O O15 0.231360 0.000000 0.041866
O O16 0.250000 0.750000 0.000000
#
# Coordination Sequence:
#
# PCOD8086361 Si02
#       6
#     8   8   8   8   8   8
#     4  11  24  40  57  77 102 134 175 221 265 313
#     4  10  19  31  49  72 101 137 171 209 256 309
#     4   9  17  30  48  72 102 135 172 213 254 303
#     4   8  15  26  40  63  97 133 167 206 255 302
#     4   9  15  24  41  65  96 132 168 208 251 302
#     4  12  23  35  54  78 105 139 176 215 259 310
#
# _framework density 17.794559
#
# number of rings (size 3 to 8) (size 9 to 14) (size 15 to 20)
#    0.000    2.167    1.667    4.000    0.000    4.667 
#    0.000    0.000    0.000    0.000    0.000    1.167 
#    0.000    9.333    0.000    0.000    0.000    0.000 
#
# Total GULP energy -297456.825200 kJ/mol
# GULP energy per Si atom -12394.034383 kJ/mol
# Density = 1.775406 g / cm^3
# Si number density = 17.794559 Si / 1000 Ang^3
#
#
#
# Elastic Constant Matrix: (Units=GPa)
#
#
# Indices 1 2 3 4 5 6 
#
# 1 38.9173 37.9716 35.6469 0.0000 0.8391 0.0000
# 2 37.9716 112.7399 60.1594 0.0000 3.6158 -0.0001
# 3 35.6469 60.1594 165.6501 0.0000 4.2569 0.0000
# 4 0.0000 0.0000 0.0000 32.0004 0.0000 1.5449
# 5 0.8391 3.6158 4.2569 0.0000 13.1586 0.0000
# 6 0.0000 -0.0001 0.0000 1.5449 0.0000 17.9377
#
#
#
# Elastic Compliance Matrix: (Units=1/GPa)
#
#
# Indices 1 2 3 4 5 6 
#
# 1 0.041112 -0.011366 -0.004772 0.000000 0.002045 0.000000
# 2 -0.011366 0.014184 -0.002646 0.000000 -0.002317 0.000000
# 3 -0.004772 -0.002646 0.008065 0.000000 -0.001578 0.000000
# 4 0.000000 0.000000 0.000000 0.031380 0.000000 -0.002703
# 5 0.002045 -0.002317 -0.001578 0.000000 0.077013 0.000000
# 6 0.000000 0.000000 0.000000 -0.002703 0.000000 0.055981
#
#
# Mechanical properties :
#
#
# Convention : Reuss Voigt Hill
#
# Bulk Modulus (GPa) = 38.76872 64.98479 51.87675
# Shear Modulus (GPa) = 18.25475 24.85463 21.55469
#
# Velocity S-wave (km/s) = 3.20638 3.74137 3.48416
# Velocity P-wave (km/s) = 5.96171 7.43388 6.73812
#
# Compressibility (1/GPa) = 0.02579399
#
# Stress axis : x y z
#
# Youngs Moduli (GPa) = 24.32368 70.50011 123.99039
#
# Poissons Ratio (x) = 0.80132 0.59166
# Poissons Ratio (y) = 0.27647 0.32806
# Poissons Ratio (z) = 0.11607 0.18654
#
# Static dielectric constant tensor:
#      x y z
#    x 2.804820 0.000000 0.213950 
#    y 0.000000 3.420170 0.000000 
#    z 0.213950 0.000000 4.119890 
# 
# 
# High freq. dielectric constant tensor:
#      x y z
#    x 1.605000 0.000000 0.004080 
#    y 0.000000 1.701030 0.000000 
#    z 0.004080 0.000000 1.720530 
# 
# From -- ./inp_files/345399.got.cif
#   From: 2010.06.25/outbox.cif.g09.slc.cpg/sg12_173_cif.got.tgz:345399.got - 2010.06.28 00:19:55.
