data_PCOD8086543
_publ_section_title
;
Structure prediction by ZEFSAII (Michael W. Deem and Ramdas Pophale) SiO2 
 PCOD8086543
Probable space group: C 2/M
;
_chemical_formula_sum "Si O2"
_cell_formula_units_Z 48
_cell_length_a 30.096476
_cell_length_b 8.702263
_cell_length_c 12.159716
_cell_angle_alpha 90.000000
_cell_angle_beta 62.077057
_cell_angle_gamma 90.000000
_cell_volume 2813.949300
_symmetry_space_group_name_H-M "C 2/M"
_symmetry_group_IT_number 12
_symmetry_cell_setting 'monoclinic'
loop_
_space_group_symop_operation_xyz
x,y,z
-x,y,-z
-x,-y,-z
x,-y,z
1/2+x,1/2+y,z
1/2-x,1/2+y,-z
1/2-x,1/2-y,-z
1/2+x,1/2-y,z
loop_
_atom_site_type_symbol
_atom_site_label
_atom_site_fract_x
_atom_site_fract_y
_atom_site_fract_z
Si Si1 0.489302 0.830103 0.140955
Si Si2 0.617368 0.181145 0.799359
Si Si3 0.757079 0.179891 0.821733
Si Si4 0.222200 0.181465 0.636055
Si Si5 0.412410 0.678704 0.936923
Si Si6 0.828874 0.320796 0.904189
O O1 0.431142 0.776888 0.220400
O O2 0.528474 0.714643 0.153831
O O3 0.496713 0.000000 0.183376
O O4 0.500000 0.836119 0.000000
O O5 0.663828 0.273286 0.695923
O O6 0.628809 0.000000 0.784072
O O7 0.608132 0.226072 0.936137
O O8 0.748181 0.250447 0.713453
O O9 0.806323 0.258603 0.816409
O O10 0.766921 0.000000 0.800111
O O11 0.709026 0.216619 0.952524
O O12 0.250000 0.250000 0.500000
O O13 0.227674 0.000000 0.631165
O O14 0.405294 0.500000 0.968552
O O15 0.380734 0.730927 0.867399
O O16 0.840037 0.500000 0.879776
#
# Coordination Sequence:
#
# PCOD8086543 Si02
#       6
#     8   8   8   8   8   8
#     4   8  16  29  45  65  95 131 164 200 247 300
#     4  10  19  33  49  68  97 132 168 208 252 297
#     4  10  20  34  51  72 100 131 168 209 251 299
#     4  12  24  37  54  74 100 134 173 211 251 296
#     4  11  19  27  45  73 103 133 166 202 247 301
#     4  10  19  31  50  72 102 136 166 203 251 303
#
# _framework density 17.057877000000001
#
# number of rings (size 3 to 8) (size 9 to 14) (size 15 to 20)
#    0.000    1.833    1.667    5.500    0.000    5.000 
#    0.000    0.000    0.000    0.000    0.000    1.167 
#    0.000    9.333    0.000    0.000    0.000    0.000 
#
# Total GULP energy -297596.698581 kJ/mol
# GULP energy per Si atom -12399.862441 kJ/mol
# Density = 1.701905 g / cm^3
# Si number density = 17.057877 Si / 1000 Ang^3
#
#
#
# Elastic Constant Matrix: (Units=GPa)
#
#
# Indices 1 2 3 4 5 6 
#
# 1 127.3871 23.1925 32.5597 0.0000 10.4786 0.0000
# 2 23.1925 47.1991 13.3579 0.0000 18.1593 0.0000
# 3 32.5597 13.3579 60.4371 0.0000 7.3795 0.0000
# 4 0.0000 0.0000 0.0000 21.6851 0.0000 1.2209
# 5 10.4786 18.1593 7.3795 0.0000 13.5781 0.0000
# 6 0.0000 0.0000 0.0000 1.2209 0.0000 34.5559
#
#
#
# Elastic Compliance Matrix: (Units=1/GPa)
#
#
# Indices 1 2 3 4 5 6 
#
# 1 0.009614 -0.003184 -0.004380 0.000000 -0.000780 0.000000
# 2 -0.003184 0.045113 -0.001273 0.000000 -0.057184 0.000000
# 3 -0.004380 -0.001273 0.019886 0.000000 -0.005725 0.000000
# 4 0.000000 0.000000 0.000000 0.046207 0.000000 -0.001633
# 5 -0.000780 -0.057184 -0.005725 0.000000 0.153839 0.000000
# 6 0.000000 0.000000 0.000000 -0.001633 0.000000 0.028996
#
#
# Mechanical properties :
#
#
# Convention : Reuss Voigt Hill
#
# Bulk Modulus (GPa) = 17.56307 41.47152 29.51729
# Shear Modulus (GPa) = 14.69254 25.02469 19.85862
#
# Velocity S-wave (km/s) = 2.93803 3.83436 3.41573
# Velocity P-wave (km/s) = 4.67203 6.63084 5.73568
#
# Compressibility (1/GPa) = 0.05693767
#
# Stress axis : x y z
#
# Youngs Moduli (GPa) = 104.02027 22.16672 50.28583
#
# Poissons Ratio (x) = 0.07058 0.22026
# Poissons Ratio (y) = 0.33121 0.06402
# Poissons Ratio (z) = 0.45562 0.02822
#
# Static dielectric constant tensor:
#      x y z
#    x 3.692890 0.000000 -0.097330 
#    y 0.000000 3.281810 0.000000 
#    z -0.097330 0.000000 2.740900 
# 
# 
# High freq. dielectric constant tensor:
#      x y z
#    x 1.678360 0.000000 0.000470 
#    y 0.000000 1.673340 0.000000 
#    z 0.000470 0.000000 1.591600 
# 
# From -- ./inp_files/185730.got.cif
#   From: 2010.06.25/outbox.cif.g09.slc.cpg/sg12_93_cif.got.tgz:185730.got - 2010.06.28 00:19:55.
