data_PCOD8086979
_publ_section_title
;
Structure prediction by ZEFSAII (Michael W. Deem and Ramdas Pophale) SiO2 
 PCOD8086979
Probable space group: C 2/M
;
_chemical_formula_sum "Si O2"
_cell_formula_units_Z 44
_cell_length_a 13.466595
_cell_length_b 13.348164
_cell_length_c 22.361359
_cell_angle_alpha 90.000000
_cell_angle_beta 142.679527
_cell_angle_gamma 90.000000
_cell_volume 2436.943549
_symmetry_space_group_name_H-M "C 2/M"
_symmetry_group_IT_number 12
_symmetry_cell_setting 'monoclinic'
loop_
_space_group_symop_operation_xyz
x,y,z
-x,y,-z
-x,-y,-z
x,-y,z
1/2+x,1/2+y,z
1/2-x,1/2+y,-z
1/2-x,1/2-y,-z
1/2+x,1/2-y,z
loop_
_atom_site_type_symbol
_atom_site_label
_atom_site_fract_x
_atom_site_fract_y
_atom_site_fract_z
Si Si1 0.365262 0.802810 0.139314
Si Si2 0.803349 0.886483 0.832524
Si Si3 0.503658 0.885258 0.390261
Si Si4 0.819600 0.382607 0.647745
Si Si5 0.000000 0.755253 0.500000
Si Si6 0.855745 0.113618 0.064161
O O1 0.238041 0.814496 0.132435
O O2 0.542046 0.845820 0.240209
O O3 0.372031 0.684036 0.129816
O O4 0.305453 0.860812 0.051298
O O5 0.683868 0.866329 0.719342
O O6 0.988688 0.867149 0.903500
O O7 0.774817 0.000000 0.841736
O O8 0.625476 0.859546 0.393878
O O9 0.543384 0.813518 0.464247
O O10 0.528826 0.000000 0.422818
O O11 0.790417 0.500000 0.643119
O O12 0.654989 0.325320 0.586342
O O13 0.849024 0.000000 0.084264
#
# Coordination Sequence:
#
# PCOD8086979 Si02
#       6
#     8   8   8   8   4   8
#     4  10  19  32  53  74 101 134 164 201 246 290
#     4   9  17  32  53  75  99 130 167 201 238 293
#     4   9  19  34  52  75 102 129 162 206 252 295
#     4  10  21  36  51  71 100 134 169 203 243 295
#     4  12  20  32  54  76  98 128 168 210 252 290
#     4  10  19  31  52  80 102 126 165 205 242 289
#
# _framework density 18.055403999999999
#
# number of rings (size 3 to 8) (size 9 to 14) (size 15 to 20)
#    0.000    2.182    0.000    5.455    0.000    1.455 
#    0.000    0.909    0.000   24.000    0.000    0.000 
#    0.000    0.000    0.000    0.000    0.000    0.000 
#
# Total GULP energy -272845.548197 kJ/mol
# GULP energy per Si atom -12402.070373 kJ/mol
# Density = 1.801431 g / cm^3
# Si number density = 18.055404 Si / 1000 Ang^3
#
#
#
# Elastic Constant Matrix: (Units=GPa)
#
#
# Indices 1 2 3 4 5 6 
#
# 1 64.2021 60.7482 35.1248 0.0000 -1.3870 0.0000
# 2 60.7482 133.5131 47.2106 0.0000 -5.7246 0.0000
# 3 35.1248 47.2106 80.2786 0.0000 3.9312 0.0000
# 4 0.0000 0.0000 0.0000 25.6379 0.0000 -3.2952
# 5 -1.3870 -5.7246 3.9312 0.0000 24.9188 0.0000
# 6 0.0000 0.0000 0.0000 -3.2952 0.0000 37.0380
#
#
#
# Elastic Compliance Matrix: (Units=1/GPa)
#
#
# Indices 1 2 3 4 5 6 
#
# 1 0.029732 -0.011266 -0.006387 0.000000 0.000074 0.000000
# 2 -0.011266 0.013965 -0.003436 0.000000 0.003123 0.000000
# 3 -0.006387 -0.003436 0.017463 0.000000 -0.003900 0.000000
# 4 0.000000 0.000000 0.000000 0.039456 0.000000 0.003510
# 5 0.000074 0.003123 -0.003900 0.000000 0.041467 0.000000
# 6 0.000000 0.000000 0.000000 0.003510 0.000000 0.027312
#
#
# Mechanical properties :
#
#
# Convention : Reuss Voigt Hill
#
# Bulk Modulus (GPa) = 52.68409 62.68456 57.68432
# Shear Modulus (GPa) = 22.94628 26.51294 24.72961
#
# Velocity S-wave (km/s) = 3.56881 3.83616 3.70490
# Velocity P-wave (km/s) = 6.79885 7.37663 7.09363
#
# Compressibility (1/GPa) = 0.01898106
#
# Stress axis : x y z
#
# Youngs Moduli (GPa) = 33.63386 71.60756 57.26468
#
# Poissons Ratio (x) = 0.80676 0.36574
# Poissons Ratio (y) = 0.37893 0.19677
# Poissons Ratio (z) = 0.21481 0.24605
#
# Static dielectric constant tensor:
#      x y z
#    x 3.132320 0.000000 0.068370 
#    y 0.000000 3.379880 0.000000 
#    z 0.068370 0.000000 3.340820 
# 
# 
# High freq. dielectric constant tensor:
#      x y z
#    x 1.683530 0.000000 0.006270 
#    y 0.000000 1.700180 0.000000 
#    z 0.006270 0.000000 1.706460 
# 
# From -- ./inp_files/250482.got.cif
#   From: 2010.06.25/outbox.cif.g09.slc.cpg/sg12_126_cif.got.tgz:250482.got - 2010.06.28 00:19:55.
