data_PCOD8086906
_publ_section_title
;
Structure prediction by ZEFSAII (Michael W. Deem and Ramdas Pophale) SiO2 
 PCOD8086906
Probable space group: C 2/M
;
_chemical_formula_sum "Si O2"
_cell_formula_units_Z 64
_cell_length_a 29.188569
_cell_length_b 9.006962
_cell_length_c 17.305852
_cell_angle_alpha 90.000000
_cell_angle_beta 135.225534
_cell_angle_gamma 90.000000
_cell_volume 3204.445257
_symmetry_space_group_name_H-M "C 2/M"
_symmetry_group_IT_number 12
_symmetry_cell_setting 'monoclinic'
loop_
_space_group_symop_operation_xyz
x,y,z
-x,y,-z
-x,-y,-z
x,-y,z
1/2+x,1/2+y,z
1/2-x,1/2+y,-z
1/2-x,1/2-y,-z
1/2+x,1/2-y,z
loop_
_atom_site_type_symbol
_atom_site_label
_atom_site_fract_x
_atom_site_fract_y
_atom_site_fract_z
Si Si1 0.115309 0.163665 0.712164
Si Si2 0.382742 0.823028 0.998101
Si Si3 0.241300 0.661243 0.065004
Si Si4 0.192903 0.672005 0.385281
Si Si5 0.041461 0.175473 0.776356
Si Si6 0.409001 0.832133 0.606756
Si Si7 0.334239 0.171656 0.363837
Si Si8 0.312112 0.677121 0.784029
O O1 0.192392 0.152553 0.810106
O O2 0.083312 0.232433 0.751756
O O3 0.110871 0.259608 0.628680
O O4 0.084755 0.000000 0.662103
O O5 0.438742 0.758203 0.120459
O O6 0.391578 0.000000 0.999596
O O7 0.314870 0.765708 0.952199
O O8 0.374707 0.746366 0.904674
O O9 0.216026 0.500000 0.010119
O O10 0.250000 0.750000 0.000000
O O11 0.211027 0.500000 0.391179
O O12 0.250000 0.750000 0.500000
O O13 0.126502 0.683420 0.354174
O O14 0.180254 0.760128 0.292216
O O15 0.967100 0.214551 0.671155
O O16 0.051369 0.000000 0.799223
O O17 0.357552 0.793337 0.478243
O O18 0.435930 0.000000 0.628206
O O19 0.259061 0.227697 0.267703
O O20 0.334993 0.000000 0.344869
O O21 0.317795 0.500000 0.789233
#
# Coordination Sequence:
#
# PCOD8086906 Si02
#       8
#     8   8   8   8   8   8   8   8
#     4  10  21  36  54  84 123 158 203 251 297 352
#     4  11  22  37  59  88 121 162 204 247 303 360
#     4  10  19  31  51  80 114 152 198 247 293 346
#     4  11  22  40  67  96 125 155 195 248 307 365
#     4  11  24  41  60  85 120 166 209 250 298 353
#     4  10  23  44  63  86 120 158 202 248 298 364
#     4  10  21  37  59  88 122 158 198 246 303 356
#     4  11  22  38  61  95 129 155 194 251 308 362
#
# _framework density 19.972255000000001
#
# number of rings (size 3 to 8) (size 9 to 14) (size 15 to 20)
#    0.000    1.500    3.750    1.500    0.000    4.500 
#    0.000    3.125    0.000    3.750    0.000    0.000 
#    0.000    0.000    0.000    0.000    0.000    0.000 
#
# Total GULP energy -396586.363184 kJ/mol
# GULP energy per Si atom -12393.323850 kJ/mol
# Density = 1.992680 g / cm^3
# Si number density = 19.972255 Si / 1000 Ang^3
#
#
#
# Elastic Constant Matrix: (Units=GPa)
#
#
# Indices 1 2 3 4 5 6 
#
# 1 68.9700 33.4007 28.5570 0.0000 -17.2941 0.0000
# 2 33.4007 83.7264 35.4517 0.0000 -11.9066 0.0000
# 3 28.5570 35.4517 74.1622 0.0000 -15.1595 0.0000
# 4 0.0000 0.0000 0.0000 36.8246 0.0000 -3.6876
# 5 -17.2941 -11.9066 -15.1595 0.0000 36.9712 0.0000
# 6 0.0000 0.0000 0.0000 -3.6876 0.0000 31.1340
#
#
#
# Elastic Compliance Matrix: (Units=1/GPa)
#
#
# Indices 1 2 3 4 5 6 
#
# 1 0.020365 -0.005596 -0.003916 0.000000 0.006118 0.000000
# 2 -0.005596 0.016657 -0.005726 0.000000 0.000399 0.000000
# 3 -0.003916 -0.005726 0.018531 0.000000 0.003922 0.000000
# 4 0.000000 0.000000 0.000000 0.027482 0.000000 0.003255
# 5 0.006118 0.000399 0.003922 0.000000 0.031647 0.000000
# 6 0.000000 0.000000 0.000000 0.003255 0.000000 0.032505
#
#
# Mechanical properties :
#
#
# Convention : Reuss Voigt Hill
#
# Bulk Modulus (GPa) = 39.87808 46.85304 43.36556
# Shear Modulus (GPa) = 26.87859 29.61589 28.24724
#
# Velocity S-wave (km/s) = 3.67249 3.85496 3.76483
# Velocity P-wave (km/s) = 6.16385 6.58212 6.37641
#
# Compressibility (1/GPa) = 0.02507643
#
# Stress axis : x y z
#
# Youngs Moduli (GPa) = 49.10505 60.03327 53.96339
#
# Poissons Ratio (x) = 0.33593 0.21132
# Poissons Ratio (y) = 0.27478 0.30902
# Poissons Ratio (z) = 0.19230 0.34378
#
# Static dielectric constant tensor:
#      x y z
#    x 3.624920 0.000000 -0.253360 
#    y 0.000000 3.708340 0.000000 
#    z -0.253360 0.000000 3.686200 
# 
# 
# High freq. dielectric constant tensor:
#      x y z
#    x 1.771600 0.000000 -0.015420 
#    y 0.000000 1.780770 0.000000 
#    z -0.015420 0.000000 1.775660 
# 
# From -- ./inp_files/295732.got.cif
#   From: 2010.06.25/outbox.cif.g09.slc.cpg/sg12_148_cif.got.tgz:295732.got - 2010.06.28 00:19:55.
