data_PCOD8086443
_publ_section_title
;
Structure prediction by ZEFSAII (Michael W. Deem and Ramdas Pophale) SiO2 
 PCOD8086443
Probable space group: C 2/M
;
_chemical_formula_sum "Si O2"
_cell_formula_units_Z 64
_cell_length_a 20.707186
_cell_length_b 9.252353
_cell_length_c 21.569645
_cell_angle_alpha 90.000000
_cell_angle_beta 118.776497
_cell_angle_gamma 90.000000
_cell_volume 3622.182175
_symmetry_space_group_name_H-M "C 2/M"
_symmetry_group_IT_number 12
_symmetry_cell_setting 'monoclinic'
loop_
_space_group_symop_operation_xyz
x,y,z
-x,y,-z
-x,-y,-z
x,-y,z
1/2+x,1/2+y,z
1/2-x,1/2+y,-z
1/2-x,1/2-y,-z
1/2+x,1/2-y,z
loop_
_atom_site_type_symbol
_atom_site_label
_atom_site_fract_x
_atom_site_fract_y
_atom_site_fract_z
Si Si1 0.298520 0.330976 0.932501
Si Si2 0.467349 0.342548 0.381832
Si Si3 0.392835 0.660178 0.465417
Si Si4 0.657019 0.668546 0.905556
Si Si5 0.570007 0.830377 0.074219
Si Si6 0.453880 0.166400 0.674808
Si Si7 0.495776 0.168004 0.168104
Si Si8 0.176408 0.333013 0.469805
O O1 0.288594 0.500000 0.910722
O O2 0.219168 0.250224 0.892866
O O3 0.357563 0.258981 0.912703
O O4 0.328393 0.311319 0.015265
O O5 0.456305 0.500000 0.346694
O O6 0.532715 0.344401 0.461197
O O7 0.399041 0.302246 0.394955
O O8 0.476243 0.236223 0.327941
O O9 0.355492 0.500000 0.454677
O O10 0.348901 0.794680 0.472700
O O11 0.656689 0.500000 0.886497
O O12 0.577340 0.737739 0.857443
O O13 0.546709 0.787355 0.133456
O O14 0.588738 0.000000 0.076654
O O15 0.500000 0.788382 0.000000
O O16 0.454516 0.197041 0.748212
O O17 0.378786 0.226415 0.609295
O O18 0.460693 0.000000 0.662317
O O19 0.472247 0.000000 0.151256
O O20 0.190399 0.500000 0.468466
O O21 0.250000 0.250000 0.500000
#
# Coordination Sequence:
#
# PCOD8086443 Si02
#       8
#     8   8   8   8   8   8   8   8
#     4  10  20  33  52  77 107 137 171 220 271 313
#     4   8  14  26  46  70  95 120 151 191 236 286
#     4   8  14  26  45  70  95 119 149 191 239 284
#     4  10  20  33  52  78 105 135 174 217 263 319
#     4  10  19  32  53  79 105 138 180 223 265 313
#     4   9  19  33  50  73 101 133 165 204 255 309
#     4  10  20  35  54  76 106 140 175 218 269 319
#     4  10  19  31  49  73  99 130 169 208 251 301
#
# _framework density 17.668907000000001
#
# number of rings (size 3 to 8) (size 9 to 14) (size 15 to 20)
#    0.000    2.625    1.250    1.875    0.000    3.250 
#    0.000    2.500    2.750    0.000    0.000    0.000 
#    0.000    0.000    0.000    0.000    0.000    0.000 
#
# Total GULP energy -396441.800478 kJ/mol
# GULP energy per Si atom -12388.806265 kJ/mol
# Density = 1.762869 g / cm^3
# Si number density = 17.668907 Si / 1000 Ang^3
#
#
#
# Elastic Constant Matrix: (Units=GPa)
#
#
# Indices 1 2 3 4 5 6 
#
# 1 133.3230 66.0007 53.4618 0.0000 -8.1087 0.0000
# 2 66.0007 85.1859 42.4976 0.0000 -0.9415 0.0000
# 3 53.4618 42.4976 68.9559 0.0000 -17.4092 0.0000
# 4 0.0000 0.0000 0.0000 19.3346 0.0000 -1.8151
# 5 -8.1087 -0.9415 -17.4092 0.0000 25.6489 0.0000
# 6 0.0000 0.0000 0.0000 -1.8151 0.0000 37.2582
#
#
#
# Elastic Compliance Matrix: (Units=1/GPa)
#
#
# Indices 1 2 3 4 5 6 
#
# 1 0.013632 -0.007648 -0.005839 0.000000 0.000066 0.000000
# 2 -0.007648 0.022644 -0.010169 0.000000 -0.008489 0.000000
# 3 -0.005839 -0.010169 0.029851 0.000000 0.018042 0.000000
# 4 0.000000 0.000000 0.000000 0.051958 0.000000 0.002531
# 5 0.000066 -0.008489 0.018042 0.000000 0.050943 0.000000
# 6 0.000000 0.000000 0.000000 0.002531 0.000000 0.026963
#
#
# Mechanical properties :
#
#
# Convention : Reuss Voigt Hill
#
# Bulk Modulus (GPa) = 53.14859 67.93168 60.54013
# Shear Modulus (GPa) = 20.03398 24.81534 22.42466
#
# Velocity S-wave (km/s) = 3.37093 3.75168 3.56639
# Velocity P-wave (km/s) = 6.73027 7.56950 7.16219
#
# Compressibility (1/GPa) = 0.01881517
#
# Stress axis : x y z
#
# Youngs Moduli (GPa) = 73.35573 44.16134 33.49978
#
# Poissons Ratio (x) = 0.33777 0.19559
# Poissons Ratio (y) = 0.56106 0.34066
# Poissons Ratio (z) = 0.42830 0.44907
#
# Static dielectric constant tensor:
#      x y z
#    x 3.410750 0.000000 -0.178050 
#    y 0.000000 3.358070 0.000000 
#    z -0.178050 0.000000 3.148380 
# 
# 
# High freq. dielectric constant tensor:
#      x y z
#    x 1.683520 0.000000 -0.014950 
#    y 0.000000 1.685790 0.000000 
#    z -0.014950 0.000000 1.651900 
# 
# From -- ./inp_files/345610.got.cif
#   From: 2010.06.25/outbox.cif.g09.slc.cpg/sg12_173_cif.got.tgz:345610.got - 2010.06.28 00:19:55.
