data_PCOD8086638
_publ_section_title
;
Structure prediction by ZEFSAII (Michael W. Deem and Ramdas Pophale) SiO2 
 PCOD8086638
Probable space group: C 2/M
;
_chemical_formula_sum "Si O2"
_cell_formula_units_Z 56
_cell_length_a 17.969290
_cell_length_b 8.818671
_cell_length_c 28.965042
_cell_angle_alpha 90.000000
_cell_angle_beta 141.034108
_cell_angle_gamma 90.000000
_cell_volume 2886.426926
_symmetry_space_group_name_H-M "C 2/M"
_symmetry_group_IT_number 12
_symmetry_cell_setting 'monoclinic'
loop_
_space_group_symop_operation_xyz
x,y,z
-x,y,-z
-x,-y,-z
x,-y,z
1/2+x,1/2+y,z
1/2-x,1/2+y,-z
1/2-x,1/2-y,-z
1/2+x,1/2-y,z
loop_
_atom_site_type_symbol
_atom_site_label
_atom_site_fract_x
_atom_site_fract_y
_atom_site_fract_z
Si Si1 0.208205 0.820930 0.432456
Si Si2 0.138390 0.823914 0.571991
Si Si3 0.223153 0.819953 0.712536
Si Si4 0.943800 0.180385 0.287352
Si Si5 0.083495 0.319666 0.999914
Si Si6 0.849092 0.180201 0.143677
Si Si7 0.988904 0.680175 0.856179
O O1 0.250000 0.750000 0.500000
O O2 0.295648 0.774426 0.434093
O O3 0.077095 0.759624 0.357728
O O4 0.207908 0.000000 0.437841
O O5 0.178741 0.763314 0.641394
O O6 0.000000 0.796226 0.500000
O O7 0.170918 0.000000 0.580698
O O8 0.136777 0.752948 0.710214
O O9 0.355352 0.760431 0.785343
O O10 0.219241 0.000000 0.712742
O O11 0.892735 0.240263 0.214300
O O12 0.940425 0.000000 0.286683
O O13 0.080623 0.500000 0.999940
O O14 0.216190 0.259942 0.071697
O O15 0.035820 0.260130 0.927958
O O16 0.000000 0.253561 0.000000
O O17 0.931795 0.249603 0.145024
O O18 0.855554 0.000000 0.143712
O O19 0.995497 0.500000 0.856099
#
# Coordination Sequence:
#
# PCOD8086638 Si02
#       7
#     8   8   8   8   8   8   8
#     4  11  22  36  55  78 105 135 170 212 256 305
#     4  10  20  35  55  77 103 136 173 212 255 305
#     4   9  17  31  52  75  99 131 171 211 250 296
#     4   9  18  33  53  76 100 131 171 210 249 296
#     4   9  17  30  50  75  99 128 170 211 243 286
#     4  10  19  32  52  75 101 132 165 205 250 296
#     4  10  19  31  50  75 102 131 165 207 251 297
#
# _framework density 19.401150999999999
#
# number of rings (size 3 to 8) (size 9 to 14) (size 15 to 20)
#    0.000    2.286    0.000    3.429    0.000    6.000 
#    0.000    0.714    0.000    6.857    0.000    0.000 
#    0.000    0.000    0.000    0.000    0.000    0.000 
#
# Total GULP energy -347257.579653 kJ/mol
# GULP energy per Si atom -12402.056416 kJ/mol
# Density = 1.935699 g / cm^3
# Si number density = 19.401151 Si / 1000 Ang^3
#
#
#
# Elastic Constant Matrix: (Units=GPa)
#
#
# Indices 1 2 3 4 5 6 
#
# 1 181.5943 28.9777 96.2125 0.0000 -8.7262 0.0000
# 2 28.9777 24.3305 28.2555 0.0000 0.9069 -0.0001
# 3 96.2125 28.2555 206.4452 0.0000 -7.7696 0.0000
# 4 0.0000 0.0000 0.0000 13.8030 0.0000 -4.2807
# 5 -8.7262 0.9069 -7.7696 0.0000 44.4130 0.0000
# 6 0.0000 -0.0001 0.0000 -4.2807 0.0000 31.1685
#
#
#
# Elastic Compliance Matrix: (Units=1/GPa)
#
#
# Indices 1 2 3 4 5 6 
#
# 1 0.008094 -0.006371 -0.002854 0.000000 0.001221 0.000000
# 2 -0.006371 0.054094 -0.004553 0.000000 -0.003153 0.000000
# 3 -0.002854 -0.004553 0.006825 0.000000 0.000726 0.000000
# 4 0.000000 0.000000 0.000000 0.075671 0.000000 0.010393
# 5 0.001221 -0.003153 0.000726 0.000000 0.022947 0.000000
# 6 0.000000 0.000000 0.000000 0.010393 0.000000 0.033511
#
#
# Mechanical properties :
#
#
# Convention : Reuss Voigt Hill
#
# Bulk Modulus (GPa) = 24.12220 79.91793 52.02006
# Shear Modulus (GPa) = 20.61705 35.13852 27.87779
#
# Velocity S-wave (km/s) = 3.26340 4.26039 3.79478
# Velocity P-wave (km/s) = 5.16334 8.09216 6.78760
#
# Compressibility (1/GPa) = 0.04145559
#
# Stress axis : x y z
#
# Youngs Moduli (GPa) = 123.54145 18.48645 146.52716
#
# Poissons Ratio (x) = 0.11778 0.41825
# Poissons Ratio (y) = 0.78710 0.66715
# Poissons Ratio (z) = 0.35264 0.08417
#
# Static dielectric constant tensor:
#      x y z
#    x 4.221980 0.000000 -0.720740 
#    y 0.000000 3.042380 0.000000 
#    z -0.720740 0.000000 5.038210 
# 
# 
# High freq. dielectric constant tensor:
#      x y z
#    x 1.774920 0.000000 -0.000490 
#    y 0.000000 1.702020 0.000000 
#    z -0.000490 0.000000 1.779030 
# 
# From -- ./inp_files/313725.got.cif
#   From: 2010.06.25/outbox.cif.g09.slc.cpg/sg12_157_cif.got.tgz:313725.got - 2010.06.28 00:19:55.
