data_PCOD8086812
_publ_section_title
;
Structure prediction by ZEFSAII (Michael W. Deem and Ramdas Pophale) SiO2 
 PCOD8086812
Probable space group: C 2/M
;
_chemical_formula_sum "Si O2"
_cell_formula_units_Z 56
_cell_length_a 29.290987
_cell_length_b 8.891008
_cell_length_c 11.486554
_cell_angle_alpha 90.000000
_cell_angle_beta 76.950049
_cell_angle_gamma 90.000000
_cell_volume 2914.144702
_symmetry_space_group_name_H-M "C 2/M"
_symmetry_group_IT_number 12
_symmetry_cell_setting 'monoclinic'
loop_
_space_group_symop_operation_xyz
x,y,z
-x,y,-z
-x,-y,-z
x,-y,z
1/2+x,1/2+y,z
1/2-x,1/2+y,-z
1/2-x,1/2-y,-z
1/2+x,1/2-y,z
loop_
_atom_site_type_symbol
_atom_site_label
_atom_site_fract_x
_atom_site_fract_y
_atom_site_fract_z
Si Si1 0.390739 0.323843 0.050837
Si Si2 0.683032 0.821633 0.758727
Si Si3 0.139133 0.324085 0.542700
Si Si4 0.560565 0.824164 0.191519
Si Si5 0.052016 0.678225 0.455501
Si Si6 0.031074 0.336084 0.868916
Si Si7 0.734036 0.823902 0.390665
O O1 0.382742 0.500000 0.052689
O O2 0.342389 0.241625 0.111802
O O3 0.428332 0.283870 0.130450
O O4 0.407030 0.270124 0.914341
O O5 0.655531 0.760434 0.658907
O O6 0.736292 0.756343 0.728899
O O7 0.685666 0.000000 0.762027
O O8 0.132903 0.500000 0.562770
O O9 0.089042 0.255587 0.529271
O O10 0.177947 0.294056 0.418458
O O11 0.573264 0.782644 0.316259
O O12 0.504932 0.783370 0.210726
O O13 0.568041 0.000000 0.158554
O O14 0.048268 0.500000 0.472034
O O15 0.000000 0.749325 0.500000
O O16 0.053729 0.500000 0.824501
O O17 0.000000 0.355994 0.000000
O O18 0.750000 0.750000 0.500000
O O19 0.745473 0.000000 0.383825
#
# Coordination Sequence:
#
# PCOD8086812 Si02
#       7
#     8   8   8   8   8   8   8
#     4  11  21  31  47  71  99 132 165 205 256 305
#     4  10  19  31  51  77 104 129 163 211 258 303
#     4   8  16  29  48  75 104 132 161 204 251 290
#     4   9  18  32  50  71  97 131 169 209 245 288
#     4   9  17  29  50  78 102 129 170 208 239 284
#     4   8  15  28  45  66  91 124 163 202 243 284
#     4   9  16  29  48  73 105 135 166 204 252 301
#
# _framework density 19.216616999999999
#
# number of rings (size 3 to 8) (size 9 to 14) (size 15 to 20)
#    0.000    2.857    0.000    3.857    2.000    2.571 
#    0.000    0.000    0.000    6.429    0.000    0.000 
#    0.000    0.000    0.000    0.000    0.000    0.000 
#
# Total GULP energy -346901.608462 kJ/mol
# GULP energy per Si atom -12389.343159 kJ/mol
# Density = 1.917288 g / cm^3
# Si number density = 19.216617 Si / 1000 Ang^3
#
#
#
# Elastic Constant Matrix: (Units=GPa)
#
#
# Indices 1 2 3 4 5 6 
#
# 1 76.6974 21.8469 28.8601 0.0000 -19.6962 0.0000
# 2 21.8469 79.0887 27.7519 0.0000 -16.8609 0.0000
# 3 28.8601 27.7519 62.4255 0.0000 -20.7905 0.0000
# 4 0.0000 0.0000 0.0000 17.6861 0.0000 -8.8663
# 5 -19.6962 -16.8609 -20.7905 0.0000 34.3391 0.0000
# 6 0.0000 0.0000 0.0000 -8.8663 0.0000 19.6297
#
#
#
# Elastic Compliance Matrix: (Units=1/GPa)
#
#
# Indices 1 2 3 4 5 6 
#
# 1 0.016935 -0.001628 -0.005182 0.000000 0.005777 0.000000
# 2 -0.001628 0.015628 -0.004948 0.000000 0.003744 0.000000
# 3 -0.005182 -0.004948 0.023567 0.000000 0.008867 0.000000
# 4 0.000000 0.000000 0.000000 0.073092 0.000000 0.033014
# 5 0.005777 0.003744 0.008867 0.000000 0.039642 0.000000
# 6 0.000000 0.000000 0.000000 0.033014 0.000000 0.065855
#
#
# Mechanical properties :
#
#
# Convention : Reuss Voigt Hill
#
# Bulk Modulus (GPa) = 30.66033 41.68103 36.17068
# Shear Modulus (GPa) = 18.57994 23.64783 21.11389
#
# Velocity S-wave (km/s) = 3.11282 3.51179 3.31831
# Velocity P-wave (km/s) = 5.37674 6.17905 5.79181
#
# Compressibility (1/GPa) = 0.03261543
#
# Stress axis : x y z
#
# Youngs Moduli (GPa) = 59.04797 63.98678 42.43135
#
# Poissons Ratio (x) = 0.10419 0.21986
# Poissons Ratio (y) = 0.09615 0.20995
# Poissons Ratio (z) = 0.30596 0.31661
#
# Static dielectric constant tensor:
#      x y z
#    x 4.124890 0.000000 -0.204350 
#    y 0.000000 3.211680 0.000000 
#    z -0.204350 0.000000 3.535850 
# 
# 
# High freq. dielectric constant tensor:
#      x y z
#    x 1.731820 0.000000 -0.026450 
#    y 0.000000 1.709920 0.000000 
#    z -0.026450 0.000000 1.737630 
# 
# From -- ./inp_files/186495.got.cif
#   From: 2010.06.25/outbox.cif.g09.slc.cpg/sg12_94_cif.got.tgz:186495.got - 2010.06.28 00:19:55.
