data_PCOD8086495
_publ_section_title
;
Structure prediction by ZEFSAII (Michael W. Deem and Ramdas Pophale) SiO2 
 PCOD8086495
Probable space group: C 2/M
;
_chemical_formula_sum "Si O2"
_cell_formula_units_Z 56
_cell_length_a 25.096528
_cell_length_b 8.981698
_cell_length_c 16.666961
_cell_angle_alpha 90.000000
_cell_angle_beta 120.323211
_cell_angle_gamma 90.000000
_cell_volume 3242.914211
_symmetry_space_group_name_H-M "C 2/M"
_symmetry_group_IT_number 12
_symmetry_cell_setting 'monoclinic'
loop_
_space_group_symop_operation_xyz
x,y,z
-x,y,-z
-x,-y,-z
x,-y,z
1/2+x,1/2+y,z
1/2-x,1/2+y,-z
1/2-x,1/2-y,-z
1/2+x,1/2-y,z
loop_
_atom_site_type_symbol
_atom_site_label
_atom_site_fract_x
_atom_site_fract_y
_atom_site_fract_z
Si Si1 0.369194 0.674508 0.609169
Si Si2 0.491103 0.672543 0.282051
Si Si3 0.694877 0.827724 0.293483
Si Si4 0.444715 0.823992 0.401181
Si Si5 0.165550 0.173429 0.595371
Si Si6 0.028172 0.826214 0.912133
Si Si7 0.912590 0.675713 0.903964
O O1 0.368327 0.500000 0.622332
O O2 0.439076 0.734458 0.669520
O O3 0.325823 0.742882 0.643254
O O4 0.342472 0.721274 0.502917
O O5 0.491291 0.500000 0.307664
O O6 0.452956 0.764392 0.317794
O O7 0.458093 0.696903 0.171306
O O8 0.765072 0.787043 0.324916
O O9 0.653477 0.785910 0.184968
O O10 0.688441 0.000000 0.310095
O O11 0.500000 0.764069 0.500000
O O12 0.379522 0.767638 0.383518
O O13 0.444260 0.000000 0.398769
O O14 0.149994 0.000000 0.594960
O O15 0.964880 0.743771 0.886501
O O16 0.021328 0.000000 0.927798
O O17 0.083857 0.753469 0.005827
O O18 0.923265 0.500000 0.920995
#
# Coordination Sequence:
#
# PCOD8086495 Si02
#       7
#     8   8   8   8   8   8   8
#     4  10  19  32  52  77 105 140 175 207 252 306
#     4  10  20  34  54  78 104 137 173 211 257 306
#     4  10  21  34  51  77 108 141 173 210 256 306
#     4  11  23  36  53  78 104 134 174 219 260 298
#     4  10  21  37  54  73 103 143 180 210 250 307
#     4  10  19  32  51  76 103 133 173 212 252 304
#     4  10  19  31  49  75 107 137 167 207 260 307
#
# _framework density 17.268419000000002
#
# number of rings (size 3 to 8) (size 9 to 14) (size 15 to 20)
#    0.000    1.857    2.857    2.571    0.000    4.000 
#    0.000    0.000    0.000    0.857    0.000    0.000 
#    0.000    0.000    0.000    0.000    0.000    0.000 
#
# Total GULP energy -347259.803537 kJ/mol
# GULP energy per Si atom -12402.135841 kJ/mol
# Density = 1.722911 g / cm^3
# Si number density = 17.268419 Si / 1000 Ang^3
#
#
#
# Elastic Constant Matrix: (Units=GPa)
#
#
# Indices 1 2 3 4 5 6 
#
# 1 101.2409 43.4733 64.7903 0.0000 -0.6446 0.0000
# 2 43.4733 65.7342 50.2002 0.0000 -7.0579 0.0000
# 3 64.7903 50.2002 134.8907 0.0000 -0.5848 0.0000
# 4 0.0000 0.0000 0.0000 24.3595 0.0000 -2.5744
# 5 -0.6446 -7.0579 -0.5848 0.0000 22.9133 0.0000
# 6 0.0000 0.0000 0.0000 -2.5744 0.0000 27.0638
#
#
#
# Elastic Compliance Matrix: (Units=1/GPa)
#
#
# Indices 1 2 3 4 5 6 
#
# 1 0.016160 -0.006913 -0.005197 0.000000 -0.001807 0.000000
# 2 -0.006913 0.025174 -0.006016 0.000000 0.007406 0.000000
# 3 -0.005197 -0.006016 0.012142 0.000000 -0.001690 0.000000
# 4 0.000000 0.000000 0.000000 0.041469 0.000000 0.003945
# 5 -0.001807 0.007406 -0.001690 0.000000 0.045830 0.000000
# 6 0.000000 0.000000 0.000000 0.003945 0.000000 0.037325
#
#
# Mechanical properties :
#
#
# Convention : Reuss Voigt Hill
#
# Bulk Modulus (GPa) = 58.06034 68.75483 63.40759
# Shear Modulus (GPa) = 22.71760 24.42743 23.57251
#
# Velocity S-wave (km/s) = 3.63100 3.76516 3.69869
# Velocity P-wave (km/s) = 7.16059 7.66836 7.41882
#
# Compressibility (1/GPa) = 0.01722346
#
# Stress axis : x y z
#
# Youngs Moduli (GPa) = 61.87992 39.72315 82.36203
#
# Poissons Ratio (x) = 0.27459 0.42807
# Poissons Ratio (y) = 0.42775 0.49552
# Poissons Ratio (z) = 0.32161 0.23899
#
# Static dielectric constant tensor:
#      x y z
#    x 3.017160 0.000000 0.078180 
#    y 0.000000 3.219500 0.000000 
#    z 0.078180 0.000000 3.463380 
# 
# 
# High freq. dielectric constant tensor:
#      x y z
#    x 1.643860 0.000000 -0.001450 
#    y 0.000000 1.670710 0.000000 
#    z -0.001450 0.000000 1.673710 
# 
# From -- ./inp_files/287853.got.cif
#   From: 2010.06.25/outbox.cif.g09.slc.cpg/sg12_144_cif.got.tgz:287853.got - 2010.06.28 00:19:55.
