data_PCOD8086129
_publ_section_title
;
Structure prediction by ZEFSAII (Michael W. Deem and Ramdas Pophale) SiO2 
 PCOD8086129
Probable space group: C 2/M
;
_chemical_formula_sum "Si O2"
_cell_formula_units_Z 64
_cell_length_a 31.663027
_cell_length_b 9.329067
_cell_length_c 15.903454
_cell_angle_alpha 90.000000
_cell_angle_beta 126.382441
_cell_angle_gamma 90.000000
_cell_volume 3781.976062
_symmetry_space_group_name_H-M "C 2/M"
_symmetry_group_IT_number 12
_symmetry_cell_setting 'monoclinic'
loop_
_space_group_symop_operation_xyz
x,y,z
-x,y,-z
-x,-y,-z
x,-y,z
1/2+x,1/2+y,z
1/2-x,1/2+y,-z
1/2-x,1/2-y,-z
1/2+x,1/2-y,z
loop_
_atom_site_type_symbol
_atom_site_label
_atom_site_fract_x
_atom_site_fract_y
_atom_site_fract_z
Si Si1 0.932204 0.667586 0.590233
Si Si2 0.309771 0.835114 0.169434
Si Si3 0.709837 0.667552 0.148893
Si Si4 0.326389 0.833221 0.557046
Si Si5 0.282528 0.667847 0.655402
Si Si6 0.359140 0.665731 0.082255
Si Si7 0.080794 0.336471 0.618605
Si Si8 0.466949 0.330980 0.289203
O O1 0.942606 0.500000 0.616266
O O2 0.879425 0.717099 0.574344
O O3 0.927160 0.707098 0.486703
O O4 0.980746 0.757299 0.685785
O O5 0.259363 0.767887 0.156737
O O6 0.319554 0.751198 0.094979
O O7 0.358178 0.816643 0.289770
O O8 0.300476 0.000000 0.133915
O O9 0.720841 0.500000 0.172873
O O10 0.705658 0.731904 0.237714
O O11 0.656577 0.698422 0.033197
O O12 0.321476 0.747111 0.637821
O O13 0.277921 0.798417 0.438105
O O14 0.327904 0.000000 0.581173
O O15 0.294792 0.500000 0.663804
O O16 0.350549 0.500000 0.093872
O O17 0.419605 0.708814 0.169346
O O18 0.062759 0.500000 0.614571
O O19 0.045397 0.233015 0.633541
O O20 0.475338 0.500000 0.307038
#
# Coordination Sequence:
#
# PCOD8086129 Si02
#       8
#     8   8   8   8   8   8   8   8
#     4  10  19  31  48  66  87 119 154 184 218 264
#     4   9  16  27  45  68  92 118 150 184 216 259
#     4   9  16  28  48  69  89 118 153 183 215 262
#     4   9  18  32  49  71  96 116 139 179 227 268
#     4   9  17  31  51  72  93 117 144 175 218 273
#     4   9  18  31  44  62  92 124 151 184 223 257
#     4   9  17  29  45  66  91 119 151 183 217 262
#     4  10  20  31  43  63  92 122 152 188 224 255
#
# _framework density 16.922370000000001
#
# number of rings (size 3 to 8) (size 9 to 14) (size 15 to 20)
#    0.000    2.750    0.000    1.875    0.000    6.000 
#    0.000    1.250    0.000    6.750    0.000    5.250 
#    0.000    0.000    0.000    0.000    0.000    0.000 
#
# Total GULP energy -396779.757312 kJ/mol
# GULP energy per Si atom -12399.367416 kJ/mol
# Density = 1.688385 g / cm^3
# Si number density = 16.922370 Si / 1000 Ang^3
#
#
#
# Elastic Constant Matrix: (Units=GPa)
#
#
# Indices 1 2 3 4 5 6 
#
# 1 122.7896 46.6187 67.7704 0.0000 5.3949 0.0000
# 2 46.6187 47.0113 38.9968 0.0000 -1.7327 0.0000
# 3 67.7704 38.9968 116.3886 0.0000 -9.9615 0.0000
# 4 0.0000 0.0000 0.0000 20.4381 0.0000 -1.3190
# 5 5.3949 -1.7327 -9.9615 0.0000 19.8648 0.0000
# 6 0.0000 0.0000 0.0000 -1.3190 0.0000 25.1793
#
#
#
# Elastic Compliance Matrix: (Units=1/GPa)
#
#
# Indices 1 2 3 4 5 6 
#
# 1 0.016357 -0.011111 -0.006546 0.000000 -0.008694 0.000000
# 2 -0.011111 0.037125 -0.005677 0.000000 0.003409 0.000000
# 3 -0.006546 -0.005677 0.015062 0.000000 0.008835 0.000000
# 4 0.000000 0.000000 0.000000 0.049094 0.000000 0.002572
# 5 -0.008694 0.003409 0.008835 0.000000 0.057429 0.000000
# 6 0.000000 0.000000 0.000000 0.002572 0.000000 0.039850
#
#
# Mechanical properties :
#
#
# Convention : Reuss Voigt Hill
#
# Bulk Modulus (GPa) = 45.71343 65.88459 55.79901
# Shear Modulus (GPa) = 18.59582 21.95004 20.27293
#
# Velocity S-wave (km/s) = 3.31855 3.60544 3.46496
# Velocity P-wave (km/s) = 6.46188 7.50668 7.00379
#
# Compressibility (1/GPa) = 0.02187541
#
# Stress axis : x y z
#
# Youngs Moduli (GPa) = 61.13514 26.93592 66.39356
#
# Poissons Ratio (x) = 0.29929 0.43458
# Poissons Ratio (y) = 0.67929 0.37694
# Poissons Ratio (z) = 0.40017 0.15293
#
# Static dielectric constant tensor:
#      x y z
#    x 3.158760 0.000000 0.093630 
#    y 0.000000 3.031510 0.000000 
#    z 0.093630 0.000000 3.260650 
# 
# 
# High freq. dielectric constant tensor:
#      x y z
#    x 1.640100 0.000000 0.011380 
#    y 0.000000 1.636890 0.000000 
#    z 0.011380 0.000000 1.650450 
# 
# From -- ./inp_files/249171.got.cif
#   From: 2010.06.25/outbox.cif.g09.slc.cpg/sg12_125_cif.got.tgz:249171.got - 2010.06.28 00:19:55.
