data_PCOD8086903
_publ_section_title
;
Structure prediction by ZEFSAII (Michael W. Deem and Ramdas Pophale) SiO2 
 PCOD8086903
Probable space group: C 2/M
;
_chemical_formula_sum "Si O2"
_cell_formula_units_Z 56
_cell_length_a 30.350326
_cell_length_b 9.120292
_cell_length_c 11.765311
_cell_angle_alpha 90.000000
_cell_angle_beta 119.484181
_cell_angle_gamma 90.000000
_cell_volume 2834.915436
_symmetry_space_group_name_H-M "C 2/M"
_symmetry_group_IT_number 12
_symmetry_cell_setting 'monoclinic'
loop_
_space_group_symop_operation_xyz
x,y,z
-x,y,-z
-x,-y,-z
x,-y,z
1/2+x,1/2+y,z
1/2-x,1/2+y,-z
1/2-x,1/2-y,-z
1/2+x,1/2-y,z
loop_
_atom_site_type_symbol
_atom_site_label
_atom_site_fract_x
_atom_site_fract_y
_atom_site_fract_z
Si Si1 0.246966 0.675696 0.120358
Si Si2 0.498813 0.338825 0.632406
Si Si3 0.399372 0.673355 0.622407
Si Si4 0.092732 0.660218 0.740079
Si Si5 0.558287 0.672589 0.079842
Si Si6 0.836284 0.324304 0.367168
Si Si7 0.363320 0.161666 0.969532
O O1 0.254612 0.500000 0.116762
O O2 0.286575 0.745231 0.258280
O O3 0.194491 0.713317 0.119961
O O4 0.250000 0.750000 0.000000
O O5 0.500000 0.343237 0.500000
O O6 0.503217 0.500000 0.692744
O O7 0.447101 0.268636 0.610220
O O8 0.546952 0.250867 0.735510
O O9 0.389397 0.500000 0.595697
O O10 0.412356 0.717209 0.767728
O O11 0.350938 0.762167 0.511309
O O12 0.071386 0.500000 0.682565
O O13 0.118637 0.726007 0.660615
O O14 0.134292 0.654078 0.890846
O O15 0.555499 0.500000 0.062399
O O16 0.593614 0.732915 0.024820
O O17 0.500000 0.734105 0.000000
O O18 0.828754 0.500000 0.360274
O O19 0.372264 0.000000 0.928082
#
# Coordination Sequence:
#
# PCOD8086903 Si02
#       7
#     8   8   8   8   8   8   8
#     4  11  22  39  62  90 124 159 198 249 304 359
#     4  10  19  31  51  80 111 148 192 233 287 357
#     4  10  21  38  57  83 120 156 197 249 300 353
#     4  10  20  34  52  80 118 152 186 238 294 349
#     4  10  22  41  64  89 120 158 203 251 295 352
#     4  11  22  37  57  86 121 155 196 241 298 362
#     4  10  22  40  60  86 119 153 198 248 296 353
#
# _framework density 19.753677
#
# number of rings (size 3 to 8) (size 9 to 14) (size 15 to 20)
#    0.000    1.714    2.857    1.714    0.000    5.143 
#    0.000    0.714    0.000    0.000    0.000    0.000 
#    0.000    0.000    0.000    0.000    0.000    0.000 
#
# Total GULP energy -347007.043033 kJ/mol
# GULP energy per Si atom -12393.108680 kJ/mol
# Density = 1.970872 g / cm^3
# Si number density = 19.753677 Si / 1000 Ang^3
#
#
#
# Elastic Constant Matrix: (Units=GPa)
#
#
# Indices 1 2 3 4 5 6 
#
# 1 89.4690 37.2027 39.4815 0.0000 12.7443 0.0000
# 2 37.2027 69.9952 43.9361 0.0000 12.9370 0.0000
# 3 39.4815 43.9361 118.7691 0.0000 16.8687 0.0000
# 4 0.0000 0.0000 0.0000 30.8460 0.0000 2.2390
# 5 12.7443 12.9370 16.8687 0.0000 32.8559 0.0000
# 6 0.0000 0.0000 0.0000 2.2390 0.0000 24.7911
#
#
#
# Elastic Compliance Matrix: (Units=1/GPa)
#
#
# Indices 1 2 3 4 5 6 
#
# 1 0.015103 -0.006076 -0.002460 0.000000 -0.002203 0.000000
# 2 -0.006076 0.021576 -0.005490 0.000000 -0.003320 0.000000
# 3 -0.002460 -0.005490 0.011677 0.000000 -0.002879 0.000000
# 4 0.000000 0.000000 0.000000 0.032633 0.000000 -0.002947
# 5 -0.002203 -0.003320 -0.002879 0.000000 0.034076 0.000000
# 6 0.000000 0.000000 0.000000 -0.002947 0.000000 0.040603
#
#
# Mechanical properties :
#
#
# Convention : Reuss Voigt Hill
#
# Bulk Modulus (GPa) = 49.25180 57.71932 53.48556
# Shear Modulus (GPa) = 26.24826 28.20613 27.22720
#
# Velocity S-wave (km/s) = 3.64920 3.78285 3.71662
# Velocity P-wave (km/s) = 6.53778 6.95434 6.74928
#
# Compressibility (1/GPa) = 0.02030382
#
# Stress axis : x y z
#
# Youngs Moduli (GPa) = 66.21259 46.34792 85.63543
#
# Poissons Ratio (x) = 0.28161 0.21066
# Poissons Ratio (y) = 0.40230 0.47016
# Poissons Ratio (z) = 0.16288 0.25446
#
# Static dielectric constant tensor:
#      x y z
#    x 3.526870 0.000000 0.153510 
#    y 0.000000 3.622110 0.000000 
#    z 0.153510 0.000000 3.669580 
# 
# 
# High freq. dielectric constant tensor:
#      x y z
#    x 1.757840 0.000000 0.011640 
#    y 0.000000 1.763520 0.000000 
#    z 0.011640 0.000000 1.776010 
# 
# From -- ./inp_files/187688.got.cif
#   From: 2010.06.25/outbox.cif.g09.slc.cpg/sg12_94_cif.got.tgz:187688.got - 2010.06.28 00:19:55.
