data_PCOD8086047
_publ_section_title
;
Structure prediction by ZEFSAII (Michael W. Deem and Ramdas Pophale) SiO2 
 PCOD8086047
Probable space group: C 2/M
;
_chemical_formula_sum "Si O2"
_cell_formula_units_Z 64
_cell_length_a 30.484096
_cell_length_b 8.818714
_cell_length_c 31.090179
_cell_angle_alpha 90.000000
_cell_angle_beta 28.234087
_cell_angle_gamma 90.000000
_cell_volume 3953.955663
_symmetry_space_group_name_H-M "C 2/M"
_symmetry_group_IT_number 12
_symmetry_cell_setting 'monoclinic'
loop_
_space_group_symop_operation_xyz
x,y,z
-x,y,-z
-x,-y,-z
x,-y,z
1/2+x,1/2+y,z
1/2-x,1/2+y,-z
1/2-x,1/2-y,-z
1/2+x,1/2-y,z
loop_
_atom_site_type_symbol
_atom_site_label
_atom_site_fract_x
_atom_site_fract_y
_atom_site_fract_z
Si Si1 0.412372 0.676093 0.303318
Si Si2 0.773990 0.679873 0.577774
Si Si3 0.383493 0.673671 0.891201
Si Si4 0.911703 0.320530 0.632624
Si Si5 0.379971 0.321640 0.747504
Si Si6 0.618818 0.179705 0.434825
Si Si7 0.066019 0.320785 0.623949
Si Si8 0.275943 0.824447 0.909583
O O1 0.397916 0.500000 0.328085
O O2 0.328535 0.737664 0.346028
O O3 0.507496 0.699485 0.194519
O O4 0.413606 0.773308 0.345232
O O5 0.775435 0.500000 0.577857
O O6 0.802603 0.742979 0.600435
O O7 0.848079 0.737893 0.478827
O O8 0.363138 0.500000 0.894926
O O9 0.351764 0.781316 0.879988
O O10 0.327107 0.712341 0.983445
O O11 0.903168 0.500000 0.646848
O O12 0.861659 0.236559 0.715090
O O13 0.863235 0.266518 0.629742
O O14 0.018680 0.267280 0.538669
O O15 0.388581 0.500000 0.740237
O O16 0.472541 0.252821 0.687595
O O17 0.292405 0.271140 0.852121
O O18 0.617240 0.000000 0.435825
O O19 0.054173 0.500000 0.631038
O O20 0.288515 0.000000 0.887554
#
# Coordination Sequence:
#
# PCOD8086047 Si02
#       8
#     8   8   8   8   8   8   8   8
#     4  10  19  31  47  68  96 125 153 190 230 266
#     4   9  17  29  47  69  94 125 159 188 220 266
#     4   9  18  31  46  68  94 119 150 190 235 272
#     4   9  16  29  50  69  90 119 154 190 226 276
#     4  12  22  31  45  68  96 123 153 194 239 277
#     4   8  14  27  48  71  91 118 155 190 222 268
#     4  11  20  31  46  65  93 129 166 190 213 266
#     4  10  19  31  48  66  89 121 155 190 229 281
#
# _framework density 16.186323000000002
#
# number of rings (size 3 to 8) (size 9 to 14) (size 15 to 20)
#    0.000    2.250    2.500    3.000    0.000    0.500 
#    0.000    1.875    0.000    0.000    0.000    0.875 
#    0.000    7.000    0.000    0.000    0.000    0.000 
#
# Total GULP energy -396701.053461 kJ/mol
# GULP energy per Si atom -12396.907921 kJ/mol
# Density = 1.614948 g / cm^3
# Si number density = 16.186323 Si / 1000 Ang^3
#
#
#
# Elastic Constant Matrix: (Units=GPa)
#
#
# Indices 1 2 3 4 5 6 
#
# 1 119.6495 30.1012 69.0877 0.0239 11.7993 0.0023
# 2 30.1012 57.7489 31.4414 0.0129 7.9819 -0.0108
# 3 69.0877 31.4414 109.5297 0.0217 11.1861 0.0000
# 4 0.0239 0.0129 0.0217 16.1745 -0.0118 4.2802
# 5 11.7993 7.9819 11.1861 -0.0118 23.9997 -0.0089
# 6 0.0023 -0.0108 0.0000 4.2802 -0.0089 18.0663
#
#
#
# Elastic Compliance Matrix: (Units=1/GPa)
#
#
# Indices 1 2 3 4 5 6 
#
# 1 0.013646 -0.002653 -0.007613 -0.000009 -0.002278 -0.000002
# 2 -0.002653 0.021468 -0.004088 -0.000014 -0.003930 0.000015
# 3 -0.007613 -0.004088 0.015313 -0.000007 -0.002035 -0.000001
# 4 -0.000009 -0.000014 -0.000007 0.065961 0.000039 -0.015627
# 5 -0.002278 -0.003930 -0.002035 0.000039 0.045043 0.000011
# 6 -0.000002 0.000015 -0.000001 -0.015627 0.000011 0.059054
#
#
# Mechanical properties :
#
#
# Convention : Reuss Voigt Hill
#
# Bulk Modulus (GPa) = 46.04170 60.90987 53.47579
# Shear Modulus (GPa) = 19.49828 22.06794 20.78311
#
# Velocity S-wave (km/s) = 3.47452 3.69639 3.58717
# Velocity P-wave (km/s) = 6.67855 7.47863 7.08988
#
# Compressibility (1/GPa) = 0.02171944
#
# Stress axis : x y z
#
# Youngs Moduli (GPa) = 73.28292 46.58097 65.30272
#
# Poissons Ratio (x) = 0.12358 0.49715
# Poissons Ratio (y) = 0.19441 0.26694
# Poissons Ratio (z) = 0.55791 0.19041
#
# Static dielectric constant tensor:
#      x y z
#    x 3.287620 -0.000010 0.085620 
#    y -0.000010 2.887900 0.000010 
#    z 0.085620 0.000010 3.195420 
# 
# 
# High freq. dielectric constant tensor:
#      x y z
#    x 1.605740 0.000000 0.012920 
#    y 0.000000 1.606270 0.000000 
#    z 0.012920 0.000000 1.613090 
# 
# From -- ./inp_files/384569.got.cif
#   From: 2010.06.25/outbox.cif.g09.slc.cpg/sg12_193_cif.got.tgz:384569.got - 2010.06.28 00:19:55.
