data_PCOD8086751
_publ_section_title
;
Structure prediction by ZEFSAII (Michael W. Deem and Ramdas Pophale) SiO2 
 PCOD8086751
Probable space group: C 2/M
;
_chemical_formula_sum "Si O2"
_cell_formula_units_Z 40
_cell_length_a 20.408271
_cell_length_b 15.075810
_cell_length_c 8.388265
_cell_angle_alpha 90.000000
_cell_angle_beta 52.519662
_cell_angle_gamma 90.000000
_cell_volume 2048.047302
_symmetry_space_group_name_H-M "C 2/M"
_symmetry_group_IT_number 12
_symmetry_cell_setting 'monoclinic'
loop_
_space_group_symop_operation_xyz
x,y,z
-x,y,-z
-x,-y,-z
x,-y,z
1/2+x,1/2+y,z
1/2-x,1/2+y,-z
1/2-x,1/2-y,-z
1/2+x,1/2-y,z
loop_
_atom_site_type_symbol
_atom_site_label
_atom_site_fract_x
_atom_site_fract_y
_atom_site_fract_z
Si Si1 0.700926 0.794728 0.929751
Si Si2 0.694168 0.399517 0.469487
Si Si3 0.411003 0.897961 0.680385
Si Si4 0.644963 0.901850 0.575403
Si Si5 0.407684 0.730678 0.182638
O O1 0.766522 0.859669 0.748862
O O2 0.657753 0.727249 0.867954
O O3 0.750000 0.750000 0.000000
O O4 0.624359 0.849806 0.112979
O O5 0.663453 0.500000 0.481275
O O6 0.761112 0.397767 0.509903
O O7 0.618993 0.338860 0.641212
O O8 0.500000 0.858154 0.500000
O O9 0.350861 0.882475 0.619179
O O10 0.420496 0.000000 0.714186
O O11 0.590047 0.830049 0.749270
O O12 0.606462 0.000000 0.664097
O O13 0.500000 0.703112 0.000000
#
# Coordination Sequence:
#
# PCOD8086751 Si02
#       5
#     8   8   8   8   8
#     4  11  21  35  57  81 107 139 177 222 269 318
#     4  10  21  38  57  76 104 145 188 222 259 318
#     4  10  19  31  50  79 112 139 167 212 268 320
#     4   9  18  34  55  79 109 142 177 217 266 328
#     4  11  22  36  56  80 108 143 182 226 271 315
#
# _framework density 19.530798000000001
#
# number of rings (size 3 to 8) (size 9 to 14) (size 15 to 20)
#    0.000    1.800    0.000    6.600    0.000    1.600 
#    0.000    1.000    0.000    1.200    0.000    0.000 
#    0.000    0.000    0.000    0.000    0.000    0.000 
#
# Total GULP energy -247976.602097 kJ/mol
# GULP energy per Si atom -12398.830105 kJ/mol
# Density = 1.948634 g / cm^3
# Si number density = 19.530798 Si / 1000 Ang^3
#
#
#
# Elastic Constant Matrix: (Units=GPa)
#
#
# Indices 1 2 3 4 5 6 
#
# 1 53.4987 36.1098 26.1825 0.0000 7.6481 0.0000
# 2 36.1098 108.8898 73.4520 0.0000 -2.9078 0.0000
# 3 26.1825 73.4520 154.9397 0.0000 -11.2832 0.0000
# 4 0.0000 0.0000 0.0000 30.6473 0.0000 2.6892
# 5 7.6481 -2.9078 -11.2832 0.0000 30.3958 0.0000
# 6 0.0000 0.0000 0.0000 2.6892 0.0000 21.7772
#
#
#
# Elastic Compliance Matrix: (Units=1/GPa)
#
#
# Indices 1 2 3 4 5 6 
#
# 1 0.025719 -0.007976 -0.001122 0.000000 -0.007651 0.000000
# 2 -0.007976 0.016012 -0.006151 0.000000 0.001255 0.000000
# 3 -0.001122 -0.006151 0.009803 0.000000 0.003333 0.000000
# 4 0.000000 0.000000 0.000000 0.032987 0.000000 -0.004073
# 5 -0.007651 0.001255 0.003333 0.000000 0.036182 0.000000
# 6 0.000000 0.000000 0.000000 -0.004073 0.000000 0.046423
#
#
# Mechanical properties :
#
#
# Convention : Reuss Voigt Hill
#
# Bulk Modulus (GPa) = 47.54269 65.42409 56.48339
# Shear Modulus (GPa) = 24.43392 28.66966 26.55179
#
# Velocity S-wave (km/s) = 3.54085 3.83550 3.69112
# Velocity P-wave (km/s) = 6.41187 7.29283 6.86649
#
# Compressibility (1/GPa) = 0.02103373
#
# Stress axis : x y z
#
# Youngs Moduli (GPa) = 38.88248 62.45483 102.01436
#
# Poissons Ratio (x) = 0.49815 0.11445
# Poissons Ratio (y) = 0.31014 0.62752
# Poissons Ratio (z) = 0.04362 0.38418
#
# Static dielectric constant tensor:
#      x y z
#    x 3.444000 0.000000 0.138240 
#    y 0.000000 3.704270 0.000000 
#    z 0.138240 0.000000 3.542450 
# 
# 
# High freq. dielectric constant tensor:
#      x y z
#    x 1.751250 0.000000 0.011370 
#    y 0.000000 1.752210 0.000000 
#    z 0.011370 0.000000 1.763850 
# 
# From -- ./inp_files/58911.got.cif
#   From: 2010.06.25/outbox.cif.g09.slc.cpg/sg12_30_cif.got.tgz:58911.got - 2010.06.28 00:19:55.
