data_PCOD8086809
_publ_section_title
;
Structure prediction by ZEFSAII (Michael W. Deem and Ramdas Pophale) SiO2 
 PCOD8086809
Probable space group: C 2/M
;
_chemical_formula_sum "Si O2"
_cell_formula_units_Z 56
_cell_length_a 19.795575
_cell_length_b 8.802359
_cell_length_c 18.656480
_cell_angle_alpha 90.000000
_cell_angle_beta 105.386303
_cell_angle_gamma 90.000000
_cell_volume 3134.335644
_symmetry_space_group_name_H-M "C 2/M"
_symmetry_group_IT_number 12
_symmetry_cell_setting 'monoclinic'
loop_
_space_group_symop_operation_xyz
x,y,z
-x,y,-z
-x,-y,-z
x,-y,z
1/2+x,1/2+y,z
1/2-x,1/2+y,-z
1/2-x,1/2-y,-z
1/2+x,1/2-y,z
loop_
_atom_site_type_symbol
_atom_site_label
_atom_site_fract_x
_atom_site_fract_y
_atom_site_fract_z
Si Si1 0.642139 0.320240 0.280136
Si Si2 0.278106 0.322033 0.839963
Si Si3 0.500680 0.819957 0.725708
Si Si4 0.812129 0.322214 0.561656
Si Si5 0.034817 0.322754 0.439674
Si Si6 0.178500 0.825180 0.998828
Si Si7 0.368764 0.321402 0.161386
O O1 0.637468 0.500000 0.285964
O O2 0.685193 0.269488 0.222403
O O3 0.564094 0.254147 0.250237
O O4 0.683477 0.253568 0.359378
O O5 0.258158 0.500000 0.832534
O O6 0.335254 0.290010 0.920749
O O7 0.207484 0.226003 0.830875
O O8 0.499326 0.758981 0.643205
O O9 0.573458 0.773191 0.780589
O O10 0.490683 0.000000 0.725391
O O11 0.799383 0.500000 0.568797
O O12 0.750000 0.250000 0.500000
O O13 0.882508 0.289581 0.536596
O O14 0.018867 0.500000 0.437875
O O15 0.000000 0.243948 0.500000
O O16 0.191592 0.000000 0.990298
O O17 0.250000 0.750000 0.000000
O O18 0.122280 0.777129 0.921512
O O19 0.380178 0.500000 0.178197
#
# Coordination Sequence:
#
# PCOD8086809 Si02
#       7
#     8   8   8   8   8   8   8
#     4  10  20  35  54  74 100 135 171 209 254 300
#     4   9  18  33  53  75  99 131 171 211 252 301
#     4  10  20  34  52  73 101 135 167 205 253 304
#     4  10  20  34  53  76 102 132 165 205 252 301
#     4   8  16  32  52  71  91 121 162 202 240 285
#     4   8  15  29  48  71  98 128 164 206 252 299
#     4  10  19  31  51  77 103 131 165 209 256 302
#
# _framework density 17.866626
#
# number of rings (size 3 to 8) (size 9 to 14) (size 15 to 20)
#    0.000    2.714    0.000    2.571    0.000    2.857 
#    0.000    3.571    0.000   18.857    0.000    0.000 
#    0.000    0.000    0.000    0.000    0.000    0.000 
#
# Total GULP energy -346934.579148 kJ/mol
# GULP energy per Si atom -12390.520684 kJ/mol
# Density = 1.782596 g / cm^3
# Si number density = 17.866626 Si / 1000 Ang^3
#
#
#
# Elastic Constant Matrix: (Units=GPa)
#
#
# Indices 1 2 3 4 5 6 
#
# 1 83.8731 32.4821 71.6590 0.0000 2.7862 0.0000
# 2 32.4821 58.6902 41.6408 0.0000 -0.9033 0.0000
# 3 71.6590 41.6408 126.6750 0.0000 -1.5643 0.0000
# 4 0.0000 0.0000 0.0000 25.1011 0.0000 4.0789
# 5 2.7862 -0.9033 -1.5643 0.0000 31.6607 0.0000
# 6 0.0000 0.0000 0.0000 4.0789 0.0000 29.0087
#
#
#
# Elastic Compliance Matrix: (Units=1/GPa)
#
#
# Indices 1 2 3 4 5 6 
#
# 1 0.024318 -0.004848 -0.012198 0.000000 -0.002881 0.000000
# 2 -0.004848 0.023190 -0.004870 0.000000 0.000848 0.000000
# 3 -0.012198 -0.004870 0.016417 0.000000 0.001746 0.000000
# 4 0.000000 0.000000 0.000000 0.040770 0.000000 -0.005733
# 5 -0.002881 0.000848 0.001746 0.000000 0.031949 0.000000
# 6 0.000000 0.000000 0.000000 -0.005733 0.000000 0.035278
#
#
# Mechanical properties :
#
#
# Convention : Reuss Voigt Hill
#
# Bulk Modulus (GPa) = 49.77097 62.31134 56.04116
# Shear Modulus (GPa) = 22.47655 25.38454 23.93055
#
# Velocity S-wave (km/s) = 3.55070 3.77341 3.66375
# Velocity P-wave (km/s) = 6.68786 7.34414 7.02367
#
# Compressibility (1/GPa) = 0.02009203
#
# Stress axis : x y z
#
# Youngs Moduli (GPa) = 41.12163 43.12149 60.91210
#
# Poissons Ratio (x) = 0.20907 0.74302
# Poissons Ratio (y) = 0.19938 0.29664
# Poissons Ratio (z) = 0.50161 0.21000
#
# Static dielectric constant tensor:
#      x y z
#    x 3.115260 0.000000 -0.084240 
#    y 0.000000 3.184290 0.000000 
#    z -0.084240 0.000000 4.006370 
# 
# 
# High freq. dielectric constant tensor:
#      x y z
#    x 1.668300 0.000000 0.003040 
#    y 0.000000 1.688570 0.000000 
#    z 0.003040 0.000000 1.710680 
# 
# From -- ./inp_files/280379.got.cif
#   From: 2010.06.25/outbox.cif.g09.slc.cpg/sg12_141_cif.got.tgz:280379.got - 2010.06.28 00:19:55.
