data_PCOD8086075
_publ_section_title
;
Structure prediction by ZEFSAII (Michael W. Deem and Ramdas Pophale) SiO2 
 PCOD8086075
Probable space group: C 2/M
;
_chemical_formula_sum "Si O2"
_cell_formula_units_Z 56
_cell_length_a 26.955829
_cell_length_b 8.664755
_cell_length_c 24.983164
_cell_angle_alpha 90.000000
_cell_angle_beta 35.408048
_cell_angle_gamma 90.000000
_cell_volume 3380.894810
_symmetry_space_group_name_H-M "C 2/M"
_symmetry_group_IT_number 12
_symmetry_cell_setting 'monoclinic'
loop_
_space_group_symop_operation_xyz
x,y,z
-x,y,-z
-x,-y,-z
x,-y,z
1/2+x,1/2+y,z
1/2-x,1/2+y,-z
1/2-x,1/2-y,-z
1/2+x,1/2-y,z
loop_
_atom_site_type_symbol
_atom_site_label
_atom_site_fract_x
_atom_site_fract_y
_atom_site_fract_z
Si Si1 0.898879 0.819161 0.540187
Si Si2 0.200444 0.821325 0.994586
Si Si3 0.453162 0.323775 0.801199
Si Si4 0.170724 0.820555 0.188704
Si Si5 0.577748 0.818919 0.367885
Si Si6 0.289302 0.179203 0.547167
Si Si7 0.867631 0.678476 0.365843
O O1 0.883653 0.730159 0.609053
O O2 0.821828 0.778777 0.568353
O O3 0.988543 0.768104 0.434839
O O4 0.900806 0.000000 0.550105
O O5 0.232972 0.733046 0.912725
O O6 0.224317 0.000000 0.968166
O O7 0.250000 0.750000 0.000000
O O8 0.099615 0.800343 0.096768
O O9 0.484705 0.500000 0.768432
O O10 0.394823 0.281318 0.801490
O O11 0.533582 0.211298 0.732640
O O12 0.145330 0.724908 0.263129
O O13 0.171927 0.000000 0.201700
O O14 0.559761 0.000000 0.383252
O O15 0.190578 0.221695 0.623109
O O16 0.346353 0.224181 0.445562
O O17 0.297116 0.000000 0.554571
O O18 0.847370 0.500000 0.373520
#
# Coordination Sequence:
#
# PCOD8086075 Si02
#       7
#     8   8   8   8   8   8   8
#     4  11  21  34  50  69  95 124 157 196 234 273
#     4   9  17  29  44  65  93 125 158 192 234 281
#     4   9  18  30  45  66  95 127 156 190 232 278
#     4  10  19  31  47  69  96 126 159 195 236 278
#     4  11  21  33  49  70  95 125 160 192 231 280
#     4  10  20  34  49  67  94 125 157 194 234 276
#     4  10  20  31  47  70  93 122 159 194 231 276
#
# _framework density 16.563662000000001
#
# number of rings (size 3 to 8) (size 9 to 14) (size 15 to 20)
#    0.000    2.000    0.000    6.857    0.000    7.429 
#    0.000    0.000    0.000    0.000    0.000    1.000 
#    0.000    8.000    0.000    0.000    0.000    0.000 
#
# Total GULP energy -347219.770960 kJ/mol
# GULP energy per Si atom -12400.706106 kJ/mol
# Density = 1.652596 g / cm^3
# Si number density = 16.563662 Si / 1000 Ang^3
#
#
#
# Elastic Constant Matrix: (Units=GPa)
#
#
# Indices 1 2 3 4 5 6 
#
# 1 63.4939 20.1729 26.9873 0.0030 -0.5092 -0.0014
# 2 20.1729 70.5333 24.4832 -0.0004 -0.3361 0.0007
# 3 26.9873 24.4832 96.6378 0.0032 5.7216 -0.0007
# 4 0.0030 -0.0004 0.0032 30.6405 -0.0014 -0.3176
# 5 -0.5092 -0.3361 5.7216 -0.0014 20.6410 0.0004
# 6 -0.0014 0.0007 -0.0007 -0.3176 0.0004 26.1918
#
#
#
# Elastic Compliance Matrix: (Units=1/GPa)
#
#
# Indices 1 2 3 4 5 6 
#
# 1 0.018852 -0.003863 -0.004382 -0.000001 0.001617 0.000001
# 2 -0.003863 0.016374 -0.003131 0.000001 0.001039 -0.000001
# 3 -0.004382 -0.003131 0.012581 -0.000001 -0.003646 0.000000
# 4 -0.000001 0.000001 -0.000001 0.032641 0.000003 0.000396
# 5 0.001617 0.001039 -0.003646 0.000003 0.049515 -0.000001
# 6 0.000001 -0.000001 0.000000 0.000396 -0.000001 0.038185
#
#
# Mechanical properties :
#
#
# Convention : Reuss Voigt Hill
#
# Bulk Modulus (GPa) = 39.91168 41.55022 40.73095
# Shear Modulus (GPa) = 25.09389 26.09608 25.59499
#
# Velocity S-wave (km/s) = 3.89652 3.97357 3.93523
# Velocity P-wave (km/s) = 6.66274 6.79646 6.72993
#
# Compressibility (1/GPa) = 0.02505532
#
# Stress axis : x y z
#
# Youngs Moduli (GPa) = 53.04393 61.07086 79.48661
#
# Poissons Ratio (x) = 0.23593 0.34829
# Poissons Ratio (y) = 0.20492 0.24888
# Poissons Ratio (z) = 0.23242 0.19122
#
# Static dielectric constant tensor:
#      x y z
#    x 2.838770 -0.000010 0.064190 
#    y -0.000010 3.235080 0.000010 
#    z 0.064190 0.000010 3.333910 
# 
# 
# High freq. dielectric constant tensor:
#      x y z
#    x 1.601770 0.000000 0.004550 
#    y 0.000000 1.656480 0.000000 
#    z 0.004550 0.000000 1.634440 
# 
# From -- ./inp_files/348464.got.cif
#   From: 2010.06.25/outbox.cif.g09.slc.cpg/sg12_175_cif.got.tgz:348464.got - 2010.06.28 00:19:55.
