data_PCOD8086736
_publ_section_title
;
Structure prediction by ZEFSAII (Michael W. Deem and Ramdas Pophale) SiO2 
 PCOD8086736
Probable space group: C 2/M
;
_chemical_formula_sum "Si O2"
_cell_formula_units_Z 56
_cell_length_a 27.551355
_cell_length_b 12.915856
_cell_length_c 8.579913
_cell_angle_alpha 90.000000
_cell_angle_beta 110.046334
_cell_angle_gamma 90.000000
_cell_volume 2868.183073
_symmetry_space_group_name_H-M "C 2/M"
_symmetry_group_IT_number 12
_symmetry_cell_setting 'monoclinic'
loop_
_space_group_symop_operation_xyz
x,y,z
-x,y,-z
-x,-y,-z
x,-y,z
1/2+x,1/2+y,z
1/2-x,1/2+y,-z
1/2-x,1/2-y,-z
1/2+x,1/2-y,z
loop_
_atom_site_type_symbol
_atom_site_label
_atom_site_fract_x
_atom_site_fract_y
_atom_site_fract_z
Si Si1 0.135012 0.698067 0.270001
Si Si2 0.665772 0.884110 0.991043
Si Si3 0.714514 0.783179 0.602362
Si Si4 0.719994 0.378071 0.866210
Si Si5 0.309920 0.383816 0.830926
Si Si6 0.930898 0.377368 0.294376
Si Si7 0.458315 0.877213 0.670545
O O1 0.151009 0.615657 0.156909
O O2 0.162964 0.670776 0.465806
O O3 0.151213 0.811298 0.223566
O O4 0.073839 0.686540 0.234814
O O5 0.722088 0.831620 0.033040
O O6 0.670533 0.000000 0.935006
O O7 0.621225 0.827801 0.838260
O O8 0.750000 0.750000 0.500000
O O9 0.698560 0.686631 0.695691
O O10 0.748413 0.868205 0.731123
O O11 0.723720 0.500000 0.824032
O O12 0.682897 0.364216 0.975531
O O13 0.325005 0.500000 0.801860
O O14 0.928414 0.500000 0.279425
O O15 0.936494 0.343173 0.478262
O O16 0.981730 0.342866 0.252091
O O17 0.451520 0.000000 0.689629
#
# Coordination Sequence:
#
# PCOD8086736 Si02
#       7
#     8   8   8   8   8   8   8
#     4  11  22  32  49  77 104 140 175 212 255 306
#     4  10  19  31  50  78 106 136 170 206 252 312
#     4  10  20  34  49  73 103 135 173 214 251 300
#     4  10  20  35  54  74 103 140 173 209 256 307
#     4  10  22  36  49  68 100 141 179 215 251 292
#     4   8  17  33  53  78 109 138 167 205 254 319
#     4   9  18  34  53  78 109 138 169 209 259 311
#
# _framework density 19.524556
#
# number of rings (size 3 to 8) (size 9 to 14) (size 15 to 20)
#    0.000    2.286    2.857    1.714    2.000    4.000 
#    0.000    2.143    0.000    0.000    0.000    4.000 
#    0.000    0.000    0.000    0.571    0.000    0.000 
#
# Total GULP energy -346947.719177 kJ/mol
# GULP energy per Si atom -12390.989971 kJ/mol
# Density = 1.948012 g / cm^3
# Si number density = 19.524556 Si / 1000 Ang^3
#
#
#
# Elastic Constant Matrix: (Units=GPa)
#
#
# Indices 1 2 3 4 5 6 
#
# 1 86.2334 15.8760 15.7549 0.0000 -13.5578 0.0000
# 2 15.8760 51.0146 13.5711 0.0000 -7.9604 0.0000
# 3 15.7549 13.5711 80.0152 0.0000 0.4791 0.0000
# 4 0.0000 0.0000 0.0000 25.8985 0.0000 -6.9786
# 5 -13.5578 -7.9604 0.4791 0.0000 30.6449 0.0000
# 6 0.0000 0.0000 0.0000 -6.9786 0.0000 24.3664
#
#
#
# Elastic Compliance Matrix: (Units=1/GPa)
#
#
# Indices 1 2 3 4 5 6 
#
# 1 0.013322 -0.002750 -0.002188 0.000000 0.005214 0.000000
# 2 -0.002750 0.022026 -0.003221 0.000000 0.004555 0.000000
# 3 -0.002188 -0.003221 0.013487 0.000000 -0.002016 0.000000
# 4 0.000000 0.000000 0.000000 0.041841 0.000000 0.011983
# 5 0.005214 0.004555 -0.002016 0.000000 0.036153 0.000000
# 6 0.000000 0.000000 0.000000 0.011983 0.000000 0.044472
#
#
# Mechanical properties :
#
#
# Convention : Reuss Voigt Hill
#
# Bulk Modulus (GPa) = 30.75443 34.18523 32.46983
# Shear Modulus (GPa) = 25.19402 27.65271 26.42336
#
# Velocity S-wave (km/s) = 3.59608 3.76746 3.68277
# Velocity P-wave (km/s) = 5.74702 6.03920 5.89492
#
# Compressibility (1/GPa) = 0.03251564
#
# Stress axis : x y z
#
# Youngs Moduli (GPa) = 75.06252 45.40102 74.14624
#
# Poissons Ratio (x) = 0.12487 0.16222
# Poissons Ratio (y) = 0.20645 0.23886
# Poissons Ratio (z) = 0.16423 0.14626
#
# Static dielectric constant tensor:
#      x y z
#    x 3.691130 0.000000 0.298000 
#    y 0.000000 3.248160 0.000000 
#    z 0.298000 0.000000 4.196260 
# 
# 
# High freq. dielectric constant tensor:
#      x y z
#    x 1.750030 0.000000 -0.015220 
#    y 0.000000 1.723550 0.000000 
#    z -0.015220 0.000000 1.765160 
# 
# From -- ./inp_files/104133.got.cif
#   From: 2010.06.25/outbox.cif.g09.slc.cpg/sg12_53_cif.got.tgz:104133.got - 2010.06.28 00:19:55.
