data_PCOD8086557
_publ_section_title
;
Structure prediction by ZEFSAII (Michael W. Deem and Ramdas Pophale) SiO2 
 PCOD8086557
Probable space group: C 2/M
;
_chemical_formula_sum "Si O2"
_cell_formula_units_Z 64
_cell_length_a 12.804586
_cell_length_b 21.614118
_cell_length_c 12.327117
_cell_angle_alpha 90.000000
_cell_angle_beta 105.186687
_cell_angle_gamma 90.000000
_cell_volume 3292.507086
_symmetry_space_group_name_H-M "C 2/M"
_symmetry_group_IT_number 12
_symmetry_cell_setting 'monoclinic'
loop_
_space_group_symop_operation_xyz
x,y,z
-x,y,-z
-x,-y,-z
x,-y,z
1/2+x,1/2+y,z
1/2-x,1/2+y,-z
1/2-x,1/2-y,-z
1/2+x,1/2-y,z
loop_
_atom_site_type_symbol
_atom_site_label
_atom_site_fract_x
_atom_site_fract_y
_atom_site_fract_z
Si Si1 0.600004 0.429580 0.301439
Si Si2 0.134926 0.279441 0.630957
Si Si3 0.751816 0.070509 0.450053
Si Si4 0.162516 0.696564 0.968001
Si Si5 0.426422 0.643352 0.376395
Si Si6 0.697074 0.341705 0.171248
Si Si7 0.403914 0.178388 0.604168
Si Si8 0.926195 0.723062 0.842164
O O1 0.561288 0.500000 0.277399
O O2 0.690599 0.424123 0.418345
O O3 0.496407 0.387173 0.299834
O O4 0.649493 0.406478 0.200643
O O5 0.117550 0.210167 0.672874
O O6 0.237384 0.309334 0.714222
O O7 0.150017 0.278362 0.503828
O O8 0.032770 0.323639 0.628002
O O9 0.829655 0.096819 0.377724
O O10 0.640541 0.108769 0.419705
O O11 0.723392 0.000000 0.414079
O O12 0.226435 0.644872 0.913338
O O13 0.055949 0.716466 0.870915
O O14 0.250000 0.750000 0.000000
O O15 0.125017 0.676697 0.079212
O O16 0.500000 0.655388 0.500000
O O17 0.600093 0.292643 0.123487
O O18 0.371695 0.207271 0.711993
#
# Coordination Sequence:
#
# PCOD8086557 Si02
#       8
#     8   8   8   8   8   8   8   8
#     4  10  21  35  52  78 114 162 198 224 272 336
#     4  11  21  32  52  88 119 148 179 230 302 338
#     4  10  21  35  50  74 114 163 198 225 264 327
#     4   9  20  37  55  82 111 143 185 237 297 344
#     4  10  19  31  50  73 111 148 192 235 271 334
#     4  11  20  34  57  81 119 146 188 236 284 348
#     4  11  20  34  52  81 120 148 186 228 281 351
#     4  10  20  34  58  83 112 146 187 239 295 338
#
# _framework density 19.438074
#
# number of rings (size 3 to 8) (size 9 to 14) (size 15 to 20)
#    0.000    1.750    3.750    1.875    1.750    2.500 
#    0.000    1.875    0.000    0.750    0.000    8.750 
#    0.000    0.000    0.000    0.000    0.000    0.000 
#
# Total GULP energy -396618.095466 kJ/mol
# GULP energy per Si atom -12394.315483 kJ/mol
# Density = 1.939383 g / cm^3
# Si number density = 19.438074 Si / 1000 Ang^3
#
#
#
# Elastic Constant Matrix: (Units=GPa)
#
#
# Indices 1 2 3 4 5 6 
#
# 1 93.9996 43.3619 22.5734 0.0000 -21.0567 0.0000
# 2 43.3619 106.7043 15.1193 0.0000 -8.5908 0.0000
# 3 22.5734 15.1193 69.5162 0.0000 -24.9276 0.0000
# 4 0.0000 0.0000 0.0000 14.2309 0.0000 -0.5254
# 5 -21.0567 -8.5908 -24.9276 0.0000 26.6342 0.0000
# 6 0.0000 0.0000 0.0000 -0.5254 0.0000 32.2860
#
#
#
# Elastic Compliance Matrix: (Units=1/GPa)
#
#
# Indices 1 2 3 4 5 6 
#
# 1 0.015508 -0.005448 -0.000127 0.000000 0.010384 0.000000
# 2 -0.005448 0.011637 -0.001446 0.000000 -0.001907 0.000000
# 3 -0.000127 -0.001446 0.021881 0.000000 0.019912 0.000000
# 4 0.000000 0.000000 0.000000 0.070312 0.000000 0.001144
# 5 0.010384 -0.001907 0.019912 0.000000 0.063777 0.000000
# 6 0.000000 0.000000 0.000000 0.001144 0.000000 0.030992
#
#
# Mechanical properties :
#
#
# Convention : Reuss Voigt Hill
#
# Bulk Modulus (GPa) = 28.58406 48.03657 38.31032
# Shear Modulus (GPa) = 20.84983 27.24125 24.04554
#
# Velocity S-wave (km/s) = 3.27865 3.74764 3.52096
# Velocity P-wave (km/s) = 5.39165 6.59490 6.02339
#
# Compressibility (1/GPa) = 0.03498453
#
# Stress axis : x y z
#
# Youngs Moduli (GPa) = 64.48176 85.93298 45.70154
#
# Poissons Ratio (x) = 0.46817 0.00582
# Poissons Ratio (y) = 0.35130 0.06606
# Poissons Ratio (z) = 0.00821 0.12422
#
# Static dielectric constant tensor:
#      x y z
#    x 3.852040 0.000000 -0.271300 
#    y 0.000000 3.271010 0.000000 
#    z -0.271300 0.000000 3.657850 
# 
# 
# High freq. dielectric constant tensor:
#      x y z
#    x 1.776810 0.000000 -0.010180 
#    y 0.000000 1.710220 0.000000 
#    z -0.010180 0.000000 1.743770 
# 
# From -- ./inp_files/207703.got.cif
#   From: 2010.06.25/outbox.cif.g09.slc.cpg/sg12_104_cif.got.tgz:207703.got - 2010.06.28 00:19:55.
