data_PCOD8086797
_publ_section_title
;
Structure prediction by ZEFSAII (Michael W. Deem and Ramdas Pophale) SiO2 
 PCOD8086797
Probable space group: C 2/M
;
_chemical_formula_sum "Si O2"
_cell_formula_units_Z 48
_cell_length_a 33.101438
_cell_length_b 8.767452
_cell_length_c 9.203235
_cell_angle_alpha 90.000000
_cell_angle_beta 86.499003
_cell_angle_gamma 90.000000
_cell_volume 2665.934679
_symmetry_space_group_name_H-M "C 2/M"
_symmetry_group_IT_number 12
_symmetry_cell_setting 'monoclinic'
loop_
_space_group_symop_operation_xyz
x,y,z
-x,y,-z
-x,-y,-z
x,-y,z
1/2+x,1/2+y,z
1/2-x,1/2+y,-z
1/2-x,1/2-y,-z
1/2+x,1/2-y,z
loop_
_atom_site_type_symbol
_atom_site_label
_atom_site_fract_x
_atom_site_fract_y
_atom_site_fract_z
Si Si1 0.208560 0.826053 0.551476
Si Si2 0.157193 0.823066 0.822722
Si Si3 0.957609 0.320228 0.061094
Si Si4 0.629254 0.320866 0.396359
Si Si5 0.411698 0.823316 0.342715
Si Si6 0.121989 0.319732 0.086136
O O1 0.250000 0.750000 0.500000
O O2 0.199568 0.802885 0.726258
O O3 0.170647 0.765386 0.465037
O O4 0.214284 0.000000 0.510613
O O5 0.125826 0.710269 0.753422
O O6 0.143406 0.000000 0.814693
O O7 0.158525 0.765710 0.989591
O O8 0.959225 0.500000 0.037947
O O9 0.950950 0.282418 0.234485
O O10 0.920814 0.259036 0.968965
O O11 0.000000 0.245192 0.000000
O O12 0.628437 0.500000 0.364992
O O13 0.591526 0.278145 0.510764
O O14 0.624824 0.226462 0.251621
O O15 0.411786 0.000000 0.388160
O O16 0.127325 0.500000 0.069168
#
# Coordination Sequence:
#
# PCOD8086797 Si02
#       6
#     8   8   8   8   8   8
#     4   9  19  33  51  73  95 124 159 195 238 287
#     4   9  17  31  49  70  98 130 159 191 240 291
#     4   8  15  29  49  73  99 124 156 201 245 282
#     4  10  20  34  50  70  99 131 159 195 247 291
#     4   9  16  28  49  73  94 124 167 202 230 279
#     4  10  19  31  51  76  96 124 167 204 236 280
#
# _framework density 18.004943999999998
#
# number of rings (size 3 to 8) (size 9 to 14) (size 15 to 20)
#    0.000    2.833    0.000    4.000    0.000    4.000 
#    0.000    1.667    0.000   23.000    0.000    0.000 
#    0.000    0.000    0.000    0.000    0.000    0.000 
#
# Total GULP energy -297358.563322 kJ/mol
# GULP energy per Si atom -12389.940138 kJ/mol
# Density = 1.796396 g / cm^3
# Si number density = 18.004944 Si / 1000 Ang^3
#
#
#
# Elastic Constant Matrix: (Units=GPa)
#
#
# Indices 1 2 3 4 5 6 
#
# 1 87.6820 33.3976 56.4537 0.0000 -26.7599 0.0000
# 2 33.3976 53.5536 32.9594 0.0000 -11.0383 0.0000
# 3 56.4537 32.9594 135.5337 0.0000 -24.3710 0.0000
# 4 0.0000 0.0000 0.0000 34.6846 0.0000 -4.4236
# 5 -26.7599 -11.0383 -24.3710 0.0000 27.5820 0.0000
# 6 0.0000 0.0000 0.0000 -4.4236 0.0000 16.9947
#
#
#
# Elastic Compliance Matrix: (Units=1/GPa)
#
#
# Indices 1 2 3 4 5 6 
#
# 1 0.021503 -0.007751 -0.004611 0.000000 0.013686 0.000000
# 2 -0.007751 0.025310 -0.002921 0.000000 0.000028 0.000000
# 3 -0.004611 -0.002921 0.010694 0.000000 0.003806 0.000000
# 4 0.000000 0.000000 0.000000 0.029821 0.000000 0.007762
# 5 0.013686 0.000028 0.003806 0.000000 0.052908 0.000000
# 6 0.000000 0.000000 0.000000 0.007762 0.000000 0.060862
#
#
# Mechanical properties :
#
#
# Convention : Reuss Voigt Hill
#
# Bulk Modulus (GPa) = 37.11940 58.04343 47.58141
# Shear Modulus (GPa) = 20.77754 26.11616 23.44685
#
# Velocity S-wave (km/s) = 3.40073 3.81267 3.61258
# Velocity P-wave (km/s) = 6.00674 7.18954 6.62459
#
# Compressibility (1/GPa) = 0.02694009
#
# Stress axis : x y z
#
# Youngs Moduli (GPa) = 46.50605 39.50932 93.51422
#
# Poissons Ratio (x) = 0.30625 0.43115
# Poissons Ratio (y) = 0.36048 0.27320
# Poissons Ratio (z) = 0.21442 0.11543
#
# Static dielectric constant tensor:
#      x y z
#    x 4.297520 0.000000 -0.421510 
#    y 0.000000 3.232080 0.000000 
#    z -0.421510 0.000000 3.610660 
# 
# 
# High freq. dielectric constant tensor:
#      x y z
#    x 1.660580 0.000000 -0.033110 
#    y 0.000000 1.692450 0.000000 
#    z -0.033110 0.000000 1.705560 
# 
# From -- ./inp_files/108617.got.cif
#   From: 2010.06.25/outbox.cif.g09.slc.cpg/sg12_55_cif.got.tgz:108617.got - 2010.06.28 00:19:55.
