data_PCOD8086006
_publ_section_title
;
Structure prediction by ZEFSAII (Michael W. Deem and Ramdas Pophale) SiO2 
 PCOD8086006
Probable space group: C 2/M
;
_chemical_formula_sum "Si O2"
_cell_formula_units_Z 64
_cell_length_a 17.698004
_cell_length_b 9.089282
_cell_length_c 24.913631
_cell_angle_alpha 90.000000
_cell_angle_beta 122.963491
_cell_angle_gamma 90.000000
_cell_volume 3362.496835
_symmetry_space_group_name_H-M "C 2/M"
_symmetry_group_IT_number 12
_symmetry_cell_setting 'monoclinic'
loop_
_space_group_symop_operation_xyz
x,y,z
-x,y,-z
-x,-y,-z
x,-y,z
1/2+x,1/2+y,z
1/2-x,1/2+y,-z
1/2-x,1/2-y,-z
1/2+x,1/2-y,z
loop_
_atom_site_type_symbol
_atom_site_label
_atom_site_fract_x
_atom_site_fract_y
_atom_site_fract_z
Si Si1 0.517977 0.166552 0.311613
Si Si2 0.887797 0.166414 0.563292
Si Si3 0.170192 0.331017 0.939437
Si Si4 0.011108 0.668126 0.064154
Si Si5 0.706377 0.833695 0.561684
Si Si6 0.106069 0.834354 0.189028
Si Si7 0.424228 0.333333 0.186699
Si Si8 0.699587 0.166141 0.313401
O O1 0.534108 0.248844 0.374191
O O2 0.439610 0.251490 0.249192
O O3 0.608661 0.166725 0.312341
O O4 0.486530 0.000000 0.310775
O O5 0.797053 0.166422 0.562444
O O6 0.871726 0.248578 0.500705
O O7 0.919415 0.000000 0.564169
O O8 0.196123 0.500000 0.938792
O O9 0.083320 0.317586 0.942846
O O10 0.152910 0.252662 0.875724
O O11 0.250000 0.250000 0.000000
O O12 0.044406 0.500000 0.075265
O O13 0.087750 0.760613 0.124310
O O14 0.000000 0.732063 0.000000
O O15 0.722672 0.752524 0.624514
O O16 0.674511 0.000000 0.560525
O O17 0.183511 0.744803 0.250110
O O18 0.015835 0.832301 0.188783
O O19 0.140195 0.000000 0.193105
O O20 0.392176 0.500000 0.185116
O O21 0.732151 0.000000 0.315557
#
# Coordination Sequence:
#
# PCOD8086006 Si02
#       8
#     8   8   8   8   8   8   8   8
#     4   9  15  22  32  46  64  88 120 158 199 240
#     4   9  15  21  28  39  57  83 116 154 196 240
#     4  10  19  31  47  66  88 113 142 177 216 258
#     4   9  18  32  48  65  86 113 144 177 214 257
#     4   9  15  21  28  39  57  82 115 156 198 238
#     4   9  16  25  38  56  76  98 127 165 206 246
#     4   9  16  26  39  55  75  99 129 165 204 246
#     4   9  15  22  32  45  63  89 121 157 197 241
#
# _framework density 19.033476
#
# number of rings (size 3 to 8) (size 9 to 14) (size 15 to 20)
#    0.000    2.875    0.000    2.625    0.000    9.750 
#    0.000    0.000    0.000    0.000    0.000    0.000 
#    0.000    0.000    0.000    0.000    0.000    1.250 
#
# Total GULP energy -396771.411508 kJ/mol
# GULP energy per Si atom -12399.106610 kJ/mol
# Density = 1.899015 g / cm^3
# Si number density = 19.033476 Si / 1000 Ang^3
#
#
#
# Elastic Constant Matrix: (Units=GPa)
#
#
# Indices 1 2 3 4 5 6 
#
# 1 0.5608 8.8265 9.4143 0.0000 -1.9714 0.0000
# 2 8.8265 204.9319 123.5619 0.0000 -3.8746 0.0000
# 3 9.4143 123.5619 223.0340 0.0000 -8.9716 0.0000
# 4 0.0000 0.0000 0.0000 48.1553 0.0000 0.0970
# 5 -1.9714 -3.8746 -8.9716 0.0000 13.8707 0.0000
# 6 0.0000 0.0000 0.0000 0.0970 0.0000 7.0254
#
#
#
# Elastic Compliance Matrix: (Units=1/GPa)
#
#
# Indices 1 2 3 4 5 6 
#
# 1 -7.882488 0.216155 0.174885 0.000000 -0.946800 0.000000
# 2 0.216155 0.001405 -0.008882 0.000000 0.025369 0.000000
# 3 0.174885 -0.008882 0.003000 0.000000 0.024315 0.000000
# 4 0.000000 0.000000 0.000000 0.020767 0.000000 -0.000287
# 5 -0.946800 0.025369 0.024315 0.000000 -0.039656 0.000000
# 6 0.000000 0.000000 0.000000 -0.000287 0.000000 0.142346
#
#
# Mechanical properties :
#
#
# Convention : Reuss Voigt Hill
#
# Bulk Modulus (GPa) = -0.14057 79.12577 39.49260
# Shear Modulus (GPa) = -0.45913 32.92521 16.23304
#
# Velocity S-wave (km/s) = -0.49168 4.16367 2.92356
# Velocity P-wave (km/s) = 0.62956 8.04842 5.67365
#
# Compressibility (1/GPa) = -7.11376732
#
# Stress axis : x y z
#
# Youngs Moduli (GPa) = -0.12686 711.97324 333.30979
#
# Poissons Ratio (x) = -153.89622 -58.29091
# Poissons Ratio (y) = 0.02742 2.96032
# Poissons Ratio (z) = 0.02219 6.32345
#
# Static dielectric constant tensor:
#      x y z
#    x 2.797930 0.000000 -0.102060 
#    y 0.000000 3.749270 0.000000 
#    z -0.102060 0.000000 3.762470 
# 
# 
# High freq. dielectric constant tensor:
#      x y z
#    x 1.641350 0.000000 -0.005240 
#    y 0.000000 1.758430 0.000000 
#    z -0.005240 0.000000 1.761980 
# 
# From -- ./inp_files/365240.got.cif
#   From: 2010.06.25/outbox.cif.g09.slc.cpg/sg12_183_cif.got.tgz:365240.got - 2010.06.28 00:19:55.
