data_PCOD8086714
_publ_section_title
;
Structure prediction by ZEFSAII (Michael W. Deem and Ramdas Pophale) SiO2 
 PCOD8086714
Probable space group: C 2/M
;
_chemical_formula_sum "Si O2"
_cell_formula_units_Z 64
_cell_length_a 20.502124
_cell_length_b 9.000138
_cell_length_c 17.847057
_cell_angle_alpha 90.000000
_cell_angle_beta 89.670164
_cell_angle_gamma 90.000000
_cell_volume 3293.119108
_symmetry_space_group_name_H-M "C 2/M"
_symmetry_group_IT_number 12
_symmetry_cell_setting 'monoclinic'
loop_
_space_group_symop_operation_xyz
x,y,z
-x,y,-z
-x,-y,-z
x,-y,z
1/2+x,1/2+y,z
1/2-x,1/2+y,-z
1/2-x,1/2-y,-z
1/2+x,1/2-y,z
loop_
_atom_site_type_symbol
_atom_site_label
_atom_site_fract_x
_atom_site_fract_y
_atom_site_fract_z
Si Si1 0.507439 0.675076 0.841235
Si Si2 0.372366 0.325076 0.913814
Si Si3 0.863146 0.823128 0.082913
Si Si4 0.624329 0.671417 0.577348
Si Si5 0.612258 0.823931 0.422236
Si Si6 0.739318 0.823352 0.176599
Si Si7 0.997475 0.828307 0.673289
Si Si8 0.255045 0.823574 0.654130
O O1 0.516733 0.500000 0.835016
O O2 0.446401 0.717292 0.893331
O O3 0.572123 0.744175 0.878693
O O4 0.497772 0.736898 0.757429
O O5 0.360123 0.500000 0.906344
O O6 0.326600 0.241406 0.856223
O O7 0.358265 0.266641 0.997601
O O8 0.800508 0.764147 0.128256
O O9 0.866711 0.000000 0.083615
O O10 0.631445 0.500000 0.553273
O O11 0.603370 0.764928 0.505818
O O12 0.569950 0.690814 0.641047
O O13 0.692013 0.735676 0.609831
O O14 0.552891 0.767684 0.373191
O O15 0.680265 0.764286 0.387518
O O16 0.610726 0.000000 0.423541
O O17 0.746599 0.762973 0.261048
O O18 0.735380 0.000000 0.174419
O O19 0.975315 0.000000 0.670673
O O20 0.253220 0.000000 0.656135
#
# Coordination Sequence:
#
# PCOD8086714 Si02
#       8
#     8   8   8   8   8   8   8   8
#     4   9  17  31  52  76 100 129 169 211 246 285
#     4  10  19  31  50  77 106 132 162 205 252 293
#     4   9  17  30  51  77 101 130 169 209 246 286
#     4  10  20  36  56  75  97 127 169 213 246 286
#     4  11  22  35  52  75 104 133 161 199 252 307
#     4  10  19  33  53  74 100 134 169 203 243 295
#     4  10  20  34  54  77  99 129 169 209 246 288
#     4   9  19  35  54  75  98 130 170 208 245 289
#
# _framework density 19.434462
#
# number of rings (size 3 to 8) (size 9 to 14) (size 15 to 20)
#    0.000    2.250    0.000    3.375    0.000    6.500 
#    0.000    1.875    0.000    5.250    0.000    0.000 
#    0.000    0.000    0.000    0.000    0.000    0.000 
#
# Total GULP energy -396884.536032 kJ/mol
# GULP energy per Si atom -12402.641751 kJ/mol
# Density = 1.939023 g / cm^3
# Si number density = 19.434462 Si / 1000 Ang^3
#
#
#
# Elastic Constant Matrix: (Units=GPa)
#
#
# Indices 1 2 3 4 5 6 
#
# 1 80.4598 19.4653 6.3446 0.0000 10.2852 0.0000
# 2 19.4653 30.2316 17.5103 0.0000 0.8929 0.0000
# 3 6.3446 17.5103 103.1310 0.0000 3.6369 0.0000
# 4 0.0000 0.0000 0.0000 16.8983 0.0000 2.3843
# 5 10.2852 0.8929 3.6369 0.0000 41.8882 0.0000
# 6 0.0000 0.0000 0.0000 2.3843 0.0000 24.5027
#
#
#
# Elastic Compliance Matrix: (Units=1/GPa)
#
#
# Indices 1 2 3 4 5 6 
#
# 1 0.015307 -0.010289 0.000933 0.000000 -0.003620 0.000000
# 2 -0.010289 0.043604 -0.006848 0.000000 0.002192 0.000000
# 3 0.000933 -0.006848 0.010838 0.000000 -0.001024 0.000000
# 4 0.000000 0.000000 0.000000 0.060001 0.000000 -0.005839
# 5 -0.003620 0.002192 -0.001024 0.000000 0.024804 0.000000
# 6 0.000000 0.000000 0.000000 -0.005839 0.000000 0.041380
#
#
# Mechanical properties :
#
#
# Convention : Reuss Voigt Hill
#
# Bulk Modulus (GPa) = 26.78006 33.38474 30.08240
# Shear Modulus (GPa) = 20.76500 28.02465 24.39483
#
# Velocity S-wave (km/s) = 3.27228 3.80150 3.54677
# Velocity P-wave (km/s) = 5.29969 6.04019 5.68202
#
# Compressibility (1/GPa) = 0.03734121
#
# Stress axis : x y z
#
# Youngs Moduli (GPa) = 65.32963 22.93343 92.26974
#
# Poissons Ratio (x) = 0.23597 -0.08608
# Poissons Ratio (y) = 0.67219 0.63184
# Poissons Ratio (z) = -0.06095 0.15704
#
# Static dielectric constant tensor:
#      x y z
#    x 3.717580 0.000000 -0.041710 
#    y 0.000000 3.071160 0.000000 
#    z -0.041710 0.000000 3.779040 
# 
# 
# High freq. dielectric constant tensor:
#      x y z
#    x 1.774050 0.000000 -0.000760 
#    y 0.000000 1.705910 0.000000 
#    z -0.000760 0.000000 1.775910 
# 
# From -- ./inp_files/281271.got.cif
#   From: 2010.06.25/outbox.cif.g09.slc.cpg/sg12_141_cif.got.tgz:281271.got - 2010.06.28 00:19:55.
