data_PCOD8086238
_publ_section_title
;
Structure prediction by ZEFSAII (Michael W. Deem and Ramdas Pophale) SiO2 
 PCOD8086238
Probable space group: C 2/M
;
_chemical_formula_sum "Si O2"
_cell_formula_units_Z 56
_cell_length_a 33.570600
_cell_length_b 9.346057
_cell_length_c 11.164982
_cell_angle_alpha 90.000000
_cell_angle_beta 59.731526
_cell_angle_gamma 90.000000
_cell_volume 3025.484364
_symmetry_space_group_name_H-M "C 2/M"
_symmetry_group_IT_number 12
_symmetry_cell_setting 'monoclinic'
loop_
_space_group_symop_operation_xyz
x,y,z
-x,y,-z
-x,-y,-z
x,-y,z
1/2+x,1/2+y,z
1/2-x,1/2+y,-z
1/2-x,1/2-y,-z
1/2+x,1/2-y,z
loop_
_atom_site_type_symbol
_atom_site_label
_atom_site_fract_x
_atom_site_fract_y
_atom_site_fract_z
Si Si1 0.990121 0.168532 0.383178
Si Si2 0.209573 0.662231 0.792971
Si Si3 0.102546 0.830246 0.592741
Si Si4 0.811023 0.166722 0.694721
Si Si5 0.915194 0.833521 0.875795
Si Si6 0.369903 0.667558 0.191204
Si Si7 0.335092 0.833569 0.887464
O O1 0.943431 0.235877 0.398230
O O2 0.000000 0.234204 0.500000
O O3 0.031736 0.204812 0.229808
O O4 0.983271 0.000000 0.407070
O O5 0.197190 0.500000 0.777956
O O6 0.263764 0.693320 0.693272
O O7 0.180226 0.762406 0.750001
O O8 0.197152 0.692873 0.949592
O O9 0.147000 0.780062 0.451107
O O10 0.106968 0.773437 0.722231
O O11 0.099085 0.000000 0.599691
O O12 0.809346 0.260856 0.816147
O O13 0.815805 0.000000 0.722827
O O14 0.884463 0.741383 0.831808
O O15 0.905003 0.000000 0.865211
O O16 0.904099 0.793418 0.030112
O O17 0.360850 0.500000 0.213728
O O18 0.343225 0.000000 0.848791
#
# Coordination Sequence:
#
# PCOD8086238 Si02
#       7
#     8   8   8   8   8   8   8
#     4   9  16  27  47  74  98 122 156 196 237 281
#     4   9  19  33  49  70  96 127 160 196 238 284
#     4   9  18  31  48  72  99 124 157 202 240 274
#     4  10  19  32  50  70  95 128 162 196 238 284
#     4   9  17  30  50  72  95 127 161 193 235 285
#     4   9  18  32  49  71  97 125 160 199 236 277
#     4  10  19  31  48  72 100 125 155 198 242 283
#
# _framework density 18.509433000000001
#
# number of rings (size 3 to 8) (size 9 to 14) (size 15 to 20)
#    0.000    2.714    0.000    1.714    0.000    4.571 
#    0.000    3.571    0.000    4.714    0.000    4.000 
#    0.000    0.000    0.000    0.000    0.000    0.000 
#
# Total GULP energy -347205.655399 kJ/mol
# GULP energy per Si atom -12400.201979 kJ/mol
# Density = 1.846730 g / cm^3
# Si number density = 18.509433 Si / 1000 Ang^3
#
#
#
# Elastic Constant Matrix: (Units=GPa)
#
#
# Indices 1 2 3 4 5 6 
#
# 1 155.3054 36.7503 71.1235 0.0000 -3.0419 0.0000
# 2 36.7503 39.5491 23.7121 0.0000 0.2574 0.0000
# 3 71.1235 23.7121 77.3123 0.0000 -7.4197 0.0000
# 4 0.0000 0.0000 0.0000 13.9779 0.0000 -1.0734
# 5 -3.0419 0.2574 -7.4197 0.0000 37.4825 0.0000
# 6 0.0000 0.0000 0.0000 -1.0734 0.0000 23.6696
#
#
#
# Elastic Compliance Matrix: (Units=1/GPa)
#
#
# Indices 1 2 3 4 5 6 
#
# 1 0.012081 -0.005523 -0.009503 0.000000 -0.000863 0.000000
# 2 -0.005523 0.033675 -0.005416 0.000000 -0.001752 0.000000
# 3 -0.009503 -0.005416 0.023718 0.000000 0.003961 0.000000
# 4 0.000000 0.000000 0.000000 0.071791 0.000000 0.003256
# 5 -0.000863 -0.001752 0.003961 0.000000 0.027405 0.000000
# 6 0.000000 0.000000 0.000000 0.003256 0.000000 0.042396
#
#
# Mechanical properties :
#
#
# Convention : Reuss Voigt Hill
#
# Bulk Modulus (GPa) = 34.97554 59.48206 47.22880
# Shear Modulus (GPa) = 19.12198 24.39806 21.76002
#
# Velocity S-wave (km/s) = 3.21766 3.63456 3.43245
# Velocity P-wave (km/s) = 5.72203 7.05827 6.42498
#
# Compressibility (1/GPa) = 0.02859141
#
# Stress axis : x y z
#
# Youngs Moduli (GPa) = 82.77680 29.69522 42.16264
#
# Poissons Ratio (x) = 0.16400 0.40065
# Poissons Ratio (y) = 0.45716 0.22835
# Poissons Ratio (z) = 0.78659 0.16083
#
# Static dielectric constant tensor:
#      x y z
#    x 3.572640 0.000000 -0.017430 
#    y 0.000000 3.097430 0.000000 
#    z -0.017430 0.000000 3.444830 
# 
# 
# High freq. dielectric constant tensor:
#      x y z
#    x 1.722950 0.000000 -0.003870 
#    y 0.000000 1.678660 0.000000 
#    z -0.003870 0.000000 1.719350 
# 
# From -- ./inp_files/186466.got.cif
#   From: 2010.06.25/outbox.cif.g09.slc.cpg/sg12_94_cif.got.tgz:186466.got - 2010.06.28 00:19:55.
