data_PCOD8086083
_publ_section_title
;
Structure prediction by ZEFSAII (Michael W. Deem and Ramdas Pophale) SiO2 
 PCOD8086083
Probable space group: C 2/M
;
_chemical_formula_sum "Si O2"
_cell_formula_units_Z 36
_cell_length_a 5.192483
_cell_length_b 16.754061
_cell_length_c 25.227017
_cell_angle_alpha 90.000000
_cell_angle_beta 120.996849
_cell_angle_gamma 90.000000
_cell_volume 1881.226210
_symmetry_space_group_name_H-M "C 2/M"
_symmetry_group_IT_number 12
_symmetry_cell_setting 'monoclinic'
loop_
_space_group_symop_operation_xyz
x,y,z
-x,y,-z
-x,-y,-z
x,-y,z
1/2+x,1/2+y,z
1/2-x,1/2+y,-z
1/2-x,1/2-y,-z
1/2+x,1/2-y,z
loop_
_atom_site_type_symbol
_atom_site_label
_atom_site_fract_x
_atom_site_fract_y
_atom_site_fract_z
Si Si1 0.368785 0.594756 0.747021
Si Si2 0.000000 0.696959 0.000000
Si Si3 0.838956 0.095243 0.535556
Si Si4 0.811432 0.095007 0.325030
Si Si5 0.356326 0.304014 0.133554
O O1 0.378962 0.500000 0.751219
O O2 0.527029 0.626947 0.710632
O O3 0.543438 0.627224 0.816199
O O4 0.028494 0.626990 0.710247
O O5 0.831073 0.650587 0.933941
O O6 0.750000 0.750000 0.000000
O O7 0.500000 0.128010 0.500000
O O8 0.000000 0.127998 0.500000
O O9 0.013448 0.128831 0.605305
O O10 0.840674 0.000000 0.536252
O O11 0.815657 0.000000 0.326720
O O12 0.648578 0.260268 0.141228
#
# Coordination Sequence:
#
# PCOD8086083 Si02
#       5
#     8   4   8   8   8
#     4  10  19  31  47  69  99 130 156 189 239 288
#     4   8  16  30  49  70  93 122 154 194 238 274
#     4   9  15  23  37  58  86 120 155 189 228 276
#     4   9  17  28  42  63  95 129 155 188 239 287
#     4  10  19  33  52  73  96 124 161 198 233 276
#
# _framework density 19.136455000000002
#
# number of rings (size 3 to 8) (size 9 to 14) (size 15 to 20)
#    0.000    2.667    0.000    2.667    0.000    5.333 
#    0.000    0.556    0.000    0.000    0.000   14.000 
#    0.000   62.222    0.000    0.000    0.000    0.000 
#
# Total GULP energy -223078.242572 kJ/mol
# GULP energy per Si atom -12393.235698 kJ/mol
# Density = 1.909290 g / cm^3
# Si number density = 19.136455 Si / 1000 Ang^3
#
#
#
# Elastic Constant Matrix: (Units=GPa)
#
#
# Indices 1 2 3 4 5 6 
#
# 1 165.1408 10.2661 81.8524 0.0000 -0.2413 0.0000
# 2 10.2661 10.1980 25.8552 0.0000 0.1978 0.0000
# 3 81.8524 25.8552 224.6352 0.0000 -1.6105 0.0000
# 4 0.0000 0.0000 0.0000 14.8816 0.0000 -1.1907
# 5 -0.2413 0.1978 -1.6105 0.0000 35.2706 0.0000
# 6 0.0000 0.0000 0.0000 -1.1907 0.0000 7.7303
#
#
#
# Elastic Compliance Matrix: (Units=1/GPa)
#
#
# Indices 1 2 3 4 5 6 
#
# 1 0.007396 -0.000862 -0.002596 0.000000 -0.000063 0.000000
# 2 -0.000862 0.138644 -0.015654 0.000000 -0.001498 0.000000
# 3 -0.002596 -0.015654 0.007202 0.000000 0.000399 0.000000
# 4 0.000000 0.000000 0.000000 0.068036 0.000000 0.010480
# 5 -0.000063 -0.001498 0.000399 0.000000 0.028378 0.000000
# 6 0.000000 0.000000 0.000000 0.010480 0.000000 0.130976
#
#
# Mechanical properties :
#
#
# Convention : Reuss Voigt Hill
#
# Bulk Modulus (GPa) = 8.69436 70.65793 39.67615
# Shear Modulus (GPa) = 10.93624 30.37650 20.65637
#
# Velocity S-wave (km/s) = 2.39317 3.98849 3.28903
# Velocity P-wave (km/s) = 3.49136 7.62982 5.93312
#
# Compressibility (1/GPa) = 0.11501709
#
# Stress axis : x y z
#
# Youngs Moduli (GPa) = 135.21400 7.21272 138.84484
#
# Poissons Ratio (x) = 0.00622 0.36045
# Poissons Ratio (y) = 0.11654 2.17354
# Poissons Ratio (z) = 0.35103 0.11291
#
# Static dielectric constant tensor:
#      x y z
#    x 3.878440 0.000000 -0.011930 
#    y 0.000000 2.682640 0.000000 
#    z -0.011930 0.000000 4.074570 
# 
# 
# High freq. dielectric constant tensor:
#      x y z
#    x 1.771470 0.000000 -0.000600 
#    y 0.000000 1.662540 0.000000 
#    z -0.000600 0.000000 1.771810 
# 
# From -- ./inp_files/191194.got.cif
#   From: 2010.06.25/outbox.cif.g09.slc.cpg/sg12_96_cif.got.tgz:191194.got - 2010.06.28 00:19:55.
