data_PCOD8086535
_publ_section_title
;
Structure prediction by ZEFSAII (Michael W. Deem and Ramdas Pophale) SiO2 
 PCOD8086535
Probable space group: C 2/M
;
_chemical_formula_sum "Si O2"
_cell_formula_units_Z 56
_cell_length_a 18.773366
_cell_length_b 10.711575
_cell_length_c 16.464032
_cell_angle_alpha 90.000000
_cell_angle_beta 122.903845
_cell_angle_gamma 90.000000
_cell_volume 2779.684662
_symmetry_space_group_name_H-M "C 2/M"
_symmetry_group_IT_number 12
_symmetry_cell_setting 'monoclinic'
loop_
_space_group_symop_operation_xyz
x,y,z
-x,y,-z
-x,-y,-z
x,-y,z
1/2+x,1/2+y,z
1/2-x,1/2+y,-z
1/2-x,1/2-y,-z
1/2+x,1/2-y,z
loop_
_atom_site_type_symbol
_atom_site_label
_atom_site_fract_x
_atom_site_fract_y
_atom_site_fract_z
Si Si1 0.659255 0.234837 0.774924
Si Si2 0.012491 0.134661 0.604347
Si Si3 0.056057 0.644108 0.857484
Si Si4 0.176947 0.357658 0.069039
Si Si5 0.869357 0.645209 0.775667
Si Si6 0.759486 0.361305 0.327359
Si Si7 0.570166 0.865717 0.472469
O O1 0.609940 0.339292 0.690431
O O2 0.592640 0.164462 0.790605
O O3 0.730781 0.295276 0.875707
O O4 0.703038 0.138443 0.740604
O O5 0.953548 0.249099 0.601198
O O6 0.000000 0.128667 0.500000
O O7 0.985569 0.000000 0.624712
O O8 0.049365 0.500000 0.875090
O O9 0.960485 0.695878 0.802796
O O10 0.116159 0.706733 0.963781
O O11 0.192595 0.500000 0.054645
O O12 0.132679 0.344304 0.128641
O O13 0.849762 0.500000 0.737201
O O14 0.803022 0.744184 0.696137
O O15 0.717724 0.500000 0.313532
O O16 0.835926 0.343807 0.437276
O O17 0.500000 0.868029 0.500000
O O18 0.565730 0.000000 0.423373
#
# Coordination Sequence:
#
# PCOD8086535 Si02
#       7
#     8   8   8   8   8   8   8
#     4  11  19  31  52  82 113 142 176 227 276 327
#     4  10  19  31  49  79 113 142 173 218 271 322
#     4  10  20  34  53  78 109 147 186 225 270 322
#     4   9  18  33  54  79 107 142 188 231 267 315
#     4   9  19  35  56  78 106 145 188 226 264 318
#     4  10  19  32  52  80 109 140 178 222 269 322
#     4   9  16  29  48  75 106 136 172 218 265 315
#
# _framework density 20.146170000000001
#
# number of rings (size 3 to 8) (size 9 to 14) (size 15 to 20)
#    0.000    2.286    2.857    1.714    0.000    3.429 
#    0.000    1.429    0.000    9.429    0.000    0.000 
#    0.000    0.000    0.000    0.000    0.000    0.000 
#
# Total GULP energy -346880.027278 kJ/mol
# GULP energy per Si atom -12388.572403 kJ/mol
# Density = 2.010032 g / cm^3
# Si number density = 20.146170 Si / 1000 Ang^3
#
#
#
# Elastic Constant Matrix: (Units=GPa)
#
#
# Indices 1 2 3 4 5 6 
#
# 1 76.4336 24.3068 27.5047 0.0000 25.6282 0.0000
# 2 24.3068 147.9150 49.3120 0.0000 31.4743 0.0000
# 3 27.5047 49.3120 84.6161 0.0000 34.4308 0.0000
# 4 0.0000 0.0000 0.0000 24.2443 0.0000 9.4520
# 5 25.6282 31.4743 34.4308 0.0000 26.5142 0.0000
# 6 0.0000 0.0000 0.0000 9.4520 0.0000 14.5287
#
#
#
# Elastic Compliance Matrix: (Units=1/GPa)
#
#
# Indices 1 2 3 4 5 6 
#
# 1 0.019761 0.000889 0.002672 0.000000 -0.023626 0.000000
# 2 0.000889 0.009234 -0.001824 0.000000 -0.009452 0.000000
# 3 0.002672 -0.001824 0.025832 0.000000 -0.033962 0.000000
# 4 0.000000 0.000000 0.000000 0.055264 0.000000 -0.035953
# 5 -0.023626 -0.009452 -0.033962 0.000000 0.115874 0.000000
# 6 0.000000 0.000000 0.000000 -0.035953 0.000000 0.092220
#
#
# Mechanical properties :
#
#
# Convention : Reuss Voigt Hill
#
# Bulk Modulus (GPa) = 17.15255 56.80130 36.97692
# Shear Modulus (GPa) = 14.96357 26.91352 20.93855
#
# Velocity S-wave (km/s) = 2.72830 3.65898 3.22736
# Velocity P-wave (km/s) = 4.29620 6.79019 5.68173
#
# Compressibility (1/GPa) = 0.05830038
#
# Stress axis : x y z
#
# Youngs Moduli (GPa) = 50.60572 108.29618 38.71143
#
# Poissons Ratio (x) = -0.09629 -0.10344
# Poissons Ratio (y) = -0.04500 0.07062
# Poissons Ratio (z) = -0.13522 0.19757
#
# Static dielectric constant tensor:
#      x y z
#    x 3.303450 0.000000 0.285680 
#    y 0.000000 4.460490 0.000000 
#    z 0.285680 0.000000 3.745230 
# 
# 
# High freq. dielectric constant tensor:
#      x y z
#    x 1.749840 0.000000 0.019570 
#    y 0.000000 1.783090 0.000000 
#    z 0.019570 0.000000 1.791690 
# 
# From -- ./inp_files/277092.got.cif
#   From: 2010.06.25/outbox.cif.g09.slc.cpg/sg12_139_cif.got.tgz:277092.got - 2010.06.28 00:19:55.
