data_PCOD8086274
_publ_section_title
;
Structure prediction by ZEFSAII (Michael W. Deem and Ramdas Pophale) SiO2 
 PCOD8086274
Probable space group: C 2/M
;
_chemical_formula_sum "Si O2"
_cell_formula_units_Z 64
_cell_length_a 34.401305
_cell_length_b 9.071703
_cell_length_c 18.304177
_cell_angle_alpha 90.000000
_cell_angle_beta 37.671553
_cell_angle_gamma 90.000000
_cell_volume 3491.005108
_symmetry_space_group_name_H-M "C 2/M"
_symmetry_group_IT_number 12
_symmetry_cell_setting 'monoclinic'
loop_
_space_group_symop_operation_xyz
x,y,z
-x,y,-z
-x,-y,-z
x,-y,z
1/2+x,1/2+y,z
1/2-x,1/2+y,-z
1/2-x,1/2-y,-z
1/2+x,1/2-y,z
loop_
_atom_site_type_symbol
_atom_site_label
_atom_site_fract_x
_atom_site_fract_y
_atom_site_fract_z
Si Si1 0.223632 0.327282 0.304665
Si Si2 0.843842 0.329775 0.863751
Si Si3 0.536392 0.828607 0.223837
Si Si4 0.909805 0.324952 0.244791
Si Si5 0.894414 0.328072 0.431118
Si Si6 0.151042 0.169883 0.793770
Si Si7 0.232008 0.171968 0.139404
Si Si8 0.461447 0.326915 0.929739
O O1 0.218247 0.500000 0.295083
O O2 0.159187 0.259433 0.436307
O O3 0.279825 0.294534 0.277666
O O4 0.237824 0.245263 0.208942
O O5 0.836774 0.500000 0.852599
O O6 0.915385 0.291226 0.782427
O O7 0.828425 0.234692 0.815116
O O8 0.796397 0.289347 0.000286
O O9 0.464829 0.792361 0.357542
O O10 0.554106 0.731458 0.127756
O O11 0.541729 0.000000 0.192658
O O12 0.916788 0.500000 0.231377
O O13 0.888681 0.269144 0.356658
O O14 0.857733 0.269961 0.264708
O O15 0.977963 0.253444 0.124684
O O16 0.880742 0.500000 0.449578
O O17 0.144629 0.000000 0.780199
O O18 0.099080 0.212049 0.931359
O O19 0.221951 0.000000 0.164761
O O20 0.475156 0.500000 0.906136
#
# Coordination Sequence:
#
# PCOD8086274 Si02
#       8
#     8   8   8   8   8   8   8   8
#     4  10  20  36  54  70  97 135 168 200 245 297
#     4   9  18  33  54  78 104 133 161 195 245 298
#     4   9  17  32  54  77  99 127 168 208 241 287
#     4  10  20  34  52  73  97 128 168 210 248 288
#     4   8  17  34  53  72  95 127 168 209 243 284
#     4  10  21  33  48  73 101 130 164 202 248 302
#     4  10  20  33  51  78 107 130 160 203 244 289
#     4  10  19  31  48  73 105 133 159 198 249 301
#
# _framework density 18.332829
#
# number of rings (size 3 to 8) (size 9 to 14) (size 15 to 20)
#    0.000    2.500    0.000    3.000    0.000    4.500 
#    0.000    3.750    0.000    3.750    0.000    0.000 
#    0.000    0.000    0.000    0.000    0.000    0.000 
#
# Total GULP energy -396828.003477 kJ/mol
# GULP energy per Si atom -12400.875109 kJ/mol
# Density = 1.829110 g / cm^3
# Si number density = 18.332829 Si / 1000 Ang^3
#
#
#
# Elastic Constant Matrix: (Units=GPa)
#
#
# Indices 1 2 3 4 5 6 
#
# 1 100.2734 38.8970 24.5292 -0.0040 -13.5417 0.0029
# 2 38.8970 60.5867 24.6063 -0.0090 -0.4896 0.0072
# 3 24.5292 24.6063 59.2105 -0.0058 -15.7773 0.0058
# 4 -0.0040 -0.0090 -0.0058 17.2091 0.0006 5.4321
# 5 -13.5417 -0.4896 -15.7773 0.0006 17.5755 -0.0007
# 6 0.0029 0.0072 0.0058 5.4321 -0.0007 34.4900
#
#
#
# Elastic Compliance Matrix: (Units=1/GPa)
#
#
# Indices 1 2 3 4 5 6 
#
# 1 0.015363 -0.010288 0.001300 -0.000002 0.012717 0.000001
# 2 -0.010288 0.027895 -0.012139 0.000010 -0.018047 -0.000005
# 3 0.001300 -0.012139 0.028354 0.000003 0.026116 -0.000002
# 4 -0.000002 0.000010 0.000003 0.061149 -0.000001 -0.009631
# 5 0.012717 -0.018047 0.026116 -0.000001 0.089637 0.000000
# 6 0.000001 -0.000005 -0.000002 -0.009631 0.000000 0.030511
#
#
# Mechanical properties :
#
#
# Convention : Reuss Voigt Hill
#
# Bulk Modulus (GPa) = 34.06367 44.01505 39.03936
# Shear Modulus (GPa) = 16.39618 22.65746 19.52682
#
# Velocity S-wave (km/s) = 2.99383 3.51934 3.26717
# Velocity P-wave (km/s) = 5.52917 6.36988 5.96436
#
# Compressibility (1/GPa) = 0.02935679
#
# Stress axis : x y z
#
# Youngs Moduli (GPa) = 65.09080 35.84928 35.26839
#
# Poissons Ratio (x) = 0.36883 -0.04584
# Poissons Ratio (y) = 0.66967 0.42812
# Poissons Ratio (z) = -0.08460 0.43517
#
# Static dielectric constant tensor:
#      x y z
#    x 3.467520 0.000000 -0.118080 
#    y 0.000000 3.278950 0.000010 
#    z -0.118080 0.000010 3.397790 
# 
# 
# High freq. dielectric constant tensor:
#      x y z
#    x 1.718100 0.000000 -0.004440 
#    y 0.000000 1.699660 0.000000 
#    z -0.004440 0.000000 1.698290 
# 
# From -- ./inp_files/249726.got.cif
#   From: 2010.06.25/outbox.cif.g09.slc.cpg/sg12_125_cif.got.tgz:249726.got - 2010.06.28 00:19:55.
