data_PCOD8086967
_publ_section_title
;
Structure prediction by ZEFSAII (Michael W. Deem and Ramdas Pophale) SiO2 
 PCOD8086967
Probable space group: C 2/M
;
_chemical_formula_sum "Si O2"
_cell_formula_units_Z 48
_cell_length_a 19.102884
_cell_length_b 13.798510
_cell_length_c 11.603303
_cell_angle_alpha 90.000000
_cell_angle_beta 65.378313
_cell_angle_gamma 90.000000
_cell_volume 2780.443922
_symmetry_space_group_name_H-M "C 2/M"
_symmetry_group_IT_number 12
_symmetry_cell_setting 'monoclinic'
loop_
_space_group_symop_operation_xyz
x,y,z
-x,y,-z
-x,-y,-z
x,-y,z
1/2+x,1/2+y,z
1/2-x,1/2+y,-z
1/2-x,1/2-y,-z
1/2+x,1/2-y,z
loop_
_atom_site_type_symbol
_atom_site_label
_atom_site_fract_x
_atom_site_fract_y
_atom_site_fract_z
Si Si1 0.610916 0.389784 0.580902
Si Si2 0.569856 0.610928 0.032905
Si Si3 0.693715 0.608774 0.760152
Si Si4 0.040055 0.778049 0.280216
Si Si5 0.953348 0.606349 0.414443
Si Si6 0.336846 0.234627 0.610661
O O1 0.613431 0.500000 0.537263
O O2 0.631992 0.379105 0.700532
O O3 0.524504 0.349292 0.621537
O O4 0.672942 0.330771 0.461159
O O5 0.557137 0.500000 0.083415
O O6 0.573878 0.682178 0.138452
O O7 0.500000 0.643701 0.000000
O O8 0.649766 0.621910 0.910594
O O9 0.730254 0.500000 0.729511
O O10 0.756814 0.693223 0.712232
O O11 0.110171 0.765841 0.319446
O O12 0.999258 0.673021 0.291079
O O13 0.941534 0.500000 0.367560
O O14 0.871414 0.652344 0.502951
O O15 0.000000 0.599718 0.500000
#
# Coordination Sequence:
#
# PCOD8086967 Si02
#       6
#     8   8   8   8   8   8
#     4  10  19  33  53  78 107 139 171 208 260 316
#     4  10  19  34  55  76 100 136 179 217 255 307
#     4  10  20  34  54  76 102 137 177 215 251 306
#     4  10  19  31  52  79 104 134 174 218 256 302
#     4   8  15  29  48  71 100 134 169 202 245 302
#     4  10  20  31  49  80 110 133 163 215 272 308
#
# _framework density 17.263432000000002
#
# number of rings (size 3 to 8) (size 9 to 14) (size 15 to 20)
#    0.000    2.333    1.667    3.000    0.000    3.333 
#    0.000    0.000    0.000    1.500    0.000    0.000 
#    0.000    0.000    0.000    0.000    0.000    0.000 
#
# Total GULP energy -297525.969767 kJ/mol
# GULP energy per Si atom -12396.915407 kJ/mol
# Density = 1.722414 g / cm^3
# Si number density = 17.263432 Si / 1000 Ang^3
#
#
#
# Elastic Constant Matrix: (Units=GPa)
#
#
# Indices 1 2 3 4 5 6 
#
# 1 59.4527 34.6480 19.5388 0.0000 -7.0453 0.0000
# 2 34.6480 140.3676 57.4387 0.0000 -4.3670 0.0000
# 3 19.5388 57.4387 89.1291 0.0000 -3.9838 0.0000
# 4 0.0000 0.0000 0.0000 32.0554 0.0000 -2.7611
# 5 -7.0453 -4.3670 -3.9838 0.0000 19.9556 0.0000
# 6 0.0000 0.0000 0.0000 -2.7611 0.0000 19.4035
#
#
#
# Elastic Compliance Matrix: (Units=1/GPa)
#
#
# Indices 1 2 3 4 5 6 
#
# 1 0.020506 -0.004272 -0.001474 0.000000 0.006011 0.000000
# 2 -0.004272 0.010581 -0.005899 0.000000 -0.000370 0.000000
# 3 -0.001474 -0.005899 0.015401 0.000000 0.001263 0.000000
# 4 0.000000 0.000000 0.000000 0.031583 0.000000 0.004494
# 5 0.006011 -0.000370 0.001263 0.000000 0.052405 0.000000
# 6 0.000000 0.000000 0.000000 0.004494 0.000000 0.052176
#
#
# Mechanical properties :
#
#
# Convention : Reuss Voigt Hill
#
# Bulk Modulus (GPa) = 43.10525 56.91117 50.00821
# Shear Modulus (GPa) = 23.40016 26.10448 24.75232
#
# Velocity S-wave (km/s) = 3.68567 3.89282 3.79066
# Velocity P-wave (km/s) = 6.56777 7.29680 6.94186
#
# Compressibility (1/GPa) = 0.02319903
#
# Stress axis : x y z
#
# Youngs Moduli (GPa) = 48.76583 94.51017 64.93184
#
# Poissons Ratio (x) = 0.40371 0.09570
# Poissons Ratio (y) = 0.20831 0.38303
# Poissons Ratio (z) = 0.07188 0.55751
#
# Static dielectric constant tensor:
#      x y z
#    x 2.998550 0.000000 -0.047670 
#    y 0.000000 3.536310 0.000000 
#    z -0.047670 0.000000 3.089750 
# 
# 
# High freq. dielectric constant tensor:
#      x y z
#    x 1.652000 0.000000 -0.005900 
#    y 0.000000 1.671710 0.000000 
#    z -0.005900 0.000000 1.648240 
# 
# From -- ./inp_files/85710.got.cif
#   From: 2010.06.25/outbox.cif.g09.slc.cpg/sg12_43_cif.got.tgz:85710.got - 2010.06.28 00:19:55.
