data_PCOD8086276
_publ_section_title
;
Structure prediction by ZEFSAII (Michael W. Deem and Ramdas Pophale) SiO2 
 PCOD8086276
Probable space group: C 2/M
;
_chemical_formula_sum "Si O2"
_cell_formula_units_Z 64
_cell_length_a 28.967728
_cell_length_b 8.836142
_cell_length_c 15.643080
_cell_angle_alpha 90.000000
_cell_angle_beta 117.510967
_cell_angle_gamma 90.000000
_cell_volume 3551.280909
_symmetry_space_group_name_H-M "C 2/M"
_symmetry_group_IT_number 12
_symmetry_cell_setting 'monoclinic'
loop_
_space_group_symop_operation_xyz
x,y,z
-x,y,-z
-x,-y,-z
x,-y,z
1/2+x,1/2+y,z
1/2-x,1/2+y,-z
1/2-x,1/2-y,-z
1/2+x,1/2-y,z
loop_
_atom_site_type_symbol
_atom_site_label
_atom_site_fract_x
_atom_site_fract_y
_atom_site_fract_z
Si Si1 0.927801 0.673173 0.782178
Si Si2 0.174591 0.324489 0.404440
Si Si3 0.721930 0.675168 0.604276
Si Si4 0.690839 0.322794 0.058501
Si Si5 0.204940 0.320601 0.769235
Si Si6 0.414383 0.676481 0.947779
Si Si7 0.043069 0.326484 0.852775
Si Si8 0.364707 0.679361 0.157592
O O1 0.919611 0.500000 0.805387
O O2 0.881229 0.723363 0.680335
O O3 0.929325 0.780495 0.865220
O O4 0.982063 0.691390 0.777569
O O5 0.176561 0.500000 0.433228
O O6 0.218482 0.290305 0.370764
O O7 0.183724 0.222147 0.495044
O O8 0.713403 0.500000 0.618369
O O9 0.706881 0.773370 0.672920
O O10 0.698526 0.500000 0.057440
O O11 0.744789 0.251167 0.137855
O O12 0.646163 0.283168 0.088814
O O13 0.673661 0.260399 0.950818
O O14 0.202916 0.500000 0.772752
O O15 0.153516 0.252098 0.769088
O O16 0.425106 0.500000 0.972716
O O17 0.449604 0.768394 0.044324
O O18 0.060981 0.500000 0.862903
O O19 0.076603 0.231113 0.813451
O O20 0.364208 0.500000 0.164456
#
# Coordination Sequence:
#
# PCOD8086276 Si02
#       8
#     8   8   8   8   8   8   8   8
#     4  10  20  33  51  74 100 132 170 208 246 294
#     4   9  19  36  55  76 103 133 163 199 247 299
#     4  10  20  34  53  78 105 131 161 200 247 297
#     4   8  17  31  47  71 102 134 167 203 242 289
#     4  11  20  32  52  75 100 133 170 204 245 296
#     4  10  19  31  48  73 105 137 169 205 246 291
#     4  10  20  34  50  70  99 135 173 209 247 291
#     4  10  20  35  51  71 101 133 169 211 251 290
#
# _framework density 18.021666
#
# number of rings (size 3 to 8) (size 9 to 14) (size 15 to 20)
#    0.000    2.250    0.000    4.125    0.000    3.500 
#    0.000    6.250    0.000    0.750    0.000    5.250 
#    0.000    0.000    0.000    0.000    0.000    0.000 
#
# Total GULP energy -396849.912932 kJ/mol
# GULP energy per Si atom -12401.559779 kJ/mol
# Density = 1.798065 g / cm^3
# Si number density = 18.021666 Si / 1000 Ang^3
#
#
#
# Elastic Constant Matrix: (Units=GPa)
#
#
# Indices 1 2 3 4 5 6 
#
# 1 111.8434 42.5590 61.7591 0.0000 -0.5691 0.0000
# 2 42.5590 75.1027 32.8726 0.0000 -3.5645 0.0000
# 3 61.7591 32.8726 75.0046 0.0000 3.4641 0.0000
# 4 0.0000 0.0000 0.0000 25.6676 0.0000 -4.2221
# 5 -0.5691 -3.5645 3.4641 0.0000 28.3942 0.0000
# 6 0.0000 0.0000 0.0000 -4.2221 0.0000 28.7985
#
#
#
# Elastic Compliance Matrix: (Units=1/GPa)
#
#
# Indices 1 2 3 4 5 6 
#
# 1 0.017583 -0.004375 -0.012622 0.000000 0.001343 0.000000
# 2 -0.004375 0.017817 -0.004330 0.000000 0.002677 0.000000
# 3 -0.012622 -0.004330 0.025805 0.000000 -0.003945 0.000000
# 4 0.000000 0.000000 0.000000 0.039922 0.000000 0.005853
# 5 0.001343 0.002677 -0.003945 0.000000 0.036063 0.000000
# 6 0.000000 0.000000 0.000000 0.005853 0.000000 0.035582
#
#
# Mechanical properties :
#
#
# Convention : Reuss Voigt Hill
#
# Bulk Modulus (GPa) = 53.90633 59.59245 56.74939
# Shear Modulus (GPa) = 22.56223 24.88938 23.72580
#
# Velocity S-wave (km/s) = 3.54213 3.72032 3.63232
# Velocity P-wave (km/s) = 6.83416 7.18285 7.01067
#
# Compressibility (1/GPa) = 0.01855070
#
# Stress axis : x y z
#
# Youngs Moduli (GPa) = 56.87440 56.12751 38.75162
#
# Poissons Ratio (x) = 0.24557 0.48913
# Poissons Ratio (y) = 0.24884 0.16778
# Poissons Ratio (z) = 0.71787 0.24301
#
# Static dielectric constant tensor:
#      x y z
#    x 3.404080 0.000000 0.109620 
#    y 0.000000 3.256910 0.000000 
#    z 0.109620 0.000000 3.177400 
# 
# 
# High freq. dielectric constant tensor:
#      x y z
#    x 1.699850 0.000000 0.001750 
#    y 0.000000 1.698740 0.000000 
#    z 0.001750 0.000000 1.672110 
# 
# From -- ./inp_files/249183.got.cif
#   From: 2010.06.25/outbox.cif.g09.slc.cpg/sg12_125_cif.got.tgz:249183.got - 2010.06.28 00:19:55.
