data_PCOD8086617
_publ_section_title
;
Structure prediction by ZEFSAII (Michael W. Deem and Ramdas Pophale) SiO2 
 PCOD8086617
Probable space group: C 2/M
;
_chemical_formula_sum "Si O2"
_cell_formula_units_Z 56
_cell_length_a 12.932014
_cell_length_b 13.187208
_cell_length_c 18.114052
_cell_angle_alpha 90.000000
_cell_angle_beta 83.288621
_cell_angle_gamma 90.000000
_cell_volume 3067.950642
_symmetry_space_group_name_H-M "C 2/M"
_symmetry_group_IT_number 12
_symmetry_cell_setting 'monoclinic'
loop_
_space_group_symop_operation_xyz
x,y,z
-x,y,-z
-x,-y,-z
x,-y,z
1/2+x,1/2+y,z
1/2-x,1/2+y,-z
1/2-x,1/2-y,-z
1/2+x,1/2-y,z
loop_
_atom_site_type_symbol
_atom_site_label
_atom_site_fract_x
_atom_site_fract_y
_atom_site_fract_z
Si Si1 0.551488 0.386162 0.870054
Si Si2 0.375660 0.120854 0.508927
Si Si3 0.833724 0.196041 0.892430
Si Si4 0.755192 0.887639 0.045621
Si Si5 0.774779 0.256910 0.386352
Si Si6 0.827948 0.883190 0.732133
Si Si7 0.071200 0.115570 0.706054
O O1 0.507183 0.500000 0.862381
O O2 0.454652 0.317388 0.899375
O O3 0.629448 0.379974 0.931040
O O4 0.602659 0.353614 0.787520
O O5 0.500000 0.141920 0.500000
O O6 0.321018 0.186869 0.577842
O O7 0.319972 0.160542 0.439452
O O8 0.354389 0.000000 0.519867
O O9 0.818780 0.316681 0.899609
O O10 0.799514 0.153919 0.816446
O O11 0.760272 0.142592 0.959380
O O12 0.709323 0.000000 0.056925
O O13 0.738386 0.317957 0.318541
O O14 0.869687 0.184139 0.357422
O O15 0.948926 0.866907 0.705066
O O16 0.795805 0.000000 0.726868
O O17 0.102670 0.000000 0.686826
#
# Coordination Sequence:
#
# PCOD8086617 Si02
#       7
#     8   8   8   8   8   8   8
#     4   9  17  31  51  73  98 131 173 214 251 294
#     4  10  22  38  54  76 105 134 164 199 243 298
#     4  10  19  31  51  74 102 134 167 210 258 296
#     4  10  19  31  50  74  99 133 177 214 246 293
#     4  11  20  34  57  78 100 132 167 203 246 297
#     4  10  20  34  52  76 104 131 164 207 255 302
#     4   9  18  32  51  76 103 131 168 213 252 289
#
# _framework density 18.253226999999999
#
# number of rings (size 3 to 8) (size 9 to 14) (size 15 to 20)
#    0.000    2.143    0.000    5.143    0.000    1.143 
#    0.000    0.714    0.000   25.714    0.000    0.000 
#    0.000    0.000    0.000    0.000    0.000    0.000 
#
# Total GULP energy -347148.341868 kJ/mol
# GULP energy per Si atom -12398.155067 kJ/mol
# Density = 1.821168 g / cm^3
# Si number density = 18.253227 Si / 1000 Ang^3
#
#
#
# Elastic Constant Matrix: (Units=GPa)
#
#
# Indices 1 2 3 4 5 6 
#
# 1 62.4938 46.7333 26.7102 0.0000 -4.0603 0.0000
# 2 46.7333 126.3054 37.5995 0.0000 -9.0400 0.0000
# 3 26.7102 37.5995 71.0149 0.0000 -0.1079 0.0000
# 4 0.0000 0.0000 0.0000 25.7363 0.0000 -3.3935
# 5 -4.0603 -9.0400 -0.1079 0.0000 24.8944 0.0000
# 6 0.0000 0.0000 0.0000 -3.3935 0.0000 33.5879
#
#
#
# Elastic Compliance Matrix: (Units=1/GPa)
#
#
# Indices 1 2 3 4 5 6 
#
# 1 0.023586 -0.007120 -0.005100 0.000000 0.001239 0.000000
# 2 -0.007120 0.011843 -0.003588 0.000000 0.003124 0.000000
# 3 -0.005100 -0.003588 0.017896 0.000000 -0.002057 0.000000
# 4 0.000000 0.000000 0.000000 0.039380 0.000000 0.003979
# 5 0.001239 0.003124 -0.002057 0.000000 0.041497 0.000000
# 6 0.000000 0.000000 0.000000 0.003979 0.000000 0.030175
#
#
# Mechanical properties :
#
#
# Convention : Reuss Voigt Hill
#
# Bulk Modulus (GPa) = 46.06039 53.54445 49.80242
# Shear Modulus (GPa) = 24.60268 26.76179 25.68223
#
# Velocity S-wave (km/s) = 3.67530 3.83317 3.75506
# Velocity P-wave (km/s) = 6.58022 6.99921 6.79294
#
# Compressibility (1/GPa) = 0.02171063
#
# Stress axis : x y z
#
# Youngs Moduli (GPa) = 42.39767 84.43500 55.87818
#
# Poissons Ratio (x) = 0.60119 0.28495
# Poissons Ratio (y) = 0.30188 0.20048
# Poissons Ratio (z) = 0.21621 0.30294
#
# Static dielectric constant tensor:
#      x y z
#    x 3.155530 0.000000 0.036470 
#    y 0.000000 3.507620 0.000000 
#    z 0.036470 0.000000 3.395330 
# 
# 
# High freq. dielectric constant tensor:
#      x y z
#    x 1.693750 0.000000 0.005580 
#    y 0.000000 1.714090 0.000000 
#    z 0.005580 0.000000 1.715210 
# 
# From -- ./inp_files/268621.got.cif
#   From: 2010.06.25/outbox.cif.g09.slc.cpg/sg12_135_cif.got.tgz:268621.got - 2010.06.28 00:19:55.
