data_PCOD8086708
_publ_section_title
;
Structure prediction by ZEFSAII (Michael W. Deem and Ramdas Pophale) SiO2 
 PCOD8086708
Probable space group: C 2/M
;
_chemical_formula_sum "Si O2"
_cell_formula_units_Z 56
_cell_length_a 19.874448
_cell_length_b 8.815477
_cell_length_c 32.112775
_cell_angle_alpha 90.000000
_cell_angle_beta 147.179438
_cell_angle_gamma 90.000000
_cell_volume 3049.480735
_symmetry_space_group_name_H-M "C 2/M"
_symmetry_group_IT_number 12
_symmetry_cell_setting 'monoclinic'
loop_
_space_group_symop_operation_xyz
x,y,z
-x,y,-z
-x,-y,-z
x,-y,z
1/2+x,1/2+y,z
1/2-x,1/2+y,-z
1/2-x,1/2-y,-z
1/2+x,1/2-y,z
loop_
_atom_site_type_symbol
_atom_site_label
_atom_site_fract_x
_atom_site_fract_y
_atom_site_fract_z
Si Si1 0.987349 0.819616 0.947416
Si Si2 0.995392 0.821426 0.628458
Si Si3 0.776830 0.671715 0.213028
Si Si4 0.856601 0.681343 0.631590
Si Si5 0.760218 0.180857 0.960789
Si Si6 0.914863 0.329442 0.200030
Si Si7 0.078338 0.820184 0.501383
O O1 0.863508 0.763258 0.858754
O O2 0.106423 0.761864 0.984821
O O3 0.978579 0.000000 0.945913
O O4 0.000000 0.749576 0.000000
O O5 0.892172 0.743993 0.604382
O O6 0.978762 0.765588 0.572198
O O7 0.135120 0.778355 0.713801
O O8 0.975814 0.000000 0.621819
O O9 0.786636 0.500000 0.235569
O O10 0.814614 0.674209 0.184498
O O11 0.865829 0.500000 0.632925
O O12 0.721501 0.736216 0.576567
O O13 0.956299 0.746994 0.717224
O O14 0.754051 0.000000 0.957832
O O15 0.750000 0.250000 0.000000
O O16 0.649992 0.248163 0.873880
O O17 0.948259 0.500000 0.204763
O O18 0.000000 0.752427 0.500000
O O19 0.075378 0.000000 0.502835
#
# Coordination Sequence:
#
# PCOD8086708 Si02
#       7
#     8   8   8   8   8   8   8
#     4   9  15  28  54  76  91 122 171 213 236 272
#     4  10  19  31  50  77 105 128 155 200 250 291
#     4   9  16  30  53  77  95 122 167 210 242 278
#     4   9  17  32  56  77  92 124 170 207 238 283
#     4  10  19  32  48  71 101 130 162 199 243 291
#     4   8  14  27  49  73  92 118 163 205 233 274
#     4   9  18  33  51  73 101 131 164 199 239 289
#
# _framework density 18.363782
#
# number of rings (size 3 to 8) (size 9 to 14) (size 15 to 20)
#    0.000    2.857    1.429    1.714    0.000    0.000 
#    2.571    4.286    0.000    4.714    0.000    0.000 
#    0.000    0.000    0.000    0.000    0.000    0.000 
#
# Total GULP energy -346963.244378 kJ/mol
# GULP energy per Si atom -12391.544442 kJ/mol
# Density = 1.832199 g / cm^3
# Si number density = 18.363782 Si / 1000 Ang^3
#
#
#
# Elastic Constant Matrix: (Units=GPa)
#
#
# Indices 1 2 3 4 5 6 
#
# 1 144.4411 18.9236 94.8146 -0.0001 3.0847 0.0001
# 2 18.9236 21.9066 19.3278 -0.0004 -0.5914 0.0007
# 3 94.8146 19.3278 163.7505 0.0000 3.6851 0.0000
# 4 -0.0001 -0.0004 0.0000 20.4480 0.0000 -4.2442
# 5 3.0847 -0.5914 3.6851 0.0000 29.7473 0.0000
# 6 0.0001 0.0007 0.0000 -4.2442 0.0000 19.8532
#
#
#
# Elastic Compliance Matrix: (Units=1/GPa)
#
#
# Indices 1 2 3 4 5 6 
#
# 1 0.011570 -0.004586 -0.006146 0.000000 -0.000530 0.000000
# 2 -0.004586 0.052865 -0.003629 0.000001 0.001976 -0.000002
# 3 -0.006146 -0.003629 0.010109 0.000000 -0.000687 0.000000
# 4 0.000000 0.000001 0.000000 0.051175 0.000000 0.010940
# 5 -0.000530 0.001976 -0.000687 0.000000 0.033796 0.000000
# 6 0.000000 -0.000002 0.000000 0.010940 0.000000 0.052709
#
#
# Mechanical properties :
#
#
# Convention : Reuss Voigt Hill
#
# Bulk Modulus (GPa) = 21.82341 66.24780 44.03561
# Shear Modulus (GPa) = 19.51456 27.14519 23.32987
#
# Velocity S-wave (km/s) = 3.26339 3.84890 3.56817
# Velocity P-wave (km/s) = 5.10973 7.47700 6.40371
#
# Compressibility (1/GPa) = 0.04582235
#
# Stress axis : x y z
#
# Youngs Moduli (GPa) = 86.43304 18.91610 98.92012
#
# Poissons Ratio (x) = 0.08675 0.60794
# Poissons Ratio (y) = 0.39640 0.35896
# Poissons Ratio (z) = 0.53120 0.06864
#
# Static dielectric constant tensor:
#      x y z
#    x 3.275320 0.000000 0.162850 
#    y 0.000000 2.902470 0.000000 
#    z 0.162850 0.000000 3.643150 
# 
# 
# High freq. dielectric constant tensor:
#      x y z
#    x 1.697400 0.000000 0.009050 
#    y 0.000000 1.659580 0.000000 
#    z 0.009050 0.000000 1.733240 
# 
# From -- ./inp_files/363183.got.cif
#   From: 2010.06.25/outbox.cif.g09.slc.cpg/sg12_182_cif.got.tgz:363183.got - 2010.06.28 00:19:55.
