data_PCOD8086106
_publ_section_title
;
Structure prediction by ZEFSAII (Michael W. Deem and Ramdas Pophale) SiO2 
 PCOD8086106
Probable space group: C 2/M
;
_chemical_formula_sum "Si O2"
_cell_formula_units_Z 48
_cell_length_a 14.274927
_cell_length_b 8.830509
_cell_length_c 21.465478
_cell_angle_alpha 90.000000
_cell_angle_beta 90.056762
_cell_angle_gamma 90.000000
_cell_volume 2705.826740
_symmetry_space_group_name_H-M "C 2/M"
_symmetry_group_IT_number 12
_symmetry_cell_setting 'monoclinic'
loop_
_space_group_symop_operation_xyz
x,y,z
-x,y,-z
-x,-y,-z
x,-y,z
1/2+x,1/2+y,z
1/2-x,1/2+y,-z
1/2-x,1/2-y,-z
1/2+x,1/2-y,z
loop_
_atom_site_type_symbol
_atom_site_label
_atom_site_fract_x
_atom_site_fract_y
_atom_site_fract_z
Si Si1 0.499744 0.320409 0.401848
Si Si2 0.148877 0.820907 0.500176
Si Si3 0.649012 0.321937 0.833894
Si Si4 0.141153 0.319677 0.166326
Si Si5 0.005095 0.178928 0.071172
Si Si6 0.004173 0.180256 0.261908
O O1 0.497434 0.500000 0.399513
O O2 0.592922 0.267070 0.438437
O O3 0.407665 0.263742 0.438825
O O4 0.500047 0.254601 0.332020
O O5 0.250000 0.750000 0.500000
O O6 0.158406 0.000000 0.501053
O O7 0.659531 0.500000 0.833340
O O8 0.753047 0.252725 0.834271
O O9 0.591530 0.271380 0.895328
O O10 0.591561 0.269420 0.772651
O O11 0.138221 0.500000 0.168367
O O12 0.091879 0.262483 0.103458
O O13 0.092470 0.254560 0.227906
O O14 0.021633 0.000000 0.077607
O O15 0.000000 0.231943 0.000000
O O16 0.016842 0.000000 0.259675
#
# Coordination Sequence:
#
# PCOD8086106 Si02
#       6
#     8   8   8   8   8   8
#     4   8  16  31  50  68  92 127 162 192 229 282
#     4   9  17  31  49  71  96 124 158 195 236 281
#     4   8  16  30  47  67  93 122 151 187 233 278
#     4  10  19  31  47  71 100 123 148 192 244 282
#     4   9  18  34  53  70  91 125 165 194 221 274
#     4   9  17  33  52  67  89 127 166 193 224 277
#
# _framework density 17.739495999999999
#
# number of rings (size 3 to 8) (size 9 to 14) (size 15 to 20)
#    0.000    3.167    0.000    2.500    0.000    2.333 
#    0.000   11.667    0.000    0.000    0.000    0.000 
#    0.000    0.000    0.000    0.000    0.000    0.000 
#
# Total GULP energy -297492.004311 kJ/mol
# GULP energy per Si atom -12395.500180 kJ/mol
# Density = 1.769912 g / cm^3
# Si number density = 17.739496 Si / 1000 Ang^3
#
#
#
# Elastic Constant Matrix: (Units=GPa)
#
#
# Indices 1 2 3 4 5 6 
#
# 1 187.3535 31.0054 101.4971 0.0000 -11.3021 0.0000
# 2 31.0054 29.4187 28.4766 0.0000 -0.8309 0.0000
# 3 101.4971 28.4766 190.3732 0.0000 10.1663 0.0000
# 4 0.0000 0.0000 0.0000 19.6718 0.0000 -1.9280
# 5 -11.3021 -0.8309 10.1663 0.0000 16.8385 0.0000
# 6 0.0000 0.0000 0.0000 -1.9280 0.0000 27.4934
#
#
#
# Elastic Compliance Matrix: (Units=1/GPa)
#
#
# Indices 1 2 3 4 5 6 
#
# 1 0.009188 -0.004964 -0.004621 0.000000 0.008712 0.000000
# 2 -0.004964 0.042973 -0.003840 0.000000 0.001107 0.000000
# 3 -0.004621 -0.003840 0.008749 0.000000 -0.008574 0.000000
# 4 0.000000 0.000000 0.000000 0.051186 0.000000 0.003589
# 5 0.008712 0.001107 -0.008574 0.000000 0.070467 0.000000
# 6 0.000000 0.000000 0.000000 0.003589 0.000000 0.036624
#
#
# Mechanical properties :
#
#
# Convention : Reuss Voigt Hill
#
# Bulk Modulus (GPa) = 29.36181 81.01152 55.18666
# Shear Modulus (GPa) = 19.42566 29.21182 24.31874
#
# Velocity S-wave (km/s) = 3.31275 4.06237 3.70656
# Velocity P-wave (km/s) = 5.58748 8.23227 7.03528
#
# Compressibility (1/GPa) = 0.03405784
#
# Stress axis : x y z
#
# Youngs Moduli (GPa) = 108.83513 23.27054 114.29861
#
# Poissons Ratio (x) = 0.11552 0.52821
# Poissons Ratio (y) = 0.54029 0.43895
# Poissons Ratio (z) = 0.50297 0.08937
#
# Static dielectric constant tensor:
#      x y z
#    x 3.738690 0.000000 -0.076950 
#    y 0.000000 2.914870 0.000000 
#    z -0.076950 0.000000 3.636520 
# 
# 
# High freq. dielectric constant tensor:
#      x y z
#    x 1.691250 0.000000 -0.000050 
#    y 0.000000 1.651370 0.000000 
#    z -0.000050 0.000000 1.693230 
# 
# From -- ./inp_files/307982.got.cif
#   From: 2010.06.25/outbox.cif.g09.slc.cpg/sg12_154_cif.got.tgz:307982.got - 2010.06.28 00:19:55.
