data_PCOD8086471
_publ_section_title
;
Structure prediction by ZEFSAII (Michael W. Deem and Ramdas Pophale) SiO2 
 PCOD8086471
Probable space group: C 2/M
;
_chemical_formula_sum "Si O2"
_cell_formula_units_Z 64
_cell_length_a 24.955800
_cell_length_b 9.050483
_cell_length_c 15.004300
_cell_angle_alpha 90.000000
_cell_angle_beta 90.173858
_cell_angle_gamma 90.000000
_cell_volume 3388.886260
_symmetry_space_group_name_H-M "C 2/M"
_symmetry_group_IT_number 12
_symmetry_cell_setting 'monoclinic'
loop_
_space_group_symop_operation_xyz
x,y,z
-x,y,-z
-x,-y,-z
x,-y,z
1/2+x,1/2+y,z
1/2-x,1/2+y,-z
1/2-x,1/2-y,-z
1/2+x,1/2-y,z
loop_
_atom_site_type_symbol
_atom_site_label
_atom_site_fract_x
_atom_site_fract_y
_atom_site_fract_z
Si Si1 0.189168 0.172414 0.807993
Si Si2 0.442904 0.666772 0.042977
Si Si3 0.841982 0.327055 0.009093
Si Si4 0.810264 0.329865 0.814191
Si Si5 0.560668 0.676686 0.484567
Si Si6 0.390518 0.332699 0.340310
Si Si7 0.403522 0.676253 0.709041
Si Si8 0.513187 0.332322 0.780054
O O1 0.180492 0.246368 0.903853
O O2 0.250311 0.196939 0.778061
O O3 0.151270 0.243581 0.729514
O O4 0.175392 0.000000 0.820639
O O5 0.419062 0.500000 0.045156
O O6 0.402642 0.773867 0.991002
O O7 0.451157 0.738627 0.141260
O O8 0.500000 0.669209 0.000000
O O9 0.838891 0.500000 0.026766
O O10 0.810809 0.281796 0.918476
O O11 0.827661 0.500000 0.806850
O O12 0.849247 0.237278 0.751028
O O13 0.500000 0.738304 0.500000
O O14 0.558297 0.500000 0.489194
O O15 0.602837 0.736864 0.560723
O O16 0.586693 0.731009 0.392004
O O17 0.370109 0.500000 0.348213
O O18 0.452196 0.324649 0.308832
O O19 0.401479 0.500000 0.711922
O O20 0.454601 0.738685 0.765077
O O21 0.502902 0.500000 0.811134
#
# Coordination Sequence:
#
# PCOD8086471 Si02
#       8
#     8   8   8   8   8   8   8   8
#     4  10  20  37  59  76  98 140 186 218 251 305
#     4  10  19  31  49  74 105 140 178 213 248 306
#     4  11  22  35  52  76 106 136 173 222 271 310
#     4  10  23  39  52  72 105 144 179 214 261 313
#     4   9  15  26  49  83 113 130 158 213 269 309
#     4   9  15  27  51  79 104 128 165 216 259 300
#     4  10  19  32  55  83 107 135 172 217 263 306
#     4   9  15  26  47  76 104 131 167 208 252 302
#
# _framework density 18.885259999999999
#
# number of rings (size 3 to 8) (size 9 to 14) (size 15 to 20)
#    0.000    2.250    2.500    1.500    0.000    2.750 
#    0.000    1.250    0.000    1.125    0.000    0.000 
#    0.000    0.000    0.000    0.000    0.000    0.000 
#
# Total GULP energy -396462.074287 kJ/mol
# GULP energy per Si atom -12389.439821 kJ/mol
# Density = 1.884228 g / cm^3
# Si number density = 18.885260 Si / 1000 Ang^3
#
#
#
# Elastic Constant Matrix: (Units=GPa)
#
#
# Indices 1 2 3 4 5 6 
#
# 1 107.0005 24.3756 44.9260 0.0000 10.4463 0.0000
# 2 24.3756 29.6802 28.5814 0.0000 -0.1958 0.0000
# 3 44.9260 28.5814 111.0211 0.0000 12.8750 0.0000
# 4 0.0000 0.0000 0.0000 39.9310 0.0000 -60.8952
# 5 10.4463 -0.1958 12.8750 0.0000 25.6774 0.0000
# 6 0.0000 0.0000 0.0000 -60.8952 0.0000 154.3647
#
#
#
# Elastic Compliance Matrix: (Units=1/GPa)
#
#
# Indices 1 2 3 4 5 6 
#
# 1 0.012619 -0.007850 -0.002636 0.000000 -0.003872 0.000000
# 2 -0.007850 0.050729 -0.010934 0.000000 0.009063 0.000000
# 3 -0.002636 -0.010934 0.013563 0.000000 -0.005811 0.000000
# 4 0.000000 0.000000 0.000000 0.062859 0.000000 0.024797
# 5 -0.003872 0.009063 -0.005811 0.000000 0.043503 0.000000
# 6 0.000000 0.000000 0.000000 0.024797 0.000000 0.016260
#
#
# Mechanical properties :
#
#
# Convention : Reuss Voigt Hill
#
# Bulk Modulus (GPa) = 29.35206 49.27421 39.31314
# Shear Modulus (GPa) = 19.70584 53.98254 36.84419
#
# Velocity S-wave (km/s) = 3.23375 5.35225 4.42175
# Velocity P-wave (km/s) = 5.43313 8.02143 6.85063
#
# Compressibility (1/GPa) = 0.03406916
#
# Stress axis : x y z
#
# Youngs Moduli (GPa) = 79.24502 19.71268 73.73023
#
# Poissons Ratio (x) = 0.15475 0.19438
# Poissons Ratio (y) = 0.62211 0.80616
# Poissons Ratio (z) = 0.20892 0.21554
#
# Static dielectric constant tensor:
#      x y z
#    x 3.503540 0.000000 0.253060 
#    y 0.000000 3.003290 0.000000 
#    z 0.253060 0.000000 3.997140 
# 
# 
# High freq. dielectric constant tensor:
#      x y z
#    x 1.736120 0.000000 0.011180 
#    y 0.000000 1.673160 0.000000 
#    z 0.011180 0.000000 1.745140 
# 
# From -- ./inp_files/238600.got.cif
#   From: 2010.06.25/outbox.cif.g09.slc.cpg/sg12_120_cif.got.tgz:238600.got - 2010.06.28 00:19:55.
