data_PCOD8086818
_publ_section_title
;
Structure prediction by ZEFSAII (Michael W. Deem and Ramdas Pophale) SiO2 
 PCOD8086818
Probable space group: C 2/M
;
_chemical_formula_sum "Si O2"
_cell_formula_units_Z 56
_cell_length_a 10.781206
_cell_length_b 26.921117
_cell_length_c 20.044050
_cell_angle_alpha 90.000000
_cell_angle_beta 33.454666
_cell_angle_gamma 90.000000
_cell_volume 3207.124252
_symmetry_space_group_name_H-M "C 2/M"
_symmetry_group_IT_number 12
_symmetry_cell_setting 'monoclinic'
loop_
_space_group_symop_operation_xyz
x,y,z
-x,y,-z
-x,-y,-z
x,-y,z
1/2+x,1/2+y,z
1/2-x,1/2+y,-z
1/2-x,1/2-y,-z
1/2+x,1/2-y,z
loop_
_atom_site_type_symbol
_atom_site_label
_atom_site_fract_x
_atom_site_fract_y
_atom_site_fract_z
Si Si1 0.554974 0.791707 0.848458
Si Si2 0.738921 0.554892 0.601909
Si Si3 0.247324 0.701363 0.618860
Si Si4 0.793113 0.364592 0.478300
Si Si5 0.937525 0.183126 0.949640
Si Si6 0.989123 0.202839 0.302446
Si Si7 0.187535 0.136184 0.727359
O O1 0.689724 0.803243 0.721237
O O2 0.503519 0.734515 0.885454
O O3 0.740636 0.807547 0.820315
O O4 0.328352 0.824439 0.945646
O O5 0.627796 0.500000 0.648617
O O6 0.705043 0.581817 0.544710
O O7 0.622798 0.586803 0.713735
O O8 0.000000 0.549475 0.500000
O O9 0.500000 0.722510 0.500000
O O10 0.226464 0.646727 0.592111
O O11 0.066006 0.738517 0.666307
O O12 0.638223 0.322752 0.579919
O O13 0.046993 0.358983 0.388070
O O14 0.070355 0.137903 0.853075
O O15 0.000000 0.182373 0.000000
O O16 0.899661 0.184630 0.271727
#
# Coordination Sequence:
#
# PCOD8086818 Si02
#       7
#     8   8   8   8   8   8   8
#     4  11  23  34  47  69 101 148 179 212 244 290
#     4   8  16  32  55  83 106 124 160 215 269 316
#     4  12  21  32  48  73 109 138 176 210 250 300
#     4  10  19  31  51  77 105 131 164 210 258 310
#     4  11  23  37  48  65 103 145 188 211 244 297
#     4  11  20  31  47  74 103 136 175 212 251 293
#     4  10  19  33  53  75 100 137 174 209 258 300
#
# _framework density 17.461124999999999
#
# number of rings (size 3 to 8) (size 9 to 14) (size 15 to 20)
#    0.000    1.571    2.857    5.143    2.000    0.000 
#    0.000    0.000    0.000    0.857    0.000    9.000 
#    0.000    0.000    0.000    0.000    0.000    0.000 
#
# Total GULP energy -346881.975097 kJ/mol
# GULP energy per Si atom -12388.641968 kJ/mol
# Density = 1.742138 g / cm^3
# Si number density = 17.461125 Si / 1000 Ang^3
#
#
#
# Elastic Constant Matrix: (Units=GPa)
#
#
# Indices 1 2 3 4 5 6 
#
# 1 76.1152 27.9177 34.7525 0.0135 -6.8765 -0.0066
# 2 27.9177 85.1457 26.3417 0.0120 11.0547 -0.0014
# 3 34.7525 26.3417 88.6091 0.0384 -3.8847 -0.0245
# 4 0.0135 0.0120 0.0384 10.1992 -0.0129 4.1702
# 5 -6.8765 11.0547 -3.8847 -0.0129 41.7103 0.0039
# 6 -0.0066 -0.0014 -0.0245 4.1702 0.0039 16.5581
#
#
#
# Elastic Compliance Matrix: (Units=1/GPa)
#
#
# Indices 1 2 3 4 5 6 
#
# 1 0.017601 -0.004574 -0.005385 0.000009 0.003612 -0.000004
# 2 -0.004574 0.014752 -0.002808 -0.000006 -0.004925 -0.000002
# 3 -0.005385 -0.002808 0.014284 -0.000055 0.001187 0.000032
# 4 0.000009 -0.000006 -0.000055 0.109303 0.000034 -0.027529
# 5 0.003612 -0.004925 0.001187 0.000034 0.025986 -0.000012
# 6 -0.000004 -0.000002 0.000032 -0.027529 -0.000012 0.067326
#
#
# Mechanical properties :
#
#
# Convention : Reuss Voigt Hill
#
# Bulk Modulus (GPa) = 47.38378 47.54377 47.46377
# Shear Modulus (GPa) = 17.74179 24.41740 21.07959
#
# Velocity S-wave (km/s) = 3.19105 3.74356 3.47829
# Velocity P-wave (km/s) = 6.38535 6.78035 6.58581
#
# Compressibility (1/GPa) = 0.02110427
#
# Stress axis : x y z
#
# Youngs Moduli (GPa) = 56.81629 67.78561 70.00767
#
# Poissons Ratio (x) = 0.31005 0.37698
# Poissons Ratio (y) = 0.25988 0.19655
# Poissons Ratio (z) = 0.30595 0.19031
#
# Static dielectric constant tensor:
#      x y z
#    x 3.488790 -0.000040 0.010510 
#    y -0.000040 3.160350 0.000090 
#    z 0.010510 0.000090 3.464560 
# 
# 
# High freq. dielectric constant tensor:
#      x y z
#    x 1.680070 0.000000 0.001850 
#    y 0.000000 1.618930 0.000000 
#    z 0.001850 0.000000 1.678490 
# 
# From -- ./inp_files/170513.got.cif
#   From: 2010.06.25/outbox.cif.g09.slc.cpg/sg12_86_cif.got.tgz:170513.got - 2010.06.28 00:19:55.
