data_PCOD8086416
_publ_section_title
;
Structure prediction by ZEFSAII (Michael W. Deem and Ramdas Pophale) SiO2 
 PCOD8086416
Probable space group: C 2/M
;
_chemical_formula_sum "Si O2"
_cell_formula_units_Z 48
_cell_length_a 17.645219
_cell_length_b 21.085069
_cell_length_c 14.572975
_cell_angle_alpha 90.000000
_cell_angle_beta 29.606361
_cell_angle_gamma 90.000000
_cell_volume 2678.619349
_symmetry_space_group_name_H-M "C 2/M"
_symmetry_group_IT_number 12
_symmetry_cell_setting 'monoclinic'
loop_
_space_group_symop_operation_xyz
x,y,z
-x,y,-z
-x,-y,-z
x,-y,z
1/2+x,1/2+y,z
1/2-x,1/2+y,-z
1/2-x,1/2-y,-z
1/2+x,1/2-y,z
loop_
_atom_site_type_symbol
_atom_site_label
_atom_site_fract_x
_atom_site_fract_y
_atom_site_fract_z
Si Si1 0.782611 0.336989 0.885330
Si Si2 0.334472 0.425823 0.133247
Si Si3 0.354062 0.199454 0.004438
Si Si4 0.663205 0.702767 0.373246
Si Si5 0.867406 0.343004 0.528982
Si Si6 0.803877 0.314817 0.401478
O O1 0.679725 0.393483 0.952090
O O2 0.701493 0.271035 0.949813
O O3 0.948255 0.338536 0.660777
O O4 0.796036 0.344440 0.980981
O O5 0.310305 0.500000 0.146356
O O6 0.200129 0.400001 0.340395
O O7 0.500000 0.408899 0.000000
O O8 0.286372 0.175208 0.171659
O O9 0.535931 0.195994 0.818771
O O10 0.500000 0.690383 0.500000
O O11 0.695838 0.776535 0.363904
O O12 0.683929 0.663570 0.447781
O O13 0.817039 0.359995 0.476624
O O14 0.750000 0.250000 0.500000
#
# Coordination Sequence:
#
# PCOD8086416 Si02
#       6
#     8   8   8   8   8   8
#     4  10  20  33  50  72 100 137 172 219 258 309
#     4  11  24  36  52  76 103 143 185 216 257 305
#     4  10  19  31  49  73 103 134 169 212 264 315
#     4  11  18  29  47  74 103 134 169 200 252 318
#     4  10  19  35  48  70 102 134 177 215 249 311
#     4   9  21  29  45  72  99 137 168 203 260 314
#
# _framework density 17.919678999999999
#
# number of rings (size 3 to 8) (size 9 to 14) (size 15 to 20)
#    0.000    1.833    3.333    1.000    7.000    1.333 
#    0.000    0.000    0.000    0.000    0.000    1.167 
#    0.000    9.333    0.000    0.000    0.000    0.000 
#
# Total GULP energy -297406.203338 kJ/mol
# GULP energy per Si atom -12391.925139 kJ/mol
# Density = 1.787889 g / cm^3
# Si number density = 17.919679 Si / 1000 Ang^3
#
#
#
# Elastic Constant Matrix: (Units=GPa)
#
#
# Indices 1 2 3 4 5 6 
#
# 1 150.8363 35.3567 45.3013 0.0029 0.5697 -0.0025
# 2 35.3567 53.2923 18.1840 -0.0026 -0.9297 -0.0019
# 3 45.3013 18.1840 78.3172 -0.0074 13.1827 0.0022
# 4 0.0029 -0.0026 -0.0074 17.4732 0.0010 -0.3504
# 5 0.5697 -0.9297 13.1827 0.0010 26.3727 0.0029
# 6 -0.0025 -0.0019 0.0022 -0.3504 0.0029 21.1359
#
#
#
# Elastic Compliance Matrix: (Units=1/GPa)
#
#
# Indices 1 2 3 4 5 6 
#
# 1 0.009009 -0.004406 -0.004509 -0.000004 0.001904 0.000001
# 2 -0.004406 0.022811 -0.003166 0.000003 0.002482 0.000002
# 3 -0.004509 -0.003166 0.017594 0.000008 -0.008809 -0.000001
# 4 -0.000004 0.000003 0.000008 0.057249 -0.000006 0.000949
# 5 0.001904 0.002482 -0.008809 -0.000006 0.042368 -0.000005
# 6 0.000001 0.000002 -0.000001 0.000949 -0.000005 0.047329
#
#
# Mechanical properties :
#
#
# Convention : Reuss Voigt Hill
#
# Bulk Modulus (GPa) = 39.59721 53.34778 46.47250
# Shear Modulus (GPa) = 21.83991 25.23662 23.53826
#
# Velocity S-wave (km/s) = 3.49487 3.75683 3.62821
# Velocity P-wave (km/s) = 6.19924 6.97520 6.59864
#
# Compressibility (1/GPa) = 0.02525430
#
# Stress axis : x y z
#
# Youngs Moduli (GPa) = 110.99550 43.83893 56.83601
#
# Poissons Ratio (x) = 0.19313 0.25627
# Poissons Ratio (y) = 0.48900 0.17993
# Poissons Ratio (z) = 0.50047 0.13878
#
# Static dielectric constant tensor:
#      x y z
#    x 4.209890 -0.000010 0.238820 
#    y -0.000010 2.736270 0.000070 
#    z 0.238820 0.000070 3.505720 
# 
# 
# High freq. dielectric constant tensor:
#      x y z
#    x 1.726770 0.000000 0.002180 
#    y 0.000000 1.609890 0.000000 
#    z 0.002180 0.000000 1.704250 
# 
# From -- ./inp_files/77018.got.cif
#   From: 2010.06.25/outbox.cif.g09.slc.cpg/sg12_39_cif.got.tgz:77018.got - 2010.06.28 00:19:55.
