data_PCOD8086875
_publ_section_title
;
Structure prediction by ZEFSAII (Michael W. Deem and Ramdas Pophale) SiO2 
 PCOD8086875
Probable space group: C 2/M
;
_chemical_formula_sum "Si O2"
_cell_formula_units_Z 48
_cell_length_a 19.305701
_cell_length_b 8.907337
_cell_length_c 29.636489
_cell_angle_alpha 90.000000
_cell_angle_beta 31.265761
_cell_angle_gamma 90.000000
_cell_volume 2645.054383
_symmetry_space_group_name_H-M "C 2/M"
_symmetry_group_IT_number 12
_symmetry_cell_setting 'monoclinic'
loop_
_space_group_symop_operation_xyz
x,y,z
-x,y,-z
-x,-y,-z
x,-y,z
1/2+x,1/2+y,z
1/2-x,1/2+y,-z
1/2-x,1/2-y,-z
1/2+x,1/2-y,z
loop_
_atom_site_type_symbol
_atom_site_label
_atom_site_fract_x
_atom_site_fract_y
_atom_site_fract_z
Si Si1 0.613302 0.820479 0.470591
Si Si2 0.030643 0.673581 0.363926
Si Si3 0.895091 0.176689 0.277390
Si Si4 0.833199 0.172569 0.211592
Si Si5 0.596454 0.821284 0.230598
Si Si6 0.368548 0.825134 0.100967
O O1 0.500000 0.758051 0.500000
O O2 0.578571 0.758476 0.540474
O O3 0.758186 0.760128 0.375430
O O4 0.611022 0.000000 0.470500
O O5 0.999522 0.500000 0.376315
O O6 0.175614 0.699853 0.305072
O O7 0.026105 0.742263 0.315845
O O8 0.901493 0.215286 0.220858
O O9 0.019776 0.259185 0.230197
O O10 0.906680 0.000000 0.279233
O O11 0.893406 0.275932 0.138820
O O12 0.860736 0.000000 0.183296
O O13 0.748244 0.765461 0.144980
O O14 0.598262 0.000000 0.228784
O O15 0.333840 0.000000 0.118849
O O16 0.500000 0.785970 0.000000
#
# Coordination Sequence:
#
# PCOD8086875 Si02
#       6
#     8   8   8   8   8   8
#     4   9  14  24  47  75 102 137 182 220 250 292
#     4   8  14  27  46  71 100 136 180 217 249 293
#     4  10  19  31  51  79 109 142 178 215 254 299
#     4   9  17  31  53  79 106 137 172 210 255 308
#     4  10  21  35  52  75 108 142 172 212 260 308
#     4  10  21  38  60  82 101 125 164 213 261 317
#
# _framework density 18.147075999999998
#
# number of rings (size 3 to 8) (size 9 to 14) (size 15 to 20)
#    0.000    2.667    1.667    2.000    0.000    2.667 
#    0.000    0.833    0.000    4.500    0.000    0.000 
#    0.000    0.000    0.000    0.000    0.000    0.000 
#
# Total GULP energy -297496.648323 kJ/mol
# GULP energy per Si atom -12395.693680 kJ/mol
# Density = 1.810577 g / cm^3
# Si number density = 18.147076 Si / 1000 Ang^3
#
#
#
# Elastic Constant Matrix: (Units=GPa)
#
#
# Indices 1 2 3 4 5 6 
#
# 1 131.4909 39.5806 54.4158 0.0000 -8.3425 0.0013
# 2 39.5806 44.2528 36.3803 0.0001 -0.6008 0.0049
# 3 54.4158 36.3803 105.5090 -0.0001 7.8015 0.0001
# 4 0.0000 0.0001 -0.0001 16.1021 -0.0001 -1.1557
# 5 -8.3425 -0.6008 7.8015 -0.0001 19.3859 -0.0002
# 6 0.0013 0.0049 0.0001 -1.1557 -0.0002 26.8905
#
#
#
# Elastic Compliance Matrix: (Units=1/GPa)
#
#
# Indices 1 2 3 4 5 6 
#
# 1 0.011888 -0.007123 -0.004161 0.000000 0.006570 0.000001
# 2 -0.007123 0.036388 -0.008998 -0.000001 0.001683 -0.000006
# 3 -0.004161 -0.008998 0.015336 0.000000 -0.008241 0.000002
# 4 0.000000 -0.000001 0.000000 0.062296 0.000000 0.002677
# 5 0.006570 0.001683 -0.008241 0.000000 0.057780 0.000000
# 6 0.000001 -0.000006 0.000002 0.002677 0.000000 0.037303
#
#
# Mechanical properties :
#
#
# Convention : Reuss Voigt Hill
#
# Bulk Modulus (GPa) = 43.38644 60.22290 51.80467
# Shear Modulus (GPa) = 18.57103 22.53410 20.55256
#
# Velocity S-wave (km/s) = 3.20247 3.52767 3.36900
# Velocity P-wave (km/s) = 6.13470 7.06050 6.61382
#
# Compressibility (1/GPa) = 0.02304868
#
# Stress axis : x y z
#
# Youngs Moduli (GPa) = 84.11890 27.48131 65.20738
#
# Poissons Ratio (x) = 0.19575 0.27132
# Poissons Ratio (y) = 0.59918 0.58672
# Poissons Ratio (z) = 0.35001 0.24727
#
# Static dielectric constant tensor:
#      x y z
#    x 3.524970 0.000000 0.221300 
#    y 0.000000 2.994060 0.000000 
#    z 0.221300 0.000000 3.344390 
# 
# 
# High freq. dielectric constant tensor:
#      x y z
#    x 1.706700 0.000000 0.012400 
#    y 0.000000 1.668700 0.000000 
#    z 0.012400 0.000000 1.693180 
# 
# From -- ./inp_files/274618.got.cif
#   From: 2010.06.25/outbox.cif.g09.slc.cpg/sg12_138_cif.got.tgz:274618.got - 2010.06.28 00:19:55.
