data_PCOD8086111
_publ_section_title
;
Structure prediction by ZEFSAII (Michael W. Deem and Ramdas Pophale) SiO2 
 PCOD8086111
Probable space group: C 2/M
;
_chemical_formula_sum "Si O2"
_cell_formula_units_Z 64
_cell_length_a 23.084322
_cell_length_b 8.718322
_cell_length_c 22.258601
_cell_angle_alpha 90.000000
_cell_angle_beta 54.706723
_cell_angle_gamma 90.000000
_cell_volume 3656.346547
_symmetry_space_group_name_H-M "C 2/M"
_symmetry_group_IT_number 12
_symmetry_cell_setting 'monoclinic'
loop_
_space_group_symop_operation_xyz
x,y,z
-x,y,-z
-x,-y,-z
x,-y,z
1/2+x,1/2+y,z
1/2-x,1/2+y,-z
1/2-x,1/2-y,-z
1/2+x,1/2-y,z
loop_
_atom_site_type_symbol
_atom_site_label
_atom_site_fract_x
_atom_site_fract_y
_atom_site_fract_z
Si Si1 0.284233 0.680560 0.648726
Si Si2 0.925028 0.679574 0.519315
Si Si3 0.413574 0.677866 0.754472
Si Si4 0.290633 0.676568 0.064373
Si Si5 0.275837 0.182274 0.779490
Si Si6 0.657770 0.678479 0.085342
Si Si7 0.063513 0.823789 0.613995
Si Si8 0.788758 0.176350 0.420386
O O1 0.282116 0.500000 0.647942
O O2 0.364896 0.734813 0.592830
O O3 0.254888 0.739233 0.729814
O O4 0.233463 0.742653 0.627379
O O5 0.914588 0.500000 0.535253
O O6 0.918706 0.718424 0.453236
O O7 0.000000 0.737144 0.500000
O O8 0.401654 0.500000 0.745605
O O9 0.355069 0.773556 0.753333
O O10 0.409060 0.702882 0.830034
O O11 0.491224 0.734009 0.688223
O O12 0.296692 0.500000 0.075023
O O13 0.282406 0.748186 0.136399
O O14 0.218390 0.710326 0.072762
O O15 0.354351 0.723569 0.978955
O O16 0.273244 0.000000 0.773026
O O17 0.682483 0.500000 0.073033
O O18 0.126596 0.805265 0.624125
O O19 0.057554 0.000000 0.596049
O O20 0.750000 0.250000 0.500000
O O21 0.765429 0.000000 0.431094
#
# Coordination Sequence:
#
# PCOD8086111 Si02
#       8
#     8   8   8   8   8   8   8   8
#     4  12  24  37  53  72  95 127 164 205 250 292
#     4  11  23  36  52  74  99 128 160 195 238 291
#     4   9  17  30  48  73 104 134 162 195 238 291
#     4   8  14  24  40  64  95 130 163 194 231 276
#     4  10  19  31  47  71 103 134 164 201 242 287
#     4   8  13  23  41  65  95 130 163 192 227 278
#     4  10  21  35  52  73  97 127 160 198 244 290
#     4  11  22  38  57  75  94 122 163 208 251 292
#
# _framework density 17.503810000000001
#
# number of rings (size 3 to 8) (size 9 to 14) (size 15 to 20)
#    0.000    2.125    1.250    3.000    0.000    4.500 
#    0.000    0.000    0.000    0.000    0.000    0.875 
#    0.000    7.000    0.000    0.000    0.000    0.000 
#
# Total GULP energy -396453.066146 kJ/mol
# GULP energy per Si atom -12389.158317 kJ/mol
# Density = 1.746397 g / cm^3
# Si number density = 17.503810 Si / 1000 Ang^3
#
#
#
# Elastic Constant Matrix: (Units=GPa)
#
#
# Indices 1 2 3 4 5 6 
#
# 1 59.8942 24.1690 26.8948 0.0001 21.2415 -0.0015
# 2 24.1690 65.7444 28.6129 -0.0006 13.1685 -0.0006
# 3 26.8948 28.6129 130.0148 -0.0001 32.7356 0.0002
# 4 0.0001 -0.0006 -0.0001 22.1990 0.0000 4.7925
# 5 21.2415 13.1685 32.7356 0.0000 21.2639 0.0003
# 6 -0.0015 -0.0006 0.0002 4.7925 0.0003 21.6622
#
#
#
# Elastic Compliance Matrix: (Units=1/GPa)
#
#
# Indices 1 2 3 4 5 6 
#
# 1 0.027879 -0.005713 0.002632 -0.000001 -0.028362 0.000002
# 2 -0.005713 0.018803 -0.002386 0.000000 -0.002264 0.000000
# 3 0.002632 -0.002386 0.013002 0.000000 -0.021167 0.000000
# 4 -0.000001 0.000000 0.000000 0.047307 0.000001 -0.010466
# 5 -0.028362 -0.002264 -0.021167 0.000001 0.109349 -0.000004
# 6 0.000002 0.000000 0.000000 -0.010466 -0.000004 0.048479
#
#
# Mechanical properties :
#
#
# Convention : Reuss Voigt Hill
#
# Bulk Modulus (GPa) = 20.51391 46.11188 33.31289
# Shear Modulus (GPa) = 17.12317 24.75681 20.93999
#
# Velocity S-wave (km/s) = 3.13110 3.76489 3.46252
# Velocity P-wave (km/s) = 4.98165 6.73055 5.92103
#
# Compressibility (1/GPa) = 0.04874741
#
# Stress axis : x y z
#
# Youngs Moduli (GPa) = 35.86984 53.18414 76.91271
#
# Poissons Ratio (x) = 0.30385 -0.20240
# Poissons Ratio (y) = 0.20493 0.18353
# Poissons Ratio (z) = -0.09439 0.12691
#
# Static dielectric constant tensor:
#      x y z
#    x 3.001120 0.000000 0.079660 
#    y 0.000000 3.285120 0.000000 
#    z 0.079660 0.000000 3.900060 
# 
# 
# High freq. dielectric constant tensor:
#      x y z
#    x 1.626780 0.000000 0.012280 
#    y 0.000000 1.680310 0.000000 
#    z 0.012280 0.000000 1.698900 
# 
# From -- ./inp_files/323600.got.cif
#   From: 2010.06.25/outbox.cif.g09.slc.cpg/sg12_162_cif.got.tgz:323600.got - 2010.06.28 00:19:55.
