data_PCOD8086169
_publ_section_title
;
Structure prediction by ZEFSAII (Michael W. Deem and Ramdas Pophale) SiO2 
 PCOD8086169
Probable space group: C 2/M
;
_chemical_formula_sum "Si O2"
_cell_formula_units_Z 64
_cell_length_a 18.887839
_cell_length_b 8.996610
_cell_length_c 21.068228
_cell_angle_alpha 90.000000
_cell_angle_beta 92.957484
_cell_angle_gamma 90.000000
_cell_volume 3575.282406
_symmetry_space_group_name_H-M "C 2/M"
_symmetry_group_IT_number 12
_symmetry_cell_setting 'monoclinic'
loop_
_space_group_symop_operation_xyz
x,y,z
-x,y,-z
-x,-y,-z
x,-y,z
1/2+x,1/2+y,z
1/2-x,1/2+y,-z
1/2-x,1/2-y,-z
1/2+x,1/2-y,z
loop_
_atom_site_type_symbol
_atom_site_label
_atom_site_fract_x
_atom_site_fract_y
_atom_site_fract_z
Si Si1 0.279877 0.828841 0.633659
Si Si2 0.513147 0.669815 0.353401
Si Si3 0.174607 0.176795 0.011065
Si Si4 0.409390 0.826597 0.881268
Si Si5 0.870344 0.828851 0.407772
Si Si6 0.537937 0.336690 0.934763
Si Si7 0.106779 0.674328 0.264174
Si Si8 0.895931 0.672024 0.539269
O O1 0.202081 0.756592 0.623426
O O2 0.325249 0.760199 0.694225
O O3 0.319892 0.804647 0.568964
O O4 0.269372 0.000000 0.649710
O O5 0.538541 0.500000 0.353377
O O6 0.428260 0.682730 0.354712
O O7 0.536710 0.747853 0.289097
O O8 0.544722 0.746852 0.416974
O O9 0.143742 0.238113 0.075684
O O10 0.183196 0.000000 0.017403
O O11 0.250000 0.250000 0.000000
O O12 0.119041 0.217071 0.951546
O O13 0.492107 0.777221 0.890488
O O14 0.383724 0.790677 0.809194
O O15 0.404815 0.000000 0.897523
O O16 0.895384 0.738106 0.469556
O O17 0.858607 0.000000 0.428182
O O18 0.538457 0.500000 0.902117
O O19 0.500000 0.350381 0.000000
O O20 0.097746 0.500000 0.276738
O O21 0.916573 0.500000 0.536395
#
# Coordination Sequence:
#
# PCOD8086169 Si02
#       8
#     8   8   8   8   8   8   8   8
#     4   8  16  32  50  67  92 126 162 199 240 288
#     4  10  20  32  48  70  95 124 160 203 246 290
#     4  10  20  34  53  79 111 140 167 205 251 296
#     4  10  19  32  54  79 102 134 173 209 248 298
#     4  10  19  31  48  70  94 120 155 201 249 295
#     4   8  16  31  50  74 103 134 168 205 243 285
#     4   9  19  36  54  71  95 129 167 203 240 288
#     4  10  19  31  49  70  93 124 158 196 247 303
#
# _framework density 17.900683999999998
#
# number of rings (size 3 to 8) (size 9 to 14) (size 15 to 20)
#    0.000    2.625    0.000    3.750    0.000    6.250 
#    0.000    3.750    0.000    3.000    0.000    0.000 
#    0.000    0.000    0.000    0.000    0.000    0.000 
#
# Total GULP energy -396655.364036 kJ/mol
# GULP energy per Si atom -12395.480126 kJ/mol
# Density = 1.785994 g / cm^3
# Si number density = 17.900684 Si / 1000 Ang^3
#
#
#
# Elastic Constant Matrix: (Units=GPa)
#
#
# Indices 1 2 3 4 5 6 
#
# 1 117.5637 43.6805 33.8891 0.0000 -7.7113 0.0000
# 2 43.6805 82.9696 43.6347 0.0000 -3.2041 0.0000
# 3 33.8891 43.6347 78.7049 0.0000 -4.2787 0.0000
# 4 0.0000 0.0000 0.0000 25.8681 0.0000 -1.2947
# 5 -7.7113 -3.2041 -4.2787 0.0000 12.4224 0.0000
# 6 0.0000 0.0000 0.0000 -1.2947 0.0000 25.6371
#
#
#
# Elastic Compliance Matrix: (Units=1/GPa)
#
#
# Indices 1 2 3 4 5 6 
#
# 1 0.011120 -0.004638 -0.001943 0.000000 0.005037 0.000000
# 2 -0.004638 0.018964 -0.008568 0.000000 -0.000939 0.000000
# 3 -0.001943 -0.008568 0.018452 0.000000 0.002940 0.000000
# 4 0.000000 0.000000 0.000000 0.038756 0.000000 0.001957
# 5 0.005037 -0.000939 0.002940 0.000000 0.084397 0.000000
# 6 0.000000 0.000000 0.000000 0.001957 0.000000 0.039105
#
#
# Mechanical properties :
#
#
# Convention : Reuss Voigt Hill
#
# Bulk Modulus (GPa) = 54.82838 57.96075 56.39457
# Shear Modulus (GPa) = 20.22902 23.32112 21.77507
#
# Velocity S-wave (km/s) = 3.36530 3.61336 3.49153
# Velocity P-wave (km/s) = 6.76728 7.06101 6.91570
#
# Compressibility (1/GPa) = 0.01823873
#
# Stress axis : x y z
#
# Youngs Moduli (GPa) = 89.93093 52.73177 54.19426
#
# Poissons Ratio (x) = 0.24456 0.10529
# Poissons Ratio (y) = 0.41708 0.46433
# Poissons Ratio (z) = 0.17472 0.45180
#
# Static dielectric constant tensor:
#      x y z
#    x 3.668860 0.000000 0.218490 
#    y 0.000000 3.318270 0.000000 
#    z 0.218490 0.000000 3.160220 
# 
# 
# High freq. dielectric constant tensor:
#      x y z
#    x 1.697320 0.000000 0.006200 
#    y 0.000000 1.688980 0.000000 
#    z 0.006200 0.000000 1.669030 
# 
# From -- ./inp_files/341985.got.cif
#   From: 2010.06.25/outbox.cif.g09.slc.cpg/sg12_171_cif.got.tgz:341985.got - 2010.06.28 00:19:55.
