data_PCOD8086420
_publ_section_title
;
Structure prediction by ZEFSAII (Michael W. Deem and Ramdas Pophale) SiO2 
 PCOD8086420
Probable space group: C 2/M
;
_chemical_formula_sum "Si O2"
_cell_formula_units_Z 40
_cell_length_a 27.651842
_cell_length_b 8.795741
_cell_length_c 19.476751
_cell_angle_alpha 90.000000
_cell_angle_beta 152.429241
_cell_angle_gamma 90.000000
_cell_volume 2192.539203
_symmetry_space_group_name_H-M "C 2/M"
_symmetry_group_IT_number 12
_symmetry_cell_setting 'monoclinic'
loop_
_space_group_symop_operation_xyz
x,y,z
-x,y,-z
-x,-y,-z
x,-y,z
1/2+x,1/2+y,z
1/2-x,1/2+y,-z
1/2-x,1/2-y,-z
1/2+x,1/2-y,z
loop_
_atom_site_type_symbol
_atom_site_label
_atom_site_fract_x
_atom_site_fract_y
_atom_site_fract_z
Si Si1 0.241203 0.823502 0.328197
Si Si2 0.937716 0.677821 0.656175
Si Si3 0.829736 0.319779 0.047222
Si Si4 0.938941 0.322102 0.812525
Si Si5 0.656696 0.324776 0.077551
O O1 0.351733 0.756888 0.495034
O O2 0.149385 0.727275 0.246260
O O3 0.238668 0.803182 0.242954
O O4 0.226913 0.000000 0.331128
O O5 0.945338 0.500000 0.654777
O O6 0.902481 0.717732 0.689266
O O7 0.053930 0.743559 0.788435
O O8 0.824156 0.500000 0.043965
O O9 0.750000 0.250000 0.000000
O O10 0.800364 0.269315 0.933139
O O11 0.962171 0.500000 0.849794
O O12 0.044913 0.233575 0.963385
O O13 0.646988 0.500000 0.043901
#
# Coordination Sequence:
#
# PCOD8086420 Si02
#       5
#     8   8   8   8   8
#     4  10  19  32  50  73 103 135 168 206 245 289
#     4   8  17  33  51  73  99 130 169 207 244 289
#     4  10  20  37  59  77  96 125 163 207 252 300
#     4  10  19  31  49  73 104 140 172 203 242 291
#     4  10  20  33  51  75 101 132 169 206 245 292
#
# _framework density 18.243687000000001
#
# number of rings (size 3 to 8) (size 9 to 14) (size 15 to 20)
#    0.000    2.400    0.000    4.200    0.000    4.000 
#    0.000    6.000    0.000    6.000    0.000    0.000 
#    0.000    0.000    0.000    0.000    0.000    0.000 
#
# Total GULP energy -247971.643953 kJ/mol
# GULP energy per Si atom -12398.582198 kJ/mol
# Density = 1.820216 g / cm^3
# Si number density = 18.243687 Si / 1000 Ang^3
#
#
#
# Elastic Constant Matrix: (Units=GPa)
#
#
# Indices 1 2 3 4 5 6 
#
# 1 117.8583 33.5216 46.9409 0.0000 3.1246 0.0000
# 2 33.5216 65.8365 28.4235 0.0000 -3.5391 0.0000
# 3 46.9409 28.4235 99.9946 0.0000 -21.5545 0.0000
# 4 0.0000 0.0000 0.0000 21.2821 0.0000 -0.6469
# 5 3.1246 -3.5391 -21.5545 0.0000 19.3756 0.0000
# 6 0.0000 0.0000 0.0000 -0.6469 0.0000 33.2497
#
#
#
# Elastic Compliance Matrix: (Units=1/GPa)
#
#
# Indices 1 2 3 4 5 6 
#
# 1 0.012763 -0.003976 -0.007184 0.000000 -0.010776 0.000000
# 2 -0.003976 0.018690 -0.003383 0.000000 0.000291 0.000000
# 3 -0.007184 -0.003383 0.019010 0.000000 0.021688 0.000000
# 4 0.000000 0.000000 0.000000 0.047016 0.000000 0.000915
# 5 -0.010776 0.000291 0.021688 0.000000 0.077529 0.000000
# 6 0.000000 0.000000 0.000000 0.000915 0.000000 0.030093
#
#
# Mechanical properties :
#
#
# Convention : Reuss Voigt Hill
#
# Bulk Modulus (GPa) = 46.78243 55.71793 51.25018
# Shear Modulus (GPa) = 20.72010 26.43503 23.57757
#
# Velocity S-wave (km/s) = 3.37373 3.81070 3.59885
# Velocity P-wave (km/s) = 6.39334 7.06888 6.73958
#
# Compressibility (1/GPa) = 0.02137555
#
# Stress axis : x y z
#
# Youngs Moduli (GPa) = 78.35449 53.50468 52.60521
#
# Poissons Ratio (x) = 0.21274 0.37791
# Poissons Ratio (y) = 0.31154 0.17798
# Poissons Ratio (z) = 0.56288 0.18103
#
# Static dielectric constant tensor:
#      x y z
#    x 3.229000 0.000000 -0.020550 
#    y 0.000000 3.290670 0.000000 
#    z -0.020550 0.000000 3.808860 
# 
# 
# High freq. dielectric constant tensor:
#      x y z
#    x 1.692980 0.000000 -0.010360 
#    y 0.000000 1.699760 0.000000 
#    z -0.010360 0.000000 1.710230 
# 
# From -- ./inp_files/151933.got.cif
#   From: 2010.06.25/outbox.cif.g09.slc.cpg/sg12_76_cif.got.tgz:151933.got - 2010.06.28 00:19:55.
