data_PCOD8086188
_publ_section_title
;
Structure prediction by ZEFSAII (Michael W. Deem and Ramdas Pophale) SiO2 
 PCOD8086188
Probable space group: C 2/M
;
_chemical_formula_sum "Si O2"
_cell_formula_units_Z 64
_cell_length_a 28.252780
_cell_length_b 9.041646
_cell_length_c 15.350464
_cell_angle_alpha 90.000000
_cell_angle_beta 92.217209
_cell_angle_gamma 90.000000
_cell_volume 3918.365415
_symmetry_space_group_name_H-M "C 2/M"
_symmetry_group_IT_number 12
_symmetry_cell_setting 'monoclinic'
loop_
_space_group_symop_operation_xyz
x,y,z
-x,y,-z
-x,-y,-z
x,-y,z
1/2+x,1/2+y,z
1/2-x,1/2+y,-z
1/2-x,1/2-y,-z
1/2+x,1/2-y,z
loop_
_atom_site_type_symbol
_atom_site_label
_atom_site_fract_x
_atom_site_fract_y
_atom_site_fract_z
Si Si1 0.549249 0.826737 0.185152
Si Si2 0.392016 0.828564 0.331870
Si Si3 0.293046 0.170769 0.401407
Si Si4 0.060279 0.329199 0.842757
Si Si5 0.105647 0.175512 0.342741
Si Si6 0.556056 0.666394 0.012920
Si Si7 0.801730 0.327573 0.602904
Si Si8 0.946878 0.174668 0.486855
O O1 0.493510 0.791795 0.187805
O O2 0.573771 0.741235 0.264824
O O3 0.570950 0.765411 0.096439
O O4 0.560105 0.000000 0.192362
O O5 0.336994 0.789165 0.342446
O O6 0.405238 0.787503 0.234146
O O7 0.425170 0.736941 0.397477
O O8 0.401497 0.000000 0.352423
O O9 0.249301 0.271203 0.367899
O O10 0.307872 0.208430 0.501255
O O11 0.277946 0.000000 0.392637
O O12 0.064254 0.500000 0.869374
O O13 0.078023 0.234840 0.926561
O O14 0.158405 0.240647 0.340498
O O15 0.083231 0.227385 0.432436
O O16 0.107311 0.000000 0.333451
O O17 0.575336 0.500000 0.026692
O O18 0.500000 0.668121 0.000000
O O19 0.806434 0.500000 0.623596
O O20 0.000000 0.236470 0.500000
O O21 0.946956 0.000000 0.478952
#
# Coordination Sequence:
#
# PCOD8086188 Si02
#       8
#     8   8   8   8   8   8   8   8
#     4  10  19  31  48  70  97 128 163 200 237 281
#     4  10  19  32  49  70  95 126 162 198 236 282
#     4   9  18  32  49  69  93 121 157 201 245 284
#     4   9  18  31  48  71  98 128 161 198 238 280
#     4  11  21  32  47  68  96 128 162 199 240 284
#     4   9  17  30  48  69  94 125 160 199 241 281
#     4  10  19  32  50  69  91 121 160 202 244 286
#     4  10  21  33  44  63  95 132 165 196 231 275
#
# _framework density 16.333341999999998
#
# number of rings (size 3 to 8) (size 9 to 14) (size 15 to 20)
#    0.000    2.250    1.250    2.250    0.000    4.250 
#    0.000    0.000    0.000    0.000    0.000    0.875 
#    0.000    0.000    0.000    0.000    0.000    0.000 
#
# Total GULP energy -396882.927551 kJ/mol
# GULP energy per Si atom -12402.591486 kJ/mol
# Density = 1.629617 g / cm^3
# Si number density = 16.333342 Si / 1000 Ang^3
#
#
#
# Elastic Constant Matrix: (Units=GPa)
#
#
# Indices 1 2 3 4 5 6 
#
# 1 83.9249 36.6468 37.2357 0.0000 -13.2196 0.0000
# 2 36.6468 66.0145 32.7764 0.0000 -1.3419 0.0000
# 3 37.2357 32.7764 61.9688 0.0000 -23.5356 0.0000
# 4 0.0000 0.0000 0.0000 29.9650 0.0000 4.6746
# 5 -13.2196 -1.3419 -23.5356 0.0000 13.1763 0.0000
# 6 0.0000 0.0000 0.0000 4.6746 0.0000 22.0171
#
#
#
# Elastic Compliance Matrix: (Units=1/GPa)
#
#
# Indices 1 2 3 4 5 6 
#
# 1 0.019781 -0.014692 0.008876 0.000000 0.034203 0.000000
# 2 -0.014692 0.062017 -0.084495 0.000000 -0.159350 0.000000
# 3 0.008876 -0.084495 0.172913 0.000000 0.309159 0.000000
# 4 0.000000 0.000000 0.000000 0.034516 0.000000 -0.007328
# 5 0.034203 -0.159350 0.309159 0.000000 0.646203 0.000000
# 6 0.000000 0.000000 0.000000 -0.007328 0.000000 0.046975
#
#
# Mechanical properties :
#
#
# Convention : Reuss Voigt Hill
#
# Bulk Modulus (GPa) = 13.49753 47.24734 30.37244
# Shear Modulus (GPa) = 4.20973 20.04830 12.12902
#
# Velocity S-wave (km/s) = 1.60717 3.50729 2.72801
# Velocity P-wave (km/s) = 3.42428 6.73730 5.34401
#
# Compressibility (1/GPa) = 0.07408764
#
# Stress axis : x y z
#
# Youngs Moduli (GPa) = 50.55434 16.12452 5.78326
#
# Poissons Ratio (x) = 0.23691 -0.05133
# Poissons Ratio (y) = 0.74277 0.48866
# Poissons Ratio (z) = -0.44870 1.36244
#
# Static dielectric constant tensor:
#      x y z
#    x 3.013310 0.000000 -0.133230 
#    y 0.000000 3.141650 0.000000 
#    z -0.133230 0.000000 3.028420 
# 
# 
# High freq. dielectric constant tensor:
#      x y z
#    x 1.609360 0.000000 -0.005790 
#    y 0.000000 1.637910 0.000000 
#    z -0.005790 0.000000 1.615070 
# 
# From -- ./inp_files/244094.got.cif
#   From: 2010.06.25/outbox.cif.g09.slc.cpg/sg12_123_cif.got.tgz:244094.got - 2010.06.28 00:19:55.
