data_PCOD8086137
_publ_section_title
;
Structure prediction by ZEFSAII (Michael W. Deem and Ramdas Pophale) SiO2 
 PCOD8086137
Probable space group: C 2/M
;
_chemical_formula_sum "Si O2"
_cell_formula_units_Z 64
_cell_length_a 18.748965
_cell_length_b 9.261229
_cell_length_c 20.676133
_cell_angle_alpha 90.000000
_cell_angle_beta 90.381078
_cell_angle_gamma 90.000000
_cell_volume 3590.092451
_symmetry_space_group_name_H-M "C 2/M"
_symmetry_group_IT_number 12
_symmetry_cell_setting 'monoclinic'
loop_
_space_group_symop_operation_xyz
x,y,z
-x,y,-z
-x,-y,-z
x,-y,z
1/2+x,1/2+y,z
1/2-x,1/2+y,-z
1/2-x,1/2-y,-z
1/2+x,1/2-y,z
loop_
_atom_site_type_symbol
_atom_site_label
_atom_site_fract_x
_atom_site_fract_y
_atom_site_fract_z
Si Si1 0.085806 0.162467 0.070990
Si Si2 0.833821 0.165865 0.440387
Si Si3 0.083857 0.838015 0.928222
Si Si4 0.417331 0.161545 0.192249
Si Si5 0.411607 0.331182 0.681812
Si Si6 0.412732 0.162676 0.808151
Si Si7 0.421860 0.333410 0.316764
Si Si8 0.167652 0.333181 0.431618
O O1 0.117921 0.268429 0.125665
O O2 0.001014 0.162592 0.074969
O O3 0.113828 0.000000 0.083595
O O4 0.109430 0.215925 0.999446
O O5 0.880375 0.218103 0.380093
O O6 0.855571 0.267965 0.499729
O O7 0.751619 0.184613 0.421324
O O8 0.850871 0.000000 0.459069
O O9 0.115118 0.735615 0.872339
O O10 0.111846 0.000000 0.915992
O O11 0.502293 0.162984 0.189644
O O12 0.391345 0.245104 0.255810
O O13 0.387091 0.000000 0.195257
O O14 0.393023 0.500000 0.684429
O O15 0.385324 0.258014 0.748113
O O16 0.495059 0.303969 0.671280
O O17 0.370843 0.257111 0.623382
O O18 0.383142 0.000000 0.801284
O O19 0.406905 0.500000 0.301478
O O20 0.143973 0.500000 0.428547
#
# Coordination Sequence:
#
# PCOD8086137 Si02
#       8
#     8   8   8   8   8   8   8   8
#     4   8  13  21  33  50  74 109 151 187 220 262
#     4   9  19  36  54  70  90 119 153 185 221 268
#     4   8  13  21  33  49  74 111 151 185 218 264
#     4   9  16  24  36  57  85 114 145 185 230 269
#     4  10  19  31  48  68  92 122 154 187 223 268
#     4   9  16  25  37  56  84 115 147 185 228 269
#     4   9  18  32  49  67  89 121 157 188 220 265
#     4  10  20  34  52  72  94 118 146 185 229 270
#
# _framework density 17.826839
#
# number of rings (size 3 to 8) (size 9 to 14) (size 15 to 20)
#    0.000    3.000    0.000    2.250    0.000    5.500 
#    0.000    5.000    0.000    0.000    0.000    0.000 
#    0.000    1.000    0.000    3.000    0.000    5.750 
#
# Total GULP energy -396715.794907 kJ/mol
# GULP energy per Si atom -12397.368591 kJ/mol
# Density = 1.778626 g / cm^3
# Si number density = 17.826839 Si / 1000 Ang^3
#
#
#
# Elastic Constant Matrix: (Units=GPa)
#
#
# Indices 1 2 3 4 5 6 
#
# 1 16.9737 26.5248 36.9961 0.0000 2.8029 0.0000
# 2 26.5248 139.9539 107.0037 0.0000 4.7659 0.0000
# 3 36.9961 107.0037 185.3673 0.0000 7.0104 0.0000
# 4 0.0000 0.0000 0.0000 34.0098 0.0000 4.6236
# 5 2.8029 4.7659 7.0104 0.0000 -3.7260 0.0000
# 6 0.0000 0.0000 0.0000 4.6236 0.0000 14.6579
#
#
#
# Elastic Compliance Matrix: (Units=1/GPa)
#
#
# Indices 1 2 3 4 5 6 
#
# 1 0.103005 -0.007131 -0.017763 0.000000 0.034943 0.000000
# 2 -0.007131 0.013263 -0.006228 0.000000 -0.000118 0.000000
# 3 -0.017763 -0.006228 0.012455 0.000000 0.002106 0.000000
# 4 0.000000 0.000000 0.000000 0.030721 0.000000 -0.009690
# 5 0.034943 -0.000118 0.002106 0.000000 -0.238286 0.000000
# 6 0.000000 0.000000 0.000000 -0.009690 0.000000 0.071279
#
#
# Mechanical properties :
#
#
# Convention : Reuss Voigt Hill
#
# Bulk Modulus (GPa) = 15.04247 75.92713 45.48480
# Shear Modulus (GPa) = 65.06975 20.43969 42.75472
#
# Velocity S-wave (km/s) = 6.04816 3.38978 4.90259
# Velocity P-wave (km/s) = 7.56506 7.61608 7.59061
#
# Compressibility (1/GPa) = 0.06647843
#
# Stress axis : x y z
#
# Youngs Moduli (GPa) = 9.70828 75.40020 80.28585
#
# Poissons Ratio (x) = 0.53767 1.42613
# Poissons Ratio (y) = 0.06923 0.50003
# Poissons Ratio (z) = 0.17245 0.46961
#
# Static dielectric constant tensor:
#      x y z
#    x 2.731440 0.000000 -0.053360 
#    y 0.000000 3.493340 0.000000 
#    z -0.053360 0.000000 3.591970 
# 
# 
# High freq. dielectric constant tensor:
#      x y z
#    x 1.621080 0.000000 0.000150 
#    y 0.000000 1.697640 0.000000 
#    z 0.000150 0.000000 1.707790 
# 
# From -- ./inp_files/287701.got.cif
#   From: 2010.06.25/outbox.cif.g09.slc.cpg/sg12_144_cif.got.tgz:287701.got - 2010.06.28 00:19:55.
