data_PCOD8086355
_publ_section_title
;
Structure prediction by ZEFSAII (Michael W. Deem and Ramdas Pophale) SiO2 
 PCOD8086355
Probable space group: C 2/M
;
_chemical_formula_sum "Si O2"
_cell_formula_units_Z 56
_cell_length_a 27.659744
_cell_length_b 9.473333
_cell_length_c 25.680730
_cell_angle_alpha 90.000000
_cell_angle_beta 27.181137
_cell_angle_gamma 90.000000
_cell_volume 3073.896614
_symmetry_space_group_name_H-M "C 2/M"
_symmetry_group_IT_number 12
_symmetry_cell_setting 'monoclinic'
loop_
_space_group_symop_operation_xyz
x,y,z
-x,y,-z
-x,-y,-z
x,-y,z
1/2+x,1/2+y,z
1/2-x,1/2+y,-z
1/2-x,1/2-y,-z
1/2+x,1/2-y,z
loop_
_atom_site_type_symbol
_atom_site_label
_atom_site_fract_x
_atom_site_fract_y
_atom_site_fract_z
Si Si1 0.762246 0.667759 0.834885
Si Si2 0.941036 0.661505 0.308989
Si Si3 0.855963 0.333934 0.498650
Si Si4 0.184845 0.660309 0.102128
Si Si5 0.467557 0.668124 0.974523
Si Si6 0.525156 0.168561 0.418897
Si Si7 0.883958 0.166333 0.261993
O O1 0.758816 0.500000 0.837269
O O2 0.788378 0.723189 0.867180
O O3 0.856389 0.721462 0.707428
O O4 0.649244 0.729294 0.925259
O O5 0.909888 0.500000 0.325461
O O6 0.873176 0.721847 0.423011
O O7 0.923411 0.757150 0.275821
O O8 0.061583 0.672674 0.210367
O O9 0.875217 0.500000 0.478021
O O10 0.940646 0.268987 0.458218
O O11 0.738607 0.295616 0.630786
O O12 0.224066 0.500000 0.060145
O O13 0.250000 0.750000 0.000000
O O14 0.466982 0.500000 0.975971
O O15 0.549310 0.720413 0.851780
O O16 0.500000 0.727784 0.000000
O O17 0.500000 0.228906 0.500000
O O18 0.518552 0.000000 0.424529
O O19 0.899741 0.000000 0.255516
#
# Coordination Sequence:
#
# PCOD8086355 Si02
#       7
#     8   8   8   8   8   8   8
#     4   9  16  28  43  63  94 126 156 193 239 288
#     4  10  19  33  50  70  99 132 164 198 242 292
#     4   9  17  30  46  69  99 128 161 200 243 287
#     4  10  19  31  49  71  98 130 162 198 239 285
#     4   9  18  29  43  66  97 129 156 191 244 292
#     4   9  16  25  43  68  94 126 161 197 240 290
#     4  10  20  32  49  73 101 129 162 204 240 283
#
# _framework density 18.217918000000001
#
# number of rings (size 3 to 8) (size 9 to 14) (size 15 to 20)
#    0.000    2.571    1.429    1.286    2.000    1.714 
#    0.000    0.000    0.000    0.429    0.000    0.000 
#    0.000    2.857    0.000    0.000    0.000    0.000 
#
# Total GULP energy -347117.145231 kJ/mol
# GULP energy per Si atom -12397.040901 kJ/mol
# Density = 1.817645 g / cm^3
# Si number density = 18.217918 Si / 1000 Ang^3
#
#
#
# Elastic Constant Matrix: (Units=GPa)
#
#
# Indices 1 2 3 4 5 6 
#
# 1 152.4545 24.3247 90.3462 -0.0049 14.8505 0.0027
# 2 24.3247 19.7889 24.1422 -0.0108 3.1053 0.0013
# 3 90.3462 24.1422 172.4428 -0.0056 15.7851 0.0021
# 4 -0.0049 -0.0108 -0.0056 13.9572 0.0018 1.6082
# 5 14.8505 3.1053 15.7851 0.0018 37.4905 0.0006
# 6 0.0027 0.0013 0.0021 1.6082 0.0006 19.4318
#
#
#
# Elastic Compliance Matrix: (Units=1/GPa)
#
#
# Indices 1 2 3 4 5 6 
#
# 1 0.010435 -0.007331 -0.004283 -0.000003 -0.001723 0.000000
# 2 -0.007331 0.066176 -0.005396 0.000047 -0.000306 -0.000007
# 3 -0.004283 -0.005396 0.008947 -0.000002 -0.001624 0.000000
# 4 -0.000003 0.000047 -0.000002 0.072338 -0.000005 -0.005987
# 5 -0.001723 -0.000306 -0.001624 -0.000005 0.028065 0.000000
# 6 0.000000 -0.000007 0.000000 -0.005987 0.000000 0.051958
#
#
# Mechanical properties :
#
#
# Convention : Reuss Voigt Hill
#
# Bulk Modulus (GPa) = 19.40328 69.14581 44.27455
# Shear Modulus (GPa) = 17.29405 27.90078 22.59742
#
# Velocity S-wave (km/s) = 3.08439 3.91769 3.52575
# Velocity P-wave (km/s) = 4.83306 7.64863 6.39766
#
# Compressibility (1/GPa) = 0.05153767
#
# Stress axis : x y z
#
# Youngs Moduli (GPa) = 95.83078 15.11132 111.76909
#
# Poissons Ratio (x) = 0.11078 0.47871
# Poissons Ratio (y) = 0.70256 0.60307
# Poissons Ratio (z) = 0.41045 0.08154
#
# Static dielectric constant tensor:
#      x y z
#    x 3.572730 -0.000010 0.010630 
#    y -0.000010 2.708470 0.000010 
#    z 0.010630 0.000010 3.625420 
# 
# 
# High freq. dielectric constant tensor:
#      x y z
#    x 1.719020 0.000000 0.000440 
#    y 0.000000 1.628830 0.000000 
#    z 0.000440 0.000000 1.727670 
# 
# From -- ./inp_files/181926.got.cif
#   From: 2010.06.25/outbox.cif.g09.slc.cpg/sg12_91_cif.got.tgz:181926.got - 2010.06.28 00:19:55.
