data_PCOD8086354
_publ_section_title
;
Structure prediction by ZEFSAII (Michael W. Deem and Ramdas Pophale) SiO2 
 PCOD8086354
Probable space group: C 2/M
;
_chemical_formula_sum "Si O2"
_cell_formula_units_Z 48
_cell_length_a 28.627128
_cell_length_b 7.747399
_cell_length_c 12.572220
_cell_angle_alpha 90.000000
_cell_angle_beta 85.769787
_cell_angle_gamma 90.000000
_cell_volume 2780.743434
_symmetry_space_group_name_H-M "C 2/M"
_symmetry_group_IT_number 12
_symmetry_cell_setting 'monoclinic'
loop_
_space_group_symop_operation_xyz
x,y,z
-x,y,-z
-x,-y,-z
x,-y,z
1/2+x,1/2+y,z
1/2-x,1/2+y,-z
1/2-x,1/2-y,-z
1/2+x,1/2-y,z
loop_
_atom_site_type_symbol
_atom_site_label
_atom_site_fract_x
_atom_site_fract_y
_atom_site_fract_z
Si Si1 0.803563 0.200192 0.489600
Si Si2 0.440542 0.500000 0.116911
Si Si3 0.204478 0.205458 0.740130
Si Si4 0.456543 0.500000 0.865105
Si Si5 0.876032 0.307380 0.101573
Si Si6 0.309500 0.804433 0.712323
Si Si7 0.388588 0.201464 0.854464
O O1 0.750000 0.250000 0.500000
O O2 0.821000 0.254913 0.368470
O O3 0.827969 0.292561 0.586491
O O4 0.811189 0.000000 0.506965
O O5 0.488611 0.500000 0.176649
O O6 0.410913 0.670990 0.151181
O O7 0.452466 0.500000 0.991825
O O8 0.175601 0.290987 0.839925
O O9 0.257802 0.280739 0.734390
O O10 0.205614 0.000000 0.751779
O O11 0.433350 0.323735 0.824349
O O12 0.895890 0.500000 0.117824
O O13 0.870683 0.271697 0.977414
O O14 0.347787 0.723435 0.784989
O O15 0.304946 0.000000 0.748349
O O16 0.401603 0.000000 0.829681
#
# Coordination Sequence:
#
# PCOD8086354 Si02
#       7
#     8   4   8   4   8   8   8
#     4   9  17  28  44  65  91 124 165 205 235 273
#     4   9  18  34  50  71  99 121 163 210 240 286
#     4   9  17  30  45  65  99 133 161 200 237 274
#     4   9  18  32  54  71  91 133 159 198 256 284
#     4  10  19  31  49  71  98 130 160 195 241 291
#     4   9  18  31  46  66  99 132 159 201 238 274
#     4   9  19  33  47  72 102 124 160 200 235 292
#
# _framework density 17.261569999999999
#
# number of rings (size 3 to 8) (size 9 to 14) (size 15 to 20)
#    0.000    2.833    0.833    1.500    1.167    4.667 
#    0.000    3.333    0.000    0.000    0.000    2.333 
#    0.000    4.000    0.000    0.000    0.000    0.000 
#
# Total GULP energy -297351.601877 kJ/mol
# GULP energy per Si atom -12389.650078 kJ/mol
# Density = 1.722228 g / cm^3
# Si number density = 17.261570 Si / 1000 Ang^3
#
#
#
# Elastic Constant Matrix: (Units=GPa)
#
#
# Indices 1 2 3 4 5 6 
#
# 1 100.4595 43.5424 43.7598 0.0000 23.1397 0.0000
# 2 43.5424 75.7914 26.4444 0.0000 11.2337 0.0000
# 3 43.7598 26.4444 69.3833 0.0000 18.6649 0.0000
# 4 0.0000 0.0000 0.0000 20.1613 0.0000 0.0377
# 5 23.1397 11.2337 18.6649 0.0000 11.9048 0.0000
# 6 0.0000 0.0000 0.0000 0.0377 0.0000 19.8277
#
#
#
# Elastic Compliance Matrix: (Units=1/GPa)
#
#
# Indices 1 2 3 4 5 6 
#
# 1 0.020954 -0.006646 -0.002444 0.000000 -0.030625 0.000000
# 2 -0.006646 0.017919 -0.002705 0.000000 0.000251 0.000000
# 3 -0.002444 -0.002705 0.025977 0.000000 -0.033425 0.000000
# 4 0.000000 0.000000 0.000000 0.049600 0.000000 -0.000094
# 5 -0.030625 0.000251 -0.033425 0.000000 0.195695 0.000000
# 6 0.000000 0.000000 0.000000 -0.000094 0.000000 0.050435
#
#
# Mechanical properties :
#
#
# Convention : Reuss Voigt Hill
#
# Bulk Modulus (GPa) = 24.23719 52.56972 38.40345
# Shear Modulus (GPa) = 12.56527 19.17125 15.86826
#
# Velocity S-wave (km/s) = 2.70095 3.33623 3.03526
# Velocity P-wave (km/s) = 4.87837 6.73509 5.88047
#
# Compressibility (1/GPa) = 0.04125891
#
# Stress axis : x y z
#
# Youngs Moduli (GPa) = 47.72469 55.80659 38.49602
#
# Poissons Ratio (x) = 0.37089 0.09408
# Poissons Ratio (y) = 0.31718 0.10415
# Poissons Ratio (z) = 0.11663 0.15098
#
# Static dielectric constant tensor:
#      x y z
#    x 3.201100 0.000000 0.103070 
#    y 0.000000 3.313510 0.000000 
#    z 0.103070 0.000000 3.425460 
# 
# 
# High freq. dielectric constant tensor:
#      x y z
#    x 1.627770 0.000000 0.009350 
#    y 0.000000 1.673530 0.000000 
#    z 0.009350 0.000000 1.652130 
# 
# From -- ./inp_files/179289.got.cif
#   From: 2010.06.25/outbox.cif.g09.slc.cpg/sg12_90_cif.got.tgz:179289.got - 2010.06.28 00:19:55.
