data_PCOD8086680
_publ_section_title
;
Structure prediction by ZEFSAII (Michael W. Deem and Ramdas Pophale) SiO2 
 PCOD8086680
Probable space group: C 2/M
;
_chemical_formula_sum "Si O2"
_cell_formula_units_Z 56
_cell_length_a 18.815369
_cell_length_b 9.172625
_cell_length_c 19.906795
_cell_angle_alpha 90.000000
_cell_angle_beta 61.855381
_cell_angle_gamma 90.000000
_cell_volume 3029.409741
_symmetry_space_group_name_H-M "C 2/M"
_symmetry_group_IT_number 12
_symmetry_cell_setting 'monoclinic'
loop_
_space_group_symop_operation_xyz
x,y,z
-x,y,-z
-x,-y,-z
x,-y,z
1/2+x,1/2+y,z
1/2-x,1/2+y,-z
1/2-x,1/2-y,-z
1/2+x,1/2-y,z
loop_
_atom_site_type_symbol
_atom_site_label
_atom_site_fract_x
_atom_site_fract_y
_atom_site_fract_z
Si Si1 0.820219 0.830377 0.199058
Si Si2 0.718826 0.169348 0.913835
Si Si3 0.502379 0.330807 0.349132
Si Si4 0.363775 0.830793 0.908808
Si Si5 0.081639 0.339352 0.505375
Si Si6 0.017730 0.167594 0.796651
Si Si7 0.153665 0.328462 0.339884
O O1 0.828194 0.737486 0.127788
O O2 0.895831 0.792973 0.211682
O O3 0.740993 0.781908 0.274939
O O4 0.817025 0.000000 0.181146
O O5 0.804911 0.247684 0.883742
O O6 0.735598 0.000000 0.893851
O O7 0.663147 0.196689 0.003033
O O8 0.512743 0.500000 0.360362
O O9 0.429096 0.270511 0.427783
O O10 0.477721 0.299471 0.284062
O O11 0.587045 0.253390 0.325481
O O12 0.453167 0.769508 0.861803
O O13 0.361833 0.000000 0.890401
O O14 0.103377 0.500000 0.524024
O O15 0.148836 0.285637 0.421464
O O16 0.000000 0.347126 0.500000
O O17 0.994291 0.000000 0.820885
O O18 0.137144 0.500000 0.339023
#
# Coordination Sequence:
#
# PCOD8086680 Si02
#       7
#     8   8   8   8   8   8   8
#     4  10  21  37  55  75 104 143 179 210 255 312
#     4  10  21  37  57  82 108 132 168 218 262 303
#     4  10  19  31  50  76 104 132 166 213 263 305
#     4  10  21  37  58  81 105 136 172 211 258 311
#     4   8  15  29  49  73  99 129 168 212 255 302
#     4  10  22  37  52  75 108 142 175 214 258 305
#     4   9  18  33  53  75  99 131 173 215 254 304
#
# _framework density 18.485448999999999
#
# number of rings (size 3 to 8) (size 9 to 14) (size 15 to 20)
#    0.000    2.429    0.000    3.000    0.000    9.429 
#    0.000    3.571    0.000    0.000    0.000    0.000 
#    0.000    0.000    0.000    0.000    0.000    0.000 
#
# Total GULP energy -347242.153159 kJ/mol
# GULP energy per Si atom -12401.505470 kJ/mol
# Density = 1.844337 g / cm^3
# Si number density = 18.485449 Si / 1000 Ang^3
#
#
#
# Elastic Constant Matrix: (Units=GPa)
#
#
# Indices 1 2 3 4 5 6 
#
# 1 113.0402 61.7245 64.8483 0.0000 8.7315 -0.0002
# 2 61.7245 96.4379 63.2275 -0.0001 7.3424 -0.0005
# 3 64.8483 63.2275 103.5136 0.0000 8.0180 0.0000
# 4 0.0000 -0.0001 0.0000 34.6528 0.0000 1.9512
# 5 8.7315 7.3424 8.0180 0.0000 10.5114 -0.0001
# 6 -0.0002 -0.0005 0.0000 1.9512 -0.0001 25.3477
#
#
#
# Elastic Compliance Matrix: (Units=1/GPa)
#
#
# Indices 1 2 3 4 5 6 
#
# 1 0.015830 -0.005865 -0.005987 0.000000 -0.004486 0.000000
# 2 -0.005865 0.019651 -0.008123 0.000000 -0.002659 0.000000
# 3 -0.005987 -0.008123 0.018650 0.000000 -0.003579 0.000000
# 4 0.000000 0.000000 0.000000 0.028983 0.000000 -0.002231
# 5 -0.004486 -0.002659 -0.003579 0.000000 0.103448 0.000000
# 6 0.000000 0.000000 0.000000 -0.002231 0.000000 0.039623
#
#
# Mechanical properties :
#
#
# Convention : Reuss Voigt Hill
#
# Bulk Modulus (GPa) = 70.51649 76.95468 73.73559
# Shear Modulus (GPa) = 18.45947 22.31517 20.38732
#
# Velocity S-wave (km/s) = 3.16348 3.47821 3.32457
# Velocity P-wave (km/s) = 7.18146 7.60597 7.39676
#
# Compressibility (1/GPa) = 0.01418108
#
# Stress axis : x y z
#
# Youngs Moduli (GPa) = 63.17042 50.88677 53.61843
#
# Poissons Ratio (x) = 0.29846 0.32103
# Poissons Ratio (y) = 0.37050 0.43555
# Poissons Ratio (z) = 0.37822 0.41336
#
# Static dielectric constant tensor:
#      x y z
#    x 3.176990 0.000000 -0.047180 
#    y 0.000000 3.433920 0.000000 
#    z -0.047180 0.000000 3.761630 
# 
# 
# High freq. dielectric constant tensor:
#      x y z
#    x 1.691830 0.000000 0.000810 
#    y 0.000000 1.719000 0.000000 
#    z 0.000810 0.000000 1.731930 
# 
# From -- ./inp_files/313667.got.cif
#   From: 2010.06.25/outbox.cif.g09.slc.cpg/sg12_157_cif.got.tgz:313667.got - 2010.06.28 00:19:55.
