data_PCOD8086094
_publ_section_title
;
Structure prediction by ZEFSAII (Michael W. Deem and Ramdas Pophale) SiO2 
 PCOD8086094
Probable space group: C 2/M
;
_chemical_formula_sum "Si O2"
_cell_formula_units_Z 64
_cell_length_a 14.653453
_cell_length_b 9.362210
_cell_length_c 26.736293
_cell_angle_alpha 90.000000
_cell_angle_beta 104.792442
_cell_angle_gamma 90.000000
_cell_volume 3546.351887
_symmetry_space_group_name_H-M "C 2/M"
_symmetry_group_IT_number 12
_symmetry_cell_setting 'monoclinic'
loop_
_space_group_symop_operation_xyz
x,y,z
-x,y,-z
-x,-y,-z
x,-y,z
1/2+x,1/2+y,z
1/2-x,1/2+y,-z
1/2-x,1/2-y,-z
1/2+x,1/2-y,z
loop_
_atom_site_type_symbol
_atom_site_label
_atom_site_fract_x
_atom_site_fract_y
_atom_site_fract_z
Si Si1 0.562579 0.168801 0.365265
Si Si2 0.862821 0.167423 0.191948
Si Si3 0.706561 0.664965 0.926221
Si Si4 0.466215 0.168846 0.749571
Si Si5 0.601954 0.167447 0.993889
Si Si6 0.755282 0.668832 0.731777
Si Si7 0.054726 0.331461 0.557712
Si Si8 0.773821 0.168822 0.383235
O O1 0.516713 0.214771 0.305949
O O2 0.503271 0.230787 0.403133
O O3 0.670115 0.222099 0.384670
O O4 0.565016 0.000000 0.368300
O O5 0.805476 0.200922 0.133663
O O6 0.803577 0.231655 0.230176
O O7 0.961883 0.249255 0.204379
O O8 0.882274 0.000000 0.200963
O O9 0.686164 0.500000 0.935120
O O10 0.629153 0.754255 0.946267
O O11 0.815016 0.703787 0.954810
O O12 0.362676 0.222736 0.750991
O O13 0.478453 0.000000 0.758545
O O14 0.596114 0.000000 0.981575
O O15 0.500000 0.221771 0.000000
O O16 0.757977 0.500000 0.735155
O O17 0.709324 0.714151 0.672395
O O18 0.071575 0.500000 0.563952
O O19 0.154750 0.252452 0.570955
O O20 0.000000 0.289955 0.500000
O O21 0.786695 0.000000 0.392421
#
# Coordination Sequence:
#
# PCOD8086094 Si02
#       8
#     8   8   8   8   8   8   8   8
#     4   8  16  32  50  67  92 124 155 192 238 283
#     4  10  19  31  47  70 102 129 149 186 238 282
#     4   9  19  33  48  71 101 128 153 189 240 284
#     4   9  17  31  51  71  91 123 164 195 226 276
#     4   9  18  34  55  74  92 122 166 205 231 267
#     4   8  16  31  50  70  93 124 157 189 232 282
#     4  10  20  32  46  67  95 124 153 191 243 291
#     4   9  17  32  52  69  88 120 160 195 229 276
#
# _framework density 18.046716
#
# number of rings (size 3 to 8) (size 9 to 14) (size 15 to 20)
#    0.000    3.000    0.000    2.250    0.000    2.500 
#    0.000    6.250    0.000    0.000    0.000    0.000 
#    0.000    0.000    0.000    0.000    0.000    0.000 
#
# Total GULP energy -396710.663572 kJ/mol
# GULP energy per Si atom -12397.208237 kJ/mol
# Density = 1.800564 g / cm^3
# Si number density = 18.046716 Si / 1000 Ang^3
#
#
#
# Elastic Constant Matrix: (Units=GPa)
#
#
# Indices 1 2 3 4 5 6 
#
# 1 90.0425 26.1383 35.0768 0.0000 10.2996 0.0000
# 2 26.1383 30.9283 28.8767 0.0000 6.9406 0.0000
# 3 35.0768 28.8767 82.7749 0.0000 14.9650 0.0000
# 4 0.0000 0.0000 0.0000 21.3678 0.0000 4.0699
# 5 10.2996 6.9406 14.9650 0.0000 25.1426 0.0000
# 6 0.0000 0.0000 0.0000 4.0699 0.0000 26.5235
#
#
#
# Elastic Compliance Matrix: (Units=1/GPa)
#
#
# Indices 1 2 3 4 5 6 
#
# 1 0.015254 -0.010010 -0.002624 0.000000 -0.001924 0.000000
# 2 -0.010010 0.054825 -0.014444 0.000000 -0.002437 0.000000
# 3 -0.002624 -0.014444 0.019405 0.000000 -0.006488 0.000000
# 4 0.000000 0.000000 0.000000 0.048208 0.000000 -0.007397
# 5 -0.001924 -0.002437 -0.006488 0.000000 0.045095 0.000000
# 6 0.000000 0.000000 0.000000 -0.007397 0.000000 0.038838
#
#
# Mechanical properties :
#
#
# Convention : Reuss Voigt Hill
#
# Bulk Modulus (GPa) = 28.30612 42.65880 35.48246
# Shear Modulus (GPa) = 17.38792 22.18370 19.78581
#
# Velocity S-wave (km/s) = 3.10739 3.50985 3.31473
# Velocity P-wave (km/s) = 5.34728 6.33362 5.86124
#
# Compressibility (1/GPa) = 0.03532805
#
# Stress axis : x y z
#
# Youngs Moduli (GPa) = 65.55716 18.23992 51.53362
#
# Poissons Ratio (x) = 0.18257 0.13524
# Poissons Ratio (y) = 0.65619 0.74435
# Poissons Ratio (z) = 0.17204 0.26346
#
# Static dielectric constant tensor:
#      x y z
#    x 3.567340 0.000000 -0.149090 
#    y 0.000000 2.975200 0.000000 
#    z -0.149090 0.000000 3.408850 
# 
# 
# High freq. dielectric constant tensor:
#      x y z
#    x 1.704640 0.000000 0.003870 
#    y 0.000000 1.666880 0.000000 
#    z 0.003870 0.000000 1.698290 
# 
# From -- ./inp_files/359927.got.cif
#   From: 2010.06.25/outbox.cif.g09.slc.cpg/sg12_180_cif.got.tgz:359927.got - 2010.06.28 00:19:55.
