data_PCOD8086757
_publ_section_title
;
Structure prediction by ZEFSAII (Michael W. Deem and Ramdas Pophale) SiO2 
 PCOD8086757
Probable space group: C 2/M
;
_chemical_formula_sum "Si O2"
_cell_formula_units_Z 56
_cell_length_a 29.130991
_cell_length_b 13.607674
_cell_length_c 13.868694
_cell_angle_alpha 90.000000
_cell_angle_beta 35.223925
_cell_angle_gamma 90.000000
_cell_volume 3170.881451
_symmetry_space_group_name_H-M "C 2/M"
_symmetry_group_IT_number 12
_symmetry_cell_setting 'monoclinic'
loop_
_space_group_symop_operation_xyz
x,y,z
-x,y,-z
-x,-y,-z
x,-y,z
1/2+x,1/2+y,z
1/2-x,1/2+y,-z
1/2-x,1/2-y,-z
1/2+x,1/2-y,z
loop_
_atom_site_type_symbol
_atom_site_label
_atom_site_fract_x
_atom_site_fract_y
_atom_site_fract_z
Si Si1 0.501154 0.116896 0.888603
Si Si2 0.165595 0.308811 0.537436
Si Si3 0.833145 0.389779 0.109877
Si Si4 0.777233 0.611132 0.759262
Si Si5 0.309700 0.758978 0.984779
Si Si6 0.269006 0.390317 0.526984
Si Si7 0.913043 0.611828 0.685542
O O1 0.575495 0.155642 0.700283
O O2 0.503795 0.000000 0.887037
O O3 0.500000 0.158193 0.000000
O O4 0.422465 0.153814 0.967579
O O5 0.198832 0.323664 0.373314
O O6 0.223270 0.372084 0.506163
O O7 0.165003 0.193272 0.567697
O O8 0.836123 0.500000 0.067354
O O9 0.795746 0.381882 0.278759
O O10 0.781882 0.333242 0.117013
O O11 0.759130 0.500000 0.758943
O O12 0.851295 0.617302 0.704437
O O13 0.696162 0.653151 0.950518
O O14 0.392197 0.804641 0.802166
O O15 0.250000 0.750000 0.000000
O O16 0.307599 0.500000 0.458799
O O17 0.912461 0.500000 0.729682
O O18 0.000000 0.640120 0.500000
#
# Coordination Sequence:
#
# PCOD8086757 Si02
#       7
#     8   8   8   8   8   8   8
#     4  10  19  31  50  80 114 141 170 216 271 324
#     4  11  20  33  53  80 111 142 171 215 271 315
#     4  10  19  33  54  81 107 136 177 222 272 322
#     4  10  20  33  51  76 104 138 177 214 263 318
#     4  10  20  35  51  73 106 140 178 217 267 320
#     4  10  20  34  54  80 108 139 180 216 253 317
#     4   9  19  34  53  80 107 130 165 217 273 325
#
# _framework density 17.660703999999999
#
# number of rings (size 3 to 8) (size 9 to 14) (size 15 to 20)
#    0.000    2.000    2.857    1.714    2.000    0.571 
#    0.000    0.000    0.000    1.714    0.000    0.000 
#    0.000    0.000    0.000    0.000    0.000    0.000 
#
# Total GULP energy -346881.725504 kJ/mol
# GULP energy per Si atom -12388.633054 kJ/mol
# Density = 1.762051 g / cm^3
# Si number density = 17.660704 Si / 1000 Ang^3
#
#
#
# Elastic Constant Matrix: (Units=GPa)
#
#
# Indices 1 2 3 4 5 6 
#
# 1 57.2466 28.8938 22.4527 0.0000 9.5986 0.0000
# 2 28.8938 78.6604 29.5617 0.0000 5.4598 0.0000
# 3 22.4527 29.5617 89.7297 0.0000 8.9449 0.0000
# 4 0.0000 0.0000 0.0000 34.5606 0.0000 2.4758
# 5 9.5986 5.4598 8.9449 0.0000 22.7678 0.0000
# 6 0.0000 0.0000 0.0000 2.4758 0.0000 21.4184
#
#
#
# Elastic Compliance Matrix: (Units=1/GPa)
#
#
# Indices 1 2 3 4 5 6 
#
# 1 0.023289 -0.007008 -0.002818 0.000000 -0.007031 0.000000
# 2 -0.007008 0.016679 -0.003785 0.000000 0.000442 0.000000
# 3 -0.002818 -0.003785 0.013413 0.000000 -0.003174 0.000000
# 4 0.000000 0.000000 0.000000 0.029176 0.000000 -0.003372
# 5 -0.007031 0.000442 -0.003174 0.000000 0.048027 0.000000
# 6 0.000000 0.000000 0.000000 -0.003372 0.000000 0.047079
#
#
# Mechanical properties :
#
#
# Convention : Reuss Voigt Hill
#
# Bulk Modulus (GPa) = 38.22744 43.05035 40.63889
# Shear Modulus (GPa) = 23.40768 25.39794 24.40281
#
# Velocity S-wave (km/s) = 3.64457 3.79635 3.72123
# Velocity P-wave (km/s) = 6.27718 6.60648 6.44393
#
# Compressibility (1/GPa) = 0.02615922
#
# Stress axis : x y z
#
# Youngs Moduli (GPa) = 42.93813 59.95597 74.55312
#
# Poissons Ratio (x) = 0.42015 0.21009
# Poissons Ratio (y) = 0.30090 0.28222
# Poissons Ratio (z) = 0.12100 0.22696
#
# Static dielectric constant tensor:
#      x y z
#    x 3.212340 0.000000 0.119300 
#    y 0.000000 3.551320 0.000000 
#    z 0.119300 0.000000 3.295020 
# 
# 
# High freq. dielectric constant tensor:
#      x y z
#    x 1.678010 0.000000 0.028130 
#    y 0.000000 1.674930 0.000000 
#    z 0.028130 0.000000 1.676780 
# 
# From -- ./inp_files/183492.got.cif
#   From: 2010.06.25/outbox.cif.g09.slc.cpg/sg12_92_cif.got.tgz:183492.got - 2010.06.28 00:19:55.
