data_PCOD8086777
_publ_section_title
;
Structure prediction by ZEFSAII (Michael W. Deem and Ramdas Pophale) SiO2 
 PCOD8086777
Probable space group: C 2/M
;
_chemical_formula_sum "Si O2"
_cell_formula_units_Z 48
_cell_length_a 19.398452
_cell_length_b 14.007240
_cell_length_c 17.403753
_cell_angle_alpha 90.000000
_cell_angle_beta 36.252088
_cell_angle_gamma 90.000000
_cell_volume 2796.398787
_symmetry_space_group_name_H-M "C 2/M"
_symmetry_group_IT_number 12
_symmetry_cell_setting 'monoclinic'
loop_
_space_group_symop_operation_xyz
x,y,z
-x,y,-z
-x,-y,-z
x,-y,z
1/2+x,1/2+y,z
1/2-x,1/2+y,-z
1/2-x,1/2-y,-z
1/2+x,1/2-y,z
loop_
_atom_site_type_symbol
_atom_site_label
_atom_site_fract_x
_atom_site_fract_y
_atom_site_fract_z
Si Si1 0.716494 0.704754 0.147350
Si Si2 0.566452 0.108592 0.639285
Si Si3 0.472501 0.727603 0.434660
Si Si4 0.308160 0.891811 0.916076
Si Si5 0.367029 0.108711 0.134091
Si Si6 0.756344 0.389990 0.393691
O O1 0.581832 0.686413 0.289151
O O2 0.739495 0.815325 0.103174
O O3 0.791543 0.684110 0.154856
O O4 0.752820 0.631789 0.048042
O O5 0.557905 0.166433 0.567560
O O6 0.448116 0.117288 0.795741
O O7 0.673443 0.148033 0.594848
O O8 0.589010 0.000000 0.594646
O O9 0.500000 0.730790 0.500000
O O10 0.364862 0.661279 0.511232
O O11 0.272295 0.000000 0.924387
O O12 0.342335 0.125740 0.245290
O O13 0.336703 0.000000 0.136596
O O14 0.500000 0.132943 0.000000
O O15 0.725572 0.500000 0.432586
#
# Coordination Sequence:
#
# PCOD8086777 Si02
#       6
#     8   8   8   8   8   8
#     4  10  19  32  51  77 103 134 170 210 258 308
#     4   9  19  36  56  76 100 135 179 218 250 292
#     4  11  21  34  51  77 110 140 167 205 258 313
#     4   9  18  33  54  76 100 132 174 217 255 296
#     4  10  19  31  51  75 100 131 169 215 260 300
#     4  10  20  33  50  75 107 137 168 210 258 307
#
# _framework density 17.164933000000001
#
# number of rings (size 3 to 8) (size 9 to 14) (size 15 to 20)
#    0.000    2.167    1.667    2.000    0.000    4.667 
#    0.000    0.000    0.000    0.500    0.000    0.000 
#    0.000    0.000    0.000    0.000    0.000    0.000 
#
# Total GULP energy -297566.308539 kJ/mol
# GULP energy per Si atom -12398.596189 kJ/mol
# Density = 1.712587 g / cm^3
# Si number density = 17.164933 Si / 1000 Ang^3
#
#
#
# Elastic Constant Matrix: (Units=GPa)
#
#
# Indices 1 2 3 4 5 6 
#
# 1 79.4282 36.7258 16.5635 0.0000 -12.6274 0.0000
# 2 36.7258 79.9374 27.7075 0.0000 -7.9151 0.0000
# 3 16.5635 27.7075 78.1623 0.0000 -4.0968 0.0000
# 4 0.0000 0.0000 0.0000 21.7079 0.0000 -2.3172
# 5 -12.6274 -7.9151 -4.0968 0.0000 21.8481 0.0000
# 6 0.0000 0.0000 0.0000 -2.3172 0.0000 30.4147
#
#
#
# Elastic Compliance Matrix: (Units=1/GPa)
#
#
# Indices 1 2 3 4 5 6 
#
# 1 0.017076 -0.006847 -0.000812 0.000000 0.007236 0.000000
# 2 -0.006847 0.017412 -0.004644 0.000000 0.001480 0.000000
# 3 -0.000812 -0.004644 0.014643 0.000000 0.000594 0.000000
# 4 0.000000 0.000000 0.000000 0.046444 0.000000 0.003538
# 5 0.007236 0.001480 0.000594 0.000000 0.050600 0.000000
# 6 0.000000 0.000000 0.000000 0.003538 0.000000 0.033148
#
#
# Mechanical properties :
#
#
# Convention : Reuss Voigt Hill
#
# Bulk Modulus (GPa) = 40.77484 44.39127 42.58306
# Shear Modulus (GPa) = 23.57336 25.22956 24.40146
#
# Velocity S-wave (km/s) = 3.70989 3.83800 3.77449
# Velocity P-wave (km/s) = 6.49287 6.74967 6.62251
#
# Compressibility (1/GPa) = 0.02452493
#
# Stress axis : x y z
#
# Youngs Moduli (GPa) = 58.56279 57.43283 68.29093
#
# Poissons Ratio (x) = 0.39325 0.05545
# Poissons Ratio (y) = 0.40099 0.31712
# Poissons Ratio (z) = 0.04756 0.26670
#
# Static dielectric constant tensor:
#      x y z
#    x 3.203030 0.000000 -0.013720 
#    y 0.000000 3.250780 0.000000 
#    z -0.013720 0.000000 3.309880 
# 
# 
# High freq. dielectric constant tensor:
#      x y z
#    x 1.656520 0.000000 0.000080 
#    y 0.000000 1.657520 0.000000 
#    z 0.000080 0.000000 1.670120 
# 
# From -- ./inp_files/104953.got.cif
#   From: 2010.06.25/outbox.cif.g09.slc.cpg/sg12_53_cif.got.tgz:104953.got - 2010.06.28 00:19:55.
