data_PCOD8086573
_publ_section_title
;
Structure prediction by ZEFSAII (Michael W. Deem and Ramdas Pophale) SiO2 
 PCOD8086573
Probable space group: C 2/M
;
_chemical_formula_sum "Si O2"
_cell_formula_units_Z 56
_cell_length_a 30.967001
_cell_length_b 8.872197
_cell_length_c 19.074181
_cell_angle_alpha 90.000000
_cell_angle_beta 142.467840
_cell_angle_gamma 90.000000
_cell_volume 3192.573120
_symmetry_space_group_name_H-M "C 2/M"
_symmetry_group_IT_number 12
_symmetry_cell_setting 'monoclinic'
loop_
_space_group_symop_operation_xyz
x,y,z
-x,y,-z
-x,-y,-z
x,-y,z
1/2+x,1/2+y,z
1/2-x,1/2+y,-z
1/2-x,1/2-y,-z
1/2+x,1/2-y,z
loop_
_atom_site_type_symbol
_atom_site_label
_atom_site_fract_x
_atom_site_fract_y
_atom_site_fract_z
Si Si1 0.557102 0.326467 0.633687
Si Si2 0.702622 0.321476 0.755593
Si Si3 0.790294 0.823673 0.390575
Si Si4 0.701899 0.177345 0.997100
Si Si5 0.688863 0.823504 0.376277
Si Si6 0.590457 0.678842 0.348205
Si Si7 0.043832 0.677742 0.761245
O O1 0.500000 0.308261 0.500000
O O2 0.563787 0.500000 0.666596
O O3 0.631494 0.261672 0.701264
O O4 0.531393 0.227108 0.665455
O O5 0.697397 0.500000 0.741732
O O6 0.709855 0.249068 0.687107
O O7 0.769638 0.273880 0.889462
O O8 0.712980 0.794009 0.326638
O O9 0.855302 0.760696 0.521664
O O10 0.803919 0.000000 0.400939
O O11 0.621194 0.232243 0.886353
O O12 0.707687 0.000000 0.993991
O O13 0.750000 0.250000 0.000000
O O14 0.750000 0.750000 0.500000
O O15 0.615540 0.743185 0.304417
O O16 0.683366 0.000000 0.385161
O O17 0.589144 0.500000 0.342846
O O18 0.512467 0.740885 0.261582
O O19 0.034236 0.500000 0.755675
#
# Coordination Sequence:
#
# PCOD8086573 Si02
#       7
#     8   8   8   8   8   8   8
#     4  10  19  31  50  73  97 130 167 199 240 298
#     4   9  16  29  49  71  95 125 162 204 242 285
#     4   8  15  28  49  76 100 123 159 202 243 289
#     4  10  20  34  52  70  93 128 171 210 248 292
#     4   9  16  28  48  75 105 133 162 200 245 299
#     4  10  19  32  51  74 100 132 167 204 248 303
#     4  11  22  33  47  71 101 130 164 209 254 298
#
# _framework density 17.540709
#
# number of rings (size 3 to 8) (size 9 to 14) (size 15 to 20)
#    0.000    2.429    1.429    3.000    0.000    3.143 
#    0.000    0.000    0.000    6.857    0.000    6.000 
#    0.000    0.000    0.000    0.000    0.000    0.000 
#
# Total GULP energy -347071.846827 kJ/mol
# GULP energy per Si atom -12395.423101 kJ/mol
# Density = 1.750079 g / cm^3
# Si number density = 17.540709 Si / 1000 Ang^3
#
#
#
# Elastic Constant Matrix: (Units=GPa)
#
#
# Indices 1 2 3 4 5 6 
#
# 1 132.0084 36.4546 40.4262 0.0000 23.9966 0.0000
# 2 36.4546 52.2491 21.5437 0.0000 10.0917 0.0000
# 3 40.4262 21.5437 74.2326 0.0000 16.4030 0.0000
# 4 0.0000 0.0000 0.0000 12.3319 0.0000 4.7791
# 5 23.9966 10.0917 16.4030 0.0000 22.7384 0.0000
# 6 0.0000 0.0000 0.0000 4.7791 0.0000 29.6859
#
#
#
# Elastic Compliance Matrix: (Units=1/GPa)
#
#
# Indices 1 2 3 4 5 6 
#
# 1 0.011279 -0.005200 -0.002990 0.000000 -0.007439 0.000000
# 2 -0.005200 0.024864 -0.003757 0.000000 -0.002837 0.000000
# 3 -0.002990 -0.003757 0.017992 0.000000 -0.008157 0.000000
# 4 0.000000 0.000000 0.000000 0.086486 0.000000 -0.013923
# 5 -0.007439 -0.002837 -0.008157 0.000000 0.058972 0.000000
# 6 0.000000 0.000000 0.000000 -0.013923 0.000000 0.035928
#
#
# Mechanical properties :
#
#
# Convention : Reuss Voigt Hill
#
# Bulk Modulus (GPa) = 33.06714 50.59323 41.83019
# Shear Modulus (GPa) = 18.55319 23.62229 21.08774
#
# Velocity S-wave (km/s) = 3.25579 3.67374 3.47106
# Velocity P-wave (km/s) = 5.74684 6.84844 6.32168
#
# Compressibility (1/GPa) = 0.03024150
#
# Stress axis : x y z
#
# Youngs Moduli (GPa) = 88.66031 40.21820 55.58011
#
# Poissons Ratio (x) = 0.20914 0.16616
# Poissons Ratio (y) = 0.46103 0.20884
# Poissons Ratio (z) = 0.26506 0.15111
#
# Static dielectric constant tensor:
#      x y z
#    x 3.757280 0.000000 -0.035470 
#    y 0.000000 3.123650 0.000000 
#    z -0.035470 0.000000 3.315460 
# 
# 
# High freq. dielectric constant tensor:
#      x y z
#    x 1.690580 0.000000 0.005080 
#    y 0.000000 1.656970 0.000000 
#    z 0.005080 0.000000 1.652960 
# 
# From -- ./inp_files/287406.got.cif
#   From: 2010.06.25/outbox.cif.g09.slc.cpg/sg12_144_cif.got.tgz:287406.got - 2010.06.28 00:19:55.
