data_PCOD8086128
_publ_section_title
;
Structure prediction by ZEFSAII (Michael W. Deem and Ramdas Pophale) SiO2 
 PCOD8086128
Probable space group: C 2/M
;
_chemical_formula_sum "Si O2"
_cell_formula_units_Z 64
_cell_length_a 26.389543
_cell_length_b 10.207442
_cell_length_c 15.833613
_cell_angle_alpha 90.000000
_cell_angle_beta 66.516982
_cell_angle_gamma 90.000000
_cell_volume 3911.853205
_symmetry_space_group_name_H-M "C 2/M"
_symmetry_group_IT_number 12
_symmetry_cell_setting 'monoclinic'
loop_
_space_group_symop_operation_xyz
x,y,z
-x,y,-z
-x,-y,-z
x,-y,z
1/2+x,1/2+y,z
1/2-x,1/2+y,-z
1/2-x,1/2-y,-z
1/2+x,1/2-y,z
loop_
_atom_site_type_symbol
_atom_site_label
_atom_site_fract_x
_atom_site_fract_y
_atom_site_fract_z
Si Si1 0.337435 0.653505 0.795277
Si Si2 0.464083 0.344131 0.401429
Si Si3 0.958787 0.271993 0.958008
Si Si4 0.361801 0.141971 0.917334
Si Si5 0.578565 0.654351 0.398422
Si Si6 0.373836 0.352383 0.132029
Si Si7 0.209984 0.649515 0.880244
Si Si8 0.045358 0.848504 0.777808
O O1 0.346489 0.500000 0.811156
O O2 0.366508 0.739318 0.848689
O O3 0.365506 0.693501 0.687577
O O4 0.273599 0.690045 0.830050
O O5 0.462110 0.500000 0.399163
O O6 0.422716 0.292839 0.503582
O O7 0.525638 0.292562 0.381965
O O8 0.446980 0.286864 0.321163
O O9 0.914568 0.369163 0.945205
O O10 0.993320 0.214832 0.858180
O O11 0.923437 0.161376 0.031073
O O12 0.000000 0.340114 0.000000
O O13 0.357213 0.000000 0.874486
O O14 0.307458 0.164760 0.010567
O O15 0.572755 0.500000 0.406521
O O16 0.350427 0.500000 0.139475
O O17 0.324764 0.248766 0.154121
O O18 0.397994 0.325707 0.209170
O O19 0.200541 0.500000 0.855134
O O20 0.030665 0.000000 0.780658
#
# Coordination Sequence:
#
# PCOD8086128 Si02
#       8
#     8   8   8   8   8   8   8   8
#     4  10  19  31  48  66  84 112 149 183 216 255
#     4   8  13  22  38  63  93 113 130 170 222 260
#     4   9  17  28  42  63  91 120 147 174 206 251
#     4  10  20  31  43  64  91 116 145 179 215 254
#     4   8  14  24  40  64  88 110 138 173 215 259
#     4   9  17  28  44  66  89 115 147 180 215 254
#     4   9  19  33  45  60  86 118 148 178 214 257
#     4   9  15  24  41  66  92 115 142 179 219 255
#
# _framework density 16.360531999999999
#
# number of rings (size 3 to 8) (size 9 to 14) (size 15 to 20)
#    0.000    3.000    0.000    2.250    0.000    5.750 
#    0.000    1.875    0.000    0.750    0.000    7.875 
#    0.000    0.000    0.000    0.000    0.000    0.000 
#
# Total GULP energy -396479.247496 kJ/mol
# GULP energy per Si atom -12389.976484 kJ/mol
# Density = 1.632329 g / cm^3
# Si number density = 16.360532 Si / 1000 Ang^3
#
#
#
# Elastic Constant Matrix: (Units=GPa)
#
#
# Indices 1 2 3 4 5 6 
#
# 1 79.6790 34.1580 58.9917 0.0000 -3.0191 0.0000
# 2 34.1580 54.9708 33.9934 0.0000 4.3848 0.0000
# 3 58.9917 33.9934 132.4238 0.0000 6.3359 0.0000
# 4 0.0000 0.0000 0.0000 11.1295 0.0000 0.8551
# 5 -3.0191 4.3848 6.3359 0.0000 24.7238 0.0000
# 6 0.0000 0.0000 0.0000 0.8551 0.0000 15.9019
#
#
#
# Elastic Compliance Matrix: (Units=1/GPa)
#
#
# Indices 1 2 3 4 5 6 
#
# 1 0.022949 -0.009830 -0.008016 0.000000 0.006600 0.000000
# 2 -0.009830 0.025981 -0.002038 0.000000 -0.005286 0.000000
# 3 -0.008016 -0.002038 0.011820 0.000000 -0.003646 0.000000
# 4 0.000000 0.000000 0.000000 0.090224 0.000000 -0.004852
# 5 0.006600 -0.005286 -0.003646 0.000000 0.043125 0.000000
# 6 0.000000 0.000000 0.000000 -0.004852 0.000000 0.063146
#
#
# Mechanical properties :
#
#
# Convention : Reuss Voigt Hill
#
# Bulk Modulus (GPa) = 47.65547 57.92888 52.79217
# Shear Modulus (GPa) = 16.44704 19.67974 18.06339
#
# Velocity S-wave (km/s) = 3.17407 3.47202 3.32638
# Velocity P-wave (km/s) = 6.52874 7.18037 6.86230
#
# Compressibility (1/GPa) = 0.02098395
#
# Stress axis : x y z
#
# Youngs Moduli (GPa) = 43.57500 38.48932 84.60370
#
# Poissons Ratio (x) = 0.37834 0.67815
# Poissons Ratio (y) = 0.42833 0.17239
# Poissons Ratio (z) = 0.34928 0.07843
#
# Static dielectric constant tensor:
#      x y z
#    x 3.037720 0.000000 0.038490 
#    y 0.000000 2.760320 0.000000 
#    z 0.038490 0.000000 3.403270 
# 
# 
# High freq. dielectric constant tensor:
#      x y z
#    x 1.620340 0.000000 0.001140 
#    y 0.000000 1.594440 0.000000 
#    z 0.001140 0.000000 1.623740 
# 
# From -- ./inp_files/245124.got.cif
#   From: 2010.06.25/outbox.cif.g09.slc.cpg/sg12_123_cif.got.tgz:245124.got - 2010.06.28 00:19:55.
