data_PCOD8086144
_publ_section_title
;
Structure prediction by ZEFSAII (Michael W. Deem and Ramdas Pophale) SiO2 
 PCOD8086144
Probable space group: C 2/M
;
_chemical_formula_sum "Si O2"
_cell_formula_units_Z 44
_cell_length_a 12.173977
_cell_length_b 13.721227
_cell_length_c 18.216697
_cell_angle_alpha 90.000000
_cell_angle_beta 122.485755
_cell_angle_gamma 90.000000
_cell_volume 2566.805857
_symmetry_space_group_name_H-M "C 2/M"
_symmetry_group_IT_number 12
_symmetry_cell_setting 'monoclinic'
loop_
_space_group_symop_operation_xyz
x,y,z
-x,y,-z
-x,-y,-z
x,-y,z
1/2+x,1/2+y,z
1/2-x,1/2+y,-z
1/2-x,1/2-y,-z
1/2+x,1/2-y,z
loop_
_atom_site_type_symbol
_atom_site_label
_atom_site_fract_x
_atom_site_fract_y
_atom_site_fract_z
Si Si1 0.000000 0.672024 0.000000
Si Si2 0.475439 0.389047 0.265032
Si Si3 0.605665 0.389606 0.597837
Si Si4 0.238514 0.256826 0.850015
Si Si5 0.678708 0.245729 0.277134
Si Si6 0.453663 0.109141 0.140281
O O1 0.044698 0.606466 0.947620
O O2 0.879930 0.740093 0.934550
O O3 0.484558 0.500000 0.240059
O O4 0.459957 0.384614 0.346323
O O5 0.352671 0.339732 0.179458
O O6 0.609452 0.333381 0.294877
O O7 0.500000 0.358838 0.500000
O O8 0.657006 0.500000 0.601525
O O9 0.721110 0.310365 0.633410
O O10 0.249581 0.289848 0.768886
O O11 0.177329 0.342339 0.876414
O O12 0.578792 0.164053 0.214958
O O13 0.458802 0.000000 0.172093
#
# Coordination Sequence:
#
# PCOD8086144 Si02
#       6
#     4   8   8   8   8   8
#     4  10  19  32  47  66  92 122 151 188 229 268
#     4   9  18  32  49  68  91 121 155 186 222 270
#     4   9  17  30  49  72  95 119 150 187 225 267
#     4   9  19  33  47  66  93 120 151 189 227 268
#     4   9  18  32  49  68  92 122 151 186 227 267
#     4  10  19  31  48  69  91 118 153 189 226 269
#
# _framework density 17.141928
#
# number of rings (size 3 to 8) (size 9 to 14) (size 15 to 20)
#    0.000    2.727    0.000    1.364    0.000    6.545 
#    0.000    0.455    0.000    0.545    0.000    0.000 
#    0.000    0.000    0.000    0.000    0.000    0.000 
#
# Total GULP energy -272771.184133 kJ/mol
# GULP energy per Si atom -12398.690188 kJ/mol
# Density = 1.710291 g / cm^3
# Si number density = 17.141928 Si / 1000 Ang^3
#
#
#
# Elastic Constant Matrix: (Units=GPa)
#
#
# Indices 1 2 3 4 5 6 
#
# 1 90.1703 50.8600 28.2151 0.0000 11.6201 0.0000
# 2 50.8600 93.6279 25.6565 0.0000 -1.7609 0.0000
# 3 28.2151 25.6565 84.9370 0.0000 10.6636 0.0000
# 4 0.0000 0.0000 0.0000 16.2759 0.0000 -0.0539
# 5 11.6201 -1.7609 10.6636 0.0000 16.7356 0.0000
# 6 0.0000 0.0000 0.0000 -0.0539 0.0000 21.3613
#
#
#
# Elastic Compliance Matrix: (Units=1/GPa)
#
#
# Indices 1 2 3 4 5 6 
#
# 1 0.019018 -0.010145 -0.001588 0.000000 -0.013260 0.000000
# 2 -0.010145 0.017279 -0.003219 0.000000 0.010914 0.000000
# 3 -0.001588 -0.003219 0.014323 0.000000 -0.008363 0.000000
# 4 0.000000 0.000000 0.000000 0.061441 0.000000 0.000155
# 5 -0.013260 0.010914 -0.008363 0.000000 0.075437 0.000000
# 6 0.000000 0.000000 0.000000 0.000155 0.000000 0.046814
#
#
# Mechanical properties :
#
#
# Convention : Reuss Voigt Hill
#
# Bulk Modulus (GPa) = 48.27455 53.13315 50.70385
# Shear Modulus (GPa) = 18.44179 21.80814 20.12497
#
# Velocity S-wave (km/s) = 3.28354 3.57068 3.43011
# Velocity P-wave (km/s) = 6.52674 6.93274 6.73280
#
# Compressibility (1/GPa) = 0.02071485
#
# Stress axis : x y z
#
# Youngs Moduli (GPa) = 52.58090 57.87357 69.81555
#
# Poissons Ratio (x) = 0.58714 0.11089
# Poissons Ratio (y) = 0.53344 0.22477
# Poissons Ratio (z) = 0.08352 0.18632
#
# Static dielectric constant tensor:
#      x y z
#    x 3.356490 0.000000 -0.040250 
#    y 0.000000 3.098050 0.000000 
#    z -0.040250 0.000000 3.118050 
# 
# 
# High freq. dielectric constant tensor:
#      x y z
#    x 1.665090 0.000000 0.001320 
#    y 0.000000 1.649340 0.000000 
#    z 0.001320 0.000000 1.655250 
# 
# From -- ./inp_files/203867.got.cif
#   From: 2010.06.25/outbox.cif.g09.slc.cpg/sg12_102_cif.got.tgz:203867.got - 2010.06.28 00:19:55.
