data_PCOD8086491
_publ_section_title
;
Structure prediction by ZEFSAII (Michael W. Deem and Ramdas Pophale) SiO2 
 PCOD8086491
Probable space group: C 2/M
;
_chemical_formula_sum "Si O2"
_cell_formula_units_Z 40
_cell_length_a 9.078913
_cell_length_b 23.781575
_cell_length_c 11.436736
_cell_angle_alpha 90.000000
_cell_angle_beta 75.772538
_cell_angle_gamma 90.000000
_cell_volume 2393.575720
_symmetry_space_group_name_H-M "C 2/M"
_symmetry_group_IT_number 12
_symmetry_cell_setting 'monoclinic'
loop_
_space_group_symop_operation_xyz
x,y,z
-x,y,-z
-x,-y,-z
x,-y,z
1/2+x,1/2+y,z
1/2-x,1/2+y,-z
1/2-x,1/2-y,-z
1/2+x,1/2-y,z
loop_
_atom_site_type_symbol
_atom_site_label
_atom_site_fract_x
_atom_site_fract_y
_atom_site_fract_z
Si Si1 0.800185 0.651345 0.195770
Si Si2 0.459298 0.937365 0.872256
Si Si3 0.049150 0.208577 0.358036
Si Si4 0.809696 0.774264 0.217554
Si Si5 0.827811 0.872213 0.033012
O O1 0.665604 0.655731 0.319504
O O2 0.878975 0.712990 0.167975
O O3 0.923009 0.605214 0.213478
O O4 0.722421 0.636471 0.089181
O O5 0.286038 0.917212 0.885151
O O6 0.477370 0.000000 0.816007
O O7 0.500000 0.937097 0.000000
O O8 0.136837 0.265296 0.297796
O O9 0.000000 0.215088 0.500000
O O10 0.903696 0.198410 0.305230
O O11 0.817595 0.813458 0.103139
O O12 0.000000 0.895762 0.000000
#
# Coordination Sequence:
#
# PCOD8086491 Si02
#       5
#     8   8   8   8   8
#     4   9  20  31  51  73 102 136 163 197 249 300
#     4   9  19  34  50  71 101 136 167 197 243 300
#     4  10  20  32  47  70 103 136 169 197 245 299
#     4  10  19  31  49  75 106 130 160 205 249 298
#     4  11  18  31  50  77 105 126 163 202 253 297
#
# _framework density 16.711400000000001
#
# number of rings (size 3 to 8) (size 9 to 14) (size 15 to 20)
#    1.200    1.000    2.000    2.400    0.000    2.800 
#    0.000    0.000    0.000    0.600    0.000    1.400 
#    0.000    0.000    0.000    0.000    0.000    0.000 
#
# Total GULP energy -247774.655330 kJ/mol
# GULP energy per Si atom -12388.732767 kJ/mol
# Density = 1.667336 g / cm^3
# Si number density = 16.711400 Si / 1000 Ang^3
#
#
#
# Elastic Constant Matrix: (Units=GPa)
#
#
# Indices 1 2 3 4 5 6 
#
# 1 102.0193 39.9920 33.9815 0.0000 -13.3796 0.0000
# 2 39.9920 97.2533 7.7014 0.0000 -10.6427 0.0000
# 3 33.9815 7.7014 40.1466 0.0000 -15.2026 0.0000
# 4 0.0000 0.0000 0.0000 2.9179 0.0000 -6.7715
# 5 -13.3796 -10.6427 -15.2026 0.0000 17.0438 0.0000
# 6 0.0000 0.0000 0.0000 -6.7715 0.0000 21.0626
#
#
#
# Elastic Compliance Matrix: (Units=1/GPa)
#
#
# Indices 1 2 3 4 5 6 
#
# 1 0.016364 -0.005990 -0.013974 0.000000 -0.003359 0.000000
# 2 -0.005990 0.013244 0.005860 0.000000 0.008795 0.000000
# 3 -0.013974 0.005860 0.049597 0.000000 0.036928 0.000000
# 4 0.000000 0.000000 0.000000 1.349762 0.000000 0.433943
# 5 -0.003359 0.008795 0.036928 0.000000 0.094466 0.000000
# 6 0.000000 0.000000 0.000000 0.433943 0.000000 0.186988
#
#
# Mechanical properties :
#
#
# Convention : Reuss Voigt Hill
#
# Bulk Modulus (GPa) = 19.60923 44.75211 32.18067
# Shear Modulus (GPa) = 2.84798 18.72117 10.78458
#
# Velocity S-wave (km/s) = 1.30687 3.35066 2.54312
# Velocity P-wave (km/s) = 3.74656 6.46582 5.28411
#
# Compressibility (1/GPa) = 0.05099638
#
# Stress axis : x y z
#
# Youngs Moduli (GPa) = 61.10820 75.50541 20.16264
#
# Poissons Ratio (x) = 0.45230 0.28176
# Poissons Ratio (y) = 0.36605 -0.11815
# Poissons Ratio (z) = 0.85394 -0.44247
#
# Static dielectric constant tensor:
#      x y z
#    x 3.346250 0.000000 -0.169770 
#    y 0.000000 3.126100 0.000000 
#    z -0.169770 0.000000 2.791830 
# 
# 
# High freq. dielectric constant tensor:
#      x y z
#    x 1.658760 0.000000 -0.009810 
#    y 0.000000 1.614350 0.000000 
#    z -0.009810 0.000000 1.610480 
# 
# From -- ./inp_files/121260.got.cif
#   From: 2010.06.25/outbox.cif.g09.slc.cpg/sg12_61_cif.got.tgz:121260.got - 2010.06.28 00:19:55.
