data_PCOD8086657
_publ_section_title
;
Structure prediction by ZEFSAII (Michael W. Deem and Ramdas Pophale) SiO2 
 PCOD8086657
Probable space group: C 2/M
;
_chemical_formula_sum "Si O2"
_cell_formula_units_Z 64
_cell_length_a 23.092350
_cell_length_b 8.980237
_cell_length_c 21.429239
_cell_angle_alpha 90.000000
_cell_angle_beta 56.583570
_cell_angle_gamma 90.000000
_cell_volume 3709.265118
_symmetry_space_group_name_H-M "C 2/M"
_symmetry_group_IT_number 12
_symmetry_cell_setting 'monoclinic'
loop_
_space_group_symop_operation_xyz
x,y,z
-x,y,-z
-x,-y,-z
x,-y,z
1/2+x,1/2+y,z
1/2-x,1/2+y,-z
1/2-x,1/2-y,-z
1/2+x,1/2-y,z
loop_
_atom_site_type_symbol
_atom_site_label
_atom_site_fract_x
_atom_site_fract_y
_atom_site_fract_z
Si Si1 0.214278 0.164878 0.431369
Si Si2 0.421637 0.175947 0.264090
Si Si3 0.854159 0.335289 0.426750
Si Si4 0.291548 0.676148 0.918781
Si Si5 0.786041 0.168856 0.142797
Si Si6 0.292315 0.326318 0.281596
Si Si7 0.571559 0.824609 0.126392
Si Si8 0.933740 0.829841 0.000081
O O1 0.150278 0.232569 0.509225
O O2 0.280949 0.159075 0.435468
O O3 0.230419 0.262901 0.360992
O O4 0.192719 0.000000 0.422377
O O5 0.409999 0.226174 0.343206
O O6 0.366489 0.252572 0.251304
O O7 0.498229 0.224381 0.198775
O O8 0.409398 0.000000 0.265423
O O9 0.875263 0.500000 0.436926
O O10 0.291492 0.500000 0.928864
O O11 0.256383 0.716397 0.874210
O O12 0.369734 0.736795 0.870601
O O13 0.250000 0.750000 0.000000
O O14 0.770600 0.207031 0.223625
O O15 0.867830 0.187571 0.083675
O O16 0.763084 0.000000 0.140118
O O17 0.300144 0.500000 0.290411
O O18 0.584398 0.000000 0.125073
O O19 0.574781 0.780584 0.052407
O O20 0.941977 0.000000 0.971320
O O21 0.000000 0.778432 0.000000
#
# Coordination Sequence:
#
# PCOD8086657 Si02
#       8
#     8   8   8   8   8   8   8   8
#     4   9  16  26  42  67 100 135 169 206 245 292
#     4   9  19  33  49  73 106 138 168 207 251 299
#     4   8  14  26  43  65  96 134 171 203 240 291
#     4  12  24  39  58  76  96 127 169 217 260 301
#     4  10  21  36  53  74 101 132 169 210 252 299
#     4  10  19  31  50  75 104 138 170 205 250 301
#     4  11  22  36  54  76 101 132 169 210 256 303
#     4  10  20  34  52  74 102 135 167 203 248 299
#
# _framework density 17.254092
#
# number of rings (size 3 to 8) (size 9 to 14) (size 15 to 20)
#    0.000    2.125    1.250    3.750    0.000    6.250 
#    0.000    0.000    0.000    0.000    0.000    0.875 
#    0.000    7.000    0.000    0.000    0.000    0.000 
#
# Total GULP energy -396814.015775 kJ/mol
# GULP energy per Si atom -12400.437993 kJ/mol
# Density = 1.721482 g / cm^3
# Si number density = 17.254092 Si / 1000 Ang^3
#
#
#
# Elastic Constant Matrix: (Units=GPa)
#
#
# Indices 1 2 3 4 5 6 
#
# 1 68.3892 32.4908 24.1669 0.0008 11.4351 0.0012
# 2 32.4908 88.5376 40.7382 0.0010 8.3537 0.0000
# 3 24.1669 40.7382 105.4502 0.0006 13.0117 0.0004
# 4 0.0008 0.0010 0.0006 24.8357 -0.0001 2.9153
# 5 11.4351 8.3537 13.0117 -0.0001 11.3291 0.0001
# 6 0.0012 0.0000 0.0004 2.9153 0.0001 25.1108
#
#
#
# Elastic Compliance Matrix: (Units=1/GPa)
#
#
# Indices 1 2 3 4 5 6 
#
# 1 0.020091 -0.005681 -0.000494 0.000000 -0.015522 -0.000001
# 2 -0.005681 0.015561 -0.004662 0.000000 -0.000386 0.000000
# 3 -0.000494 -0.004662 0.012714 0.000000 -0.010665 0.000000
# 4 0.000000 0.000000 0.000000 0.040821 0.000001 -0.004739
# 5 -0.015522 -0.000386 -0.010665 0.000001 0.116469 0.000000
# 6 -0.000001 0.000000 0.000000 -0.004739 0.000000 0.040374
#
#
# Mechanical properties :
#
#
# Convention : Reuss Voigt Hill
#
# Bulk Modulus (GPa) = 37.46599 50.79654 44.13127
# Shear Modulus (GPa) = 18.07655 23.25386 20.66520
#
# Velocity S-wave (km/s) = 3.24028 3.67513 3.46453
# Velocity P-wave (km/s) = 5.98002 6.89296 6.45266
#
# Compressibility (1/GPa) = 0.02669087
#
# Stress axis : x y z
#
# Youngs Moduli (GPa) = 49.77287 64.26382 78.65636
#
# Poissons Ratio (x) = 0.36507 0.03889
# Poissons Ratio (y) = 0.28275 0.36670
# Poissons Ratio (z) = 0.02461 0.29960
#
# Static dielectric constant tensor:
#      x y z
#    x 2.969270 0.000000 -0.081630 
#    y 0.000000 3.342170 0.000000 
#    z -0.081630 0.000000 3.468980 
# 
# 
# High freq. dielectric constant tensor:
#      x y z
#    x 1.625040 0.000000 0.000380 
#    y 0.000000 1.673910 0.000000 
#    z 0.000380 0.000000 1.674520 
# 
# From -- ./inp_files/319775.got.cif
#   From: 2010.06.25/outbox.cif.g09.slc.cpg/sg12_160_cif.got.tgz:319775.got - 2010.06.28 00:19:55.
