data_PCOD8086719
_publ_section_title
;
Structure prediction by ZEFSAII (Michael W. Deem and Ramdas Pophale) SiO2 
 PCOD8086719
Probable space group: C 2/M
;
_chemical_formula_sum "Si O2"
_cell_formula_units_Z 64
_cell_length_a 22.501316
_cell_length_b 18.178472
_cell_length_c 19.991771
_cell_angle_alpha 90.000000
_cell_angle_beta 153.237864
_cell_angle_gamma 90.000000
_cell_volume 3682.192820
_symmetry_space_group_name_H-M "C 2/M"
_symmetry_group_IT_number 12
_symmetry_cell_setting 'monoclinic'
loop_
_space_group_symop_operation_xyz
x,y,z
-x,y,-z
-x,-y,-z
x,-y,z
1/2+x,1/2+y,z
1/2-x,1/2+y,-z
1/2-x,1/2-y,-z
1/2+x,1/2-y,z
loop_
_atom_site_type_symbol
_atom_site_label
_atom_site_fract_x
_atom_site_fract_y
_atom_site_fract_z
Si Si1 0.351875 0.805088 0.135945
Si Si2 0.623708 0.748230 0.456673
Si Si3 0.507071 0.916292 0.204103
Si Si4 0.675967 0.684201 0.080689
Si Si5 0.265624 0.693758 0.711012
Si Si6 0.508485 0.811851 0.083530
Si Si7 0.072602 0.083724 0.199975
Si Si8 0.273794 0.367720 0.526557
O O1 0.479475 0.758023 0.282215
O O2 0.393247 0.873217 0.130455
O O3 0.285950 0.835634 0.136822
O O4 0.250000 0.750000 0.000000
O O5 0.631925 0.771071 0.543827
O O6 0.664990 0.663968 0.481484
O O7 0.732633 0.799463 0.531249
O O8 0.532221 0.878912 0.157570
O O9 0.646018 0.917670 0.383311
O O10 0.459177 0.000000 0.145924
O O11 0.748565 0.678732 0.224995
O O12 0.621537 0.767936 0.021604
O O13 0.559327 0.626228 0.953531
O O14 0.376120 0.752526 0.801171
O O15 0.303955 0.614996 0.718110
O O16 0.500000 0.844852 0.000000
O O17 0.111295 0.088893 0.317811
O O18 0.049207 0.000000 0.156371
#
# Coordination Sequence:
#
# PCOD8086719 Si02
#       8
#     8   8   8   8   8   8   8   8
#     4  11  21  34  51  74 107 142 176 208 255 319
#     4   9  17  30  54  74  94 133 174 216 259 307
#     4  11  21  33  53  80 107 136 171 219 274 317
#     4  10  20  33  51  74 106 140 177 215 254 312
#     4   9  18  33  53  77  99 132 181 225 262 304
#     4   9  17  33  54  76 101 132 175 223 262 308
#     4  10  19  31  50  77 107 139 176 220 268 311
#     4   9  17  31  51  75 103 128 171 220 267 308
#
# _framework density 17.380946999999999
#
# number of rings (size 3 to 8) (size 9 to 14) (size 15 to 20)
#    0.000    2.250    2.500    2.250    3.500    2.250 
#    0.000    0.000    0.000    0.000    0.000    6.125 
#    0.000    4.000    0.000    0.000    0.000    0.000 
#
# Total GULP energy -396557.453680 kJ/mol
# GULP energy per Si atom -12392.420427 kJ/mol
# Density = 1.734139 g / cm^3
# Si number density = 17.380947 Si / 1000 Ang^3
#
#
#
# Elastic Constant Matrix: (Units=GPa)
#
#
# Indices 1 2 3 4 5 6 
#
# 1 86.3266 44.8112 31.8808 0.0012 -16.6191 0.0009
# 2 44.8112 95.7060 33.0568 0.0014 -10.9840 0.0011
# 3 31.8808 33.0568 81.8445 0.0034 -18.1430 0.0028
# 4 0.0012 0.0014 0.0034 16.3557 0.0012 -2.6890
# 5 -16.6191 -10.9840 -18.1430 0.0012 28.5513 0.0010
# 6 0.0009 0.0011 0.0028 -2.6890 0.0010 14.0625
#
#
#
# Elastic Compliance Matrix: (Units=1/GPa)
#
#
# Indices 1 2 3 4 5 6 
#
# 1 0.017004 -0.006342 -0.002804 -0.000001 0.005676 -0.000001
# 2 -0.006342 0.014589 -0.003487 0.000000 -0.000295 0.000000
# 3 -0.002804 -0.003487 0.016365 -0.000004 0.007426 -0.000004
# 4 -0.000001 0.000000 -0.000004 0.063125 -0.000006 0.012070
# 5 0.005676 -0.000295 0.007426 -0.000006 0.042934 -0.000006
# 6 -0.000001 0.000000 -0.000004 0.012070 -0.000006 0.073419
#
#
# Mechanical properties :
#
#
# Convention : Reuss Voigt Hill
#
# Bulk Modulus (GPa) = 44.06883 53.70832 48.88857
# Shear Modulus (GPa) = 19.21109 22.06910 20.64010
#
# Velocity S-wave (km/s) = 3.32821 3.56719 3.44977
# Velocity P-wave (km/s) = 6.33869 6.92346 6.63752
#
# Compressibility (1/GPa) = 0.02269178
#
# Stress axis : x y z
#
# Youngs Moduli (GPa) = 58.80950 68.54636 61.10551
#
# Poissons Ratio (x) = 0.43470 0.17133
# Poissons Ratio (y) = 0.37295 0.21310
# Poissons Ratio (z) = 0.16489 0.23905
#
# Static dielectric constant tensor:
#      x y z
#    x 3.229760 0.000000 -0.240510 
#    y 0.000000 3.026300 0.000000 
#    z -0.240510 0.000000 3.394760 
# 
# 
# High freq. dielectric constant tensor:
#      x y z
#    x 1.652100 0.000000 -0.020110 
#    y 0.000000 1.646290 0.000000 
#    z -0.020110 0.000000 1.678900 
# 
# From -- ./inp_files/285219.got.cif
#   From: 2010.06.25/outbox.cif.g09.slc.cpg/sg12_143_cif.got.tgz:285219.got - 2010.06.28 00:19:55.
