data_PCOD8086490
_publ_section_title
;
Structure prediction by ZEFSAII (Michael W. Deem and Ramdas Pophale) SiO2 
 PCOD8086490
Probable space group: C 2/M
;
_chemical_formula_sum "Si O2"
_cell_formula_units_Z 48
_cell_length_a 20.172774
_cell_length_b 8.829586
_cell_length_c 15.160872
_cell_angle_alpha 90.000000
_cell_angle_beta 102.084757
_cell_angle_gamma 90.000000
_cell_volume 2640.568791
_symmetry_space_group_name_H-M "C 2/M"
_symmetry_group_IT_number 12
_symmetry_cell_setting 'monoclinic'
loop_
_space_group_symop_operation_xyz
x,y,z
-x,y,-z
-x,-y,-z
x,-y,z
1/2+x,1/2+y,z
1/2-x,1/2+y,-z
1/2-x,1/2-y,-z
1/2+x,1/2-y,z
loop_
_atom_site_type_symbol
_atom_site_label
_atom_site_fract_x
_atom_site_fract_y
_atom_site_fract_z
Si Si1 0.201604 0.824278 0.765588
Si Si2 0.339657 0.329533 0.596113
Si Si3 0.682740 0.178669 0.941587
Si Si4 0.819899 0.329572 0.417429
Si Si5 0.859279 0.675762 0.778905
Si Si6 0.921436 0.825911 0.959858
O O1 0.170321 0.735247 0.839068
O O2 0.165386 0.762152 0.667795
O O3 0.281858 0.795655 0.785231
O O4 0.184289 0.000000 0.770265
O O5 0.368453 0.500000 0.604992
O O6 0.259407 0.330825 0.585097
O O7 0.359014 0.251429 0.508811
O O8 0.373549 0.234567 0.684284
O O9 0.691217 0.000000 0.945290
O O10 0.750000 0.250000 0.000000
O O11 0.618567 0.224309 0.981673
O O12 0.847578 0.500000 0.415235
O O13 0.878211 0.500000 0.788942
O O14 0.906957 0.769781 0.857119
O O15 0.898525 0.000000 0.962788
O O16 0.000000 0.804751 0.000000
#
# Coordination Sequence:
#
# PCOD8086490 Si02
#       6
#     8   8   8   8   8   8
#     4  10  19  31  49  75 105 138 175 217 265 317
#     4   9  16  26  42  65  98 136 172 213 261 315
#     4  12  23  36  56  80 107 141 180 223 269 321
#     4   9  16  26  41  66 100 135 171 213 261 314
#     4  10  19  31  50  74 102 138 177 219 265 317
#     4  11  24  40  57  78 107 142 181 225 271 321
#
# _framework density 18.177903000000001
#
# number of rings (size 3 to 8) (size 9 to 14) (size 15 to 20)
#    0.000    1.833    1.667    4.000    0.000    6.667 
#    0.000    0.000    0.000    0.000    0.000    1.167 
#    0.000    9.333    0.000    0.000    0.000    0.000 
#
# Total GULP energy -297678.984161 kJ/mol
# GULP energy per Si atom -12403.291007 kJ/mol
# Density = 1.813653 g / cm^3
# Si number density = 18.177903 Si / 1000 Ang^3
#
#
#
# Elastic Constant Matrix: (Units=GPa)
#
#
# Indices 1 2 3 4 5 6 
#
# 1 36.6763 34.7092 35.4203 0.0000 -3.8640 0.0000
# 2 34.7092 149.2470 69.8269 0.0000 -8.0093 0.0000
# 3 35.4203 69.8269 163.0426 0.0000 -16.8039 0.0000
# 4 0.0000 0.0000 0.0000 41.4465 0.0000 -4.7300
# 5 -3.8640 -8.0093 -16.8039 0.0000 14.7299 0.0000
# 6 0.0000 0.0000 0.0000 -4.7300 0.0000 18.5416
#
#
#
# Elastic Compliance Matrix: (Units=1/GPa)
#
#
# Indices 1 2 3 4 5 6 
#
# 1 0.038787 -0.006349 -0.005683 0.000000 0.000240 0.000000
# 2 -0.006349 0.009422 -0.002606 0.000000 0.000485 0.000000
# 3 -0.005683 -0.002606 0.009275 0.000000 0.007673 0.000000
# 4 0.000000 0.000000 0.000000 0.024851 0.000000 0.006340
# 5 0.000240 0.000485 0.007673 0.000000 0.076969 0.000000
# 6 0.000000 0.000000 0.000000 0.006340 0.000000 0.055550
#
#
# Mechanical properties :
#
#
# Convention : Reuss Voigt Hill
#
# Bulk Modulus (GPa) = 35.44948 69.87541 52.66244
# Shear Modulus (GPa) = 19.72137 28.87756 24.29947
#
# Velocity S-wave (km/s) = 3.29737 3.99006 3.66014
# Velocity P-wave (km/s) = 5.83443 7.72985 6.84804
#
# Compressibility (1/GPa) = 0.02820916
#
# Stress axis : x y z
#
# Youngs Moduli (GPa) = 25.78170 106.13374 107.81943
#
# Poissons Ratio (x) = 0.67383 0.61269
# Poissons Ratio (y) = 0.16369 0.28098
# Poissons Ratio (z) = 0.14651 0.27658
#
# Static dielectric constant tensor:
#      x y z
#    x 8.720250 0.000000 -2.490040 
#    y 0.000000 3.590340 0.000000 
#    z -2.490040 0.000000 4.542340 
# 
# 
# High freq. dielectric constant tensor:
#      x y z
#    x 1.634260 0.000000 -0.014220 
#    y 0.000000 1.726820 0.000000 
#    z -0.014220 0.000000 1.724410 
# 
# From -- ./inp_files/229844.got.cif
#   From: 2010.06.25/outbox.cif.g09.slc.cpg/sg12_115_cif.got.tgz:229844.got - 2010.06.28 00:19:55.
