data_PCOD8086671
_publ_section_title
;
Structure prediction by ZEFSAII (Michael W. Deem and Ramdas Pophale) SiO2 
 PCOD8086671
Probable space group: C 2/M
;
_chemical_formula_sum "Si O2"
_cell_formula_units_Z 48
_cell_length_a 24.084697
_cell_length_b 8.829385
_cell_length_c 24.647138
_cell_angle_alpha 90.000000
_cell_angle_beta 150.979367
_cell_angle_gamma 90.000000
_cell_volume 2542.678157
_symmetry_space_group_name_H-M "C 2/M"
_symmetry_group_IT_number 12
_symmetry_cell_setting 'monoclinic'
loop_
_space_group_symop_operation_xyz
x,y,z
-x,y,-z
-x,-y,-z
x,-y,z
1/2+x,1/2+y,z
1/2-x,1/2+y,-z
1/2-x,1/2-y,-z
1/2+x,1/2-y,z
loop_
_atom_site_type_symbol
_atom_site_label
_atom_site_fract_x
_atom_site_fract_y
_atom_site_fract_z
Si Si1 0.180695 0.678548 0.056854
Si Si2 0.294408 0.679065 0.263831
Si Si3 0.975773 0.819783 0.591602
Si Si4 0.743274 0.180573 0.339406
Si Si5 0.915857 0.179576 0.206964
Si Si6 0.990119 0.820515 0.826298
O O1 0.159771 0.500000 0.033458
O O2 0.205716 0.724385 0.140590
O O3 0.286738 0.733065 0.109956
O O4 0.066947 0.765666 0.942038
O O5 0.303693 0.500000 0.275279
O O6 0.421244 0.742439 0.358474
O O7 0.250776 0.742302 0.284055
O O8 0.854823 0.759162 0.466728
O O9 0.997773 0.762877 0.672047
O O10 0.977133 0.000000 0.590825
O O11 0.635827 0.253842 0.276836
O O12 0.732763 0.000000 0.332393
O O13 0.955732 0.244780 0.183256
O O14 0.917609 0.000000 0.207721
O O15 0.983527 0.000000 0.820360
#
# Coordination Sequence:
#
# PCOD8086671 Si02
#       6
#     8   8   8   8   8   8
#     4   9  17  33  55  73  90 118 161 205 240 275
#     4   8  15  29  52  78  96 114 151 205 248 273
#     4   8  14  28  52  77  95 116 154 201 242 278
#     4  10  19  31  50  75  99 124 156 192 233 285
#     4   8  16  31  51  73  95 121 155 199 243 277
#     4  11  22  33  45  67 102 135 159 188 232 282
#
# _framework density 18.877734
#
# number of rings (size 3 to 8) (size 9 to 14) (size 15 to 20)
#    0.000    3.000    0.000    3.500    0.000    3.333 
#    0.000    5.000    0.000    7.000    0.000    0.000 
#    0.000    0.000    0.000    0.000    0.000    0.000 
#
# Total GULP energy -297503.251688 kJ/mol
# GULP energy per Si atom -12395.968820 kJ/mol
# Density = 1.883477 g / cm^3
# Si number density = 18.877734 Si / 1000 Ang^3
#
#
#
# Elastic Constant Matrix: (Units=GPa)
#
#
# Indices 1 2 3 4 5 6 
#
# 1 57.6526 10.7768 28.4369 0.0001 -2.3720 0.0000
# 2 10.7768 23.3346 16.9553 0.0001 0.4711 0.0001
# 3 28.4369 16.9553 102.8402 0.0001 -2.0178 0.0001
# 4 0.0001 0.0001 0.0001 14.1036 0.0001 4.9924
# 5 -2.3720 0.4711 -2.0178 0.0001 25.4572 0.0000
# 6 0.0000 0.0001 0.0001 4.9924 0.0000 20.9705
#
#
#
# Elastic Compliance Matrix: (Units=1/GPa)
#
#
# Indices 1 2 3 4 5 6 
#
# 1 0.020912 -0.006265 -0.004716 0.000000 0.001691 0.000000
# 2 -0.006265 0.050625 -0.006654 0.000000 -0.002048 0.000000
# 3 -0.004716 -0.006654 0.012138 0.000000 0.000646 0.000000
# 4 0.000000 0.000000 0.000000 0.077429 0.000000 -0.018433
# 5 0.001691 -0.002048 0.000646 0.000000 0.039528 0.000000
# 6 0.000000 0.000000 0.000000 -0.018433 0.000000 0.052074
#
#
# Mechanical properties :
#
#
# Convention : Reuss Voigt Hill
#
# Bulk Modulus (GPa) = 20.65986 32.90728 26.78357
# Shear Modulus (GPa) = 16.44128 20.61683 18.52905
#
# Velocity S-wave (km/s) = 2.95436 3.30832 3.13634
# Velocity P-wave (km/s) = 4.75452 5.66241 5.22821
#
# Compressibility (1/GPa) = 0.04840304
#
# Stress axis : x y z
#
# Youngs Moduli (GPa) = 47.81867 19.75312 82.38750
#
# Poissons Ratio (x) = 0.12376 0.38858
# Poissons Ratio (y) = 0.29959 0.54823
# Poissons Ratio (z) = 0.22553 0.13144
#
# Static dielectric constant tensor:
#      x y z
#    x 3.817420 0.000000 -0.180060 
#    y 0.000000 2.858980 0.000000 
#    z -0.180060 0.000000 3.636740 
# 
# 
# High freq. dielectric constant tensor:
#      x y z
#    x 1.737120 0.000000 -0.006800 
#    y 0.000000 1.674660 0.000000 
#    z -0.006800 0.000000 1.744900 
# 
# From -- ./inp_files/164195.got.cif
#   From: 2010.06.25/outbox.cif.g09.slc.cpg/sg12_83_cif.got.tgz:164195.got - 2010.06.28 00:19:55.
