data_PCOD8086317
_publ_section_title
;
Structure prediction by ZEFSAII (Michael W. Deem and Ramdas Pophale) SiO2 
 PCOD8086317
Probable space group: C 2/M
;
_chemical_formula_sum "Si O2"
_cell_formula_units_Z 48
_cell_length_a 18.412205
_cell_length_b 8.989823
_cell_length_c 19.024693
_cell_angle_alpha 90.000000
_cell_angle_beta 61.421187
_cell_angle_gamma 90.000000
_cell_volume 2765.337960
_symmetry_space_group_name_H-M "C 2/M"
_symmetry_group_IT_number 12
_symmetry_cell_setting 'monoclinic'
loop_
_space_group_symop_operation_xyz
x,y,z
-x,y,-z
-x,-y,-z
x,-y,z
1/2+x,1/2+y,z
1/2-x,1/2+y,-z
1/2-x,1/2-y,-z
1/2+x,1/2-y,z
loop_
_atom_site_type_symbol
_atom_site_label
_atom_site_fract_x
_atom_site_fract_y
_atom_site_fract_z
Si Si1 0.342448 0.675650 0.659962
Si Si2 0.170304 0.827596 0.067701
Si Si3 0.991536 0.332802 0.420948
Si Si4 0.175387 0.824056 0.493066
Si Si5 0.586944 0.176035 0.990788
Si Si6 0.244760 0.328048 0.835202
O O1 0.356648 0.500000 0.660235
O O2 0.427096 0.752658 0.646228
O O3 0.315881 0.718397 0.593301
O O4 0.270730 0.734355 0.746468
O O5 0.176274 0.804305 0.149148
O O6 0.169973 0.000000 0.047939
O O7 0.250000 0.750000 0.000000
O O8 0.092305 0.748287 0.066462
O O9 0.984765 0.500000 0.393517
O O10 0.910202 0.240617 0.436500
O O11 0.000000 0.336334 0.500000
O O12 0.250000 0.750000 0.500000
O O13 0.176613 0.000000 0.504133
O O14 0.659991 0.241674 0.906232
O O15 0.594292 0.000000 0.996098
O O16 0.500000 0.226400 0.000000
O O17 0.224650 0.500000 0.835726
#
# Coordination Sequence:
#
# PCOD8086317 Si02
#       6
#     8   8   8   8   8   8
#     4   9  17  31  50  69  91 122 158 193 234 282
#     4   9  16  28  47  68  91 119 152 189 228 273
#     4   9  17  30  48  69  92 117 150 191 231 275
#     4  10  19  31  49  70  94 126 160 193 232 280
#     4   9  17  30  48  69  95 127 159 191 229 275
#     4   8  15  29  48  68  91 121 156 195 236 275
#
# _framework density 17.357734000000001
#
# number of rings (size 3 to 8) (size 9 to 14) (size 15 to 20)
#    0.000    3.000    0.000    2.500    0.000    3.000 
#    0.000    5.833    0.000    2.000    0.000    0.000 
#    0.000    0.000    0.000    0.000    0.000    0.000 
#
# Total GULP energy -297372.465804 kJ/mol
# GULP energy per Si atom -12390.519408 kJ/mol
# Density = 1.731823 g / cm^3
# Si number density = 17.357734 Si / 1000 Ang^3
#
#
#
# Elastic Constant Matrix: (Units=GPa)
#
#
# Indices 1 2 3 4 5 6 
#
# 1 141.5837 49.9747 48.4230 0.0000 -6.6314 -0.0001
# 2 49.9747 66.1532 24.2411 0.0000 0.9024 -0.0002
# 3 48.4230 24.2411 87.6965 0.0000 -4.2410 0.0000
# 4 0.0000 0.0000 0.0000 15.7676 0.0000 0.1648
# 5 -6.6314 0.9024 -4.2410 0.0000 18.6487 0.0000
# 6 -0.0001 -0.0002 0.0000 0.1648 0.0000 32.7411
#
#
#
# Elastic Compliance Matrix: (Units=1/GPa)
#
#
# Indices 1 2 3 4 5 6 
#
# 1 0.011033 -0.006907 -0.004021 0.000000 0.003343 0.000000
# 2 -0.006907 0.021210 -0.002242 0.000000 -0.003992 0.000000
# 3 -0.004021 -0.002242 0.014337 0.000000 0.001939 0.000000
# 4 0.000000 0.000000 0.000000 0.063424 0.000000 -0.000319
# 5 0.003343 -0.003992 0.001939 0.000000 0.055446 0.000000
# 6 0.000000 0.000000 0.000000 -0.000319 0.000000 0.030544
#
#
# Mechanical properties :
#
#
# Convention : Reuss Voigt Hill
#
# Bulk Modulus (GPa) = 49.40825 60.07899 54.74362
# Shear Modulus (GPa) = 21.82638 24.95113 23.38876
#
# Velocity S-wave (km/s) = 3.54989 3.79550 3.67475
# Velocity P-wave (km/s) = 6.73267 7.34133 7.04358
#
# Compressibility (1/GPa) = 0.02023953
#
# Stress axis : x y z
#
# Youngs Moduli (GPa) = 90.64070 47.14737 69.75040
#
# Poissons Ratio (x) = 0.32563 0.28047
# Poissons Ratio (y) = 0.62602 0.15641
# Poissons Ratio (z) = 0.36447 0.10572
#
# Static dielectric constant tensor:
#      x y z
#    x 3.409050 0.000000 0.108010 
#    y 0.000000 3.293960 0.000000 
#    z 0.108010 0.000000 3.400880 
# 
# 
# High freq. dielectric constant tensor:
#      x y z
#    x 1.664440 0.000000 0.001080 
#    y 0.000000 1.662770 0.000000 
#    z 0.001080 0.000000 1.649030 
# 
# From -- ./inp_files/274127.got.cif
#   From: 2010.06.25/outbox.cif.g09.slc.cpg/sg12_138_cif.got.tgz:274127.got - 2010.06.28 00:19:55.
