data_PCOD8086761
_publ_section_title
;
Structure prediction by ZEFSAII (Michael W. Deem and Ramdas Pophale) SiO2 
 PCOD8086761
Probable space group: C 2/M
;
_chemical_formula_sum "Si O2"
_cell_formula_units_Z 64
_cell_length_a 13.234566
_cell_length_b 19.724004
_cell_length_c 14.079088
_cell_angle_alpha 90.000000
_cell_angle_beta 78.773926
_cell_angle_gamma 90.000000
_cell_volume 3604.867308
_symmetry_space_group_name_H-M "C 2/M"
_symmetry_group_IT_number 12
_symmetry_cell_setting 'monoclinic'
loop_
_space_group_symop_operation_xyz
x,y,z
-x,y,-z
-x,-y,-z
x,-y,z
1/2+x,1/2+y,z
1/2-x,1/2+y,-z
1/2-x,1/2-y,-z
1/2+x,1/2-y,z
loop_
_atom_site_type_symbol
_atom_site_label
_atom_site_fract_x
_atom_site_fract_y
_atom_site_fract_z
Si Si1 0.173466 0.260429 0.898870
Si Si2 0.514316 0.623921 0.213006
Si Si3 0.704770 0.707129 0.592808
Si Si4 0.820422 0.144017 0.964765
Si Si5 0.464819 0.231967 0.249986
Si Si6 0.187486 0.076200 0.844990
Si Si7 0.829830 0.674557 0.745127
Si Si8 0.064853 0.922850 0.582367
O O1 0.215274 0.331162 0.934217
O O2 0.082600 0.282252 0.844771
O O3 0.268423 0.222321 0.830318
O O4 0.131002 0.210422 0.990244
O O5 0.605405 0.605342 0.124007
O O6 0.535405 0.701115 0.237614
O O7 0.404630 0.622921 0.178647
O O8 0.509365 0.579622 0.310461
O O9 0.750000 0.750000 0.500000
O O10 0.623615 0.758113 0.656026
O O11 0.801638 0.693886 0.643075
O O12 0.653775 0.634500 0.573787
O O13 0.798043 0.085456 0.045235
O O14 0.546678 0.174103 0.263456
O O15 0.291946 0.097783 0.772288
O O16 0.159003 0.000000 0.824535
O O17 0.000000 0.906715 0.500000
O O18 0.110294 0.000000 0.568363
#
# Coordination Sequence:
#
# PCOD8086761 Si02
#       8
#     8   8   8   8   8   8   8   8
#     4   9  18  32  49  77 113 142 182 228 271 327
#     4  11  19  31  56  79 112 145 180 231 275 332
#     4  10  22  34  56  85 113 140 180 238 285 328
#     4  10  19  31  50  81 112 147 180 225 282 324
#     4  10  19  33  53  80 110 141 186 225 276 333
#     4  11  22  36  51  80 116 150 189 222 269 336
#     4  10  19  35  54  77 107 152 181 223 279 324
#     4  10  22  38  56  81 112 148 180 219 286 351
#
# _framework density 17.753772999999999
#
# number of rings (size 3 to 8) (size 9 to 14) (size 15 to 20)
#    0.000    1.875    6.250    0.750    3.500    1.500 
#    0.000    0.000    0.000    2.250    0.000    1.750 
#    0.000    0.000    0.000    0.000    0.000    0.000 
#
# Total GULP energy -396550.462556 kJ/mol
# GULP energy per Si atom -12392.201955 kJ/mol
# Density = 1.771336 g / cm^3
# Si number density = 17.753773 Si / 1000 Ang^3
#
#
#
# Elastic Constant Matrix: (Units=GPa)
#
#
# Indices 1 2 3 4 5 6 
#
# 1 94.5379 27.6022 42.6319 0.0000 12.4389 0.0000
# 2 27.6022 60.0993 29.4503 0.0000 -0.4333 0.0000
# 3 42.6319 29.4503 120.9821 0.0000 8.8438 0.0000
# 4 0.0000 0.0000 0.0000 20.1169 0.0000 -0.8302
# 5 12.4389 -0.4333 8.8438 0.0000 26.7715 0.0000
# 6 0.0000 0.0000 0.0000 -0.8302 0.0000 16.0377
#
#
#
# Elastic Compliance Matrix: (Units=1/GPa)
#
#
# Indices 1 2 3 4 5 6 
#
# 1 0.014299 -0.004926 -0.003431 0.000000 -0.005590 0.000000
# 2 -0.004926 0.020682 -0.003577 0.000000 0.003805 0.000000
# 3 -0.003431 -0.003577 0.010486 0.000000 -0.001928 0.000000
# 4 0.000000 0.000000 0.000000 0.049816 0.000000 0.002579
# 5 -0.005590 0.003805 -0.001928 0.000000 0.040649 0.000000
# 6 0.000000 0.000000 0.000000 0.002579 0.000000 0.062487
#
#
# Mechanical properties :
#
#
# Convention : Reuss Voigt Hill
#
# Bulk Modulus (GPa) = 46.29796 52.77644 49.53720
# Shear Modulus (GPa) = 21.78789 24.31422 23.05106
#
# Velocity S-wave (km/s) = 3.50698 3.70472 3.60721
# Velocity P-wave (km/s) = 6.52173 6.93479 6.73143
#
# Compressibility (1/GPa) = 0.02159922
#
# Stress axis : x y z
#
# Youngs Moduli (GPa) = 69.93644 48.35185 95.36307
#
# Poissons Ratio (x) = 0.23819 0.32717
# Poissons Ratio (y) = 0.34452 0.34109
# Poissons Ratio (z) = 0.23994 0.17294
#
# Static dielectric constant tensor:
#      x y z
#    x 3.096230 0.000000 0.118350 
#    y 0.000000 3.059200 0.000000 
#    z 0.118350 0.000000 3.491810 
# 
# 
# High freq. dielectric constant tensor:
#      x y z
#    x 1.664290 0.000000 0.015270 
#    y 0.000000 1.655930 0.000000 
#    z 0.015270 0.000000 1.700340 
# 
# From -- ./inp_files/215897.got.cif
#   From: 2010.06.25/outbox.cif.g09.slc.cpg/sg12_108_cif.got.tgz:215897.got - 2010.06.28 00:19:55.
