data_PCOD8086919
_publ_section_title
;
Structure prediction by ZEFSAII (Michael W. Deem and Ramdas Pophale) SiO2 
 PCOD8086919
Probable space group: C 2/M
;
_chemical_formula_sum "Si O2"
_cell_formula_units_Z 48
_cell_length_a 21.509387
_cell_length_b 16.536371
_cell_length_c 9.048596
_cell_angle_alpha 90.000000
_cell_angle_beta 47.630865
_cell_angle_gamma 90.000000
_cell_volume 2377.864962
_symmetry_space_group_name_H-M "C 2/M"
_symmetry_group_IT_number 12
_symmetry_cell_setting 'monoclinic'
loop_
_space_group_symop_operation_xyz
x,y,z
-x,y,-z
-x,-y,-z
x,-y,z
1/2+x,1/2+y,z
1/2-x,1/2+y,-z
1/2-x,1/2-y,-z
1/2+x,1/2-y,z
loop_
_atom_site_type_symbol
_atom_site_label
_atom_site_fract_x
_atom_site_fract_y
_atom_site_fract_z
Si Si1 0.709097 0.093058 0.052614
Si Si2 0.464537 0.587126 0.218516
Si Si3 0.612590 0.339574 0.158459
Si Si4 0.079548 0.258236 0.765202
Si Si5 0.127116 0.719420 0.386941
Si Si6 0.695643 0.787723 0.823116
O O1 0.645324 0.138828 0.265149
O O2 0.684336 0.000000 0.094565
O O3 0.805549 0.105269 0.946209
O O4 0.695807 0.127281 0.909018
O O5 0.422184 0.500000 0.332234
O O6 0.536405 0.604903 0.225760
O O7 0.401588 0.663421 0.307490
O O8 0.500000 0.574540 0.000000
O O9 0.588873 0.290395 0.345684
O O10 0.630973 0.274329 0.002805
O O11 0.065607 0.300050 0.625562
O O12 0.160840 0.298365 0.712706
O O13 0.000000 0.269661 0.000000
O O14 0.212564 0.750230 0.325077
#
# Coordination Sequence:
#
# PCOD8086919 Si02
#       6
#     8   8   8   8   8   8
#     4   9  18  34  59  83 107 136 182 241 283 311
#     4  10  19  31  51  81 117 145 172 208 267 334
#     4   9  16  34  54  83 108 141 174 217 273 336
#     4  11  20  35  53  77 109 154 185 215 264 328
#     4   9  20  33  57  80 106 142 192 226 264 324
#     4   9  17  35  55  78 106 141 182 222 272 327
#
# _framework density 20.186176
#
# number of rings (size 3 to 8) (size 9 to 14) (size 15 to 20)
#    0.000    2.500    3.333    3.000    0.000    0.667 
#    0.000    5.833    0.000    3.000    0.000    0.000 
#    0.000    0.000    0.000    0.000    0.000    0.000 
#
# Total GULP energy -297326.704467 kJ/mol
# GULP energy per Si atom -12388.612686 kJ/mol
# Density = 2.014023 g / cm^3
# Si number density = 20.186176 Si / 1000 Ang^3
#
#
#
# Elastic Constant Matrix: (Units=GPa)
#
#
# Indices 1 2 3 4 5 6 
#
# 1 111.1680 37.3645 21.7361 0.0000 20.6576 0.0000
# 2 37.3645 122.2655 26.4703 0.0000 8.2345 0.0000
# 3 21.7361 26.4703 84.4725 0.0000 22.5978 0.0000
# 4 0.0000 0.0000 0.0000 12.8559 0.0000 4.1455
# 5 20.6576 8.2345 22.5978 0.0000 25.5922 0.0000
# 6 0.0000 0.0000 0.0000 4.1455 0.0000 55.7336
#
#
#
# Elastic Compliance Matrix: (Units=1/GPa)
#
#
# Indices 1 2 3 4 5 6 
#
# 1 0.011551 -0.003010 0.000270 0.000000 -0.008594 0.000000
# 2 -0.003010 0.009564 -0.002683 0.000000 0.001721 0.000000
# 3 0.000270 -0.002683 0.016283 0.000000 -0.013732 0.000000
# 4 0.000000 0.000000 0.000000 0.079697 0.000000 -0.005928
# 5 -0.008594 0.001721 -0.013732 0.000000 0.057583 0.000000
# 6 0.000000 0.000000 0.000000 -0.005928 0.000000 0.018383
#
#
# Mechanical properties :
#
#
# Convention : Reuss Voigt Hill
#
# Bulk Modulus (GPa) = 37.66140 54.33866 46.00003
# Shear Modulus (GPa) = 23.50098 34.32536 28.91317
#
# Velocity S-wave (km/s) = 3.41576 4.12811 3.78871
# Velocity P-wave (km/s) = 5.85270 7.04975 6.47893
#
# Compressibility (1/GPa) = 0.02655238
#
# Stress axis : x y z
#
# Youngs Moduli (GPa) = 86.57157 104.56316 61.41332
#
# Poissons Ratio (x) = 0.31470 -0.01657
# Poissons Ratio (y) = 0.26055 0.16476
# Poissons Ratio (z) = -0.02336 0.28053
#
# Static dielectric constant tensor:
#      x y z
#    x 3.817730 0.000000 0.237470 
#    y 0.000000 3.651710 0.000000 
#    z 0.237470 0.000000 3.661750 
# 
# 
# High freq. dielectric constant tensor:
#      x y z
#    x 1.795660 0.000000 0.021830 
#    y 0.000000 1.754280 0.000000 
#    z 0.021830 0.000000 1.777120 
# 
# From -- ./inp_files/87733.got.cif
#   From: 2010.06.25/outbox.cif.g09.slc.cpg/sg12_44_cif.got.tgz:87733.got - 2010.06.28 00:19:55.
