data_PCOD8086050
_publ_section_title
;
Structure prediction by ZEFSAII (Michael W. Deem and Ramdas Pophale) SiO2 
 PCOD8086050
Probable space group: C 2/M
;
_chemical_formula_sum "Si O2"
_cell_formula_units_Z 56
_cell_length_a 22.619200
_cell_length_b 8.985439
_cell_length_c 21.031653
_cell_angle_alpha 90.000000
_cell_angle_beta 130.527364
_cell_angle_gamma 90.000000
_cell_volume 3249.063720
_symmetry_space_group_name_H-M "C 2/M"
_symmetry_group_IT_number 12
_symmetry_cell_setting 'monoclinic'
loop_
_space_group_symop_operation_xyz
x,y,z
-x,y,-z
-x,-y,-z
x,-y,z
1/2+x,1/2+y,z
1/2-x,1/2+y,-z
1/2-x,1/2-y,-z
1/2+x,1/2-y,z
loop_
_atom_site_type_symbol
_atom_site_label
_atom_site_fract_x
_atom_site_fract_y
_atom_site_fract_z
Si Si1 0.117489 0.824253 0.237036
Si Si2 0.316450 0.170944 0.969223
Si Si3 0.245472 0.665208 0.399619
Si Si4 0.414555 0.828554 0.915123
Si Si5 0.491096 0.176623 0.737076
Si Si6 0.357870 0.327391 0.123193
Si Si7 0.636302 0.835429 0.445303
O O1 0.202576 0.767940 0.318112
O O2 0.105153 0.781228 0.155649
O O3 0.049215 0.749915 0.230069
O O4 0.113473 0.000000 0.243073
O O5 0.352434 0.207327 0.926370
O O6 0.224724 0.205165 0.901625
O O7 0.331546 0.000000 0.999569
O O8 0.357709 0.273840 0.050173
O O9 0.255990 0.500000 0.378413
O O10 0.331080 0.729463 0.476287
O O11 0.195586 0.659232 0.428377
O O12 0.408744 0.000000 0.888576
O O13 0.500000 0.792197 0.000000
O O14 0.578645 0.235917 0.792311
O O15 0.446080 0.221931 0.640497
O O16 0.488713 0.000000 0.745079
O O17 0.379969 0.500000 0.139861
O O18 0.627055 0.000000 0.468115
#
# Coordination Sequence:
#
# PCOD8086050 Si02
#       7
#     8   8   8   8   8   8   8
#     4  11  21  31  46  69  97 126 158 196 234 276
#     4   9  19  34  50  69  95 127 158 191 235 281
#     4   9  16  27  43  63  91 125 156 186 227 280
#     4  10  20  34  51  69  93 126 160 192 230 279
#     4  10  19  31  47  68  96 128 159 192 235 283
#     4  10  19  31  49  72  96 122 156 197 235 275
#     4   8  15  26  41  63  90 120 154 191 229 272
#
# _framework density 17.235734000000001
#
# number of rings (size 3 to 8) (size 9 to 14) (size 15 to 20)
#    0.000    2.429    0.000    4.286    0.000    6.571 
#    0.000    0.000    0.000    0.000    0.000    1.000 
#    0.000    8.000    0.000    0.000    0.000    0.000 
#
# Total GULP energy -347195.515985 kJ/mol
# GULP energy per Si atom -12399.839857 kJ/mol
# Density = 1.719650 g / cm^3
# Si number density = 17.235734 Si / 1000 Ang^3
#
#
#
# Elastic Constant Matrix: (Units=GPa)
#
#
# Indices 1 2 3 4 5 6 
#
# 1 57.6604 32.1338 42.2158 0.0000 9.8900 0.0000
# 2 32.1338 104.7471 59.0444 0.0000 11.8293 0.0000
# 3 42.2158 59.0444 117.2502 0.0000 24.8140 0.0000
# 4 0.0000 0.0000 0.0000 34.8741 0.0000 3.9262
# 5 9.8900 11.8293 24.8140 0.0000 22.5646 0.0000
# 6 0.0000 0.0000 0.0000 3.9262 0.0000 19.8057
#
#
#
# Elastic Compliance Matrix: (Units=1/GPa)
#
#
# Indices 1 2 3 4 5 6 
#
# 1 0.024498 -0.003565 -0.006710 0.000000 -0.001490 0.000000
# 2 -0.003565 0.013854 -0.005848 0.000000 0.000730 0.000000
# 3 -0.006710 -0.005848 0.016446 0.000000 -0.012079 0.000000
# 4 0.000000 0.000000 0.000000 0.029329 0.000000 -0.005814
# 5 -0.001490 0.000730 -0.012079 0.000000 0.057870 0.000000
# 6 0.000000 0.000000 0.000000 -0.005814 0.000000 0.051643
#
#
# Mechanical properties :
#
#
# Convention : Reuss Voigt Hill
#
# Bulk Modulus (GPa) = 44.34056 60.71618 52.52837
# Shear Modulus (GPa) = 21.42226 25.19979 23.31103
#
# Velocity S-wave (km/s) = 3.52930 3.82785 3.68160
# Velocity P-wave (km/s) = 6.51074 7.40540 6.97243
#
# Compressibility (1/GPa) = 0.02255272
#
# Stress axis : x y z
#
# Youngs Moduli (GPa) = 40.82006 72.18049 60.80631
#
# Poissons Ratio (x) = 0.25730 0.40801
# Poissons Ratio (y) = 0.14551 0.35557
# Poissons Ratio (z) = 0.27390 0.42209
#
# Static dielectric constant tensor:
#      x y z
#    x 2.911730 0.000000 0.272440 
#    y 0.000000 3.342280 0.000000 
#    z 0.272440 0.000000 3.385810 
# 
# 
# High freq. dielectric constant tensor:
#      x y z
#    x 1.618280 0.000000 0.022620 
#    y 0.000000 1.674550 0.000000 
#    z 0.022620 0.000000 1.671280 
# 
# From -- ./inp_files/323806.got.cif
#   From: 2010.06.25/outbox.cif.g09.slc.cpg/sg12_162_cif.got.tgz:323806.got - 2010.06.28 00:19:55.
