data_PCOD8086864
_publ_section_title
;
Structure prediction by ZEFSAII (Michael W. Deem and Ramdas Pophale) SiO2 
 PCOD8086864
Probable space group: C 2/M
;
_chemical_formula_sum "Si O2"
_cell_formula_units_Z 56
_cell_length_a 22.070252
_cell_length_b 9.940352
_cell_length_c 31.509482
_cell_angle_alpha 90.000000
_cell_angle_beta 154.445517
_cell_angle_gamma 90.000000
_cell_volume 2981.943630
_symmetry_space_group_name_H-M "C 2/M"
_symmetry_group_IT_number 12
_symmetry_cell_setting 'monoclinic'
loop_
_space_group_symop_operation_xyz
x,y,z
-x,y,-z
-x,-y,-z
x,-y,z
1/2+x,1/2+y,z
1/2-x,1/2+y,-z
1/2-x,1/2-y,-z
1/2+x,1/2-y,z
loop_
_atom_site_type_symbol
_atom_site_label
_atom_site_fract_x
_atom_site_fract_y
_atom_site_fract_z
Si Si1 0.683598 0.345062 0.727173
Si Si2 0.589610 0.771114 0.345008
Si Si3 0.621724 0.352216 0.455577
Si Si4 0.006719 0.147691 0.797130
Si Si5 0.071529 0.654800 0.180768
Si Si6 0.293107 0.152639 0.177845
Si Si7 0.809124 0.654713 0.956854
O O1 0.710480 0.500000 0.759892
O O2 0.522402 0.327794 0.609041
O O3 0.783027 0.311370 0.750595
O O4 0.712150 0.238129 0.782343
O O5 0.616353 0.736121 0.410413
O O6 0.740775 0.834447 0.427403
O O7 0.556632 0.653412 0.290666
O O8 0.450810 0.864514 0.258194
O O9 0.623387 0.500000 0.437622
O O10 0.933644 0.258608 0.779921
O O11 0.173815 0.171002 0.901466
O O12 0.973337 0.000000 0.794354
O O13 0.062265 0.500000 0.188825
O O14 0.944654 0.693406 0.069629
O O15 0.195536 0.237642 0.084141
O O16 0.234862 0.000000 0.147556
O O17 0.818124 0.500000 0.945392
#
# Coordination Sequence:
#
# PCOD8086864 Si02
#       7
#     8   8   8   8   8   8   8
#     4   9  19  35  52  72 101 136 169 203 248 298
#     4   9  18  31  50  77 105 129 158 201 256 300
#     4   9  16  30  53  76  98 127 164 203 244 296
#     4  10  20  34  53  76 102 132 165 205 252 298
#     4  10  21  36  53  72  98 135 174 208 244 292
#     4  10  19  31  51  79 105 129 163 208 252 295
#     4   9  19  35  53  74 100 131 166 206 254 300
#
# _framework density 18.779698
#
# number of rings (size 3 to 8) (size 9 to 14) (size 15 to 20)
#    0.000    2.571    0.000    1.714    0.000    8.000 
#    0.000    4.286    0.000    3.429    0.000    0.000 
#    0.000    0.000    0.000    0.000    0.000    0.000 
#
# Total GULP energy -346869.207533 kJ/mol
# GULP energy per Si atom -12388.185983 kJ/mol
# Density = 1.873695 g / cm^3
# Si number density = 18.779698 Si / 1000 Ang^3
#
#
#
# Elastic Constant Matrix: (Units=GPa)
#
#
# Indices 1 2 3 4 5 6 
#
# 1 59.4913 28.2817 24.1778 0.0037 17.7337 0.0004
# 2 28.2817 90.5210 5.9178 0.0026 1.5148 0.0002
# 3 24.1778 5.9178 74.2551 -0.0002 15.2150 0.0005
# 4 0.0037 0.0026 -0.0002 19.0131 -0.0027 -1.7762
# 5 17.7337 1.5148 15.2150 -0.0027 20.4229 0.0000
# 6 0.0004 0.0002 0.0005 -1.7762 0.0000 24.1026
#
#
#
# Elastic Compliance Matrix: (Units=1/GPa)
#
#
# Indices 1 2 3 4 5 6 
#
# 1 0.028904 -0.008388 -0.004399 -0.000008 -0.021198 -0.000001
# 2 -0.008388 0.013540 0.000431 0.000001 0.005958 0.000000
# 3 -0.004399 0.000431 0.016627 0.000000 -0.008599 0.000000
# 4 -0.000008 0.000001 0.000000 0.052960 0.000014 0.003903
# 5 -0.021198 0.005958 -0.008599 0.000014 0.073336 0.000001
# 6 -0.000001 0.000000 0.000000 0.003903 0.000001 0.041777
#
#
# Mechanical properties :
#
#
# Convention : Reuss Voigt Hill
#
# Bulk Modulus (GPa) = 29.10448 37.89132 33.49790
# Shear Modulus (GPa) = 18.98913 23.76705 21.37809
#
# Velocity S-wave (km/s) = 3.18331 3.56135 3.37762
# Velocity P-wave (km/s) = 5.38914 6.09356 5.75214
#
# Compressibility (1/GPa) = 0.03435898
#
# Stress axis : x y z
#
# Youngs Moduli (GPa) = 34.59775 73.85542 60.14277
#
# Poissons Ratio (x) = 0.61951 0.26457
# Poissons Ratio (y) = 0.29021 -0.02594
# Poissons Ratio (z) = 0.15220 -0.03186
#
# Static dielectric constant tensor:
#      x y z
#    x 3.219370 0.000000 0.338320 
#    y 0.000000 3.399280 0.000000 
#    z 0.338320 0.000000 3.694160 
# 
# 
# High freq. dielectric constant tensor:
#      x y z
#    x 1.703010 0.000000 0.015740 
#    y 0.000000 1.724280 0.000000 
#    z 0.015740 0.000000 1.731850 
# 
# From -- ./inp_files/380745.got.cif
#   From: 2010.06.25/outbox.cif.g09.slc.cpg/sg12_191_cif.got.tgz:380745.got - 2010.06.28 00:19:55.
