data_PCOD8086480
_publ_section_title
;
Structure prediction by ZEFSAII (Michael W. Deem and Ramdas Pophale) SiO2 
 PCOD8086480
Probable space group: C 2/M
;
_chemical_formula_sum "Si O2"
_cell_formula_units_Z 56
_cell_length_a 22.191755
_cell_length_b 14.003333
_cell_length_c 11.430062
_cell_angle_alpha 90.000000
_cell_angle_beta 62.971465
_cell_angle_gamma 90.000000
_cell_volume 3164.042161
_symmetry_space_group_name_H-M "C 2/M"
_symmetry_group_IT_number 12
_symmetry_cell_setting 'monoclinic'
loop_
_space_group_symop_operation_xyz
x,y,z
-x,y,-z
-x,-y,-z
x,-y,z
1/2+x,1/2+y,z
1/2-x,1/2+y,-z
1/2-x,1/2-y,-z
1/2+x,1/2-y,z
loop_
_atom_site_type_symbol
_atom_site_label
_atom_site_fract_x
_atom_site_fract_y
_atom_site_fract_z
Si Si1 0.286396 0.611581 0.041425
Si Si2 0.814307 0.889263 0.272989
Si Si3 0.071919 0.728051 0.473811
Si Si4 0.180095 0.388175 0.507862
Si Si5 0.105661 0.105707 0.587434
Si Si6 0.246828 0.106349 0.328011
Si Si7 0.813569 0.767630 0.806170
O O1 0.271271 0.500000 0.031026
O O2 0.329734 0.624898 0.122531
O O3 0.215223 0.667761 0.118522
O O4 0.328883 0.658642 0.898797
O O5 0.740932 0.844301 0.373362
O O6 0.876969 0.852461 0.297638
O O7 0.807198 0.000000 0.314103
O O8 0.110293 0.658233 0.528713
O O9 0.055545 0.824969 0.561063
O O10 0.115843 0.748503 0.319648
O O11 0.000000 0.683302 0.500000
O O12 0.172577 0.500000 0.494769
O O13 0.194580 0.363603 0.631437
O O14 0.176428 0.104975 0.457572
O O15 0.072790 0.000000 0.620597
O O16 0.243591 0.182116 0.225424
O O17 0.261830 0.000000 0.264889
#
# Coordination Sequence:
#
# PCOD8086480 Si02
#       7
#     8   8   8   8   8   8   8
#     4  10  19  31  49  75 102 126 155 201 253 296
#     4   8  14  27  49  73  94 118 151 197 252 293
#     4  11  22  32  47  70 100 137 170 191 231 287
#     4   9  17  30  48  72 101 126 154 199 248 291
#     4   8  16  29  46  69  94 123 160 201 244 285
#     4   8  15  28  48  73  99 123 152 199 253 295
#     4  10  20  31  49  74 102 130 162 196 245 287
#
# _framework density 17.698879000000002
#
# number of rings (size 3 to 8) (size 9 to 14) (size 15 to 20)
#    0.000    2.857    1.429    2.143    2.000    2.857 
#    0.000    0.000    0.000    0.857    0.000    3.000 
#    0.000    6.286    0.000    0.000    0.000    0.000 
#
# Total GULP energy -346998.513243 kJ/mol
# GULP energy per Si atom -12392.804044 kJ/mol
# Density = 1.765860 g / cm^3
# Si number density = 17.698879 Si / 1000 Ang^3
#
#
#
# Elastic Constant Matrix: (Units=GPa)
#
#
# Indices 1 2 3 4 5 6 
#
# 1 66.5539 9.0493 22.3667 0.0000 3.7327 0.0000
# 2 9.0493 59.8275 24.0563 0.0000 2.4269 0.0000
# 3 22.3667 24.0563 73.8927 0.0000 12.4368 0.0000
# 4 0.0000 0.0000 0.0000 22.0396 0.0000 8.4399
# 5 3.7327 2.4269 12.4368 0.0000 15.6969 0.0000
# 6 0.0000 0.0000 0.0000 8.4399 0.0000 19.0826
#
#
#
# Elastic Compliance Matrix: (Units=1/GPa)
#
#
# Indices 1 2 3 4 5 6 
#
# 1 0.016744 -0.000570 -0.004878 0.000000 -0.000029 0.000000
# 2 -0.000570 0.019324 -0.006506 0.000000 0.002303 0.000000
# 3 -0.004878 -0.006506 0.019343 0.000000 -0.013159 0.000000
# 4 0.000000 0.000000 0.000000 0.054625 0.000000 -0.024160
# 5 -0.000029 0.002303 -0.013159 0.000000 0.073784 0.000000
# 6 0.000000 0.000000 0.000000 -0.024160 0.000000 0.063089
#
#
# Mechanical properties :
#
#
# Convention : Reuss Voigt Hill
#
# Bulk Modulus (GPa) = 31.74372 34.57985 33.16179
# Shear Modulus (GPa) = 17.77359 21.01725 19.39542
#
# Velocity S-wave (km/s) = 3.17238 3.44974 3.31396
# Velocity P-wave (km/s) = 5.60295 5.95381 5.78104
#
# Compressibility (1/GPa) = 0.03150229
#
# Stress axis : x y z
#
# Youngs Moduli (GPa) = 59.72350 51.75034 51.69960
#
# Poissons Ratio (x) = 0.02950 0.25218
# Poissons Ratio (y) = 0.03405 0.33635
# Poissons Ratio (z) = 0.29132 0.33668
#
# Static dielectric constant tensor:
#      x y z
#    x 2.965420 0.000000 0.469200 
#    y 0.000000 3.525170 0.000000 
#    z 0.469200 0.000000 3.229700 
# 
# 
# High freq. dielectric constant tensor:
#      x y z
#    x 1.639990 0.000000 0.047140 
#    y 0.000000 1.697010 0.000000 
#    z 0.047140 0.000000 1.661530 
# 
# From -- ./inp_files/175718.got.cif
#   From: 2010.06.25/outbox.cif.g09.slc.cpg/sg12_88_cif.got.tgz:175718.got - 2010.06.28 00:19:55.
