data_PCOD8086269
_publ_section_title
;
Structure prediction by ZEFSAII (Michael W. Deem and Ramdas Pophale) SiO2 
 PCOD8086269
Probable space group: C 2/M
;
_chemical_formula_sum "Si O2"
_cell_formula_units_Z 64
_cell_length_a 24.938073
_cell_length_b 8.942025
_cell_length_c 17.184613
_cell_angle_alpha 90.000000
_cell_angle_beta 79.219527
_cell_angle_gamma 90.000000
_cell_volume 3764.482164
_symmetry_space_group_name_H-M "C 2/M"
_symmetry_group_IT_number 12
_symmetry_cell_setting 'monoclinic'
loop_
_space_group_symop_operation_xyz
x,y,z
-x,y,-z
-x,-y,-z
x,-y,z
1/2+x,1/2+y,z
1/2-x,1/2+y,-z
1/2-x,1/2-y,-z
1/2+x,1/2-y,z
loop_
_atom_site_type_symbol
_atom_site_label
_atom_site_fract_x
_atom_site_fract_y
_atom_site_fract_z
Si Si1 0.215190 0.825909 0.667850
Si Si2 0.100879 0.676896 0.300518
Si Si3 0.008996 0.323971 0.584552
Si Si4 0.151733 0.825857 0.147298
Si Si5 0.306493 0.173373 0.003426
Si Si6 0.176689 0.822782 0.405852
Si Si7 0.272803 0.169813 0.177352
Si Si8 0.619742 0.673854 0.579419
O O1 0.261004 0.731179 0.610697
O O2 0.209777 0.781514 0.759434
O O3 0.157880 0.789835 0.642364
O O4 0.230008 0.000000 0.656844
O O5 0.108834 0.500000 0.296974
O O6 0.106745 0.744133 0.212643
O O7 0.147418 0.747735 0.341054
O O8 0.041824 0.723805 0.348551
O O9 0.016142 0.500000 0.578790
O O10 0.062986 0.257180 0.608405
O O11 0.000000 0.259288 0.500000
O O12 0.211491 0.794418 0.166304
O O13 0.138089 0.000000 0.145819
O O14 0.147507 0.755141 0.061399
O O15 0.315462 0.191434 0.094054
O O16 0.303632 0.000000 0.980837
O O17 0.250000 0.250000 0.000000
O O18 0.148533 0.768251 0.492852
O O19 0.174814 0.000000 0.396535
O O20 0.275363 0.000000 0.207968
O O21 0.607166 0.500000 0.575357
#
# Coordination Sequence:
#
# PCOD8086269 Si02
#       8
#     8   8   8   8   8   8   8   8
#     4  11  22  34  50  74 103 136 175 211 249 301
#     4  11  21  33  52  76 102 132 169 211 256 303
#     4  10  21  37  55  76  98 127 171 217 260 304
#     4  10  19  31  48  73 104 133 169 205 248 305
#     4   9  17  29  46  69 100 134 169 204 247 300
#     4  11  21  34  51  72 101 135 172 210 255 303
#     4   9  18  31  47  71 102 135 169 202 245 302
#     4  10  23  38  52  73  99 134 176 215 256 302
#
# _framework density 17.001010000000001
#
# number of rings (size 3 to 8) (size 9 to 14) (size 15 to 20)
#    0.000    1.875    2.500    3.000    0.000    5.250 
#    0.000    0.000    0.000    0.000    0.000    0.875 
#    0.000    7.000    0.000    0.000    0.000    0.000 
#
# Total GULP energy -396822.977650 kJ/mol
# GULP energy per Si atom -12400.718052 kJ/mol
# Density = 1.696232 g / cm^3
# Si number density = 17.001010 Si / 1000 Ang^3
#
#
#
# Elastic Constant Matrix: (Units=GPa)
#
#
# Indices 1 2 3 4 5 6 
#
# 1 77.2240 32.0578 34.2168 0.0000 -12.0486 0.0000
# 2 32.0578 71.5350 38.5701 0.0000 -13.0467 0.0000
# 3 34.2168 38.5701 102.0713 0.0000 -22.9217 0.0000
# 4 0.0000 0.0000 0.0000 30.5560 0.0000 -2.0354
# 5 -12.0486 -13.0467 -22.9217 0.0000 19.5348 0.0000
# 6 0.0000 0.0000 0.0000 -2.0354 0.0000 25.7708
#
#
#
# Elastic Compliance Matrix: (Units=1/GPa)
#
#
# Indices 1 2 3 4 5 6 
#
# 1 0.017026 -0.005448 -0.002862 0.000000 0.003505 0.000000
# 2 -0.005448 0.019721 -0.004647 0.000000 0.004358 0.000000
# 3 -0.002862 -0.004647 0.015505 0.000000 0.013324 0.000000
# 4 0.000000 0.000000 0.000000 0.032900 0.000000 0.002598
# 5 0.003505 0.004358 0.013324 0.000000 0.071897 0.000000
# 6 0.000000 0.000000 0.000000 0.002598 0.000000 0.039009
#
#
# Mechanical properties :
#
#
# Convention : Reuss Voigt Hill
#
# Bulk Modulus (GPa) = 37.96815 51.16885 44.56850
# Shear Modulus (GPa) = 21.66850 24.90469 23.28660
#
# Velocity S-wave (km/s) = 3.57395 3.83155 3.70499
# Velocity P-wave (km/s) = 6.27791 7.05246 6.67643
#
# Compressibility (1/GPa) = 0.02633786
#
# Stress axis : x y z
#
# Youngs Moduli (GPa) = 58.73485 50.70733 64.49709
#
# Poissons Ratio (x) = 0.27624 0.18458
# Poissons Ratio (y) = 0.31997 0.29973
# Poissons Ratio (z) = 0.16809 0.23565
#
# Static dielectric constant tensor:
#      x y z
#    x 2.882710 0.000000 -0.159200 
#    y 0.000000 3.254890 0.000000 
#    z -0.159200 0.000000 3.555440 
# 
# 
# High freq. dielectric constant tensor:
#      x y z
#    x 1.613080 0.000000 -0.013310 
#    y 0.000000 1.667230 0.000000 
#    z -0.013310 0.000000 1.664690 
# 
# From -- ./inp_files/287604.got.cif
#   From: 2010.06.25/outbox.cif.g09.slc.cpg/sg12_144_cif.got.tgz:287604.got - 2010.06.28 00:19:55.
