data_PCOD8086842
_publ_section_title
;
Structure prediction by ZEFSAII (Michael W. Deem and Ramdas Pophale) SiO2 
 PCOD8086842
Probable space group: C 2/M
;
_chemical_formula_sum "Si O2"
_cell_formula_units_Z 56
_cell_length_a 28.250614
_cell_length_b 9.019323
_cell_length_c 13.601233
_cell_angle_alpha 90.000000
_cell_angle_beta 58.883689
_cell_angle_gamma 90.000000
_cell_volume 2966.980938
_symmetry_space_group_name_H-M "C 2/M"
_symmetry_group_IT_number 12
_symmetry_cell_setting 'monoclinic'
loop_
_space_group_symop_operation_xyz
x,y,z
-x,y,-z
-x,-y,-z
x,-y,z
1/2+x,1/2+y,z
1/2-x,1/2+y,-z
1/2-x,1/2-y,-z
1/2+x,1/2-y,z
loop_
_atom_site_type_symbol
_atom_site_label
_atom_site_fract_x
_atom_site_fract_y
_atom_site_fract_z
Si Si1 0.454480 0.829301 0.278939
Si Si2 0.836485 0.168579 0.940453
Si Si3 0.660662 0.675155 0.282072
Si Si4 0.552686 0.323738 0.505947
Si Si5 0.551069 0.330699 0.065850
Si Si6 0.781203 0.326766 0.173229
Si Si7 0.888645 0.671074 0.166020
O O1 0.449891 0.733067 0.380879
O O2 0.504830 0.775298 0.158800
O O3 0.399301 0.808841 0.271036
O O4 0.463373 0.000000 0.298417
O O5 0.837788 0.239159 0.830217
O O6 0.897863 0.180305 0.915769
O O7 0.815679 0.000000 0.959443
O O8 0.793772 0.256153 0.054158
O O9 0.651886 0.500000 0.286231
O O10 0.608635 0.742205 0.397090
O O11 0.718794 0.718093 0.273000
O O12 0.500000 0.267199 0.500000
O O13 0.553025 0.500000 0.509874
O O14 0.530053 0.500000 0.078972
O O15 0.568027 0.272141 0.940032
O O16 0.784095 0.500000 0.152279
O O17 0.825701 0.277399 0.208349
O O18 0.897594 0.500000 0.124943
#
# Coordination Sequence:
#
# PCOD8086842 Si02
#       7
#     8   8   8   8   8   8   8
#     4  11  22  35  51  72 101 135 169 206 250 298
#     4   9  17  30  49  76 106 130 157 199 250 297
#     4   9  17  31  52  74  97 130 168 203 244 295
#     4  10  21  38  57  75  98 129 166 208 251 295
#     4  10  19  31  51  78 105 133 167 207 249 296
#     4   9  17  31  51  74 100 131 166 200 240 294
#     4   9  19  34  50  72 104 136 164 202 251 297
#
# _framework density 18.874406
#
# number of rings (size 3 to 8) (size 9 to 14) (size 15 to 20)
#    0.000    2.429    0.000    2.571    0.000    6.000 
#    0.000    2.143    0.000    0.000    0.000    0.000 
#    0.000    0.000    0.000    0.000    0.000    0.000 
#
# Total GULP energy -347129.532631 kJ/mol
# GULP energy per Si atom -12397.483308 kJ/mol
# Density = 1.883145 g / cm^3
# Si number density = 18.874406 Si / 1000 Ang^3
#
#
#
# Elastic Constant Matrix: (Units=GPa)
#
#
# Indices 1 2 3 4 5 6 
#
# 1 103.0762 21.6714 81.3707 0.0000 -5.7777 0.0000
# 2 21.6714 25.6599 16.1810 0.0000 -0.9771 0.0000
# 3 81.3707 16.1810 89.8849 0.0000 0.9030 0.0000
# 4 0.0000 0.0000 0.0000 27.6216 0.0000 1.1155
# 5 -5.7777 -0.9771 0.9030 0.0000 32.7630 0.0000
# 6 0.0000 0.0000 0.0000 1.1155 0.0000 14.3623
#
#
#
# Elastic Compliance Matrix: (Units=1/GPa)
#
#
# Indices 1 2 3 4 5 6 
#
# 1 0.038384 -0.011484 -0.032754 0.000000 0.007329 0.000000
# 2 -0.011484 0.047474 0.001856 0.000000 -0.000660 0.000000
# 3 -0.032754 0.001856 0.040512 0.000000 -0.006837 0.000000
# 4 0.000000 0.000000 0.000000 0.036317 0.000000 -0.002821
# 5 0.007329 -0.000660 -0.006837 0.000000 0.031983 0.000000
# 6 0.000000 0.000000 0.000000 -0.002821 0.000000 0.069846
#
#
# Mechanical properties :
#
#
# Convention : Reuss Voigt Hill
#
# Bulk Modulus (GPa) = 24.03483 50.78524 37.41004
# Shear Modulus (GPa) = 13.76847 21.57591 17.67219
#
# Velocity S-wave (km/s) = 2.70382 3.38469 3.06323
# Velocity P-wave (km/s) = 4.74439 6.49924 5.68988
#
# Compressibility (1/GPa) = 0.04160628
#
# Stress axis : x y z
#
# Youngs Moduli (GPa) = 26.05268 21.06401 24.68433
#
# Poissons Ratio (x) = 0.24189 0.80852
# Poissons Ratio (y) = 0.29918 -0.04582
# Poissons Ratio (z) = 0.85334 -0.03910
#
# Static dielectric constant tensor:
#      x y z
#    x 3.915390 0.000000 -0.037670 
#    y 0.000000 3.341620 0.000000 
#    z -0.037670 0.000000 3.363900 
# 
# 
# High freq. dielectric constant tensor:
#      x y z
#    x 1.752900 0.000000 0.003350 
#    y 0.000000 1.714590 0.000000 
#    z 0.003350 0.000000 1.711580 
# 
# From -- ./inp_files/180722.got.cif
#   From: 2010.06.25/outbox.cif.g09.slc.cpg/sg12_91_cif.got.tgz:180722.got - 2010.06.28 00:19:55.
