data_PCOD8086587
_publ_section_title
;
Structure prediction by ZEFSAII (Michael W. Deem and Ramdas Pophale) SiO2 
 PCOD8086587
Probable space group: C 2/M
;
_chemical_formula_sum "Si O2"
_cell_formula_units_Z 64
_cell_length_a 18.501480
_cell_length_b 9.064777
_cell_length_c 20.939573
_cell_angle_alpha 90.000000
_cell_angle_beta 89.739061
_cell_angle_gamma 90.000000
_cell_volume 3511.776858
_symmetry_space_group_name_H-M "C 2/M"
_symmetry_group_IT_number 12
_symmetry_cell_setting 'monoclinic'
loop_
_space_group_symop_operation_xyz
x,y,z
-x,y,-z
-x,-y,-z
x,-y,z
1/2+x,1/2+y,z
1/2-x,1/2+y,-z
1/2-x,1/2-y,-z
1/2+x,1/2-y,z
loop_
_atom_site_type_symbol
_atom_site_label
_atom_site_fract_x
_atom_site_fract_y
_atom_site_fract_z
Si Si1 0.704517 0.176462 0.444512
Si Si2 0.797508 0.831476 0.050910
Si Si3 0.947429 0.329385 0.056795
Si Si4 0.704042 0.669704 0.672983
Si Si5 0.051825 0.828136 0.440421
Si Si6 0.459350 0.325822 0.319998
Si Si7 0.809085 0.832187 0.189099
Si Si8 0.954961 0.331114 0.196295
O O1 0.750000 0.250000 0.500000
O O2 0.740511 0.237529 0.378450
O O3 0.622711 0.230752 0.448177
O O4 0.705970 0.000000 0.450780
O O5 0.878417 0.773149 0.050226
O O6 0.764177 0.811935 0.123279
O O7 0.798695 0.000000 0.030201
O O8 0.750000 0.750000 0.000000
O O9 0.923405 0.500000 0.051035
O O10 0.988120 0.303485 0.125099
O O11 0.000000 0.282508 0.000000
O O12 0.696974 0.500000 0.654704
O O13 0.622455 0.736310 0.668747
O O14 0.736347 0.692124 0.745030
O O15 0.000000 0.797699 0.500000
O O16 0.010310 0.773987 0.377246
O O17 0.073262 0.000000 0.436553
O O18 0.457946 0.500000 0.314604
O O19 0.491621 0.263063 0.252992
O O20 0.871497 0.711784 0.189495
O O21 0.841466 0.000000 0.190611
O O22 0.961986 0.500000 0.216660
#
# Coordination Sequence:
#
# PCOD8086587 Si02
#       8
#     8   8   8   8   8   8   8   8
#     4  11  22  36  55  78 105 134 166 206 249 295
#     4  10  19  31  50  74 100 131 167 209 252 297
#     4   9  18  33  51  71  98 133 171 209 249 295
#     4   8  15  31  54  75  94 125 167 203 240 292
#     4  10  21  38  57  75 100 136 173 206 244 292
#     4   9  17  32  54  74  96 129 166 202 244 298
#     4   8  15  30  50  69  92 128 170 202 238 295
#     4   9  16  27  47  74 100 125 159 205 250 292
#
# _framework density 18.224392999999999
#
# number of rings (size 3 to 8) (size 9 to 14) (size 15 to 20)
#    0.000    2.750    0.000    2.625    0.000    4.000 
#    0.000    8.750    0.000    6.000    0.000    0.000 
#    0.000    0.000    0.000    0.000    0.000    0.000 
#
# Total GULP energy -396478.125692 kJ/mol
# GULP energy per Si atom -12389.941428 kJ/mol
# Density = 1.818291 g / cm^3
# Si number density = 18.224393 Si / 1000 Ang^3
#
#
#
# Elastic Constant Matrix: (Units=GPa)
#
#
# Indices 1 2 3 4 5 6 
#
# 1 76.5323 37.4741 67.2864 0.0000 5.3307 0.0000
# 2 37.4741 62.7837 55.7184 0.0000 4.4104 0.0000
# 3 67.2864 55.7184 187.3173 0.0000 5.2921 0.0000
# 4 0.0000 0.0000 0.0000 29.9729 0.0000 4.4556
# 5 5.3307 4.4104 5.2921 0.0000 33.1814 0.0000
# 6 0.0000 0.0000 0.0000 4.4556 0.0000 24.1206
#
#
#
# Elastic Compliance Matrix: (Units=1/GPa)
#
#
# Indices 1 2 3 4 5 6 
#
# 1 0.021932 -0.008190 -0.005398 0.000000 -0.001574 0.000000
# 2 -0.008190 0.024813 -0.004403 0.000000 -0.001280 0.000000
# 3 -0.005398 -0.004403 0.008585 0.000000 0.000083 0.000000
# 4 0.000000 0.000000 0.000000 0.034305 0.000000 -0.006337
# 5 -0.001574 -0.001280 0.000083 0.000000 0.030547 0.000000
# 6 0.000000 0.000000 0.000000 -0.006337 0.000000 0.042629
#
#
# Mechanical properties :
#
#
# Convention : Reuss Voigt Hill
#
# Bulk Modulus (GPa) = 51.68136 71.95460 61.81798
# Shear Modulus (GPa) = 24.36160 28.53193 26.44676
#
# Velocity S-wave (km/s) = 3.66014 3.96105 3.81356
# Velocity P-wave (km/s) = 6.80309 7.77741 7.30651
#
# Compressibility (1/GPa) = 0.01934934
#
# Stress axis : x y z
#
# Youngs Moduli (GPa) = 45.59636 40.30105 116.48684
#
# Poissons Ratio (x) = 0.33006 0.62874
# Poissons Ratio (y) = 0.37342 0.51287
# Poissons Ratio (z) = 0.24611 0.17744
#
# Static dielectric constant tensor:
#      x y z
#    x 2.273560 0.000000 -0.148000 
#    y 0.000000 3.276450 0.000000 
#    z -0.148000 0.000000 4.010940 
# 
# 
# High freq. dielectric constant tensor:
#      x y z
#    x 1.660290 0.000000 0.001470 
#    y 0.000000 1.697170 0.000000 
#    z 0.001470 0.000000 1.736710 
# 
# From -- ./inp_files/314126.got.cif
#   From: 2010.06.25/outbox.cif.g09.slc.cpg/sg12_158_cif.got.tgz:314126.got - 2010.06.28 00:19:55.
