data_PCOD8086264
_publ_section_title
;
Structure prediction by ZEFSAII (Michael W. Deem and Ramdas Pophale) SiO2 
 PCOD8086264
Probable space group: C 2/M
;
_chemical_formula_sum "Si O2"
_cell_formula_units_Z 56
_cell_length_a 24.652731
_cell_length_b 8.959962
_cell_length_c 19.818694
_cell_angle_alpha 90.000000
_cell_angle_beta 134.995923
_cell_angle_gamma 90.000000
_cell_volume 3095.723329
_symmetry_space_group_name_H-M "C 2/M"
_symmetry_group_IT_number 12
_symmetry_cell_setting 'monoclinic'
loop_
_space_group_symop_operation_xyz
x,y,z
-x,y,-z
-x,-y,-z
x,-y,z
1/2+x,1/2+y,z
1/2-x,1/2+y,-z
1/2-x,1/2-y,-z
1/2+x,1/2-y,z
loop_
_atom_site_type_symbol
_atom_site_label
_atom_site_fract_x
_atom_site_fract_y
_atom_site_fract_z
Si Si1 0.199555 0.177369 0.263174
Si Si2 0.884831 0.826417 0.208653
Si Si3 0.378829 0.322315 0.050767
Si Si4 0.292987 0.176655 0.475120
Si Si5 0.940311 0.826645 0.644578
Si Si6 0.250745 0.822456 0.163447
Si Si7 0.953417 0.822868 0.808852
O O1 0.253939 0.231859 0.371496
O O2 0.230106 0.241268 0.219200
O O3 0.112500 0.237558 0.198870
O O4 0.198223 0.000000 0.259298
O O5 0.866417 0.768346 0.116751
O O6 0.834430 0.735111 0.217305
O O7 0.973442 0.797134 0.305378
O O8 0.864711 0.000000 0.196971
O O9 0.379253 0.500000 0.049719
O O10 0.461745 0.262708 0.096769
O O11 0.311983 0.258030 0.944499
O O12 0.250000 0.250000 0.500000
O O13 0.381293 0.229156 0.548950
O O14 0.287730 0.000000 0.478136
O O15 0.932338 0.772875 0.714703
O O16 0.918624 0.000000 0.618392
O O17 0.250951 0.000000 0.163036
O O18 0.955906 0.000000 0.812375
#
# Coordination Sequence:
#
# PCOD8086264 Si02
#       7
#     8   8   8   8   8   8   8
#     4   9  18  30  46  71 103 131 156 196 247 292
#     4   9  18  33  52  72  98 131 164 200 245 287
#     4   8  15  27  48  75  97 124 164 203 239 283
#     4  11  20  32  52  76 100 127 161 199 245 292
#     4   9  17  32  53  74  96 125 163 205 244 283
#     4  10  19  31  48  73 101 129 165 202 236 285
#     4   8  13  26  47  71  99 124 153 199 247 283
#
# _framework density 18.089472000000001
#
# number of rings (size 3 to 8) (size 9 to 14) (size 15 to 20)
#    0.000    2.857    1.429    2.571    0.000    1.143 
#    0.000    5.000    0.000    5.143    0.000    1.000 
#    0.000    0.000    0.000    0.000    0.000    0.000 
#
# Total GULP energy -347071.855245 kJ/mol
# GULP energy per Si atom -12395.423402 kJ/mol
# Density = 1.804830 g / cm^3
# Si number density = 18.089472 Si / 1000 Ang^3
#
#
#
# Elastic Constant Matrix: (Units=GPa)
#
#
# Indices 1 2 3 4 5 6 
#
# 1 151.5122 21.7977 62.0294 0.0000 3.3804 0.0000
# 2 21.7977 24.4326 20.8215 0.0000 2.8964 0.0000
# 3 62.0294 20.8215 83.6940 0.0000 9.1812 0.0000
# 4 0.0000 0.0000 0.0000 19.9704 0.0000 4.2777
# 5 3.3804 2.8964 9.1812 0.0000 26.0388 0.0000
# 6 0.0000 0.0000 0.0000 4.2777 0.0000 26.3796
#
#
#
# Elastic Compliance Matrix: (Units=1/GPa)
#
#
# Indices 1 2 3 4 5 6 
#
# 1 0.009717 -0.003258 -0.006546 0.000000 0.001409 0.000000
# 2 -0.003258 0.053074 -0.010598 0.000000 -0.001744 0.000000
# 3 -0.006546 -0.010598 0.019987 0.000000 -0.005019 0.000000
# 4 0.000000 0.000000 0.000000 0.051876 0.000000 -0.008412
# 5 0.001409 -0.001744 -0.005019 0.000000 0.040185 0.000000
# 6 0.000000 0.000000 0.000000 -0.008412 0.000000 0.039272
#
#
# Mechanical properties :
#
#
# Convention : Reuss Voigt Hill
#
# Bulk Modulus (GPa) = 23.82405 52.10401 37.96403
# Shear Modulus (GPa) = 18.59385 24.81042 21.70213
#
# Velocity S-wave (km/s) = 3.20954 3.70745 3.46744
# Velocity P-wave (km/s) = 5.18976 6.86971 6.08796
#
# Compressibility (1/GPa) = 0.04197439
#
# Stress axis : x y z
#
# Youngs Moduli (GPa) = 102.90857 18.84174 50.03263
#
# Poissons Ratio (x) = 0.06138 0.32752
# Poissons Ratio (y) = 0.33526 0.53024
# Poissons Ratio (z) = 0.67364 0.19968
#
# Static dielectric constant tensor:
#      x y z
#    x 3.519590 0.000000 0.149440 
#    y 0.000000 2.856570 0.000000 
#    z 0.149440 0.000000 3.544880 
# 
# 
# High freq. dielectric constant tensor:
#      x y z
#    x 1.705050 0.000000 0.017030 
#    y 0.000000 1.651450 0.000000 
#    z 0.017030 0.000000 1.697930 
# 
# From -- ./inp_files/281610.got.cif
#   From: 2010.06.25/outbox.cif.g09.slc.cpg/sg12_141_cif.got.tgz:281610.got - 2010.06.28 00:19:55.
