data_PCOD8086364
_publ_section_title
;
Structure prediction by ZEFSAII (Michael W. Deem and Ramdas Pophale) SiO2 
 PCOD8086364
Probable space group: C 2/M
;
_chemical_formula_sum "Si O2"
_cell_formula_units_Z 56
_cell_length_a 28.326717
_cell_length_b 9.119056
_cell_length_c 18.685616
_cell_angle_alpha 90.000000
_cell_angle_beta 40.526365
_cell_angle_gamma 90.000000
_cell_volume 3136.402847
_symmetry_space_group_name_H-M "C 2/M"
_symmetry_group_IT_number 12
_symmetry_cell_setting 'monoclinic'
loop_
_space_group_symop_operation_xyz
x,y,z
-x,y,-z
-x,-y,-z
x,-y,z
1/2+x,1/2+y,z
1/2-x,1/2+y,-z
1/2-x,1/2-y,-z
1/2+x,1/2-y,z
loop_
_atom_site_type_symbol
_atom_site_label
_atom_site_fract_x
_atom_site_fract_y
_atom_site_fract_z
Si Si1 0.066246 0.838022 0.370537
Si Si2 0.159124 0.672311 0.371514
Si Si3 0.529013 0.832754 0.620518
Si Si4 0.038856 0.332294 0.157484
Si Si5 0.556303 0.329945 0.998067
Si Si6 0.201075 0.668999 0.998341
Si Si7 0.794344 0.672180 0.170824
O O1 0.125292 0.730527 0.336473
O O2 0.000000 0.854913 0.500000
O O3 0.036357 0.767601 0.332508
O O4 0.100004 0.000000 0.316382
O O5 0.171882 0.500000 0.350893
O O6 0.107707 0.713902 0.498530
O O7 0.235985 0.753560 0.291417
O O8 0.526127 0.816299 0.709698
O O9 0.513427 0.000000 0.614548
O O10 0.044889 0.500000 0.122728
O O11 0.019722 0.227264 0.113571
O O12 0.116135 0.287917 0.104053
O O13 0.576388 0.500000 0.983342
O O14 0.628130 0.238479 0.897908
O O15 0.500000 0.302345 0.000000
O O16 0.212896 0.500000 0.001127
O O17 0.225392 0.707555 0.889172
O O18 0.250000 0.750000 0.000000
O O19 0.796159 0.500000 0.183565
#
# Coordination Sequence:
#
# PCOD8086364 Si02
#       7
#     8   8   8   8   8   8   8
#     4   9  17  28  42  64  96 137 183 221 250 288
#     4  10  19  31  49  72 103 142 179 218 259 300
#     4   9  18  32  49  72 103 140 181 218 255 303
#     4   9  19  35  53  76 104 136 175 214 257 311
#     4  10  21  38  60  84 105 127 163 212 265 320
#     4   9  19  32  46  68  99 134 171 212 254 300
#     4  10  21  36  53  77 105 135 175 215 258 313
#
# _framework density 17.854849000000002
#
# number of rings (size 3 to 8) (size 9 to 14) (size 15 to 20)
#    0.000    2.571    0.000    2.571    2.000    6.857 
#    0.000    0.000    0.000    0.857    0.000    0.000 
#    0.000    0.000    0.000    0.000    0.000    0.000 
#
# Total GULP energy -347112.096926 kJ/mol
# GULP energy per Si atom -12396.860604 kJ/mol
# Density = 1.781421 g / cm^3
# Si number density = 17.854849 Si / 1000 Ang^3
#
#
#
# Elastic Constant Matrix: (Units=GPa)
#
#
# Indices 1 2 3 4 5 6 
#
# 1 85.2624 56.2701 41.6259 0.0041 1.9696 -0.0018
# 2 56.2701 107.3332 54.3498 0.0017 -2.5305 0.0063
# 3 41.6259 54.3498 115.3202 0.0008 -4.3321 0.0004
# 4 0.0041 0.0017 0.0008 27.4455 -0.0019 -0.8091
# 5 1.9696 -2.5305 -4.3321 -0.0019 14.7857 -0.0002
# 6 -0.0018 0.0063 0.0004 -0.8091 -0.0002 27.7269
#
#
#
# Elastic Compliance Matrix: (Units=1/GPa)
#
#
# Indices 1 2 3 4 5 6 
#
# 1 0.018927 -0.008518 -0.003000 -0.000002 -0.004858 0.000003
# 2 -0.008518 0.016073 -0.004403 0.000000 0.002595 -0.000004
# 3 -0.003000 -0.004403 0.011948 0.000001 0.003147 0.000001
# 4 -0.000002 0.000000 0.000001 0.036467 0.000005 0.001064
# 5 -0.004858 0.002595 0.003147 0.000005 0.069646 0.000000
# 6 0.000003 -0.000004 0.000001 0.001064 0.000000 0.036097
#
#
# Mechanical properties :
#
#
# Convention : Reuss Voigt Hill
#
# Bulk Modulus (GPa) = 66.19932 68.04525 67.12228
# Shear Modulus (GPa) = 22.12043 24.36962 23.24502
#
# Velocity S-wave (km/s) = 3.52362 3.69843 3.61208
# Velocity P-wave (km/s) = 7.32881 7.51204 7.42099
#
# Compressibility (1/GPa) = 0.01510590
#
# Stress axis : x y z
#
# Youngs Moduli (GPa) = 52.83495 62.21552 83.69858
#
# Poissons Ratio (x) = 0.52996 0.25108
# Poissons Ratio (y) = 0.45005 0.36853
# Poissons Ratio (z) = 0.15849 0.27394
#
# Static dielectric constant tensor:
#      x y z
#    x 2.952440 -0.000010 -0.030070 
#    y -0.000010 3.454980 0.000010 
#    z -0.030070 0.000010 3.460480 
# 
# 
# High freq. dielectric constant tensor:
#      x y z
#    x 1.649320 0.000000 -0.005000 
#    y 0.000000 1.701200 0.000000 
#    z -0.005000 0.000000 1.694090 
# 
# From -- ./inp_files/295094.got.cif
#   From: 2010.06.25/outbox.cif.g09.slc.cpg/sg12_148_cif.got.tgz:295094.got - 2010.06.28 00:19:55.
