data_PCOD8086542
_publ_section_title
;
Structure prediction by ZEFSAII (Michael W. Deem and Ramdas Pophale) SiO2 
 PCOD8086542
Probable space group: C 2/M
;
_chemical_formula_sum "Si O2"
_cell_formula_units_Z 56
_cell_length_a 19.415771
_cell_length_b 20.106183
_cell_length_c 21.403773
_cell_angle_alpha 90.000000
_cell_angle_beta 157.456607
_cell_angle_gamma 90.000000
_cell_volume 3203.372820
_symmetry_space_group_name_H-M "C 2/M"
_symmetry_group_IT_number 12
_symmetry_cell_setting 'monoclinic'
loop_
_space_group_symop_operation_xyz
x,y,z
-x,y,-z
-x,-y,-z
x,-y,z
1/2+x,1/2+y,z
1/2-x,1/2+y,-z
1/2-x,1/2-y,-z
1/2+x,1/2-y,z
loop_
_atom_site_type_symbol
_atom_site_label
_atom_site_fract_x
_atom_site_fract_y
_atom_site_fract_z
Si Si1 0.864974 0.672683 0.649403
Si Si2 0.216974 0.319901 0.004326
Si Si3 0.170655 0.575730 0.488531
Si Si4 0.988049 0.776045 0.324415
Si Si5 0.137134 0.071956 0.168131
Si Si6 0.041105 0.924533 0.855119
Si Si7 0.554498 0.166237 0.613041
O O1 0.890309 0.607333 0.627964
O O2 0.654794 0.680867 0.492856
O O3 0.929255 0.737113 0.664931
O O4 0.999200 0.667134 0.822396
O O5 0.317861 0.320052 0.156555
O O6 0.295067 0.377985 0.026294
O O7 0.250000 0.250000 0.000000
O O8 0.100052 0.500000 0.432569
O O9 0.386317 0.579444 0.672785
O O10 0.095752 0.617023 0.484803
O O11 0.909060 0.728209 0.311278
O O12 0.038827 0.101914 0.146455
O O13 0.267438 0.124741 0.246820
O O14 0.228019 0.000000 0.263026
O O15 0.000000 0.055114 0.000000
O O16 0.112491 0.000000 0.921914
O O17 0.500000 0.194625 0.500000
#
# Coordination Sequence:
#
# PCOD8086542 Si02
#       7
#     8   8   8   8   8   8   8
#     4   9  18  32  51  69  92 127 166 215 259 304
#     4  10  20  32  53  73  96 134 173 218 271 308
#     4  10  19  31  50  72 101 135 173 212 253 305
#     4   9  19  34  47  69  96 123 171 218 259 304
#     4  10  22  34  45  67 103 143 183 215 244 295
#     4  10  20  34  50  72 105 140 174 218 259 305
#     4  11  21  33  49  68  97 139 181 213 250 299
#
# _framework density 17.481573999999998
#
# number of rings (size 3 to 8) (size 9 to 14) (size 15 to 20)
#    0.000    2.143    2.857    0.429    8.000    1.143 
#    0.000    0.000    0.000    0.000    0.000    0.000 
#    0.000    2.286    0.000    9.286    0.000    0.000 
#
# Total GULP energy -346954.452975 kJ/mol
# GULP energy per Si atom -12391.230463 kJ/mol
# Density = 1.744179 g / cm^3
# Si number density = 17.481574 Si / 1000 Ang^3
#
#
#
# Elastic Constant Matrix: (Units=GPa)
#
#
# Indices 1 2 3 4 5 6 
#
# 1 54.0303 38.4965 37.7203 -0.0870 -2.8698 0.0058
# 2 38.4965 68.1692 37.6704 -0.1673 4.1171 -0.0807
# 3 37.7203 37.6704 130.6085 0.0103 -13.7371 -0.0315
# 4 -0.0870 -0.1673 0.0103 25.1909 -0.0567 4.2364
# 5 -2.8698 4.1171 -13.7371 -0.0567 18.7445 -0.0196
# 6 0.0058 -0.0807 -0.0315 4.2364 -0.0196 29.3763
#
#
#
# Elastic Compliance Matrix: (Units=1/GPa)
#
#
# Indices 1 2 3 4 5 6 
#
# 1 0.034080 -0.017256 -0.004245 0.000028 0.005896 -0.000059
# 2 -0.017256 0.027418 -0.004156 0.000089 -0.011709 0.000054
# 3 -0.004245 -0.004156 0.010953 -0.000030 0.008290 0.000011
# 4 0.000028 0.000089 -0.000030 0.040684 0.000080 -0.005867
# 5 0.005896 -0.011709 0.008290 0.000080 0.062899 0.000006
# 6 -0.000059 0.000054 0.000011 -0.005867 0.000006 0.034887
#
#
# Mechanical properties :
#
#
# Convention : Reuss Voigt Hill
#
# Bulk Modulus (GPa) = 47.31044 53.39803 50.35424
# Shear Modulus (GPa) = 18.56793 23.92374 21.24583
#
# Velocity S-wave (km/s) = 3.26259 3.70335 3.48994
# Velocity P-wave (km/s) = 6.42763 6.99272 6.71612
#
# Compressibility (1/GPa) = 0.02113698
#
# Stress axis : x y z
#
# Youngs Moduli (GPa) = 29.34296 36.47225 91.29793
#
# Poissons Ratio (x) = 0.62935 0.38759
# Poissons Ratio (y) = 0.50633 0.37944
# Poissons Ratio (z) = 0.12457 0.15158
#
# Static dielectric constant tensor:
#      x y z
#    x 2.873590 0.000170 -0.193000 
#    y 0.000170 3.074160 -0.000400 
#    z -0.193000 -0.000400 3.688710 
# 
# 
# High freq. dielectric constant tensor:
#      x y z
#    x 1.622970 -0.000010 -0.016260 
#    y -0.000010 1.657430 -0.000020 
#    z -0.016260 -0.000020 1.691890 
# 
# From -- ./inp_files/76936.got.cif
#   From: 2010.06.25/outbox.cif.g09.slc.cpg/sg12_39_cif.got.tgz:76936.got - 2010.06.28 00:19:55.
