data_PCOD8086214
_publ_section_title
;
Structure prediction by ZEFSAII (Michael W. Deem and Ramdas Pophale) SiO2 
 PCOD8086214
Probable space group: C 2/M
;
_chemical_formula_sum "Si O2"
_cell_formula_units_Z 48
_cell_length_a 10.431027
_cell_length_b 18.333010
_cell_length_c 20.428738
_cell_angle_alpha 90.000000
_cell_angle_beta 37.689902
_cell_angle_gamma 90.000000
_cell_volume 2388.465637
_symmetry_space_group_name_H-M "C 2/M"
_symmetry_group_IT_number 12
_symmetry_cell_setting 'monoclinic'
loop_
_space_group_symop_operation_xyz
x,y,z
-x,y,-z
-x,-y,-z
x,-y,z
1/2+x,1/2+y,z
1/2-x,1/2+y,-z
1/2-x,1/2-y,-z
1/2+x,1/2-y,z
loop_
_atom_site_type_symbol
_atom_site_label
_atom_site_fract_x
_atom_site_fract_y
_atom_site_fract_z
Si Si1 0.272083 0.717727 0.114120
Si Si2 0.945780 0.856133 0.840513
Si Si3 0.252119 0.917230 0.959296
Si Si4 0.200401 0.311243 0.384797
Si Si5 0.089316 0.219978 0.311657
Si Si6 0.286002 0.918701 0.182161
O O1 0.105061 0.769346 0.143458
O O2 0.236087 0.632947 0.109996
O O3 0.239933 0.728502 0.205161
O O4 0.500000 0.744965 0.000000
O O5 0.774995 0.901339 0.867894
O O6 0.174006 0.867223 0.713729
O O7 0.936102 0.885139 0.918808
O O8 0.464600 0.911551 0.914002
O O9 0.200658 0.000000 0.958712
O O10 0.353523 0.277576 0.378230
O O11 0.000000 0.350496 0.500000
O O12 0.100377 0.246292 0.381523
O O13 0.171163 0.136834 0.277577
O O14 0.213807 0.000000 0.230775
#
# Coordination Sequence:
#
# PCOD8086214 Si02
#       6
#     8   8   8   8   8   8
#     4  10  19  31  48  71 104 138 171 205 256 315
#     4  10  19  31  51  75 103 134 174 217 257 299
#     4  11  20  30  48  75 108 141 171 207 256 316
#     4  10  20  35  55  79 102 131 176 226 266 300
#     4  10  20  34  56  81 107 136 171 217 262 308
#     4   9  17  30  49  76 107 137 171 209 254 309
#
# _framework density 20.096584
#
# number of rings (size 3 to 8) (size 9 to 14) (size 15 to 20)
#    0.000    2.333    0.000    7.000    0.000    1.667 
#    0.000    0.000    0.000   14.000    0.000   11.667 
#    0.000    0.000    0.000    0.000    0.000    0.000 
#
# Total GULP energy -297503.763858 kJ/mol
# GULP energy per Si atom -12395.990161 kJ/mol
# Density = 2.005084 g / cm^3
# Si number density = 20.096584 Si / 1000 Ang^3
#
#
#
# Elastic Constant Matrix: (Units=GPa)
#
#
# Indices 1 2 3 4 5 6 
#
# 1 61.4401 22.5581 25.3664 -0.0018 -5.4303 0.0024
# 2 22.5581 134.5923 36.4966 -0.0067 8.9072 0.0035
# 3 25.3664 36.4966 117.8114 0.0288 -13.2937 -0.0116
# 4 -0.0018 -0.0067 0.0288 17.8030 -0.0335 0.8128
# 5 -5.4303 8.9072 -13.2937 -0.0335 18.9074 0.0057
# 6 0.0024 0.0035 -0.0116 0.8128 0.0057 19.0026
#
#
#
# Elastic Compliance Matrix: (Units=1/GPa)
#
#
# Indices 1 2 3 4 5 6 
#
# 1 0.018809 -0.002754 -0.002651 0.000015 0.004835 -0.000006
# 2 -0.002754 0.009211 -0.003084 -0.000006 -0.007298 -0.000001
# 3 -0.002651 -0.003084 0.010962 -0.000004 0.008399 0.000005
# 4 0.000015 -0.000006 -0.000004 0.056280 0.000105 -0.002407
# 5 0.004835 -0.007298 0.008399 0.000105 0.063621 -0.000018
# 6 -0.000006 -0.000001 0.000005 -0.002407 -0.000018 0.052727
#
#
# Mechanical properties :
#
#
# Convention : Reuss Voigt Hill
#
# Bulk Modulus (GPa) = 45.44598 53.63181 49.53889
# Shear Modulus (GPa) = 21.19334 26.43744 23.81539
#
# Velocity S-wave (km/s) = 3.25094 3.63094 3.44619
# Velocity P-wave (km/s) = 6.06254 6.65757 6.36701
#
# Compressibility (1/GPa) = 0.02200415
#
# Stress axis : x y z
#
# Youngs Moduli (GPa) = 53.16628 108.57049 91.22351
#
# Poissons Ratio (x) = 0.29895 0.24185
# Poissons Ratio (y) = 0.14639 0.28133
# Poissons Ratio (z) = 0.14096 0.33483
#
# Static dielectric constant tensor:
#      x y z
#    x 3.607840 0.000000 -0.163550 
#    y 0.000000 3.530930 0.000010 
#    z -0.163550 0.000010 3.577460 
# 
# 
# High freq. dielectric constant tensor:
#      x y z
#    x 1.791810 0.000000 -0.013930 
#    y 0.000000 1.757980 0.000000 
#    z -0.013930 0.000000 1.765700 
# 
# From -- ./inp_files/305920.got.cif
#   From: 2010.06.25/outbox.cif.g09.slc.cpg/sg12_153_cif.got.tgz:305920.got - 2010.06.28 00:19:55.
