data_PCOD8086702
_publ_section_title
;
Structure prediction by ZEFSAII (Michael W. Deem and Ramdas Pophale) SiO2 
 PCOD8086702
Probable space group: C 2/M
;
_chemical_formula_sum "Si O2"
_cell_formula_units_Z 64
_cell_length_a 19.833634
_cell_length_b 9.345936
_cell_length_c 23.058347
_cell_angle_alpha 90.000000
_cell_angle_beta 53.224403
_cell_angle_gamma 90.000000
_cell_volume 3423.563807
_symmetry_space_group_name_H-M "C 2/M"
_symmetry_group_IT_number 12
_symmetry_cell_setting 'monoclinic'
loop_
_space_group_symop_operation_xyz
x,y,z
-x,y,-z
-x,-y,-z
x,-y,z
1/2+x,1/2+y,z
1/2-x,1/2+y,-z
1/2-x,1/2-y,-z
1/2+x,1/2-y,z
loop_
_atom_site_type_symbol
_atom_site_label
_atom_site_fract_x
_atom_site_fract_y
_atom_site_fract_z
Si Si1 0.977025 0.665951 0.275228
Si Si2 0.266970 0.665612 0.874439
Si Si3 0.161061 0.341457 0.486544
Si Si4 0.091456 0.836235 0.427555
Si Si5 0.398315 0.335879 0.712049
Si Si6 0.580522 0.169113 0.993958
Si Si7 0.857087 0.841321 0.398855
Si Si8 0.393795 0.166775 0.888785
O O1 0.958607 0.500000 0.295595
O O2 0.889800 0.754946 0.325097
O O3 0.034752 0.727449 0.296461
O O4 0.020545 0.692866 0.191159
O O5 0.271252 0.500000 0.890787
O O6 0.308851 0.691968 0.789936
O O7 0.169397 0.714493 0.918833
O O8 0.315323 0.750815 0.900421
O O9 0.120436 0.500000 0.506667
O O10 0.155890 0.266591 0.427058
O O11 0.113166 0.245606 0.559241
O O12 0.258250 0.354648 0.450770
O O13 0.105900 0.800293 0.353226
O O14 0.000000 0.798906 0.500000
O O15 0.114382 0.000000 0.429025
O O16 0.426438 0.500000 0.707873
O O17 0.569444 0.000000 0.000340
O O18 0.500000 0.234918 0.000000
O O19 0.584963 0.225278 0.058017
O O20 0.897697 0.000000 0.380102
O O21 0.368894 0.000000 0.902232
#
# Coordination Sequence:
#
# PCOD8086702 Si02
#       8
#     8   8   8   8   8   8   8   8
#     4  10  19  31  50  77 102 129 166 209 255 299
#     4   9  17  31  53  77 100 135 178 218 259 307
#     4  10  21  35  52  74  98 129 170 209 252 303
#     4  10  20  33  49  71 101 135 169 208 255 302
#     4   9  18  32  49  74 102 132 172 212 255 304
#     4   9  17  31  51  76 106 137 172 215 261 311
#     4  10  20  35  53  72  99 133 167 207 253 301
#     4   9  18  32  51  78 105 133 172 214 260 307
#
# _framework density 18.69397
#
# number of rings (size 3 to 8) (size 9 to 14) (size 15 to 20)
#    0.000    2.500    0.000    2.250    0.000    3.750 
#    2.250    0.000    0.000    1.500    0.000    0.000 
#    0.000    0.000    0.000    0.000    0.000    0.000 
#
# Total GULP energy -396642.620060 kJ/mol
# GULP energy per Si atom -12395.081877 kJ/mol
# Density = 1.865142 g / cm^3
# Si number density = 18.693970 Si / 1000 Ang^3
#
#
#
# Elastic Constant Matrix: (Units=GPa)
#
#
# Indices 1 2 3 4 5 6 
#
# 1 81.9508 29.8490 50.9444 0.0000 12.7278 -0.0002
# 2 29.8490 85.1995 42.0285 0.0001 6.1692 -0.0008
# 3 50.9444 42.0285 127.2411 0.0000 8.7055 -0.0001
# 4 0.0000 0.0001 0.0000 21.4966 0.0000 -0.3229
# 5 12.7278 6.1692 8.7055 0.0000 26.7649 0.0000
# 6 -0.0002 -0.0008 -0.0001 -0.3229 0.0000 25.8840
#
#
#
# Elastic Compliance Matrix: (Units=1/GPa)
#
#
# Indices 1 2 3 4 5 6 
#
# 1 0.017760 -0.002970 -0.005726 0.000000 -0.005899 0.000000
# 2 -0.002970 0.014601 -0.003579 0.000000 -0.000789 0.000000
# 3 -0.005726 -0.003579 0.011344 0.000000 -0.000142 0.000000
# 4 0.000000 0.000000 0.000000 0.046528 0.000000 0.000580
# 5 -0.005899 -0.000789 -0.000142 0.000000 0.040395 0.000000
# 6 0.000000 0.000000 0.000000 0.000580 0.000000 0.038641
#
#
# Mechanical properties :
#
#
# Convention : Reuss Voigt Hill
#
# Bulk Modulus (GPa) = 52.21212 60.00390 56.10801
# Shear Modulus (GPa) = 24.97450 26.26705 25.62078
#
# Velocity S-wave (km/s) = 3.65905 3.75254 3.70609
# Velocity P-wave (km/s) = 6.77068 7.13745 6.95648
#
# Compressibility (1/GPa) = 0.01915264
#
# Stress axis : x y z
#
# Youngs Moduli (GPa) = 56.30639 68.49012 88.15492
#
# Poissons Ratio (x) = 0.20344 0.50478
# Poissons Ratio (y) = 0.16725 0.31555
# Poissons Ratio (z) = 0.32241 0.24516
#
# Static dielectric constant tensor:
#      x y z
#    x 3.288990 0.000000 -0.028580 
#    y 0.000000 3.549880 0.000000 
#    z -0.028580 0.000000 3.764120 
# 
# 
# High freq. dielectric constant tensor:
#      x y z
#    x 1.701280 0.000000 -0.004940 
#    y 0.000000 1.717330 0.000000 
#    z -0.004940 0.000000 1.739670 
# 
# From -- ./inp_files/345930.got.cif
#   From: 2010.06.25/outbox.cif.g09.slc.cpg/sg12_173_cif.got.tgz:345930.got - 2010.06.28 00:19:55.
