data_PCOD8086673
_publ_section_title
;
Structure prediction by ZEFSAII (Michael W. Deem and Ramdas Pophale) SiO2 
 PCOD8086673
Probable space group: C 2/M
;
_chemical_formula_sum "Si O2"
_cell_formula_units_Z 56
_cell_length_a 18.890411
_cell_length_b 9.496472
_cell_length_c 19.785800
_cell_angle_alpha 90.000000
_cell_angle_beta 117.251225
_cell_angle_gamma 90.000000
_cell_volume 3155.459906
_symmetry_space_group_name_H-M "C 2/M"
_symmetry_group_IT_number 12
_symmetry_cell_setting 'monoclinic'
loop_
_space_group_symop_operation_xyz
x,y,z
-x,y,-z
-x,-y,-z
x,-y,z
1/2+x,1/2+y,z
1/2-x,1/2+y,-z
1/2-x,1/2-y,-z
1/2+x,1/2-y,z
loop_
_atom_site_type_symbol
_atom_site_label
_atom_site_fract_x
_atom_site_fract_y
_atom_site_fract_z
Si Si1 0.455828 0.841009 0.698362
Si Si2 0.822215 0.333003 0.066710
Si Si3 0.134136 0.337412 0.762573
Si Si4 0.513620 0.151902 0.928481
Si Si5 0.582699 0.655663 0.195662
Si Si6 0.239670 0.339608 0.688385
Si Si7 0.283561 0.834229 0.577576
O O1 0.541384 0.815129 0.701479
O O2 0.456375 0.734109 0.759268
O O3 0.379540 0.812556 0.617102
O O4 0.450267 0.000000 0.723878
O O5 0.804063 0.500000 0.057358
O O6 0.839603 0.278749 0.151810
O O7 0.899107 0.294500 0.055069
O O8 0.750000 0.250000 0.000000
O O9 0.156787 0.500000 0.774014
O O10 0.180872 0.271821 0.718842
O O11 0.445716 0.264486 0.882886
O O12 0.500055 0.000000 0.885900
O O13 0.500000 0.127419 0.000000
O O14 0.547199 0.500000 0.180115
O O15 0.676839 0.655166 0.237532
O O16 0.215906 0.500000 0.654905
O O17 0.243837 0.234483 0.626628
O O18 0.250000 0.750000 0.500000
O O19 0.261237 0.000000 0.564604
#
# Coordination Sequence:
#
# PCOD8086673 Si02
#       7
#     8   8   8   8   8   8   8
#     4   9  17  34  58  78 100 137 179 211 251 309
#     4  10  21  36  53  74 104 141 179 223 273 315
#     4   9  17  34  57  76 102 139 179 221 261 311
#     4  10  21  36  52  70  98 138 181 222 265 314
#     4  10  19  31  50  76 102 131 169 218 267 309
#     4   9  19  34  54  80 107 136 172 215 264 313
#     4  10  20  35  58  84 110 140 172 212 257 310
#
# _framework density 17.747015999999999
#
# number of rings (size 3 to 8) (size 9 to 14) (size 15 to 20)
#    0.000    2.429    1.429    0.857    2.000    2.000 
#    0.000    2.143    0.000    4.286    0.000    0.000 
#    0.000    0.000    0.000    0.000    0.000    0.000 
#
# Total GULP energy -346909.982081 kJ/mol
# GULP energy per Si atom -12389.642217 kJ/mol
# Density = 1.770662 g / cm^3
# Si number density = 17.747016 Si / 1000 Ang^3
#
#
#
# Elastic Constant Matrix: (Units=GPa)
#
#
# Indices 1 2 3 4 5 6 
#
# 1 120.8995 41.4376 58.0913 0.0000 -12.4318 0.0000
# 2 41.4376 98.8813 56.3134 0.0000 0.2698 0.0000
# 3 58.0913 56.3134 113.4868 0.0000 -1.1632 0.0000
# 4 0.0000 0.0000 0.0000 23.2664 0.0000 2.0264
# 5 -12.4318 0.2698 -1.1632 0.0000 17.6712 0.0000
# 6 0.0000 0.0000 0.0000 2.0264 0.0000 19.2773
#
#
#
# Elastic Compliance Matrix: (Units=1/GPa)
#
#
# Indices 1 2 3 4 5 6 
#
# 1 0.012379 -0.002301 -0.005109 0.000000 0.008408 0.000000
# 2 -0.002301 0.014533 -0.006056 0.000000 -0.002240 0.000000
# 3 -0.005109 -0.006056 0.014406 0.000000 -0.002553 0.000000
# 4 0.000000 0.000000 0.000000 0.043378 0.000000 -0.004560
# 5 0.008408 -0.002240 -0.002553 0.000000 0.062370 0.000000
# 6 0.000000 0.000000 0.000000 -0.004560 0.000000 0.052354
#
#
# Mechanical properties :
#
#
# Convention : Reuss Voigt Hill
#
# Bulk Modulus (GPa) = 69.51541 71.66136 70.58838
# Shear Modulus (GPa) = 21.63130 23.87132 22.75131
#
# Velocity S-wave (km/s) = 3.49502 3.67152 3.58436
# Velocity P-wave (km/s) = 7.45266 7.64464 7.54926
#
# Compressibility (1/GPa) = 0.01438530
#
# Stress axis : x y z
#
# Youngs Moduli (GPa) = 80.78029 68.81026 69.41757
#
# Poissons Ratio (x) = 0.15835 0.35462
# Poissons Ratio (y) = 0.18590 0.42041
# Poissons Ratio (z) = 0.41267 0.41673
#
# Static dielectric constant tensor:
#      x y z
#    x 3.389070 0.000000 0.057940 
#    y 0.000000 5.010590 0.000000 
#    z 0.057940 0.000000 3.340100 
# 
# 
# High freq. dielectric constant tensor:
#      x y z
#    x 1.687730 0.000000 0.004540 
#    y 0.000000 1.679490 0.000000 
#    z 0.004540 0.000000 1.675800 
# 
# From -- ./inp_files/313688.got.cif
#   From: 2010.06.25/outbox.cif.g09.slc.cpg/sg12_157_cif.got.tgz:313688.got - 2010.06.28 00:19:55.
