data_PCOD8086135
_publ_section_title
;
Structure prediction by ZEFSAII (Michael W. Deem and Ramdas Pophale) SiO2 
 PCOD8086135
Probable space group: C 2/M
;
_chemical_formula_sum "Si O2"
_cell_formula_units_Z 48
_cell_length_a 19.243339
_cell_length_b 9.395763
_cell_length_c 18.128441
_cell_angle_alpha 90.000000
_cell_angle_beta 58.779643
_cell_angle_gamma 90.000000
_cell_volume 2803.048130
_symmetry_space_group_name_H-M "C 2/M"
_symmetry_group_IT_number 12
_symmetry_cell_setting 'monoclinic'
loop_
_space_group_symop_operation_xyz
x,y,z
-x,y,-z
-x,-y,-z
x,-y,z
1/2+x,1/2+y,z
1/2-x,1/2+y,-z
1/2-x,1/2-y,-z
1/2+x,1/2-y,z
loop_
_atom_site_type_symbol
_atom_site_label
_atom_site_fract_x
_atom_site_fract_y
_atom_site_fract_z
Si Si1 0.414775 0.169190 0.074444
Si Si2 0.255776 0.167306 0.572844
Si Si3 0.336895 0.343240 0.739884
Si Si4 0.760951 0.331767 0.069143
Si Si5 0.415207 0.834626 0.578490
Si Si6 0.673446 0.158813 0.736646
O O1 0.344078 0.226035 0.059851
O O2 0.398295 0.212834 0.169111
O O3 0.415794 0.000000 0.069859
O O4 0.500000 0.235057 0.000000
O O5 0.250000 0.250000 0.500000
O O6 0.343824 0.198725 0.559676
O O7 0.184558 0.228942 0.664422
O O8 0.241112 0.000000 0.568943
O O9 0.376792 0.500000 0.718932
O O10 0.315020 0.294350 0.835109
O O11 0.399856 0.237572 0.666159
O O12 0.253703 0.349355 0.741082
O O13 0.764999 0.500000 0.052574
O O14 0.750000 0.250000 0.000000
O O15 0.500000 0.775219 0.500000
O O16 0.421790 0.000000 0.591791
O O17 0.654690 0.000000 0.715213
#
# Coordination Sequence:
#
# PCOD8086135 Si02
#       6
#     8   8   8   8   8   8
#     4   8  14  27  48  70  89 114 151 188 219 257
#     4  10  19  31  48  68  91 118 148 183 222 266
#     4   8  15  28  45  65  89 119 152 180 214 265
#     4   9  17  29  46  68  92 118 149 184 220 261
#     4   9  18  32  49  69  90 113 147 189 226 260
#     4   8  14  27  47  67  88 116 150 185 218 258
#
# _framework density 17.124216000000001
#
# number of rings (size 3 to 8) (size 9 to 14) (size 15 to 20)
#    0.000    3.333    0.000    2.500    0.000    1.667 
#    0.000    4.167    0.000   10.000    0.000    0.000 
#    0.000    0.000    0.000    0.000    0.000    0.000 
#
# Total GULP energy -297440.890840 kJ/mol
# GULP energy per Si atom -12393.370452 kJ/mol
# Density = 1.708524 g / cm^3
# Si number density = 17.124216 Si / 1000 Ang^3
#
#
#
# Elastic Constant Matrix: (Units=GPa)
#
#
# Indices 1 2 3 4 5 6 
#
# 1 48.3222 32.1540 58.3818 0.0000 -4.8078 0.0000
# 2 32.1540 72.6663 75.0240 0.0000 3.8256 0.0000
# 3 58.3818 75.0240 184.1057 0.0000 -4.7037 0.0000
# 4 0.0000 0.0000 0.0000 34.7075 0.0000 5.1332
# 5 -4.8078 3.8256 -4.7037 0.0000 31.1191 0.0000
# 6 0.0000 0.0000 0.0000 5.1332 0.0000 18.2423
#
#
#
# Elastic Compliance Matrix: (Units=1/GPa)
#
#
# Indices 1 2 3 4 5 6 
#
# 1 0.036377 -0.007959 -0.008155 0.000000 0.005366 0.000000
# 2 -0.007959 0.026114 -0.008263 0.000000 -0.005689 0.000000
# 3 -0.008155 -0.008263 0.011423 0.000000 0.001482 0.000000
# 4 0.000000 0.000000 0.000000 0.030063 0.000000 -0.008459
# 5 0.005366 -0.005689 0.001482 0.000000 0.033887 0.000000
# 6 0.000000 0.000000 0.000000 -0.008459 0.000000 0.057198
#
#
# Mechanical properties :
#
#
# Convention : Reuss Voigt Hill
#
# Bulk Modulus (GPa) = 39.74663 70.69040 55.21852
# Shear Modulus (GPa) = 19.82526 26.11608 22.97067
#
# Velocity S-wave (km/s) = 3.40624 3.90949 3.66651
# Velocity P-wave (km/s) = 6.22343 7.85807 7.08803
#
# Compressibility (1/GPa) = 0.02515936
#
# Stress axis : x y z
#
# Youngs Moduli (GPa) = 27.48967 38.29369 87.54457
#
# Poissons Ratio (x) = 0.30479 0.71393
# Poissons Ratio (y) = 0.21880 0.72337
# Poissons Ratio (z) = 0.22418 0.31642
#
# Static dielectric constant tensor:
#      x y z
#    x 2.970350 0.000000 -0.230030 
#    y 0.000000 3.109150 0.000000 
#    z -0.230030 0.000000 3.664590 
# 
# 
# High freq. dielectric constant tensor:
#      x y z
#    x 1.621210 0.000000 -0.003810 
#    y 0.000000 1.643280 0.000000 
#    z -0.003810 0.000000 1.677920 
# 
# From -- ./inp_files/280052.got.cif
#   From: 2010.06.25/outbox.cif.g09.slc.cpg/sg12_141_cif.got.tgz:280052.got - 2010.06.28 00:19:55.
