data_PCOD8086079
_publ_section_title
;
Structure prediction by ZEFSAII (Michael W. Deem and Ramdas Pophale) SiO2 
 PCOD8086079
Probable space group: C 2/M
;
_chemical_formula_sum "Si O2"
_cell_formula_units_Z 48
_cell_length_a 31.387021
_cell_length_b 9.095965
_cell_length_c 9.173721
_cell_angle_alpha 90.000000
_cell_angle_beta 91.202015
_cell_angle_gamma 90.000000
_cell_volume 2618.477387
_symmetry_space_group_name_H-M "C 2/M"
_symmetry_group_IT_number 12
_symmetry_cell_setting 'monoclinic'
loop_
_space_group_symop_operation_xyz
x,y,z
-x,y,-z
-x,-y,-z
x,-y,z
1/2+x,1/2+y,z
1/2-x,1/2+y,-z
1/2-x,1/2-y,-z
1/2+x,1/2-y,z
loop_
_atom_site_type_symbol
_atom_site_label
_atom_site_fract_x
_atom_site_fract_y
_atom_site_fract_z
Si Si1 0.747723 0.832312 0.351336
Si Si2 0.844467 0.672633 0.636053
Si Si3 0.422907 0.825389 0.832608
Si Si4 0.660474 0.673019 0.675415
Si Si5 0.412672 0.825400 0.160633
Si Si6 0.003943 0.325081 0.664104
O O1 0.750000 0.750000 0.500000
O O2 0.700747 0.799153 0.280499
O O3 0.790703 0.793880 0.263465
O O4 0.750425 0.000000 0.396435
O O5 0.850770 0.500000 0.601235
O O6 0.881379 0.732296 0.744062
O O7 0.846978 0.760153 0.485198
O O8 0.465071 0.761791 0.757538
O O9 0.424046 0.000000 0.831108
O O10 0.421821 0.769109 0.998058
O O11 0.650757 0.500000 0.668941
O O12 0.630384 0.750143 0.789512
O O13 0.451576 0.771825 0.264582
O O14 0.406880 0.000000 0.166537
O O15 0.001942 0.500000 0.663060
O O16 0.000000 0.262753 0.500000
#
# Coordination Sequence:
#
# PCOD8086079 Si02
#       6
#     8   8   8   8   8   8
#     4   8  15  27  45  68  92 119 152 194 236 272
#     4   9  16  30  52  73  92 118 157 199 237 277
#     4   9  17  29  48  74  98 120 151 194 238 278
#     4  10  19  31  47  69  97 126 158 194 233 275
#     4  10  19  31  48  70  97 127 157 189 229 278
#     4   9  16  27  47  74  97 117 149 195 239 274
#
# _framework density 18.331264000000001
#
# number of rings (size 3 to 8) (size 9 to 14) (size 15 to 20)
#    0.000    2.833    0.000    2.000    0.000    5.333 
#    0.000    1.667    0.000    6.500    0.000    0.000 
#    0.000    0.000    0.000    0.000    0.000    0.000 
#
# Total GULP energy -297353.393456 kJ/mol
# GULP energy per Si atom -12389.724727 kJ/mol
# Density = 1.828954 g / cm^3
# Si number density = 18.331264 Si / 1000 Ang^3
#
#
#
# Elastic Constant Matrix: (Units=GPa)
#
#
# Indices 1 2 3 4 5 6 
#
# 1 155.4663 30.5410 58.7066 0.0000 -28.6090 0.0000
# 2 30.5410 28.4725 19.7355 0.0000 -6.9155 0.0000
# 3 58.7066 19.7355 109.1881 0.0000 -22.5553 0.0000
# 4 0.0000 0.0000 0.0000 11.8912 0.0000 -5.1310
# 5 -28.6090 -6.9155 -22.5553 0.0000 22.9322 0.0000
# 6 0.0000 0.0000 0.0000 -5.1310 0.0000 23.4506
#
#
#
# Elastic Compliance Matrix: (Units=1/GPa)
#
#
# Indices 1 2 3 4 5 6 
#
# 1 0.010341 -0.007342 -0.002542 0.000000 0.008187 0.000000
# 2 -0.007342 0.046089 -0.004272 0.000000 0.000537 0.000000
# 3 -0.002542 -0.004272 0.013022 0.000000 0.008349 0.000000
# 4 0.000000 0.000000 0.000000 0.092863 0.000000 0.020318
# 5 0.008187 0.000537 0.008349 0.000000 0.062194 0.000000
# 6 0.000000 0.000000 0.000000 0.020318 0.000000 0.047088
#
#
# Mechanical properties :
#
#
# Convention : Reuss Voigt Hill
#
# Bulk Modulus (GPa) = 24.30714 56.78811 40.54762
# Shear Modulus (GPa) = 15.94280 23.93106 19.93693
#
# Velocity S-wave (km/s) = 2.95228 3.61706 3.30144
# Velocity P-wave (km/s) = 4.99099 6.96349 6.05806
#
# Compressibility (1/GPa) = 0.04114017
#
# Stress axis : x y z
#
# Youngs Moduli (GPa) = 96.70327 21.69738 76.79403
#
# Poissons Ratio (x) = 0.15930 0.19519
# Poissons Ratio (y) = 0.70999 0.32805
# Poissons Ratio (z) = 0.24579 0.09269
#
# Static dielectric constant tensor:
#      x y z
#    x 4.175750 0.000000 -0.008820 
#    y 0.000000 2.981100 0.000000 
#    z -0.008820 0.000000 3.223200 
# 
# 
# High freq. dielectric constant tensor:
#      x y z
#    x 1.740510 0.000000 -0.004560 
#    y 0.000000 1.669440 0.000000 
#    z -0.004560 0.000000 1.685970 
# 
# From -- ./inp_files/108708.got.cif
#   From: 2010.06.25/outbox.cif.g09.slc.cpg/sg12_55_cif.got.tgz:108708.got - 2010.06.28 00:19:55.
