data_PCOD8086755
_publ_section_title
;
Structure prediction by ZEFSAII (Michael W. Deem and Ramdas Pophale) SiO2 
 PCOD8086755
Probable space group: C 2/M
;
_chemical_formula_sum "Si O2"
_cell_formula_units_Z 48
_cell_length_a 21.260796
_cell_length_b 22.652723
_cell_length_c 8.761722
_cell_angle_alpha 90.000000
_cell_angle_beta 37.122263
_cell_angle_gamma 90.000000
_cell_volume 2546.710192
_symmetry_space_group_name_H-M "C 2/M"
_symmetry_group_IT_number 12
_symmetry_cell_setting 'monoclinic'
loop_
_space_group_symop_operation_xyz
x,y,z
-x,y,-z
-x,-y,-z
x,-y,z
1/2+x,1/2+y,z
1/2-x,1/2+y,-z
1/2-x,1/2-y,-z
1/2+x,1/2-y,z
loop_
_atom_site_type_symbol
_atom_site_label
_atom_site_fract_x
_atom_site_fract_y
_atom_site_fract_z
Si Si1 0.088313 0.339566 0.667483
Si Si2 0.490617 0.265294 0.695057
Si Si3 0.030069 0.431628 0.267931
Si Si4 0.706904 0.727642 0.773488
Si Si5 0.896835 0.836913 0.290177
Si Si6 0.689174 0.140283 0.783100
O O1 0.996757 0.294915 0.786408
O O2 0.193831 0.313394 0.391432
O O3 0.099230 0.350141 0.828278
O O4 0.064802 0.403866 0.644099
O O5 0.500000 0.250511 0.500000
O O6 0.572646 0.312542 0.601799
O O7 0.377027 0.293739 0.939585
O O8 0.039392 0.500000 0.209037
O O9 0.000000 0.420561 0.500000
O O10 0.141229 0.401260 0.007245
O O11 0.655379 0.718351 0.703462
O O12 0.728294 0.796201 0.767985
O O13 0.801459 0.884817 0.497089
O O14 0.000000 0.861405 0.000000
#
# Coordination Sequence:
#
# PCOD8086755 Si02
#       6
#     8   8   8   8   8   8
#     4  11  20  34  53  79 111 144 188 228 269 331
#     4  11  20  28  45  77 115 146 176 216 272 336
#     4  11  26  42  55  79 114 151 190 234 278 323
#     4  10  19  31  50  80 110 148 180 227 280 330
#     4   9  18  33  50  77 114 144 172 222 278 328
#     4  11  19  34  59  77 107 149 188 229 272 335
#
# _framework density 18.847845
#
# number of rings (size 3 to 8) (size 9 to 14) (size 15 to 20)
#    0.000    1.500    5.000    2.000    0.000    3.333 
#    0.000    0.000    0.000    0.500    0.000    3.500 
#    0.000   25.333    0.000    0.000    0.000    0.000 
#
# Total GULP energy -297322.431934 kJ/mol
# GULP energy per Si atom -12388.434664 kJ/mol
# Density = 1.880495 g / cm^3
# Si number density = 18.847845 Si / 1000 Ang^3
#
#
#
# Elastic Constant Matrix: (Units=GPa)
#
#
# Indices 1 2 3 4 5 6 
#
# 1 64.2274 25.7090 49.4380 0.0000 7.4346 0.0000
# 2 25.7090 76.4676 66.9481 0.0000 3.5681 0.0000
# 3 49.4380 66.9481 140.7862 0.0000 -7.1313 0.0000
# 4 0.0000 0.0000 0.0000 24.4129 0.0000 1.1406
# 5 7.4346 3.5681 -7.1313 0.0000 32.0910 0.0000
# 6 0.0000 0.0000 0.0000 1.1406 0.0000 19.5438
#
#
#
# Elastic Compliance Matrix: (Units=1/GPa)
#
#
# Indices 1 2 3 4 5 6 
#
# 1 0.022855 -0.000011 -0.008383 0.000000 -0.007157 0.000000
# 2 -0.000011 0.023199 -0.011286 0.000000 -0.005085 0.000000
# 3 -0.008383 -0.011286 0.015753 0.000000 0.006698 0.000000
# 4 0.000000 0.000000 0.000000 0.041074 0.000000 -0.002397
# 5 -0.007157 -0.005085 0.006698 0.000000 0.034873 0.000000
# 6 0.000000 0.000000 0.000000 -0.002397 0.000000 0.051307
#
#
# Mechanical properties :
#
#
# Convention : Reuss Voigt Hill
#
# Bulk Modulus (GPa) = 44.54747 62.85240 53.69993
# Shear Modulus (GPa) = 21.19519 24.50195 22.84857
#
# Velocity S-wave (km/s) = 3.35706 3.60944 3.48554
# Velocity P-wave (km/s) = 6.22198 7.12674 6.68967
#
# Compressibility (1/GPa) = 0.02244796
#
# Stress axis : x y z
#
# Youngs Moduli (GPa) = 43.75373 43.10537 63.48094
#
# Poissons Ratio (x) = 0.00045 0.53218
# Poissons Ratio (y) = 0.00046 0.71643
# Poissons Ratio (z) = 0.36680 0.48647
#
# Static dielectric constant tensor:
#      x y z
#    x 3.413240 0.000000 -0.329610 
#    y 0.000000 2.952830 0.000000 
#    z -0.329610 0.000000 4.008960 
# 
# 
# High freq. dielectric constant tensor:
#      x y z
#    x 1.721560 0.000000 -0.015970 
#    y 0.000000 1.660620 0.000000 
#    z -0.015970 0.000000 1.769910 
# 
# From -- ./inp_files/89416.got.cif
#   From: 2010.06.25/outbox.cif.g09.slc.cpg/sg12_45_cif.got.tgz:89416.got - 2010.06.28 00:19:55.
