data_PCOD8086764
_publ_section_title
;
Structure prediction by ZEFSAII (Michael W. Deem and Ramdas Pophale) SiO2 
 PCOD8086764
Probable space group: C 2/M
;
_chemical_formula_sum "Si O2"
_cell_formula_units_Z 56
_cell_length_a 10.219247
_cell_length_b 24.108308
_cell_length_c 19.660637
_cell_angle_alpha 90.000000
_cell_angle_beta 141.239564
_cell_angle_gamma 90.000000
_cell_volume 3032.515244
_symmetry_space_group_name_H-M "C 2/M"
_symmetry_group_IT_number 12
_symmetry_cell_setting 'monoclinic'
loop_
_space_group_symop_operation_xyz
x,y,z
-x,y,-z
-x,-y,-z
x,-y,z
1/2+x,1/2+y,z
1/2-x,1/2+y,-z
1/2-x,1/2-y,-z
1/2+x,1/2-y,z
loop_
_atom_site_type_symbol
_atom_site_label
_atom_site_fract_x
_atom_site_fract_y
_atom_site_fract_z
Si Si1 0.440083 0.361553 0.804778
Si Si2 0.511576 0.739196 0.924890
Si Si3 0.268993 0.565393 0.415628
Si Si4 0.882505 0.938342 0.015678
Si Si5 0.101285 0.561796 0.206341
Si Si6 0.177476 0.648964 0.128082
Si Si7 0.448744 0.934917 0.400339
O O1 0.394653 0.309194 0.835347
O O2 0.581365 0.405670 0.901240
O O3 0.590895 0.340149 0.806489
O O4 0.234855 0.392412 0.694311
O O5 0.387758 0.795588 0.858510
O O6 0.500000 0.724559 0.000000
O O7 0.750000 0.750000 0.000000
O O8 0.500000 0.592109 0.500000
O O9 0.290431 0.500000 0.426106
O O10 0.138260 0.585131 0.297049
O O11 0.149374 0.583359 0.436250
O O12 0.974182 0.000000 0.062893
O O13 0.642117 0.939174 0.902679
O O14 0.000000 0.909340 0.000000
O O15 0.197438 0.500000 0.237444
O O16 0.208983 0.599248 0.193509
O O17 0.000000 0.634750 0.000000
O O18 0.500000 0.925872 0.500000
O O19 0.388974 0.000000 0.362532
#
# Coordination Sequence:
#
# PCOD8086764 Si02
#       7
#     8   8   8   8   8   8   8
#     4  12  22  37  61  84 118 159 199 250 300 362
#     4  11  21  39  60  86 120 160 203 248 298 355
#     4   9  19  37  58  84 118 159 203 241 288 357
#     4  10  19  31  50  82 118 151 186 234 298 366
#     4  10  20  33  54  83 120 154 191 243 300 362
#     4  11  22  38  54  88 124 154 203 246 294 370
#     4  10  23  41  63  93 124 158 203 252 306 365
#
# _framework density 18.466519000000002
#
# number of rings (size 3 to 8) (size 9 to 14) (size 15 to 20)
#    0.000    1.571    4.286    1.714    2.000    4.857 
#    0.000    0.000    0.000    1.714    0.000    0.000 
#    0.000    0.000    0.000    0.000    0.000    0.000 
#
# Total GULP energy -347069.924769 kJ/mol
# GULP energy per Si atom -12395.354456 kJ/mol
# Density = 1.842449 g / cm^3
# Si number density = 18.466519 Si / 1000 Ang^3
#
#
#
# Elastic Constant Matrix: (Units=GPa)
#
#
# Indices 1 2 3 4 5 6 
#
# 1 140.8282 49.6183 49.6703 0.0000 0.5214 0.0001
# 2 49.6183 93.2564 46.1672 -0.0005 -6.4264 -0.0001
# 3 49.6703 46.1672 97.3470 -0.0013 -4.2276 0.0007
# 4 0.0000 -0.0005 -0.0013 26.3675 -0.0003 -0.1075
# 5 0.5214 -6.4264 -4.2276 -0.0003 32.8156 -0.0001
# 6 0.0001 -0.0001 0.0007 -0.1075 -0.0001 30.9582
#
#
#
# Elastic Compliance Matrix: (Units=1/GPa)
#
#
# Indices 1 2 3 4 5 6 
#
# 1 0.009488 -0.003543 -0.003215 0.000000 -0.001259 0.000000
# 2 -0.003543 0.015455 -0.005418 0.000000 0.002385 0.000000
# 3 -0.003215 -0.005418 0.014520 0.000001 0.000861 0.000000
# 4 0.000000 0.000000 0.000001 0.037926 0.000000 0.000132
# 5 -0.001259 0.002385 0.000861 0.000000 0.031071 0.000000
# 6 0.000000 0.000000 0.000000 0.000132 0.000000 0.032302
#
#
# Mechanical properties :
#
#
# Convention : Reuss Voigt Hill
#
# Bulk Modulus (GPa) = 66.18321 69.14923 67.66622
# Shear Modulus (GPa) = 29.38543 30.42664 29.90603
#
# Velocity S-wave (km/s) = 3.99341 4.06355 4.02863
# Velocity P-wave (km/s) = 7.56178 7.71645 7.63951
#
# Compressibility (1/GPa) = 0.01510957
#
# Stress axis : x y z
#
# Youngs Moduli (GPa) = 105.39665 64.70437 68.86984
#
# Poissons Ratio (x) = 0.22925 0.22145
# Poissons Ratio (y) = 0.37343 0.37315
# Poissons Ratio (z) = 0.33890 0.35058
#
# Static dielectric constant tensor:
#      x y z
#    x 3.644270 0.000000 -0.007430 
#    y 0.000000 3.501630 0.000000 
#    z -0.007430 0.000000 3.279540 
# 
# 
# High freq. dielectric constant tensor:
#      x y z
#    x 1.734990 0.000000 -0.001720 
#    y 0.000000 1.698120 0.000000 
#    z -0.001720 0.000000 1.695690 
# 
# From -- ./inp_files/259864.got.cif
#   From: 2010.06.25/outbox.cif.g09.slc.cpg/sg12_130_cif.got.tgz:259864.got - 2010.06.28 00:19:55.
