data_PCOD8086041
_publ_section_title
;
Structure prediction by ZEFSAII (Michael W. Deem and Ramdas Pophale) SiO2 
 PCOD8086041
Probable space group: C 2/M
;
_chemical_formula_sum "Si O2"
_cell_formula_units_Z 48
_cell_length_a 27.389858
_cell_length_b 8.949957
_cell_length_c 23.803381
_cell_angle_alpha 90.000000
_cell_angle_beta 150.349915
_cell_angle_gamma 90.000000
_cell_volume 2886.641293
_symmetry_space_group_name_H-M "C 2/M"
_symmetry_group_IT_number 12
_symmetry_cell_setting 'monoclinic'
loop_
_space_group_symop_operation_xyz
x,y,z
-x,y,-z
-x,-y,-z
x,-y,z
1/2+x,1/2+y,z
1/2-x,1/2+y,-z
1/2-x,1/2-y,-z
1/2+x,1/2-y,z
loop_
_atom_site_type_symbol
_atom_site_label
_atom_site_fract_x
_atom_site_fract_y
_atom_site_fract_z
Si Si1 0.799848 0.827171 0.128165
Si Si2 0.395741 0.675543 0.339373
Si Si3 0.599495 0.674518 0.327863
Si Si4 0.200154 0.672828 0.528470
Si Si5 0.895754 0.324458 0.452129
Si Si6 0.099497 0.325482 0.871128
O O1 0.819458 0.791765 0.212912
O O2 0.874629 0.732092 0.165203
O O3 0.819425 0.000000 0.133475
O O4 0.686972 0.783232 0.001790
O O5 0.411393 0.500000 0.364655
O O6 0.351433 0.750034 0.351432
O O7 0.500004 0.749962 0.428610
O O8 0.581244 0.500000 0.313273
O O9 0.686967 0.716767 0.372146
O O10 0.625377 0.732087 0.415949
O O11 0.499999 0.750002 0.205603
O O12 0.180579 0.500000 0.494626
O O13 0.180541 0.708227 0.573993
O O14 0.911456 0.500000 0.458221
O O15 0.081248 0.500000 0.849216
#
# Coordination Sequence:
#
# PCOD8086041 Si02
#       6
#     8   8   8   8   8   8
#     4   9  19  33  48  68  94 123 154 189 227 270
#     4  10  19  31  47  68  93 120 151 186 226 270
#     4  10  19  31  48  70  95 122 153 188 228 273
#     4   9  19  33  48  68  94 123 154 189 227 270
#     4  10  19  31  47  68  93 120 151 186 226 270
#     4  10  19  31  48  70  95 122 153 188 228 273
#
# _framework density 16.628322000000001
#
# number of rings (size 3 to 8) (size 9 to 14) (size 15 to 20)
#    0.000    2.333    0.000    4.000    0.000    6.667 
#    0.000    0.000    0.000    1.000    0.000    7.000 
#    0.000    0.000    0.000    0.000    0.000    0.000 
#
# Total GULP energy -297635.323690 kJ/mol
# GULP energy per Si atom -12401.471820 kJ/mol
# Density = 1.659047 g / cm^3
# Si number density = 16.628322 Si / 1000 Ang^3
#
#
#
# Elastic Constant Matrix: (Units=GPa)
#
#
# Indices 1 2 3 4 5 6 
#
# 1 118.1961 49.0559 61.8242 0.0000 -6.1539 0.0000
# 2 49.0559 85.9930 47.7138 0.0000 -1.0319 0.0000
# 3 61.8242 47.7138 105.8358 0.0000 -3.4747 0.0000
# 4 0.0000 0.0000 0.0000 27.5543 0.0000 1.5533
# 5 -6.1539 -1.0319 -3.4747 0.0000 26.3310 0.0000
# 6 0.0000 0.0000 0.0000 1.5533 0.0000 25.5686
#
#
#
# Elastic Compliance Matrix: (Units=1/GPa)
#
#
# Indices 1 2 3 4 5 6 
#
# 1 0.013438 -0.004433 -0.005779 0.000000 0.002204 0.000000
# 2 -0.004433 0.016973 -0.005097 0.000000 -0.001043 0.000000
# 3 -0.005779 -0.005097 0.015137 0.000000 0.000447 0.000000
# 4 0.000000 0.000000 0.000000 0.036417 0.000000 -0.002212
# 5 0.002204 -0.001043 0.000447 0.000000 0.038511 0.000000
# 6 0.000000 0.000000 0.000000 -0.002212 0.000000 0.039245
#
#
# Mechanical properties :
#
#
# Convention : Reuss Voigt Hill
#
# Bulk Modulus (GPa) = 66.97620 69.69032 68.33326
# Shear Modulus (GPa) = 25.59972 25.98617 25.79294
#
# Velocity S-wave (km/s) = 3.92794 3.95747 3.94273
# Velocity P-wave (km/s) = 7.80624 7.92992 7.86833
#
# Compressibility (1/GPa) = 0.01493068
#
# Stress axis : x y z
#
# Youngs Moduli (GPa) = 74.41668 58.91672 66.06418
#
# Poissons Ratio (x) = 0.26117 0.38178
# Poissons Ratio (y) = 0.32988 0.33671
# Poissons Ratio (z) = 0.43005 0.30028
#
# Static dielectric constant tensor:
#      x y z
#    x 3.116750 0.000000 0.001370 
#    y 0.000000 3.247120 0.000000 
#    z 0.001370 0.000000 3.118500 
# 
# 
# High freq. dielectric constant tensor:
#      x y z
#    x 1.629400 0.000000 -0.000340 
#    y 0.000000 1.655730 0.000000 
#    z -0.000340 0.000000 1.628960 
# 
# From -- ./inp_files/351154.got.cif
#   From: 2010.06.25/outbox.cif.g09.slc.cpg/sg12_176_cif.got.tgz:351154.got - 2010.06.28 00:19:55.
