data_PCOD8086897
_publ_section_title
;
Structure prediction by ZEFSAII (Michael W. Deem and Ramdas Pophale) SiO2 
 PCOD8086897
Probable space group: C 2/M
;
_chemical_formula_sum "Si O2"
_cell_formula_units_Z 64
_cell_length_a 19.980535
_cell_length_b 8.806435
_cell_length_c 19.863806
_cell_angle_alpha 90.000000
_cell_angle_beta 90.288510
_cell_angle_gamma 90.000000
_cell_volume 3495.137017
_symmetry_space_group_name_H-M "C 2/M"
_symmetry_group_IT_number 12
_symmetry_cell_setting 'monoclinic'
loop_
_space_group_symop_operation_xyz
x,y,z
-x,y,-z
-x,-y,-z
x,-y,z
1/2+x,1/2+y,z
1/2-x,1/2+y,-z
1/2-x,1/2-y,-z
1/2+x,1/2-y,z
loop_
_atom_site_type_symbol
_atom_site_label
_atom_site_fract_x
_atom_site_fract_y
_atom_site_fract_z
Si Si1 0.585538 0.820445 0.319213
Si Si2 0.579934 0.322026 0.174541
Si Si3 0.338016 0.322841 0.059778
Si Si4 0.191953 0.824191 0.408124
Si Si5 0.835329 0.325183 0.453392
Si Si6 0.523508 0.820488 0.927444
Si Si7 0.294458 0.323826 0.911152
Si Si8 0.518692 0.823084 0.572594
O O1 0.574187 0.735998 0.249754
O O2 0.657494 0.776420 0.350453
O O3 0.527491 0.755770 0.368534
O O4 0.581806 0.000000 0.307740
O O5 0.565943 0.500000 0.170797
O O6 0.524959 0.239243 0.130050
O O7 0.654016 0.283505 0.147719
O O8 0.349830 0.500000 0.069386
O O9 0.402100 0.236083 0.088776
O O10 0.272825 0.272097 0.101682
O O11 0.328393 0.276757 0.981834
O O12 0.164295 0.780552 0.481248
O O13 0.271703 0.790762 0.405661
O O14 0.176272 0.000000 0.394359
O O15 0.833718 0.500000 0.478437
O O16 0.902900 0.292348 0.411412
O O17 0.522338 0.000000 0.926466
O O18 0.500000 0.757088 0.000000
O O19 0.274770 0.500000 0.912103
O O20 0.500000 0.750031 0.500000
O O21 0.501767 0.000000 0.569288
#
# Coordination Sequence:
#
# PCOD8086897 Si02
#       8
#     8   8   8   8   8   8   8   8
#     4  11  22  37  57  79 109 148 190 232 279 340
#     4  11  23  40  59  81 115 153 191 234 289 347
#     4  10  19  33  57  86 114 143 183 234 284 330
#     4  10  19  31  51  80 110 139 176 224 279 333
#     4   9  17  32  54  79 106 138 179 225 273 326
#     4  11  22  36  58  87 117 150 192 237 281 337
#     4   9  19  35  55  81 112 147 184 228 282 340
#     4   9  16  31  56  81 105 141 188 230 273 327
#
# _framework density 18.311156
#
# number of rings (size 3 to 8) (size 9 to 14) (size 15 to 20)
#    0.000    2.000    2.500    1.875    0.000    2.500 
#    0.000    3.125    0.000    6.000    0.000    0.000 
#    0.000    0.000    0.000    0.000    0.000    0.000 
#
# Total GULP energy -396849.019650 kJ/mol
# GULP energy per Si atom -12401.531864 kJ/mol
# Density = 1.826948 g / cm^3
# Si number density = 18.311156 Si / 1000 Ang^3
#
#
#
# Elastic Constant Matrix: (Units=GPa)
#
#
# Indices 1 2 3 4 5 6 
#
# 1 134.2666 37.0439 53.6921 0.0000 -0.9429 0.0000
# 2 37.0439 47.1941 12.7973 0.0000 -3.1975 0.0000
# 3 53.6921 12.7973 80.2925 0.0000 -7.9102 0.0000
# 4 0.0000 0.0000 0.0000 28.4048 0.0000 3.8464
# 5 -0.9429 -3.1975 -7.9102 0.0000 25.3072 0.0000
# 6 0.0000 0.0000 0.0000 3.8464 0.0000 31.1738
#
#
#
# Elastic Compliance Matrix: (Units=1/GPa)
#
#
# Indices 1 2 3 4 5 6 
#
# 1 0.012639 -0.008097 -0.007445 0.000000 -0.002879 0.000000
# 2 -0.008097 0.027409 0.001400 0.000000 0.003599 0.000000
# 3 -0.007445 0.001400 0.017746 0.000000 0.005446 0.000000
# 4 0.000000 0.000000 0.000000 0.035804 0.000000 -0.004418
# 5 -0.002879 0.003599 0.005446 0.000000 0.041564 0.000000
# 6 0.000000 0.000000 0.000000 -0.004418 0.000000 0.032623
#
#
# Mechanical properties :
#
#
# Convention : Reuss Voigt Hill
#
# Bulk Modulus (GPa) = 33.88533 52.09110 42.98821
# Shear Modulus (GPa) = 24.28326 27.52515 25.90420
#
# Velocity S-wave (km/s) = 3.64558 3.88131 3.76529
# Velocity P-wave (km/s) = 6.02211 6.97105 6.51388
#
# Compressibility (1/GPa) = 0.02951130
#
# Stress axis : x y z
#
# Youngs Moduli (GPa) = 79.12296 36.48502 56.35044
#
# Poissons Ratio (x) = 0.29541 0.41951
# Poissons Ratio (y) = 0.64063 -0.07891
# Poissons Ratio (z) = 0.58904 -0.05109
#
# Static dielectric constant tensor:
#      x y z
#    x 3.626100 0.000000 -0.070170 
#    y 0.000000 3.309270 0.000000 
#    z -0.070170 0.000000 3.211570 
# 
# 
# High freq. dielectric constant tensor:
#      x y z
#    x 1.725280 0.000000 0.000150 
#    y 0.000000 1.706030 0.000000 
#    z 0.000150 0.000000 1.680160 
# 
# From -- ./inp_files/281407.got.cif
#   From: 2010.06.25/outbox.cif.g09.slc.cpg/sg12_141_cif.got.tgz:281407.got - 2010.06.28 00:19:55.
