data_PCOD8086698
_publ_section_title
;
Structure prediction by ZEFSAII (Michael W. Deem and Ramdas Pophale) SiO2 
 PCOD8086698
Probable space group: C 2/M
;
_chemical_formula_sum "Si O2"
_cell_formula_units_Z 64
_cell_length_a 32.425943
_cell_length_b 8.637952
_cell_length_c 15.324722
_cell_angle_alpha 90.000000
_cell_angle_beta 132.913994
_cell_angle_gamma 90.000000
_cell_volume 3143.623133
_symmetry_space_group_name_H-M "C 2/M"
_symmetry_group_IT_number 12
_symmetry_cell_setting 'monoclinic'
loop_
_space_group_symop_operation_xyz
x,y,z
-x,y,-z
-x,-y,-z
x,-y,z
1/2+x,1/2+y,z
1/2-x,1/2+y,-z
1/2-x,1/2-y,-z
1/2+x,1/2-y,z
loop_
_atom_site_type_symbol
_atom_site_label
_atom_site_fract_x
_atom_site_fract_y
_atom_site_fract_z
Si Si1 0.540036 0.181798 0.766736
Si Si2 0.888577 0.317497 0.964401
Si Si3 0.710326 0.829752 0.376510
Si Si4 0.145790 0.318407 0.604558
Si Si5 0.061419 0.181366 0.621349
Si Si6 0.596125 0.321974 0.191124
Si Si7 0.076131 0.183137 0.355275
Si Si8 0.737942 0.829586 0.225954
O O1 0.574359 0.226595 0.729491
O O2 0.481414 0.273544 0.679263
O O3 0.528021 0.000000 0.753623
O O4 0.576204 0.237185 0.901748
O O5 0.883306 0.500000 0.947240
O O6 0.922310 0.261134 0.925846
O O7 0.824094 0.254949 0.883049
O O8 0.750000 0.750000 0.500000
O O9 0.662056 0.705042 0.292837
O O10 0.744841 0.852965 0.338524
O O11 0.688509 0.000000 0.376773
O O12 0.135678 0.500000 0.597964
O O13 0.106862 0.227892 0.615788
O O14 0.128402 0.263205 0.481557
O O15 0.210288 0.281518 0.725461
O O16 0.000000 0.230945 0.500000
O O17 0.065325 0.000000 0.645578
O O18 0.580549 0.500000 0.157391
O O19 0.570679 0.258273 0.246305
O O20 0.086335 0.000000 0.372672
O O21 0.743995 0.000000 0.189446
#
# Coordination Sequence:
#
# PCOD8086698 Si02
#       8
#     8   8   8   8   8   8   8   8
#     4  11  23  40  64  91 117 150 196 247 294 345
#     4   9  21  41  62  85 118 159 199 242 292 343
#     4  10  19  31  50  76 110 151 195 243 294 346
#     4  12  24  37  60  92 121 150 192 246 295 345
#     4  11  23  41  65  90 119 154 189 231 294 360
#     4  10  21  35  54  80 114 157 202 244 284 341
#     4  11  23  38  56  85 122 159 198 240 296 353
#     4   9  19  37  57  79 114 156 192 233 289 349
#
# _framework density 20.358673
#
# number of rings (size 3 to 8) (size 9 to 14) (size 15 to 20)
#    0.000    1.625    1.250    4.500    0.000    9.500 
#    0.000    3.125    0.000    0.000    0.000    0.000 
#    0.000    0.000    0.000    0.000    0.000    0.000 
#
# Total GULP energy -396626.251956 kJ/mol
# GULP energy per Si atom -12394.570374 kJ/mol
# Density = 2.031234 g / cm^3
# Si number density = 20.358673 Si / 1000 Ang^3
#
#
#
# Elastic Constant Matrix: (Units=GPa)
#
#
# Indices 1 2 3 4 5 6 
#
# 1 77.8119 11.6382 18.7724 0.0000 -7.1673 0.0000
# 2 11.6382 43.6650 21.4455 0.0000 -2.6868 0.0000
# 3 18.7724 21.4455 76.4581 0.0000 -17.0205 0.0000
# 4 0.0000 0.0000 0.0000 25.4419 0.0000 -4.1263
# 5 -7.1673 -2.6868 -17.0205 0.0000 32.7936 0.0000
# 6 0.0000 0.0000 0.0000 -4.1263 0.0000 31.5293
#
#
#
# Elastic Compliance Matrix: (Units=1/GPa)
#
#
# Indices 1 2 3 4 5 6 
#
# 1 0.013940 -0.002449 -0.002377 0.000000 0.001612 0.000000
# 2 -0.002449 0.027097 -0.007489 0.000000 -0.002202 0.000000
# 3 -0.002377 -0.007489 0.017537 0.000000 0.007969 0.000000
# 4 0.000000 0.000000 0.000000 0.040158 0.000000 0.005255
# 5 0.001612 -0.002202 0.007969 0.000000 0.034802 0.000000
# 6 0.000000 0.000000 0.000000 0.005255 0.000000 0.032404
#
#
# Mechanical properties :
#
#
# Convention : Reuss Voigt Hill
#
# Bulk Modulus (GPa) = 29.46016 33.51636 31.48826
# Shear Modulus (GPa) = 24.76685 27.69155 26.22920
#
# Velocity S-wave (km/s) = 3.49166 3.69207 3.59326
# Velocity P-wave (km/s) = 5.54595 5.88845 5.71976
#
# Compressibility (1/GPa) = 0.03394415
#
# Stress axis : x y z
#
# Youngs Moduli (GPa) = 71.73754 36.90424 57.02122
#
# Poissons Ratio (x) = 0.09038 0.13552
# Poissons Ratio (y) = 0.17568 0.42705
# Poissons Ratio (z) = 0.17050 0.27639
#
# Static dielectric constant tensor:
#      x y z
#    x 3.698740 0.000000 -0.083860 
#    y 0.000000 3.616490 0.000000 
#    z -0.083860 0.000000 3.575090 
# 
# 
# High freq. dielectric constant tensor:
#      x y z
#    x 1.789260 0.000000 -0.003650 
#    y 0.000000 1.794510 0.000000 
#    z -0.003650 0.000000 1.790010 
# 
# From -- ./inp_files/249920.got.cif
#   From: 2010.06.25/outbox.cif.g09.slc.cpg/sg12_125_cif.got.tgz:249920.got - 2010.06.28 00:19:55.
