data_PCOD8086523
_publ_section_title
;
Structure prediction by ZEFSAII (Michael W. Deem and Ramdas Pophale) SiO2 
 PCOD8086523
Probable space group: C 2/M
;
_chemical_formula_sum "Si O2"
_cell_formula_units_Z 64
_cell_length_a 16.611161
_cell_length_b 14.367352
_cell_length_c 18.979211
_cell_angle_alpha 90.000000
_cell_angle_beta 45.099114
_cell_angle_gamma 90.000000
_cell_volume 3208.409908
_symmetry_space_group_name_H-M "C 2/M"
_symmetry_group_IT_number 12
_symmetry_cell_setting 'monoclinic'
loop_
_space_group_symop_operation_xyz
x,y,z
-x,y,-z
-x,-y,-z
x,-y,z
1/2+x,1/2+y,z
1/2-x,1/2+y,-z
1/2-x,1/2-y,-z
1/2+x,1/2-y,z
loop_
_atom_site_type_symbol
_atom_site_label
_atom_site_fract_x
_atom_site_fract_y
_atom_site_fract_z
Si Si1 0.507659 0.106286 0.783890
Si Si2 0.430167 0.605269 0.323329
Si Si3 0.538689 0.390893 0.110874
Si Si4 0.824647 0.212272 0.186540
Si Si5 0.419528 0.393649 0.485081
Si Si6 0.710782 0.236750 0.637024
Si Si7 0.761439 0.390232 0.891057
Si Si8 0.591697 0.901526 0.885229
O O1 0.602590 0.170467 0.690066
O O2 0.382732 0.145555 0.843581
O O3 0.521368 0.117240 0.858301
O O4 0.523072 0.000000 0.748476
O O5 0.388179 0.500000 0.336254
O O6 0.521270 0.632069 0.205349
O O7 0.483453 0.613936 0.369449
O O8 0.316978 0.669596 0.389489
O O9 0.519754 0.500000 0.107990
O O10 0.448354 0.333584 0.120647
O O11 0.662892 0.358663 0.006931
O O12 0.764818 0.229437 0.298305
O O13 0.752615 0.148232 0.179286
O O14 0.829574 0.313814 0.146337
O O15 0.500000 0.365745 0.500000
O O16 0.374774 0.500000 0.523982
O O17 0.318809 0.319353 0.543680
O O18 0.760837 0.500000 0.885592
O O19 0.661858 0.000000 0.835635
O O20 0.500000 0.915583 0.000000
#
# Coordination Sequence:
#
# PCOD8086523 Si02
#       8
#     8   8   8   8   8   8   8   8
#     4   9  19  34  51  76 106 139 183 223 264 320
#     4   9  19  36  57  82 109 140 182 226 270 323
#     4   9  17  31  52  78 110 146 182 222 270 319
#     4  10  19  31  49  77 106 140 182 218 259 315
#     4  10  21  38  61  86 108 134 175 227 279 329
#     4  10  20  36  58  79 108 147 178 218 271 324
#     4  10  19  32  53  80 112 146 180 224 270 317
#     4   9  17  31  47  62  90 133 176 216 256 301
#
# _framework density 19.947575000000001
#
# number of rings (size 3 to 8) (size 9 to 14) (size 15 to 20)
#    0.000    2.500    0.000    2.250    0.000    3.000 
#    0.000   12.500    0.000   13.125    0.000    0.000 
#    0.000    0.000    0.000    0.000    0.000    0.000 
#
# Total GULP energy -396502.707304 kJ/mol
# GULP energy per Si atom -12390.709603 kJ/mol
# Density = 1.990217 g / cm^3
# Si number density = 19.947575 Si / 1000 Ang^3
#
#
#
# Elastic Constant Matrix: (Units=GPa)
#
#
# Indices 1 2 3 4 5 6 
#
# 1 62.8023 32.0886 40.0991 0.0000 -1.1218 0.0000
# 2 32.0886 61.3402 31.0266 0.0000 2.9973 0.0000
# 3 40.0991 31.0266 74.4098 0.0000 4.2915 0.0000
# 4 0.0000 0.0000 0.0000 22.2426 0.0000 3.1605
# 5 -1.1218 2.9973 4.2915 0.0000 23.0715 0.0000
# 6 0.0000 0.0000 0.0000 3.1605 0.0000 25.2602
#
#
#
# Elastic Compliance Matrix: (Units=1/GPa)
#
#
# Indices 1 2 3 4 5 6 
#
# 1 0.028032 -0.009018 -0.011617 0.000000 0.004695 0.000000
# 2 -0.009018 0.023588 -0.004826 0.000000 -0.002605 0.000000
# 3 -0.011617 -0.004826 0.021943 0.000000 -0.004020 0.000000
# 4 0.000000 0.000000 0.000000 0.045772 0.000000 -0.005727
# 5 0.004695 -0.002605 -0.004020 0.000000 0.044658 0.000000
# 6 0.000000 0.000000 0.000000 -0.005727 0.000000 0.040304
#
#
# Mechanical properties :
#
#
# Convention : Reuss Voigt Hill
#
# Bulk Modulus (GPa) = 44.16421 44.99788 44.58105
# Shear Modulus (GPa) = 19.02834 20.47074 19.74954
#
# Velocity S-wave (km/s) = 3.09191 3.20695 3.14995
# Velocity P-wave (km/s) = 5.91056 6.02659 5.96886
#
# Compressibility (1/GPa) = 0.02264277
#
# Stress axis : x y z
#
# Youngs Moduli (GPa) = 35.67389 42.39430 45.57180
#
# Poissons Ratio (x) = 0.38229 0.52940
# Poissons Ratio (y) = 0.32169 0.21992
# Poissons Ratio (z) = 0.41442 0.20458
#
# Static dielectric constant tensor:
#      x y z
#    x 3.461600 0.000000 0.204960 
#    y 0.000000 4.208270 0.000000 
#    z 0.204960 0.000000 3.515990 
# 
# 
# High freq. dielectric constant tensor:
#      x y z
#    x 1.754810 0.000000 0.024610 
#    y 0.000000 1.799640 0.000000 
#    z 0.024610 0.000000 1.760120 
# 
# From -- ./inp_files/270664.got.cif
#   From: 2010.06.25/outbox.cif.g09.slc.cpg/sg12_136_cif.got.tgz:270664.got - 2010.06.28 00:19:55.
