data_PCOD8086516
_publ_section_title
;
Structure prediction by ZEFSAII (Michael W. Deem and Ramdas Pophale) SiO2 
 PCOD8086516
Probable space group: C 2/M
;
_chemical_formula_sum "Si O2"
_cell_formula_units_Z 64
_cell_length_a 24.809168
_cell_length_b 8.724684
_cell_length_c 23.452779
_cell_angle_alpha 90.000000
_cell_angle_beta 133.533122
_cell_angle_gamma 90.000000
_cell_volume 3680.273029
_symmetry_space_group_name_H-M "C 2/M"
_symmetry_group_IT_number 12
_symmetry_cell_setting 'monoclinic'
loop_
_space_group_symop_operation_xyz
x,y,z
-x,y,-z
-x,-y,-z
x,-y,z
1/2+x,1/2+y,z
1/2-x,1/2+y,-z
1/2-x,1/2-y,-z
1/2+x,1/2-y,z
loop_
_atom_site_type_symbol
_atom_site_label
_atom_site_fract_x
_atom_site_fract_y
_atom_site_fract_z
Si Si1 0.777961 0.680484 0.079125
Si Si2 0.565859 0.319794 0.813624
Si Si3 0.803549 0.324350 0.669417
Si Si4 0.810853 0.177651 0.504183
Si Si5 0.838808 0.679090 0.922253
Si Si6 0.470041 0.320728 0.083794
Si Si7 0.138842 0.177972 0.179742
Si Si8 0.423000 0.178985 0.659459
O O1 0.777278 0.500000 0.071996
O O2 0.860118 0.737374 0.154084
O O3 0.723949 0.727957 0.090445
O O4 0.750000 0.750000 0.000000
O O5 0.576870 0.500000 0.816754
O O6 0.549196 0.269764 0.866216
O O7 0.499439 0.267898 0.724497
O O8 0.815403 0.500000 0.696781
O O9 0.720274 0.301182 0.582910
O O10 0.810329 0.214708 0.728647
O O11 0.865993 0.279037 0.668533
O O12 0.750000 0.250000 0.500000
O O13 0.888637 0.263776 0.573802
O O14 0.820278 0.000000 0.526119
O O15 0.825696 0.500000 0.921847
O O16 0.832261 0.720540 0.851245
O O17 0.920066 0.725617 0.003754
O O18 0.454767 0.500000 0.063132
O O19 0.554572 0.276749 0.132883
O O20 0.146052 0.000000 0.169354
O O21 0.439251 0.000000 0.667750
#
# Coordination Sequence:
#
# PCOD8086516 Si02
#       8
#     8   8   8   8   8   8   8   8
#     4  12  24  40  59  79 103 136 178 225 271 318
#     4  11  21  35  56  81 108 141 177 221 269 317
#     4   9  18  31  48  73 106 141 177 216 260 314
#     4   9  17  29  46  71 104 141 177 216 263 317
#     4  12  25  39  56  77 103 140 181 225 269 315
#     4  10  21  36  54  77 107 141 178 219 265 318
#     4  11  22  36  54  77 107 143 180 220 264 317
#     4  10  19  31  49  76 109 142 178 219 262 317
#
# _framework density 17.390014000000001
#
# number of rings (size 3 to 8) (size 9 to 14) (size 15 to 20)
#    0.000    1.500    2.500    4.875    0.000    5.500 
#    0.000    0.000    0.000    0.000    0.000    0.875 
#    0.000    7.000    0.000    0.000    0.000    0.000 
#
# Total GULP energy -396879.426195 kJ/mol
# GULP energy per Si atom -12402.482069 kJ/mol
# Density = 1.735043 g / cm^3
# Si number density = 17.390014 Si / 1000 Ang^3
#
#
#
# Elastic Constant Matrix: (Units=GPa)
#
#
# Indices 1 2 3 4 5 6 
#
# 1 62.6838 28.2281 41.0819 0.0000 -0.3378 0.0000
# 2 28.2281 90.4247 41.8982 0.0000 1.3260 0.0000
# 3 41.0819 41.8982 117.7132 0.0000 8.6833 0.0000
# 4 0.0000 0.0000 0.0000 34.1961 0.0000 1.6649
# 5 -0.3378 1.3260 8.6833 0.0000 16.3722 0.0000
# 6 0.0000 0.0000 0.0000 1.6649 0.0000 24.5801
#
#
#
# Elastic Compliance Matrix: (Units=1/GPa)
#
#
# Indices 1 2 3 4 5 6 
#
# 1 0.022074 -0.003877 -0.006641 0.000000 0.004291 0.000000
# 2 -0.003877 0.013959 -0.003670 0.000000 0.000736 0.000000
# 3 -0.006641 -0.003670 0.012600 0.000000 -0.006522 0.000000
# 4 0.000000 0.000000 0.000000 0.029340 0.000000 -0.001987
# 5 0.004291 0.000736 -0.006522 0.000000 0.064567 0.000000
# 6 0.000000 0.000000 0.000000 -0.001987 0.000000 0.040818
#
#
# Mechanical properties :
#
#
# Convention : Reuss Voigt Hill
#
# Bulk Modulus (GPa) = 49.36134 54.80425 52.08280
# Shear Modulus (GPa) = 22.88485 25.67058 24.27771
#
# Velocity S-wave (km/s) = 3.63157 3.84626 3.74046
# Velocity P-wave (km/s) = 6.78461 7.16297 6.97636
#
# Compressibility (1/GPa) = 0.02025877
#
# Stress axis : x y z
#
# Youngs Moduli (GPa) = 45.30169 71.63971 79.36492
#
# Poissons Ratio (x) = 0.27775 0.52702
# Poissons Ratio (y) = 0.17564 0.29124
# Poissons Ratio (z) = 0.30083 0.26289
#
# Static dielectric constant tensor:
#      x y z
#    x 3.068730 0.000000 0.110970 
#    y 0.000000 3.415230 0.000000 
#    z 0.110970 0.000000 3.544540 
# 
# 
# High freq. dielectric constant tensor:
#      x y z
#    x 1.633370 0.000000 0.009220 
#    y 0.000000 1.686170 0.000000 
#    z 0.009220 0.000000 1.679260 
# 
# From -- ./inp_files/324308.got.cif
#   From: 2010.06.25/outbox.cif.g09.slc.cpg/sg12_163_cif.got.tgz:324308.got - 2010.06.28 00:19:55.
