data_PCOD8086956
_publ_section_title
;
Structure prediction by ZEFSAII (Michael W. Deem and Ramdas Pophale) SiO2 
 PCOD8086956
Probable space group: C 2/M
;
_chemical_formula_sum "Si O2"
_cell_formula_units_Z 56
_cell_length_a 19.829927
_cell_length_b 9.035944
_cell_length_c 30.388366
_cell_angle_alpha 90.000000
_cell_angle_beta 30.880119
_cell_angle_gamma 90.000000
_cell_volume 2794.637211
_symmetry_space_group_name_H-M "C 2/M"
_symmetry_group_IT_number 12
_symmetry_cell_setting 'monoclinic'
loop_
_space_group_symop_operation_xyz
x,y,z
-x,y,-z
-x,-y,-z
x,-y,z
1/2+x,1/2+y,z
1/2-x,1/2+y,-z
1/2-x,1/2-y,-z
1/2+x,1/2-y,z
loop_
_atom_site_type_symbol
_atom_site_label
_atom_site_fract_x
_atom_site_fract_y
_atom_site_fract_z
Si Si1 0.382578 0.675208 0.817236
Si Si2 0.075626 0.835197 0.633504
Si Si3 0.214715 0.332762 0.410479
Si Si4 0.999717 0.326924 0.593255
Si Si5 0.649599 0.672471 0.906628
Si Si6 0.293055 0.674752 0.225447
Si Si7 0.089666 0.675597 0.761122
O O1 0.383977 0.500000 0.825100
O O2 0.457288 0.719973 0.730797
O O3 0.235319 0.736225 0.894094
O O4 0.456951 0.753846 0.815945
O O5 0.209068 0.828000 0.586104
O O6 0.085968 0.735054 0.584939
O O7 0.046212 0.000000 0.633495
O O8 0.218347 0.500000 0.388526
O O9 0.279350 0.223416 0.339175
O O10 0.066315 0.286685 0.508475
O O11 0.000477 0.500000 0.599763
O O12 0.850691 0.269072 0.678498
O O13 0.678336 0.500000 0.897947
O O14 0.684203 0.720419 0.837663
O O15 0.500000 0.713242 0.000000
O O16 0.312941 0.500000 0.221247
O O17 0.397695 0.763680 0.196375
O O18 0.077690 0.500000 0.767275
#
# Coordination Sequence:
#
# PCOD8086956 Si02
#       7
#     8   8   8   8   8   8   8
#     4  10  20  37  61  87 117 153 190 234 288 343
#     4   9  17  29  48  76 111 146 185 235 284 332
#     4   9  19  34  50  76 112 152 195 237 285 336
#     4  10  19  31  52  78 109 151 195 236 284 339
#     4  10  21  39  65  95 122 147 183 232 284 344
#     4  10  21  38  58  83 117 154 189 233 289 342
#     4  11  23  38  58  82 113 155 200 240 282 337
#
# _framework density 20.038378000000002
#
# number of rings (size 3 to 8) (size 9 to 14) (size 15 to 20)
#    0.000    2.143    1.429    3.000    0.000    4.857 
#    0.000    3.571    0.000    0.000    0.000    0.000 
#    0.000    0.000    0.000    0.000    0.000    0.000 
#
# Total GULP energy -347164.130132 kJ/mol
# GULP energy per Si atom -12398.718933 kJ/mol
# Density = 1.999277 g / cm^3
# Si number density = 20.038378 Si / 1000 Ang^3
#
#
#
# Elastic Constant Matrix: (Units=GPa)
#
#
# Indices 1 2 3 4 5 6 
#
# 1 88.3123 41.5426 35.3642 0.0046 2.3655 -0.0024
# 2 41.5426 75.0800 27.9075 0.0037 -3.4226 0.0217
# 3 35.3642 27.9075 81.2986 -0.0025 -22.2185 0.0000
# 4 0.0046 0.0037 -0.0025 21.5986 -0.0022 -0.4785
# 5 2.3655 -3.4226 -22.2185 -0.0022 13.7457 0.0076
# 6 -0.0024 0.0217 0.0000 -0.4785 0.0076 32.4793
#
#
#
# Elastic Compliance Matrix: (Units=1/GPa)
#
#
# Indices 1 2 3 4 5 6 
#
# 1 0.021818 -0.007875 -0.014956 -0.000008 -0.029890 0.000014
# 2 -0.007875 0.018666 -0.002403 -0.000002 0.002119 -0.000014
# 3 -0.014956 -0.002403 0.036132 0.000014 0.060380 -0.000013
# 4 -0.000008 -0.000002 0.000014 0.046314 0.000030 0.000682
# 5 -0.029890 0.002119 0.060380 0.000030 0.176019 -0.000045
# 6 0.000014 -0.000014 -0.000013 0.000682 -0.000045 0.030799
#
#
# Mechanical properties :
#
#
# Convention : Reuss Voigt Hill
#
# Bulk Modulus (GPa) = 38.24361 50.47994 44.36178
# Shear Modulus (GPa) = 12.85569 22.88983 17.87276
#
# Velocity S-wave (km/s) = 2.53564 3.38346 2.98975
# Velocity P-wave (km/s) = 5.26301 6.36475 5.83992
#
# Compressibility (1/GPa) = 0.02614816
#
# Stress axis : x y z
#
# Youngs Moduli (GPa) = 45.83416 53.57224 27.67609
#
# Poissons Ratio (x) = 0.42190 0.41392
# Poissons Ratio (y) = 0.36096 0.06650
# Poissons Ratio (z) = 0.68550 0.12872
#
# Static dielectric constant tensor:
#      x y z
#    x 3.608130 0.000000 -0.135490 
#    y 0.000000 3.447680 0.000000 
#    z -0.135490 0.000000 3.649900 
# 
# 
# High freq. dielectric constant tensor:
#      x y z
#    x 1.785080 0.000000 -0.007070 
#    y 0.000000 1.767830 0.000000 
#    z -0.007070 0.000000 1.767110 
# 
# From -- ./inp_files/380590.got.cif
#   From: 2010.06.25/outbox.cif.g09.slc.cpg/sg12_191_cif.got.tgz:380590.got - 2010.06.28 00:19:55.
