data_PCOD8086316
_publ_section_title
;
Structure prediction by ZEFSAII (Michael W. Deem and Ramdas Pophale) SiO2 
 PCOD8086316
Probable space group: C 2/M
;
_chemical_formula_sum "Si O2"
_cell_formula_units_Z 64
_cell_length_a 18.002521
_cell_length_b 9.349354
_cell_length_c 21.036611
_cell_angle_alpha 90.000000
_cell_angle_beta 100.938984
_cell_angle_gamma 90.000000
_cell_volume 3476.377473
_symmetry_space_group_name_H-M "C 2/M"
_symmetry_group_IT_number 12
_symmetry_cell_setting 'monoclinic'
loop_
_space_group_symop_operation_xyz
x,y,z
-x,y,-z
-x,-y,-z
x,-y,z
1/2+x,1/2+y,z
1/2-x,1/2+y,-z
1/2-x,1/2-y,-z
1/2+x,1/2-y,z
loop_
_atom_site_type_symbol
_atom_site_label
_atom_site_fract_x
_atom_site_fract_y
_atom_site_fract_z
Si Si1 0.605817 0.839500 0.069691
Si Si2 0.992270 0.332923 0.318316
Si Si3 0.136020 0.160560 0.189118
Si Si4 0.959952 0.161255 0.193167
Si Si5 0.929985 0.339216 0.073490
Si Si6 0.225939 0.165766 0.557853
Si Si7 0.055037 0.164216 0.566872
Si Si8 0.664252 0.834371 0.313013
O O1 0.652374 0.734871 0.123725
O O2 0.518743 0.838706 0.074936
O O3 0.637973 0.000000 0.082442
O O4 0.613764 0.788270 0.997560
O O5 0.972890 0.500000 0.311198
O O6 0.947407 0.252756 0.254817
O O7 0.964639 0.270798 0.380060
O O8 0.081446 0.304491 0.327527
O O9 0.179545 0.245362 0.251513
O O10 0.047418 0.161525 0.188956
O O11 0.167932 0.000000 0.191456
O O12 0.911075 0.232576 0.128409
O O13 0.930554 0.000000 0.199296
O O14 0.904781 0.500000 0.087831
O O15 0.250000 0.250000 0.500000
O O16 0.139154 0.197333 0.557857
O O17 0.275431 0.218810 0.625491
O O18 0.241685 0.000000 0.547287
O O19 0.000000 0.198669 0.500000
O O20 0.046022 0.000000 0.588259
O O21 0.675019 0.000000 0.297316
#
# Coordination Sequence:
#
# PCOD8086316 Si02
#       8
#     8   8   8   8   8   8   8   8
#     4   8  13  21  33  50  78 117 155 192 234 279
#     4  10  19  31  49  70  93 124 161 198 233 276
#     4   9  16  24  37  59  85 116 155 196 237 280
#     4   9  16  25  38  58  86 119 154 194 239 282
#     4   8  13  21  33  51  78 115 157 194 231 278
#     4  10  21  36  54  75  98 125 156 191 232 279
#     4  10  21  36  53  74 100 126 152 188 236 284
#     4   9  18  32  48  67  93 125 160 195 233 279
#
# _framework density 18.409967999999999
#
# number of rings (size 3 to 8) (size 9 to 14) (size 15 to 20)
#    0.000    2.875    0.000    2.625    0.000    5.250 
#    0.000    2.500    0.000    0.000    0.000    0.000 
#    0.000    1.000    0.000    3.000    0.000    5.750 
#
# Total GULP energy -396745.009128 kJ/mol
# GULP energy per Si atom -12398.281535 kJ/mol
# Density = 1.836807 g / cm^3
# Si number density = 18.409968 Si / 1000 Ang^3
#
#
#
# Elastic Constant Matrix: (Units=GPa)
#
#
# Indices 1 2 3 4 5 6 
#
# 1 36.7170 33.6189 47.3864 0.0000 8.4287 0.0000
# 2 33.6189 130.1438 103.5318 0.0000 7.7436 0.0000
# 3 47.3864 103.5318 182.7447 0.0000 20.4450 0.0000
# 4 0.0000 0.0000 0.0000 42.0763 0.0000 -2.5302
# 5 8.4287 7.7436 20.4450 0.0000 16.7861 0.0000
# 6 0.0000 0.0000 0.0000 -2.5302 0.0000 10.7024
#
#
#
# Elastic Compliance Matrix: (Units=1/GPa)
#
#
# Indices 1 2 3 4 5 6 
#
# 1 0.043601 -0.004703 -0.007450 0.000000 -0.010650 0.000000
# 2 -0.004703 0.014697 -0.007656 0.000000 0.004906 0.000000
# 3 -0.007450 -0.007656 0.012652 0.000000 -0.008137 0.000000
# 4 0.000000 0.000000 0.000000 0.024109 0.000000 0.005700
# 5 -0.010650 0.004906 -0.008137 0.000000 0.072568 0.000000
# 6 0.000000 0.000000 0.000000 0.005700 0.000000 0.094784
#
#
# Mechanical properties :
#
#
# Convention : Reuss Voigt Hill
#
# Bulk Modulus (GPa) = 31.91596 79.85329 55.88463
# Shear Modulus (GPa) = 16.00140 24.91753 20.45946
#
# Velocity S-wave (km/s) = 2.95137 3.68296 3.33727
# Velocity P-wave (km/s) = 5.38405 7.84569 6.72840
#
# Compressibility (1/GPa) = 0.03133228
#
# Stress axis : x y z
#
# Youngs Moduli (GPa) = 22.93519 68.04053 79.04067
#
# Poissons Ratio (x) = 0.31997 0.58888
# Poissons Ratio (y) = 0.10785 0.60513
# Poissons Ratio (z) = 0.17087 0.52092
#
# Static dielectric constant tensor:
#      x y z
#    x 2.918330 0.000000 0.239050 
#    y 0.000000 3.525040 0.000000 
#    z 0.239050 0.000000 3.683770 
# 
# 
# High freq. dielectric constant tensor:
#      x y z
#    x 1.653850 0.000000 0.012360 
#    y 0.000000 1.717270 0.000000 
#    z 0.012360 0.000000 1.730540 
# 
# From -- ./inp_files/314196.got.cif
#   From: 2010.06.25/outbox.cif.g09.slc.cpg/sg12_158_cif.got.tgz:314196.got - 2010.06.28 00:19:55.
