data_PCOD8086059
_publ_section_title
;
Structure prediction by ZEFSAII (Michael W. Deem and Ramdas Pophale) SiO2 
 PCOD8086059
Probable space group: C 2/M
;
_chemical_formula_sum "Si O2"
_cell_formula_units_Z 40
_cell_length_a 15.874850
_cell_length_b 25.626925
_cell_length_c 9.346576
_cell_angle_alpha 90.000000
_cell_angle_beta 148.128318
_cell_angle_gamma 90.000000
_cell_volume 2007.742216
_symmetry_space_group_name_H-M "C 2/M"
_symmetry_group_IT_number 12
_symmetry_cell_setting 'monoclinic'
loop_
_space_group_symop_operation_xyz
x,y,z
-x,y,-z
-x,-y,-z
x,-y,z
1/2+x,1/2+y,z
1/2-x,1/2+y,-z
1/2-x,1/2-y,-z
1/2+x,1/2-y,z
loop_
_atom_site_type_symbol
_atom_site_label
_atom_site_fract_x
_atom_site_fract_y
_atom_site_fract_z
Si Si1 0.599479 0.442352 0.500000
Si Si2 0.842402 0.226081 0.500000
Si Si3 0.094332 0.336604 0.500000
Si Si4 0.308454 0.857059 0.915555
Si Si5 0.892899 0.142941 0.084445
O O1 0.500000 0.448084 0.500000
O O2 0.641393 0.500000 0.499999
O O3 0.761686 0.410721 0.768410
O O4 0.493277 0.410721 0.231591
O O5 0.750000 0.250000 0.500000
O O6 0.907266 0.273950 0.499998
O O7 0.722845 0.191824 0.232393
O O8 0.990454 0.191825 0.767609
O O9 0.000000 0.357798 0.500000
O O10 0.275016 0.358645 0.776252
O O11 0.998763 0.358645 0.223747
O O12 0.203058 0.848873 0.906116
#
# Coordination Sequence:
#
# PCOD8086059 Si02
#       5
#     8   8   8   8   8
#     4   8  14  28  50  72  94 122 157 197 240 286
#     4  11  21  31  46  70  98 131 165 198 235 284
#     4  10  19  31  47  68  98 132 160 194 241 289
#     4   9  18  32  49  71  98 128 163 198 237 288
#     4   9  18  32  49  71  98 128 163 198 237 288
#
# _framework density 19.922875000000001
#
# number of rings (size 3 to 8) (size 9 to 14) (size 15 to 20)
#    0.000    2.600    0.000    4.200    0.000    6.400 
#    0.000    1.000    0.000    6.000    0.000   22.400 
#    0.000    0.000    0.000    0.000    0.000   12.800 
#
# Total GULP energy -247870.574204 kJ/mol
# GULP energy per Si atom -12393.528710 kJ/mol
# Density = 1.987753 g / cm^3
# Si number density = 19.922875 Si / 1000 Ang^3
#
#
#
# Elastic Constant Matrix: (Units=GPa)
#
#
# Indices 1 2 3 4 5 6 
#
# 1 38.3261 14.6623 20.5263 0.0000 0.6175 0.0000
# 2 14.6623 158.9243 97.0360 0.0000 9.9805 0.0000
# 3 20.5263 97.0360 231.8589 0.0000 22.8313 0.0000
# 4 0.0000 0.0000 0.0000 11.1947 0.0000 -0.1225
# 5 0.6175 9.9805 22.8313 0.0000 14.1392 0.0000
# 6 0.0000 0.0000 0.0000 -0.1225 0.0000 12.2071
#
#
#
# Elastic Compliance Matrix: (Units=1/GPa)
#
#
# Indices 1 2 3 4 5 6 
#
# 1 0.027757 -0.001436 -0.002184 0.000000 0.003328 0.000000
# 2 -0.001436 0.008528 -0.003395 0.000000 -0.000475 0.000000
# 3 -0.002184 -0.003395 0.006756 0.000000 -0.008417 0.000000
# 4 0.000000 0.000000 0.000000 0.089338 0.000000 0.000897
# 5 0.003328 -0.000475 -0.008417 0.000000 0.084507 0.000000
# 6 0.000000 0.000000 0.000000 0.000897 0.000000 0.081929
#
#
# Mechanical properties :
#
#
# Convention : Reuss Voigt Hill
#
# Bulk Modulus (GPa) = 34.47048 77.06205 55.76627
# Shear Modulus (GPa) = 15.50315 27.30051 21.40183
#
# Velocity S-wave (km/s) = 2.79258 3.70579 3.28111
# Velocity P-wave (km/s) = 5.26664 7.55477 6.51199
#
# Compressibility (1/GPa) = 0.02901033
#
# Stress axis : x y z
#
# Youngs Moduli (GPa) = 36.02643 117.26698 148.01597
#
# Poissons Ratio (x) = 0.16845 0.32325
# Poissons Ratio (y) = 0.05175 0.50251
# Poissons Ratio (z) = 0.07868 0.39812
#
# Static dielectric constant tensor:
#      x y z
#    x 3.177220 0.000000 0.113080 
#    y 0.000000 3.809750 0.000000 
#    z 0.113080 0.000000 4.110520 
# 
# 
# High freq. dielectric constant tensor:
#      x y z
#    x 1.740000 0.000000 0.006470 
#    y 0.000000 1.755310 0.000000 
#    z 0.006470 0.000000 1.793360 
# 
# From -- ./inp_files/79938.got.cif
#   From: 2010.06.25/outbox.cif.g09.slc.cpg/sg12_40_cif.got.tgz:79938.got - 2010.06.28 00:19:55.
