data_PCOD8086807
_publ_section_title
;
Structure prediction by ZEFSAII (Michael W. Deem and Ramdas Pophale) SiO2 
 PCOD8086807
Probable space group: C 2/M
;
_chemical_formula_sum "Si O2"
_cell_formula_units_Z 48
_cell_length_a 23.122716
_cell_length_b 9.351396
_cell_length_c 14.934068
_cell_angle_alpha 90.000000
_cell_angle_beta 119.956167
_cell_angle_gamma 90.000000
_cell_volume 2797.793803
_symmetry_space_group_name_H-M "C 2/M"
_symmetry_group_IT_number 12
_symmetry_cell_setting 'monoclinic'
loop_
_space_group_symop_operation_xyz
x,y,z
-x,y,-z
-x,-y,-z
x,-y,z
1/2+x,1/2+y,z
1/2-x,1/2+y,-z
1/2-x,1/2-y,-z
1/2+x,1/2-y,z
loop_
_atom_site_type_symbol
_atom_site_label
_atom_site_fract_x
_atom_site_fract_y
_atom_site_fract_z
Si Si1 0.480598 0.163615 0.721802
Si Si2 0.687279 0.337718 0.263209
Si Si3 0.357162 0.659777 0.577705
Si Si4 0.560321 0.163585 0.609841
Si Si5 0.811985 0.163669 0.347398
Si Si6 0.463732 0.668032 0.882143
O O1 0.415805 0.224821 0.621644
O O2 0.541579 0.175904 0.699827
O O3 0.497485 0.250956 0.824768
O O4 0.466294 0.000000 0.736747
O O5 0.703180 0.500000 0.247545
O O6 0.689730 0.318562 0.372438
O O7 0.743505 0.238073 0.261726
O O8 0.614385 0.291746 0.170909
O O9 0.389006 0.500000 0.606309
O O10 0.313349 0.678554 0.455565
O O11 0.500000 0.218890 0.500000
O O12 0.624504 0.261370 0.647032
O O13 0.577397 0.000000 0.596889
O O14 0.811264 0.000000 0.315078
O O15 0.473116 0.500000 0.872901
O O16 0.500000 0.719733 0.000000
#
# Coordination Sequence:
#
# PCOD8086807 Si02
#       6
#     8   8   8   8   8   8
#     4  10  19  31  51  77 102 131 170 212 249 290
#     4   9  18  32  49  70  99 132 164 201 251 308
#     4   9  18  31  46  68 100 137 171 203 245 296
#     4  10  20  34  49  69 102 143 177 204 243 296
#     4  11  21  30  46  72 102 137 173 209 245 288
#     4   9  19  37  59  79 100 128 162 206 262 313
#
# _framework density 17.156375000000001
#
# number of rings (size 3 to 8) (size 9 to 14) (size 15 to 20)
#    0.000    2.333    1.667    2.500    0.000    5.333 
#    0.000    0.000    0.000    1.000    0.000    0.000 
#    0.000    0.000    0.000    0.000    0.000    0.000 
#
# Total GULP energy -297595.209656 kJ/mol
# GULP energy per Si atom -12399.800402 kJ/mol
# Density = 1.711733 g / cm^3
# Si number density = 17.156375 Si / 1000 Ang^3
#
#
#
# Elastic Constant Matrix: (Units=GPa)
#
#
# Indices 1 2 3 4 5 6 
#
# 1 103.7188 65.7865 38.9499 0.0000 8.6440 0.0000
# 2 65.7865 100.3048 38.1800 0.0000 3.5998 0.0000
# 3 38.9499 38.1800 78.0723 0.0000 2.7529 0.0000
# 4 0.0000 0.0000 0.0000 20.1897 0.0000 -2.4402
# 5 8.6440 3.5998 2.7529 0.0000 14.0791 0.0000
# 6 0.0000 0.0000 0.0000 -2.4402 0.0000 32.6255
#
#
#
# Elastic Compliance Matrix: (Units=1/GPa)
#
#
# Indices 1 2 3 4 5 6 
#
# 1 0.018196 -0.010202 -0.003813 0.000000 -0.007817 0.000000
# 2 -0.010202 0.018025 -0.003810 0.000000 0.002400 0.000000
# 3 -0.003813 -0.003810 0.016571 0.000000 0.000075 0.000000
# 4 0.000000 0.000000 0.000000 0.049982 0.000000 0.003738
# 5 -0.007817 0.002400 0.000075 0.000000 0.075199 0.000000
# 6 0.000000 0.000000 0.000000 0.003738 0.000000 0.030930
#
#
# Mechanical properties :
#
#
# Convention : Reuss Voigt Hill
#
# Bulk Modulus (GPa) = 58.33430 63.10320 60.71875
# Shear Modulus (GPa) = 19.97870 22.65749 21.31810
#
# Velocity S-wave (km/s) = 3.41619 3.63801 3.52884
# Velocity P-wave (km/s) = 7.04527 7.38295 7.21608
#
# Compressibility (1/GPa) = 0.01714257
#
# Stress axis : x y z
#
# Youngs Moduli (GPa) = 54.95767 55.47925 60.34530
#
# Poissons Ratio (x) = 0.56600 0.23010
# Poissons Ratio (y) = 0.56068 0.22989
# Poissons Ratio (z) = 0.20955 0.21135
#
# Static dielectric constant tensor:
#      x y z
#    x 3.002850 0.000000 -0.039030 
#    y 0.000000 3.273920 0.000000 
#    z -0.039030 0.000000 3.034990 
# 
# 
# High freq. dielectric constant tensor:
#      x y z
#    x 1.652330 0.000000 -0.001060 
#    y 0.000000 1.670390 0.000000 
#    z -0.001060 0.000000 1.630160 
# 
# From -- ./inp_files/230417.got.cif
#   From: 2010.06.25/outbox.cif.g09.slc.cpg/sg12_116_cif.got.tgz:230417.got - 2010.06.28 00:19:55.
