data_PCOD8086558
_publ_section_title
;
Structure prediction by ZEFSAII (Michael W. Deem and Ramdas Pophale) SiO2 
 PCOD8086558
Probable space group: C 2/M
;
_chemical_formula_sum "Si O2"
_cell_formula_units_Z 64
_cell_length_a 25.045998
_cell_length_b 9.155491
_cell_length_c 18.563015
_cell_angle_alpha 90.000000
_cell_angle_beta 118.797958
_cell_angle_gamma 90.000000
_cell_volume 3730.208680
_symmetry_space_group_name_H-M "C 2/M"
_symmetry_group_IT_number 12
_symmetry_cell_setting 'monoclinic'
loop_
_space_group_symop_operation_xyz
x,y,z
-x,y,-z
-x,-y,-z
x,-y,z
1/2+x,1/2+y,z
1/2-x,1/2+y,-z
1/2-x,1/2-y,-z
1/2+x,1/2-y,z
loop_
_atom_site_type_symbol
_atom_site_label
_atom_site_fract_x
_atom_site_fract_y
_atom_site_fract_z
Si Si1 0.297848 0.329217 0.480921
Si Si2 0.264380 0.326007 0.677011
Si Si3 0.620847 0.330998 0.340217
Si Si4 0.755581 0.669202 0.174734
Si Si5 0.627364 0.169908 0.831123
Si Si6 0.990211 0.826251 0.210210
Si Si7 0.032750 0.333618 0.949936
Si Si8 0.168982 0.664377 0.013230
O O1 0.282423 0.500000 0.463178
O O2 0.250000 0.250000 0.500000
O O3 0.293604 0.250383 0.400531
O O4 0.362335 0.306693 0.564285
O O5 0.256472 0.500000 0.665606
O O6 0.327048 0.268609 0.680424
O O7 0.262365 0.270815 0.758173
O O8 0.617251 0.500000 0.318905
O O9 0.554138 0.263676 0.283102
O O10 0.740437 0.500000 0.161122
O O11 0.827369 0.697921 0.206399
O O12 0.717047 0.739928 0.086606
O O13 0.565063 0.259325 0.778633
O O14 0.609710 0.000000 0.828377
O O15 0.660894 0.222420 0.926254
O O16 0.986482 0.774384 0.125830
O O17 0.985766 0.000000 0.211405
O O18 0.013454 0.500000 0.918136
O O19 0.104525 0.325557 0.011842
O O20 0.000000 0.276495 0.000000
O O21 0.194181 0.500000 0.028796
#
# Coordination Sequence:
#
# PCOD8086558 Si02
#       8
#     8   8   8   8   8   8   8   8
#     4   9  16  30  50  71  99 130 155 188 235 287
#     4   9  18  32  48  72 102 126 153 195 242 288
#     4   8  16  30  48  71 100 124 149 192 239 282
#     4  10  20  32  51  72  95 128 162 202 249 288
#     4   9  19  36  50  66  95 130 165 203 246 286
#     4  10  19  31  50  73  93 123 164 202 236 280
#     4   9  19  34  47  64  99 136 158 191 241 285
#     4   9  18  31  47  67  94 126 164 205 239 280
#
# _framework density 17.157216999999999
#
# number of rings (size 3 to 8) (size 9 to 14) (size 15 to 20)
#    0.000    2.875    0.000    2.625    1.750    3.250 
#    0.000    6.250    0.000    0.750    0.000    5.250 
#    0.000    0.000    0.000    0.000    0.000    0.000 
#
# Total GULP energy -396600.151200 kJ/mol
# GULP energy per Si atom -12393.754725 kJ/mol
# Density = 1.711817 g / cm^3
# Si number density = 17.157217 Si / 1000 Ang^3
#
#
#
# Elastic Constant Matrix: (Units=GPa)
#
#
# Indices 1 2 3 4 5 6 
#
# 1 81.6374 27.0317 50.6473 0.0000 6.4273 0.0000
# 2 27.0317 51.0604 36.9707 0.0000 7.6089 0.0000
# 3 50.6473 36.9707 92.8803 0.0000 15.1662 0.0000
# 4 0.0000 0.0000 0.0000 26.6242 0.0000 1.5186
# 5 6.4273 7.6089 15.1662 0.0000 20.3047 0.0000
# 6 0.0000 0.0000 0.0000 1.5186 0.0000 21.5806
#
#
#
# Elastic Compliance Matrix: (Units=1/GPa)
#
#
# Indices 1 2 3 4 5 6 
#
# 1 0.019061 -0.003703 -0.009295 0.000000 0.002297 0.000000
# 2 -0.003703 0.028339 -0.008790 0.000000 -0.002882 0.000000
# 3 -0.009295 -0.008790 0.020860 0.000000 -0.009345 0.000000
# 4 0.000000 0.000000 0.000000 0.037711 0.000000 -0.002654
# 5 0.002297 -0.002882 -0.009345 0.000000 0.056582 0.000000
# 6 0.000000 0.000000 0.000000 -0.002654 0.000000 0.046525
#
#
# Mechanical properties :
#
#
# Convention : Reuss Voigt Hill
#
# Bulk Modulus (GPa) = 40.51351 50.54194 45.52773
# Shear Modulus (GPa) = 19.16562 21.09714 20.13138
#
# Velocity S-wave (km/s) = 3.34587 3.51042 3.42913
# Velocity P-wave (km/s) = 6.21215 6.77885 6.50168
#
# Compressibility (1/GPa) = 0.02468312
#
# Stress axis : x y z
#
# Youngs Moduli (GPa) = 52.46239 35.28650 47.93874
#
# Poissons Ratio (x) = 0.13068 0.44559
# Poissons Ratio (y) = 0.19428 0.42140
# Poissons Ratio (z) = 0.48764 0.31018
#
# Static dielectric constant tensor:
#      x y z
#    x 3.181530 0.000000 0.264850 
#    y 0.000000 3.147700 0.000000 
#    z 0.264850 0.000000 2.941460 
# 
# 
# High freq. dielectric constant tensor:
#      x y z
#    x 1.650300 0.000000 0.003500 
#    y 0.000000 1.652070 0.000000 
#    z 0.003500 0.000000 1.652800 
# 
# From -- ./inp_files/323732.got.cif
#   From: 2010.06.25/outbox.cif.g09.slc.cpg/sg12_162_cif.got.tgz:323732.got - 2010.06.28 00:19:55.
