data_PCOD8086746
_publ_section_title
;
Structure prediction by ZEFSAII (Michael W. Deem and Ramdas Pophale) SiO2 
 PCOD8086746
Probable space group: C 2/M
;
_chemical_formula_sum "Si O2"
_cell_formula_units_Z 64
_cell_length_a 25.164997
_cell_length_b 20.190861
_cell_length_c 11.017080
_cell_angle_alpha 90.000000
_cell_angle_beta 40.770239
_cell_angle_gamma 90.000000
_cell_volume 3655.523417
_symmetry_space_group_name_H-M "C 2/M"
_symmetry_group_IT_number 12
_symmetry_cell_setting 'monoclinic'
loop_
_space_group_symop_operation_xyz
x,y,z
-x,y,-z
-x,-y,-z
x,-y,z
1/2+x,1/2+y,z
1/2-x,1/2+y,-z
1/2-x,1/2-y,-z
1/2+x,1/2-y,z
loop_
_atom_site_type_symbol
_atom_site_label
_atom_site_fract_x
_atom_site_fract_y
_atom_site_fract_z
Si Si1 0.830983 0.834732 0.841977
Si Si2 0.135452 0.425049 0.783810
Si Si3 0.494536 0.186491 0.652728
Si Si4 0.246785 0.194627 0.400379
Si Si5 0.007888 0.426154 0.791982
Si Si6 0.579664 0.316637 0.556421
Si Si7 0.538228 0.573184 0.302299
Si Si8 0.681872 0.207164 0.976176
O O1 0.893818 0.811303 0.629883
O O2 0.869736 0.897841 0.843951
O O3 0.745178 0.847109 0.923030
O O4 0.815046 0.777927 0.965899
O O5 0.169726 0.500000 0.741238
O O6 0.210930 0.374716 0.635748
O O7 0.080422 0.421708 0.761132
O O8 0.078390 0.405421 0.996901
O O9 0.500000 0.192768 0.500000
O O10 0.536642 0.120338 0.630762
O O11 0.529645 0.249485 0.663982
O O12 0.403736 0.174410 0.854486
O O13 0.250000 0.250000 0.500000
O O14 0.153338 0.179169 0.524713
O O15 0.296484 0.223029 0.200288
O O16 0.999893 0.500000 0.754049
O O17 0.519187 0.379273 0.680369
O O18 0.500000 0.566186 0.500000
O O19 0.543715 0.500000 0.232504
#
# Coordination Sequence:
#
# PCOD8086746 Si02
#       8
#     8   8   8   8   8   8   8   8
#     4   9  17  33  50  73 104 140 171 205 263 313
#     4   9  18  36  56  72 100 139 175 215 264 310
#     4  12  19  32  54  80 108 142 169 211 264 319
#     4  11  22  35  52  82 104 131 177 228 258 301
#     4   9  19  34  53  76 101 136 177 214 260 312
#     4  10  19  31  50  79 108 133 175 209 260 318
#     4   9  16  29  50  77 108 138 171 210 252 307
#     4  10  19  32  53  75 105 136 171 216 258 310
#
# _framework density 17.507753000000001
#
# number of rings (size 3 to 8) (size 9 to 14) (size 15 to 20)
#    0.000    2.125    3.750    1.875    0.000    0.750 
#    0.000    2.500    0.000    0.750    0.000    0.875 
#    0.000    0.000    0.000    0.000    0.000    0.000 
#
# Total GULP energy -396508.779143 kJ/mol
# GULP energy per Si atom -12390.899348 kJ/mol
# Density = 1.746790 g / cm^3
# Si number density = 17.507753 Si / 1000 Ang^3
#
#
#
# Elastic Constant Matrix: (Units=GPa)
#
#
# Indices 1 2 3 4 5 6 
#
# 1 90.7124 64.9822 45.3041 0.0000 -12.0528 0.0000
# 2 64.9822 141.3982 39.5253 0.0000 -10.0145 0.0000
# 3 45.3041 39.5253 54.5447 0.0000 -14.8506 0.0000
# 4 0.0000 0.0000 0.0000 82.8796 0.0000 -69.9620
# 5 -12.0528 -10.0145 -14.8506 0.0000 26.5153 0.0000
# 6 0.0000 0.0000 0.0000 -69.9620 0.0000 107.7415
#
#
#
# Elastic Compliance Matrix: (Units=1/GPa)
#
#
# Indices 1 2 3 4 5 6 
#
# 1 0.022771 -0.006493 -0.014228 0.000000 -0.000070 0.000000
# 2 -0.006493 0.010722 -0.002451 0.000000 -0.000275 0.000000
# 3 -0.014228 -0.002451 0.035297 0.000000 0.012376 0.000000
# 4 0.000000 0.000000 0.000000 0.026702 0.000000 0.017339
# 5 -0.000070 -0.000275 0.012376 0.000000 0.044510 0.000000
# 6 0.000000 0.000000 0.000000 0.017339 0.000000 0.020541
#
#
# Mechanical properties :
#
#
# Convention : Reuss Voigt Hill
#
# Bulk Modulus (GPa) = 44.55116 65.14205 54.84661
# Shear Modulus (GPa) = 23.32423 52.55018 37.93721
#
# Velocity S-wave (km/s) = 3.65392 5.48457 4.66003
# Velocity P-wave (km/s) = 6.58053 8.79748 7.76849
#
# Compressibility (1/GPa) = 0.02244610
#
# Stress axis : x y z
#
# Youngs Moduli (GPa) = 43.91467 93.26648 28.33118
#
# Poissons Ratio (x) = 0.60557 0.40309
# Poissons Ratio (y) = 0.28513 0.06945
# Poissons Ratio (z) = 0.62480 0.22864
#
# Static dielectric constant tensor:
#      x y z
#    x 3.403540 0.000000 -0.184030 
#    y 0.000000 3.380410 0.000000 
#    z -0.184030 0.000000 3.160280 
# 
# 
# High freq. dielectric constant tensor:
#      x y z
#    x 1.679050 0.000000 -0.016890 
#    y 0.000000 1.673250 0.000000 
#    z -0.016890 0.000000 1.649150 
# 
# From -- ./inp_files/184508.got.cif
#   From: 2010.06.25/outbox.cif.g09.slc.cpg/sg12_93_cif.got.tgz:184508.got - 2010.06.28 00:19:55.
