data_PCOD8086302
_publ_section_title
;
Structure prediction by ZEFSAII (Michael W. Deem and Ramdas Pophale) SiO2 
 PCOD8086302
Probable space group: C 2/M
;
_chemical_formula_sum "Si O2"
_cell_formula_units_Z 64
_cell_length_a 18.738580
_cell_length_b 9.299465
_cell_length_c 20.479664
_cell_angle_alpha 90.000000
_cell_angle_beta 90.000000
_cell_angle_gamma 90.000000
_cell_volume 3568.761035
_symmetry_space_group_name_H-M "C 2/M"
_symmetry_group_IT_number 12
_symmetry_cell_setting 'monoclinic'
loop_
_space_group_symop_operation_xyz
x,y,z
-x,y,-z
-x,-y,-z
x,-y,z
1/2+x,1/2+y,z
1/2-x,1/2+y,-z
1/2-x,1/2-y,-z
1/2+x,1/2-y,z
loop_
_atom_site_type_symbol
_atom_site_label
_atom_site_fract_x
_atom_site_fract_y
_atom_site_fract_z
Si Si1 0.921348 0.170683 0.500000
Si Si2 0.420235 0.329797 0.121453
Si Si3 0.920235 0.829797 0.878547
Si Si4 0.321493 0.332095 0.385176
Si Si5 0.178507 0.167905 0.385176
Si Si6 0.321809 0.667732 0.762663
Si Si7 0.674523 0.671161 0.000000
Si Si8 0.321809 0.332268 0.237337
O O1 0.881969 0.223846 0.434487
O O2 0.881969 0.223846 0.565513
O O3 0.000000 0.239460 0.500000
O O4 0.926094 0.000000 0.500000
O O5 0.426474 0.500000 0.118180
O O6 0.500000 0.262924 0.116147
O O7 0.385160 0.280461 0.189852
O O8 0.370429 0.276113 0.062578
O O9 0.885160 0.780461 0.810148
O O10 0.870429 0.776113 0.937422
O O11 0.926474 0.000000 0.881820
O O12 0.306363 0.500000 0.394669
O O13 0.250000 0.250000 0.403627
O O14 0.346009 0.297312 0.311284
O O15 0.153991 0.202688 0.311284
O O16 0.193637 0.000000 0.394669
O O17 0.305650 0.500000 0.772210
O O18 0.250000 0.750000 0.781732
O O19 0.687117 0.500000 0.000000
O O20 0.750000 0.750000 0.000000
O O21 0.305650 0.500000 0.227790
#
# Coordination Sequence:
#
# PCOD8086302 Si02
#       8
#     8   8   8   8   8   8   8   8
#     4   9  17  28  43  65  90 113 142 182 222 257
#     4   9  17  29  46  68  91 115 146 182 217 255
#     4   9  17  29  46  68  91 115 146 182 217 255
#     4   9  17  29  46  66  87 114 146 179 216 257
#     4   9  17  29  46  66  87 114 146 179 216 257
#     4   9  17  29  46  67  89 114 145 180 216 256
#     4  10  19  31  49  69  89 116 148 182 218 256
#     4   9  17  29  46  67  89 114 145 180 216 256
#
# _framework density 17.933395000000001
#
# number of rings (size 3 to 8) (size 9 to 14) (size 15 to 20)
#    0.000    2.875    0.000    1.500    0.000    2.500 
#    0.000    5.000    0.000    5.250    0.000    7.000 
#    0.000    0.000    0.000    0.000    0.000    0.000 
#
# Total GULP energy -396736.864709 kJ/mol
# GULP energy per Si atom -12398.027022 kJ/mol
# Density = 1.789258 g / cm^3
# Si number density = 17.933395 Si / 1000 Ang^3
#
#
#
# Elastic Constant Matrix: (Units=GPa)
#
#
# Indices 1 2 3 4 5 6 
#
# 1 185.6506 32.7050 111.4919 0.0000 0.0000 0.0000
# 2 32.7050 21.1384 24.0202 0.0000 0.0000 0.0000
# 3 111.4919 24.0202 149.8174 0.0000 0.0000 0.0000
# 4 0.0000 0.0000 0.0000 14.2832 0.0000 0.0000
# 5 0.0000 0.0000 0.0000 0.0000 30.0185 0.0000
# 6 0.0000 0.0000 0.0000 0.0000 0.0000 23.4765
#
#
#
# Elastic Compliance Matrix: (Units=1/GPa)
#
#
# Indices 1 2 3 4 5 6 
#
# 1 0.011116 -0.009536 -0.006744 0.000000 0.000000 0.000000
# 2 -0.009536 0.066026 -0.003490 0.000000 0.000000 0.000000
# 3 -0.006744 -0.003490 0.012253 0.000000 0.000000 0.000000
# 4 0.000000 0.000000 0.000000 0.070013 0.000000 0.000000
# 5 0.000000 0.000000 0.000000 0.000000 0.033313 0.000000
# 6 0.000000 0.000000 0.000000 0.000000 0.000000 0.042596
#
#
# Mechanical properties :
#
#
# Convention : Reuss Voigt Hill
#
# Bulk Modulus (GPa) = 20.05734 77.00453 48.53093
# Shear Modulus (GPa) = 17.15425 26.11493 21.63459
#
# Velocity S-wave (km/s) = 3.09617 3.82018 3.47707
# Velocity P-wave (km/s) = 4.89800 7.90511 6.57576
#
# Compressibility (1/GPa) = 0.04985707
#
# Stress axis : x y z
#
# Youngs Moduli (GPa) = 89.95866 15.14554 81.61406
#
# Poissons Ratio (x) = 0.14443 0.55038
# Poissons Ratio (y) = 0.85783 0.28479
# Poissons Ratio (z) = 0.60665 0.05285
#
# Static dielectric constant tensor:
#      x y z
#    x 3.524570 0.000000 0.000000 
#    y 0.000000 2.914580 0.000000 
#    z 0.000000 0.000000 3.596380 
# 
# 
# High freq. dielectric constant tensor:
#      x y z
#    x 1.695020 0.000000 0.000000 
#    y 0.000000 1.645780 0.000000 
#    z 0.000000 0.000000 1.713640 
# 
# From -- ./inp_files/314017.got.cif
#   From: 2010.06.25/outbox.cif.g09.slc.cpg/sg12_158_cif.got.tgz:314017.got - 2010.06.28 00:19:55.
