data_PCOD8086643
_publ_section_title
;
Structure prediction by ZEFSAII (Michael W. Deem and Ramdas Pophale) SiO2 
 PCOD8086643
Probable space group: C 2/M
;
_chemical_formula_sum "Si O2"
_cell_formula_units_Z 64
_cell_length_a 15.506904
_cell_length_b 22.563737
_cell_length_c 17.644849
_cell_angle_alpha 90.000000
_cell_angle_beta 146.882510
_cell_angle_gamma 90.000000
_cell_volume 3373.114679
_symmetry_space_group_name_H-M "C 2/M"
_symmetry_group_IT_number 12
_symmetry_cell_setting 'monoclinic'
loop_
_space_group_symop_operation_xyz
x,y,z
-x,y,-z
-x,-y,-z
x,-y,z
1/2+x,1/2+y,z
1/2-x,1/2+y,-z
1/2-x,1/2-y,-z
1/2+x,1/2-y,z
loop_
_atom_site_type_symbol
_atom_site_label
_atom_site_fract_x
_atom_site_fract_y
_atom_site_fract_z
Si Si1 0.479015 0.357552 0.662334
Si Si2 0.481303 0.933498 0.782971
Si Si3 0.920056 0.850381 0.019548
Si Si4 0.862334 0.932040 0.451655
Si Si5 0.415053 0.271244 0.742561
Si Si6 0.064758 0.249678 0.467851
Si Si7 0.821861 0.931632 0.084324
Si Si8 0.565915 0.177021 0.756762
O O1 0.364762 0.404083 0.537265
O O2 0.391115 0.325312 0.666288
O O3 0.524042 0.307908 0.632314
O O4 0.627517 0.393793 0.804926
O O5 0.318156 0.922463 0.710562
O O6 0.500502 0.887742 0.728628
O O7 0.476523 0.000000 0.744610
O O8 0.632237 0.926784 0.948554
O O9 0.895018 0.904375 0.060531
O O10 0.030029 0.798587 0.136784
O O11 0.750885 0.823071 0.873810
O O12 0.000000 0.872926 0.000000
O O13 0.000000 0.902832 0.500000
O O14 0.906246 0.000000 0.493053
O O15 0.249226 0.236677 0.619496
O O16 0.544647 0.223636 0.810354
O O17 0.000000 0.269313 0.500000
O O18 0.036833 0.304269 0.391048
O O19 0.877766 0.000000 0.130752
#
# Coordination Sequence:
#
# PCOD8086643 Si02
#       8
#     8   8   8   8   8   8   8   8
#     4  10  19  33  51  72 100 136 175 211 248 302
#     4   9  18  34  54  75 100 133 173 212 253 306
#     4  10  20  34  53  78 107 133 166 215 260 301
#     4  10  19  31  50  75 102 132 169 215 261 301
#     4  10  20  34  52  75 103 137 173 205 249 307
#     4  11  21  33  52  78 107 135 167 212 258 301
#     4   9  19  35  55  76 101 137 176 211 251 304
#     4  10  19  34  54  74  99 138 175 206 250 306
#
# _framework density 18.973562000000001
#
# number of rings (size 3 to 8) (size 9 to 14) (size 15 to 20)
#    0.000    2.125    0.000    4.875    0.000    1.250 
#    0.000    0.625    0.000    4.875    0.000    0.000 
#    0.000    0.000    0.000    0.000    0.000    0.000 
#
# Total GULP energy -396522.409965 kJ/mol
# GULP energy per Si atom -12391.325311 kJ/mol
# Density = 1.893038 g / cm^3
# Si number density = 18.973562 Si / 1000 Ang^3
#
#
#
# Elastic Constant Matrix: (Units=GPa)
#
#
# Indices 1 2 3 4 5 6 
#
# 1 76.2661 36.4620 47.4198 0.0001 12.0709 -0.0001
# 2 36.4620 95.3269 52.6013 -0.0001 3.0809 -0.0001
# 3 47.4198 52.6013 110.6055 -0.0002 15.4393 0.0009
# 4 0.0001 -0.0001 -0.0002 26.7438 0.0000 -0.9807
# 5 12.0709 3.0809 15.4393 0.0000 25.7094 0.0005
# 6 -0.0001 -0.0001 0.0009 -0.9807 0.0005 14.4982
#
#
#
# Elastic Compliance Matrix: (Units=1/GPa)
#
#
# Indices 1 2 3 4 5 6 
#
# 1 0.019424 -0.004161 -0.005616 0.000000 -0.005248 0.000001
# 2 -0.004161 0.015272 -0.005999 0.000000 0.003726 0.000000
# 3 -0.005616 -0.005999 0.015099 0.000000 -0.005712 -0.000001
# 4 0.000000 0.000000 0.000000 0.037485 0.000000 0.002535
# 5 -0.005248 0.003726 -0.005712 0.000000 0.044344 -0.000001
# 6 0.000001 0.000000 -0.000001 0.002535 -0.000001 0.069146
#
#
# Mechanical properties :
#
#
# Convention : Reuss Voigt Hill
#
# Bulk Modulus (GPa) = 54.81677 61.68495 58.25086
# Shear Modulus (GPa) = 20.97293 23.10462 22.03877
#
# Velocity S-wave (km/s) = 3.32833 3.49338 3.41185
# Velocity P-wave (km/s) = 6.61243 6.98951 6.80358
#
# Compressibility (1/GPa) = 0.01824259
#
# Stress axis : x y z
#
# Youngs Moduli (GPa) = 51.48293 65.48118 66.22855
#
# Poissons Ratio (x) = 0.27246 0.37195
# Poissons Ratio (y) = 0.21422 0.39730
# Poissons Ratio (z) = 0.28914 0.39282
#
# Static dielectric constant tensor:
#      x y z
#    x 3.304440 0.000000 0.054600 
#    y 0.000000 3.604940 0.000000 
#    z 0.054600 0.000000 3.666670 
# 
# 
# High freq. dielectric constant tensor:
#      x y z
#    x 1.709960 0.000000 0.005110 
#    y 0.000000 1.743870 0.000000 
#    z 0.005110 0.000000 1.744760 
# 
# From -- ./inp_files/272873.got.cif
#   From: 2010.06.25/outbox.cif.g09.slc.cpg/sg12_137_cif.got.tgz:272873.got - 2010.06.28 00:19:55.
