data_PCOD8086958
_publ_section_title
;
Structure prediction by ZEFSAII (Michael W. Deem and Ramdas Pophale) SiO2 
 PCOD8086958
Probable space group: C 2/M
;
_chemical_formula_sum "Si O2"
_cell_formula_units_Z 40
_cell_length_a 19.186324
_cell_length_b 9.136619
_cell_length_c 27.037850
_cell_angle_alpha 90.000000
_cell_angle_beta 151.932005
_cell_angle_gamma 90.000000
_cell_volume 2230.111938
_symmetry_space_group_name_H-M "C 2/M"
_symmetry_group_IT_number 12
_symmetry_cell_setting 'monoclinic'
loop_
_space_group_symop_operation_xyz
x,y,z
-x,y,-z
-x,-y,-z
x,-y,z
1/2+x,1/2+y,z
1/2-x,1/2+y,-z
1/2-x,1/2-y,-z
1/2+x,1/2-y,z
loop_
_atom_site_type_symbol
_atom_site_label
_atom_site_fract_x
_atom_site_fract_y
_atom_site_fract_z
Si Si1 0.096884 0.674214 0.320573
Si Si2 0.938801 0.826811 0.309223
Si Si3 0.923752 0.172726 0.501284
Si Si4 0.833662 0.831298 0.903508
Si Si5 0.313177 0.833916 0.085613
O O1 0.091390 0.500000 0.326516
O O2 0.255988 0.731425 0.401886
O O3 0.057741 0.751816 0.347623
O O4 0.976710 0.721058 0.203920
O O5 0.773742 0.767542 0.196938
O O6 0.980857 0.783037 0.391342
O O7 0.943347 0.000000 0.303569
O O8 0.000000 0.241579 0.500000
O O9 0.915415 0.000000 0.490242
O O10 0.798110 0.811443 0.938732
O O11 0.814242 0.000000 0.874983
O O12 0.000000 0.775317 0.000000
O O13 0.323229 0.000000 0.075037
O O14 0.250000 0.750000 0.000000
#
# Coordination Sequence:
#
# PCOD8086958 Si02
#       5
#     8   8   8   8   8
#     4   9  18  34  53  70  96 136 170 196 239 299
#     4  10  19  31  52  78  99 125 164 208 246 283
#     4   9  18  32  50  74 102 130 163 203 247 294
#     4   9  19  36  54  71  97 134 168 197 240 297
#     4   9  18  31  49  72  96 127 163 199 241 286
#
# _framework density 17.936319999999998
#
# number of rings (size 3 to 8) (size 9 to 14) (size 15 to 20)
#    0.000    2.800    0.000    2.400    0.000    5.200 
#    0.000    3.000    0.000    5.400    0.000    0.000 
#    0.000    0.000    0.000    0.000    0.000    0.000 
#
# Total GULP energy -247978.563133 kJ/mol
# GULP energy per Si atom -12398.928157 kJ/mol
# Density = 1.789550 g / cm^3
# Si number density = 17.936320 Si / 1000 Ang^3
#
#
#
# Elastic Constant Matrix: (Units=GPa)
#
#
# Indices 1 2 3 4 5 6 
#
# 1 127.7020 40.1798 95.5963 0.0001 3.0186 0.0000
# 2 40.1798 46.5783 40.5900 0.0005 -6.8129 -0.0001
# 3 95.5963 40.5900 139.2500 0.0006 8.2105 -0.0001
# 4 0.0001 0.0005 0.0006 25.2710 0.0005 -4.0560
# 5 3.0186 -6.8129 8.2105 0.0005 39.4878 0.0000
# 6 0.0000 -0.0001 -0.0001 -4.0560 0.0000 23.1249
#
#
#
# Elastic Compliance Matrix: (Units=1/GPa)
#
#
# Indices 1 2 3 4 5 6 
#
# 1 0.017331 -0.006223 -0.010066 0.000000 -0.000306 0.000000
# 2 -0.006223 0.032934 -0.005761 -0.000001 0.007356 0.000000
# 3 -0.010066 -0.005761 0.015980 0.000000 -0.003547 0.000000
# 4 0.000000 -0.000001 0.000000 0.040717 -0.000001 0.007142
# 5 -0.000306 0.007356 -0.003547 -0.000001 0.027354 0.000000
# 6 0.000000 0.000000 0.000000 0.007142 0.000000 0.044496
#
#
# Mechanical properties :
#
#
# Convention : Reuss Voigt Hill
#
# Bulk Modulus (GPa) = 45.15812 74.02917 59.59365
# Shear Modulus (GPa) = 21.71113 26.72102 24.21608
#
# Velocity S-wave (km/s) = 3.48294 3.86394 3.67838
# Velocity P-wave (km/s) = 6.43475 7.82750 7.16504
#
# Compressibility (1/GPa) = 0.02214441
#
# Stress axis : x y z
#
# Youngs Moduli (GPa) = 57.69872 30.36350 62.57690
#
# Poissons Ratio (x) = 0.18896 0.62991
# Poissons Ratio (y) = 0.35908 0.36053
# Poissons Ratio (z) = 0.58080 0.17494
#
# Static dielectric constant tensor:
#      x y z
#    x 3.523100 0.000000 0.236460 
#    y 0.000000 3.121240 0.000000 
#    z 0.236460 0.000000 3.555590 
# 
# 
# High freq. dielectric constant tensor:
#      x y z
#    x 1.691770 0.000000 0.003430 
#    y 0.000000 1.672010 0.000000 
#    z 0.003430 0.000000 1.706890 
# 
# From -- ./inp_files/162367.got.cif
#   From: 2010.06.25/outbox.cif.g09.slc.cpg/sg12_82_cif.got.tgz:162367.got - 2010.06.28 00:19:55.
