data_PCOD8086785
_publ_section_title
;
Structure prediction by ZEFSAII (Michael W. Deem and Ramdas Pophale) SiO2 
 PCOD8086785
Probable space group: C 2/M
;
_chemical_formula_sum "Si O2"
_cell_formula_units_Z 64
_cell_length_a 27.883683
_cell_length_b 9.140056
_cell_length_c 14.323534
_cell_angle_alpha 90.000000
_cell_angle_beta 77.123128
_cell_angle_gamma 90.000000
_cell_volume 3558.668396
_symmetry_space_group_name_H-M "C 2/M"
_symmetry_group_IT_number 12
_symmetry_cell_setting 'monoclinic'
loop_
_space_group_symop_operation_xyz
x,y,z
-x,y,-z
-x,-y,-z
x,-y,z
1/2+x,1/2+y,z
1/2-x,1/2+y,-z
1/2-x,1/2-y,-z
1/2+x,1/2-y,z
loop_
_atom_site_type_symbol
_atom_site_label
_atom_site_fract_x
_atom_site_fract_y
_atom_site_fract_z
Si Si1 0.585761 0.672829 0.600275
Si Si2 0.311856 0.827411 0.784173
Si Si3 0.355543 0.825861 0.957008
Si Si4 0.118198 0.332908 0.762562
Si Si5 0.008518 0.660151 0.386952
Si Si6 0.945210 0.673801 0.035229
Si Si7 0.611289 0.828152 0.400492
Si Si8 0.711338 0.166938 0.847524
O O1 0.587032 0.500000 0.593110
O O2 0.617293 0.727573 0.673904
O O3 0.529322 0.724684 0.640667
O O4 0.609821 0.737325 0.496283
O O5 0.342132 0.765554 0.860372
O O6 0.340020 0.784015 0.677157
O O7 0.257899 0.762959 0.801099
O O8 0.307439 0.000000 0.796338
O O9 0.357441 0.000000 0.959817
O O10 0.409033 0.766987 0.968430
O O11 0.312991 0.772764 0.046552
O O12 0.107801 0.500000 0.736564
O O13 0.077283 0.280358 0.855103
O O14 0.172378 0.318927 0.781280
O O15 0.000089 0.500000 0.343770
O O16 0.065246 0.710367 0.351617
O O17 0.000000 0.647255 0.500000
O O18 0.947599 0.500000 0.028129
O O19 0.000000 0.741493 0.000000
O O20 0.609742 0.000000 0.426592
O O21 0.728488 0.000000 0.852436
#
# Coordination Sequence:
#
# PCOD8086785 Si02
#       8
#     8   8   8   8   8   8   8   8
#     4  11  21  32  50  74  99 130 167 205 243 288
#     4  10  19  31  51  76 100 126 159 205 252 291
#     4   8  15  28  46  72 102 128 158 195 239 293
#     4   9  18  33  52  72  97 132 169 203 241 289
#     4   8  15  30  50  69  93 126 160 194 236 286
#     4   8  14  26  48  77 103 127 160 202 240 278
#     4   9  19  34  50  72 101 131 164 202 244 290
#     4   9  18  33  51  71  98 130 163 200 244 296
#
# _framework density 17.984254
#
# number of rings (size 3 to 8) (size 9 to 14) (size 15 to 20)
#    0.000    3.000    0.000    3.750    0.000    4.250 
#    0.000    4.375    0.000    1.125    0.000    0.000 
#    0.000    0.000    0.000    0.000    0.000    0.000 
#
# Total GULP energy -396638.115674 kJ/mol
# GULP energy per Si atom -12394.941115 kJ/mol
# Density = 1.794332 g / cm^3
# Si number density = 17.984254 Si / 1000 Ang^3
#
#
#
# Elastic Constant Matrix: (Units=GPa)
#
#
# Indices 1 2 3 4 5 6 
#
# 1 120.6325 35.7749 62.0394 0.0000 -14.9867 0.0000
# 2 35.7749 59.9895 46.7423 0.0000 1.6183 0.0000
# 3 62.0394 46.7423 96.9388 0.0000 1.5991 0.0000
# 4 0.0000 0.0000 0.0000 14.4171 0.0000 -3.0254
# 5 -14.9867 1.6183 1.5991 0.0000 26.9408 0.0000
# 6 0.0000 0.0000 0.0000 -3.0254 0.0000 23.5745
#
#
#
# Elastic Compliance Matrix: (Units=1/GPa)
#
#
# Indices 1 2 3 4 5 6 
#
# 1 0.014220 -0.002418 -0.008075 0.000000 0.008535 0.000000
# 2 -0.002418 0.027132 -0.011497 0.000000 -0.002293 0.000000
# 3 -0.008075 -0.011497 0.021111 0.000000 -0.005055 0.000000
# 4 0.000000 0.000000 0.000000 0.071282 0.000000 0.009148
# 5 0.008535 -0.002293 -0.005055 0.000000 0.042304 0.000000
# 6 0.000000 0.000000 0.000000 0.009148 0.000000 0.043593
#
#
# Mechanical properties :
#
#
# Convention : Reuss Voigt Hill
#
# Bulk Modulus (GPa) = 54.10824 62.96376 58.53600
# Shear Modulus (GPa) = 18.53336 21.85343 20.19340
#
# Velocity S-wave (km/s) = 3.21367 3.48967 3.35451
# Velocity P-wave (km/s) = 6.62737 7.16405 6.90093
#
# Compressibility (1/GPa) = 0.01848147
#
# Stress axis : x y z
#
# Youngs Moduli (GPa) = 70.32229 36.85719 47.36876
#
# Poissons Ratio (x) = 0.08913 0.38252
# Poissons Ratio (y) = 0.17006 0.54460
# Poissons Ratio (z) = 0.56788 0.42375
#
# Static dielectric constant tensor:
#      x y z
#    x 3.627060 0.000000 -0.053750 
#    y 0.000000 2.943030 0.000000 
#    z -0.053750 0.000000 3.269910 
# 
# 
# High freq. dielectric constant tensor:
#      x y z
#    x 1.700940 0.000000 0.001470 
#    y 0.000000 1.656550 0.000000 
#    z 0.001470 0.000000 1.687760 
# 
# From -- ./inp_files/248279.got.cif
#   From: 2010.06.25/outbox.cif.g09.slc.cpg/sg12_125_cif.got.tgz:248279.got - 2010.06.28 00:19:55.
