data_PCOD8086567
_publ_section_title
;
Structure prediction by ZEFSAII (Michael W. Deem and Ramdas Pophale) SiO2 
 PCOD8086567
Probable space group: C 2/M
;
_chemical_formula_sum "Si O2"
_cell_formula_units_Z 48
_cell_length_a 19.045905
_cell_length_b 9.069240
_cell_length_c 15.436966
_cell_angle_alpha 90.000000
_cell_angle_beta 88.790660
_cell_angle_gamma 90.000000
_cell_volume 2665.862276
_symmetry_space_group_name_H-M "C 2/M"
_symmetry_group_IT_number 12
_symmetry_cell_setting 'monoclinic'
loop_
_space_group_symop_operation_xyz
x,y,z
-x,y,-z
-x,-y,-z
x,-y,z
1/2+x,1/2+y,z
1/2-x,1/2+y,-z
1/2-x,1/2-y,-z
1/2+x,1/2-y,z
loop_
_atom_site_type_symbol
_atom_site_label
_atom_site_fract_x
_atom_site_fract_y
_atom_site_fract_z
Si Si1 0.053506 0.169496 0.920401
Si Si2 0.043415 0.827782 0.582258
Si Si3 0.300314 0.174677 0.066878
Si Si4 0.960377 0.334570 0.247449
Si Si5 0.706457 0.162813 0.741742
Si Si6 0.293721 0.328697 0.425430
O O1 0.122843 0.257151 0.945571
O O2 0.016306 0.240479 0.836838
O O3 0.072888 0.000000 0.899362
O O4 0.000000 0.181991 0.000000
O O5 0.011811 0.741631 0.665507
O O6 0.124722 0.788618 0.564007
O O7 0.000000 0.775648 0.500000
O O8 0.033602 0.000000 0.600918
O O9 0.267604 0.208644 0.163052
O O10 0.305462 0.000000 0.051067
O O11 0.250000 0.250000 0.000000
O O12 0.991316 0.500000 0.240258
O O13 0.877007 0.338064 0.252023
O O14 0.733385 0.275631 0.668229
O O15 0.734420 0.000000 0.716450
O O16 0.279064 0.500000 0.432877
O O17 0.250000 0.250000 0.500000
#
# Coordination Sequence:
#
# PCOD8086567 Si02
#       6
#     8   8   8   8   8   8
#     4  10  20  34  53  76 102 134 171 210 252 299
#     4   9  18  33  52  73  97 128 165 202 243 293
#     4  10  20  34  54  78 104 134 168 209 253 299
#     4   9  17  30  50  74  99 129 164 204 249 297
#     4   8  16  31  49  70  96 127 163 200 240 290
#     4  10  19  31  50  73  97 127 161 200 243 289
#
# _framework density 18.005431999999999
#
# number of rings (size 3 to 8) (size 9 to 14) (size 15 to 20)
#    0.000    2.667    0.000    3.000    0.000    7.000 
#    0.000    1.667    0.000    4.000    0.000    0.000 
#    0.000    0.000    0.000    0.000    0.000    0.000 
#
# Total GULP energy -297557.475939 kJ/mol
# GULP energy per Si atom -12398.228164 kJ/mol
# Density = 1.796445 g / cm^3
# Si number density = 18.005432 Si / 1000 Ang^3
#
#
#
# Elastic Constant Matrix: (Units=GPa)
#
#
# Indices 1 2 3 4 5 6 
#
# 1 43.3534 42.4570 49.5184 0.0000 6.1550 0.0000
# 2 42.4570 129.2936 88.5376 0.0000 -0.7091 0.0000
# 3 49.5184 88.5376 168.3913 0.0000 12.1079 0.0000
# 4 0.0000 0.0000 0.0000 39.1739 0.0000 -0.7399
# 5 6.1550 -0.7091 12.1079 0.0000 29.9015 0.0000
# 6 0.0000 0.0000 0.0000 -0.7399 0.0000 23.0792
#
#
#
# Elastic Compliance Matrix: (Units=1/GPa)
#
#
# Indices 1 2 3 4 5 6 
#
# 1 0.040048 -0.008430 -0.006940 0.000000 -0.005633 0.000000
# 2 -0.008430 0.014117 -0.005245 0.000000 0.004194 0.000000
# 3 -0.006940 -0.005245 0.010963 0.000000 -0.003135 0.000000
# 4 0.000000 0.000000 0.000000 0.025543 0.000000 0.000819
# 5 -0.005633 0.004194 -0.003135 0.000000 0.035972 0.000000
# 6 0.000000 0.000000 0.000000 0.000819 0.000000 0.043355
#
#
# Mechanical properties :
#
#
# Convention : Reuss Voigt Hill
#
# Bulk Modulus (GPa) = 41.84331 78.00715 59.92523
# Shear Modulus (GPa) = 22.81100 29.13260 25.97180
#
# Velocity S-wave (km/s) = 3.56321 4.02679 3.80207
# Velocity P-wave (km/s) = 6.34179 8.06463 7.25454
#
# Compressibility (1/GPa) = 0.02389868
#
# Stress axis : x y z
#
# Youngs Moduli (GPa) = 24.97021 70.83480 91.21931
#
# Poissons Ratio (x) = 0.59711 0.63302
# Poissons Ratio (y) = 0.21049 0.47848
# Poissons Ratio (z) = 0.17328 0.37156
#
# Static dielectric constant tensor:
#      x y z
#    x 2.929600 0.000000 0.139310 
#    y 0.000000 3.576670 0.000000 
#    z 0.139310 0.000000 3.716150 
# 
# 
# High freq. dielectric constant tensor:
#      x y z
#    x 1.650770 0.000000 0.002890 
#    y 0.000000 1.710900 0.000000 
#    z 0.002890 0.000000 1.714470 
# 
# From -- ./inp_files/221675.got.cif
#   From: 2010.06.25/outbox.cif.g09.slc.cpg/sg12_111_cif.got.tgz:221675.got - 2010.06.28 00:19:55.
