data_PCOD8086500
_publ_section_title
;
Structure prediction by ZEFSAII (Michael W. Deem and Ramdas Pophale) SiO2 
 PCOD8086500
Probable space group: C 2/M
;
_chemical_formula_sum "Si O2"
_cell_formula_units_Z 64
_cell_length_a 24.837027
_cell_length_b 8.675565
_cell_length_c 33.398569
_cell_angle_alpha 90.000000
_cell_angle_beta 30.622692
_cell_angle_gamma 90.000000
_cell_volume 3665.802505
_symmetry_space_group_name_H-M "C 2/M"
_symmetry_group_IT_number 12
_symmetry_cell_setting 'monoclinic'
loop_
_space_group_symop_operation_xyz
x,y,z
-x,y,-z
-x,-y,-z
x,-y,z
1/2+x,1/2+y,z
1/2-x,1/2+y,-z
1/2-x,1/2-y,-z
1/2+x,1/2-y,z
loop_
_atom_site_type_symbol
_atom_site_label
_atom_site_fract_x
_atom_site_fract_y
_atom_site_fract_z
Si Si1 0.129163 0.180183 0.336530
Si Si2 0.300108 0.819896 0.077671
Si Si3 0.028638 0.181580 0.813515
Si Si4 0.730469 0.680271 0.818798
Si Si5 0.513201 0.319078 0.915394
Si Si6 0.751125 0.819370 0.658600
Si Si7 0.439159 0.826171 0.497334
Si Si8 0.682119 0.181276 0.079204
O O1 0.171584 0.276565 0.271978
O O2 0.200450 0.222355 0.329249
O O3 0.008211 0.231478 0.421048
O O4 0.132989 0.000000 0.324497
O O5 0.257599 0.777196 0.148517
O O6 0.231603 0.726844 0.089662
O O7 0.286425 0.000000 0.078485
O O8 0.422630 0.773603 0.996228
O O9 0.139770 0.235799 0.724808
O O10 0.016499 0.233865 0.867265
O O11 0.937518 0.259330 0.845665
O O12 0.019526 0.000000 0.815240
O O13 0.732545 0.500000 0.827397
O O14 0.622883 0.727767 0.865448
O O15 0.489936 0.500000 0.934291
O O16 0.826805 0.757450 0.574898
O O17 0.736091 0.000000 0.662863
O O18 0.500000 0.825904 0.500000
O O19 0.421247 0.000000 0.493356
O O20 0.684236 0.000000 0.073134
O O21 0.750000 0.250000 0.000000
#
# Coordination Sequence:
#
# PCOD8086500 Si02
#       8
#     8   8   8   8   8   8   8   8
#     4  10  19  31  49  75 108 142 178 218 265 318
#     4  12  25  39  56  78 105 140 182 227 271 318
#     4  11  21  35  56  81 108 141 179 222 269 320
#     4  11  22  37  55  77 108 145 183 221 265 320
#     4  10  21  36  55  77 107 143 180 220 267 319
#     4  10  19  31  49  76 110 142 177 220 266 317
#     4   9  17  29  47  71 103 142 180 215 261 319
#     4  12  24  40  59  79 103 137 179 226 274 320
#
# _framework density 17.458659000000001
#
# number of rings (size 3 to 8) (size 9 to 14) (size 15 to 20)
#    0.000    1.375    2.500    4.500    0.000    5.500 
#    0.000    0.000    0.000    0.000    0.000    0.875 
#    0.000    0.000    0.000    0.000    0.000    0.000 
#
# Total GULP energy -396974.587421 kJ/mol
# GULP energy per Si atom -12405.455857 kJ/mol
# Density = 1.741892 g / cm^3
# Si number density = 17.458659 Si / 1000 Ang^3
#
#
#
# Elastic Constant Matrix: (Units=GPa)
#
#
# Indices 1 2 3 4 5 6 
#
# 1 57.7262 21.9421 43.2978 0.0110 -4.1793 0.3010
# 2 21.9421 84.5067 41.7707 -0.0264 -9.2867 -0.0571
# 3 43.2978 41.7707 126.1150 -0.0186 -3.1953 0.0247
# 4 0.0110 -0.0264 -0.0186 35.6627 -0.0146 -0.7268
# 5 -4.1793 -9.2867 -3.1953 -0.0146 10.6500 0.0140
# 6 0.3010 -0.0571 0.0247 -0.7268 0.0140 24.3270
#
#
#
# Elastic Compliance Matrix: (Units=1/GPa)
#
#
# Indices 1 2 3 4 5 6 
#
# 1 0.024075 -0.001949 -0.007480 -0.000017 0.005504 -0.000298
# 2 -0.001949 0.015718 -0.004241 0.000016 0.011669 0.000059
# 3 -0.007480 -0.004241 0.011824 0.000006 -0.003086 0.000073
# 4 -0.000017 0.000016 0.000006 0.028058 0.000047 0.000838
# 5 0.005504 0.011669 -0.003086 0.000047 0.105305 -0.000097
# 6 -0.000298 0.000059 0.000073 0.000838 -0.000097 0.041135
#
#
# Mechanical properties :
#
#
# Convention : Reuss Voigt Hill
#
# Bulk Modulus (GPa) = 41.19334 53.59657 47.39496
# Shear Modulus (GPa) = 19.11693 24.88377 22.00035
#
# Velocity S-wave (km/s) = 3.31264 3.77941 3.55370
# Velocity P-wave (km/s) = 6.18688 7.05769 6.63658
#
# Compressibility (1/GPa) = 0.02427577
#
# Stress axis : x y z
#
# Youngs Moduli (GPa) = 41.53757 63.62055 84.57395
#
# Poissons Ratio (x) = 0.12399 0.63264
# Poissons Ratio (y) = 0.08095 0.35871
# Poissons Ratio (z) = 0.31071 0.26984
#
# Static dielectric constant tensor:
#      x y z
#    x 3.089940 -0.000130 -0.054480 
#    y -0.000130 3.358470 0.000250 
#    z -0.054480 0.000250 3.361920 
# 
# 
# High freq. dielectric constant tensor:
#      x y z
#    x 1.637720 -0.000030 -0.005830 
#    y -0.000030 1.691210 0.000010 
#    z -0.005830 0.000010 1.681580 
# 
# From -- ./inp_files/382297.got.cif
#   From: 2010.06.25/outbox.cif.g09.slc.cpg/sg12_192_cif.got.tgz:382297.got - 2010.06.28 00:19:55.
