data_PCOD8086332
_publ_section_title
;
Structure prediction by ZEFSAII (Michael W. Deem and Ramdas Pophale) SiO2 
 PCOD8086332
Probable space group: C 2/M
;
_chemical_formula_sum "Si O2"
_cell_formula_units_Z 48
_cell_length_a 24.913058
_cell_length_b 9.188707
_cell_length_c 27.183969
_cell_angle_alpha 90.000000
_cell_angle_beta 152.839507
_cell_angle_gamma 90.000000
_cell_volume 2840.667379
_symmetry_space_group_name_H-M "C 2/M"
_symmetry_group_IT_number 12
_symmetry_cell_setting 'monoclinic'
loop_
_space_group_symop_operation_xyz
x,y,z
-x,y,-z
-x,-y,-z
x,-y,z
1/2+x,1/2+y,z
1/2-x,1/2+y,-z
1/2-x,1/2-y,-z
1/2+x,1/2-y,z
loop_
_atom_site_type_symbol
_atom_site_label
_atom_site_fract_x
_atom_site_fract_y
_atom_site_fract_z
Si Si1 0.555567 0.660158 0.991750
Si Si2 0.858928 0.667608 0.611605
Si Si3 0.509410 0.668457 0.355210
Si Si4 0.267638 0.334287 0.396549
Si Si5 0.691577 0.671852 0.240415
Si Si6 0.239517 0.170902 0.801985
O O1 0.602672 0.500000 0.014668
O O2 0.662525 0.774388 0.078915
O O3 0.500000 0.650318 0.000000
O O4 0.447970 0.710222 0.868758
O O5 0.854657 0.500000 0.592266
O O6 0.750000 0.750000 0.500000
O O7 0.975692 0.741152 0.683710
O O8 0.846136 0.682996 0.660274
O O9 0.514526 0.500000 0.345028
O O10 0.612534 0.707899 0.477609
O O11 0.386486 0.711758 0.278940
O O12 0.275228 0.500000 0.383370
O O13 0.256182 0.226000 0.341783
O O14 0.709880 0.500000 0.249011
O O15 0.749843 0.749723 0.241329
O O16 0.255901 0.000000 0.807313
#
# Coordination Sequence:
#
# PCOD8086332 Si02
#       6
#     8   8   8   8   8   8
#     4   8  16  31  47  65  91 120 154 195 233 271
#     4   9  17  30  49  70  92 122 158 194 230 271
#     4   9  19  33  48  70  98 125 154 191 234 276
#     4   9  18  32  48  68  95 124 154 189 230 275
#     4  10  20  32  47  69  96 125 156 192 233 275
#     4  10  19  31  49  71  95 124 156 191 232 278
#
# _framework density 16.897438000000001
#
# number of rings (size 3 to 8) (size 9 to 14) (size 15 to 20)
#    0.000    2.833    0.000    3.500    0.000    9.000 
#    0.000    3.333    0.000    1.000    0.000    0.000 
#    0.000    0.000    0.000    0.000    0.000    0.000 
#
# Total GULP energy -297453.133863 kJ/mol
# GULP energy per Si atom -12393.880578 kJ/mol
# Density = 1.685898 g / cm^3
# Si number density = 16.897438 Si / 1000 Ang^3
#
#
#
# Elastic Constant Matrix: (Units=GPa)
#
#
# Indices 1 2 3 4 5 6 
#
# 1 79.9286 53.2590 39.4838 -0.0009 27.6096 -0.0001
# 2 53.2590 89.9612 36.0291 -0.0012 21.0001 -0.0003
# 3 39.4838 36.0291 68.5234 -0.0017 24.1810 -0.0005
# 4 -0.0009 -0.0012 -0.0017 28.1226 -0.0004 0.4758
# 5 27.6096 21.0001 24.1810 -0.0004 13.1365 0.0000
# 6 -0.0001 -0.0003 -0.0005 0.4758 0.0000 29.5407
#
#
#
# Elastic Compliance Matrix: (Units=1/GPa)
#
#
# Indices 1 2 3 4 5 6 
#
# 1 0.064771 -0.009100 0.029589 0.000001 -0.176053 0.000001
# 2 -0.009100 0.019103 -0.002207 0.000000 -0.007350 0.000000
# 3 0.029589 -0.002207 0.055376 0.000002 -0.160594 0.000001
# 4 0.000001 0.000000 0.000002 0.035568 -0.000005 -0.000573
# 5 -0.176053 -0.007350 -0.160594 -0.000005 0.753505 -0.000004
# 6 0.000001 0.000000 0.000001 -0.000573 -0.000004 0.033861
#
#
# Mechanical properties :
#
#
# Convention : Reuss Voigt Hill
#
# Bulk Modulus (GPa) = 5.68778 55.10633 30.39706
# Shear Modulus (GPa) = 5.08015 21.46938 13.27476
#
# Velocity S-wave (km/s) = 1.73580 3.56837 2.80591
# Velocity P-wave (km/s) = 2.71858 7.04704 5.34095
#
# Compressibility (1/GPa) = 0.17581557
#
# Stress axis : x y z
#
# Youngs Moduli (GPa) = 15.43891 52.34850 18.05837
#
# Poissons Ratio (x) = 0.47635 -0.53434
# Poissons Ratio (y) = 0.14049 0.03986
# Poissons Ratio (z) = -0.45683 0.11554
#
# Static dielectric constant tensor:
#      x y z
#    x 3.362410 0.000000 0.139500 
#    y 0.000000 3.306060 0.000000 
#    z 0.139500 0.000000 3.271870 
# 
# 
# High freq. dielectric constant tensor:
#      x y z
#    x 1.634460 0.000000 0.008140 
#    y 0.000000 1.662640 0.000000 
#    z 0.008140 0.000000 1.631500 
# 
# From -- ./inp_files/172243.got.cif
#   From: 2010.06.25/outbox.cif.g09.slc.cpg/sg12_87_cif.got.tgz:172243.got - 2010.06.28 00:19:55.
