data_PCOD8086123
_publ_section_title
;
Structure prediction by ZEFSAII (Michael W. Deem and Ramdas Pophale) SiO2 
 PCOD8086123
Probable space group: C 2/M
;
_chemical_formula_sum "Si O2"
_cell_formula_units_Z 56
_cell_length_a 28.862604
_cell_length_b 9.063032
_cell_length_c 19.302855
_cell_angle_alpha 90.000000
_cell_angle_beta 32.925701
_cell_angle_gamma 90.000000
_cell_volume 2744.548366
_symmetry_space_group_name_H-M "C 2/M"
_symmetry_group_IT_number 12
_symmetry_cell_setting 'monoclinic'
loop_
_space_group_symop_operation_xyz
x,y,z
-x,y,-z
-x,-y,-z
x,-y,z
1/2+x,1/2+y,z
1/2-x,1/2+y,-z
1/2-x,1/2-y,-z
1/2+x,1/2-y,z
loop_
_atom_site_type_symbol
_atom_site_label
_atom_site_fract_x
_atom_site_fract_y
_atom_site_fract_z
Si Si1 0.032137 0.327842 0.668311
Si Si2 0.034068 0.665750 0.880185
Si Si3 0.310877 0.674911 0.479417
Si Si4 0.605026 0.169815 0.054423
Si Si5 0.744657 0.332224 0.807069
Si Si6 0.804877 0.831321 0.281253
Si Si7 0.569612 0.824208 0.466851
O O1 0.056492 0.500000 0.642041
O O2 0.093263 0.238102 0.644354
O O3 0.041491 0.266942 0.578295
O O4 0.935579 0.303005 0.818189
O O5 0.063384 0.500000 0.821450
O O6 0.113367 0.777277 0.778329
O O7 0.962560 0.725981 0.917967
O O8 0.000000 0.662499 0.000000
O O9 0.310626 0.500000 0.471720
O O10 0.250000 0.750000 0.500000
O O11 0.275311 0.728391 0.598587
O O12 0.625278 0.000000 0.015863
O O13 0.695386 0.252495 0.931890
O O14 0.756825 0.500000 0.815067
O O15 0.684674 0.318205 0.814436
O O16 0.837860 0.263351 0.673407
O O17 0.786230 0.000000 0.326359
O O18 0.500000 0.765051 0.500000
O O19 0.572578 0.000000 0.465092
#
# Coordination Sequence:
#
# PCOD8086123 Si02
#       7
#     8   8   8   8   8   8   8
#     4  10  20  38  60  86 118 152 198 247 294 354
#     4  10  19  31  47  73 110 155 202 239 282 346
#     4  12  24  37  56  82 116 158 197 242 294 347
#     4  10  21  35  54  79 115 156 189 236 295 348
#     4  10  20  35  57  83 112 147 193 244 287 344
#     4  11  21  34  53  79 111 151 198 247 292 339
#     4   9  18  37  65  90 112 147 197 248 299 357
#
# _framework density 20.404086
#
# number of rings (size 3 to 8) (size 9 to 14) (size 15 to 20)
#    0.000    1.714    2.857    2.571    0.000    3.143 
#    0.000    0.714    0.000    1.714    0.000    0.000 
#    0.000    0.000    0.000    0.000    0.000    0.000 
#
# Total GULP energy -347114.944551 kJ/mol
# GULP energy per Si atom -12396.962305 kJ/mol
# Density = 2.035765 g / cm^3
# Si number density = 20.404086 Si / 1000 Ang^3
#
#
#
# Elastic Constant Matrix: (Units=GPa)
#
#
# Indices 1 2 3 4 5 6 
#
# 1 87.1592 24.2941 48.9804 0.0004 -2.5079 0.0003
# 2 24.2941 82.3166 46.2767 0.0182 -0.4889 -0.0020
# 3 48.9804 46.2767 155.5278 0.0067 3.5773 0.0003
# 4 0.0004 0.0182 0.0067 35.9685 -0.0022 -0.1166
# 5 -2.5079 -0.4889 3.5773 -0.0022 23.1621 0.0002
# 6 0.0003 -0.0020 0.0003 -0.1166 0.0002 13.0924
#
#
#
# Elastic Compliance Matrix: (Units=1/GPa)
#
#
# Indices 1 2 3 4 5 6 
#
# 1 0.014316 -0.001982 -0.003968 0.000002 0.002121 -0.000001
# 2 -0.001982 0.014885 -0.003821 -0.000007 0.000690 0.000002
# 3 -0.003968 -0.003821 0.008859 0.000000 -0.001879 -0.000001
# 4 0.000002 -0.000007 0.000000 0.027803 0.000003 0.000248
# 5 0.002121 0.000690 -0.001879 0.000003 0.043708 -0.000001
# 6 -0.000001 0.000002 -0.000001 0.000248 -0.000001 0.076383
#
#
# Mechanical properties :
#
#
# Convention : Reuss Voigt Hill
#
# Bulk Modulus (GPa) = 53.99553 62.67845 58.33699
# Shear Modulus (GPa) = 23.62176 28.14142 25.88159
#
# Velocity S-wave (km/s) = 3.40619 3.71779 3.56540
# Velocity P-wave (km/s) = 6.47997 7.01531 6.75295
#
# Compressibility (1/GPa) = 0.01852005
#
# Stress axis : x y z
#
# Youngs Moduli (GPa) = 69.84954 67.18090 112.87556
#
# Poissons Ratio (x) = 0.13316 0.44786
# Poissons Ratio (y) = 0.13845 0.43126
# Poissons Ratio (z) = 0.27714 0.25668
#
# Static dielectric constant tensor:
#      x y z
#    x 3.538850 0.000000 0.112350 
#    y 0.000000 3.476930 0.000000 
#    z 0.112350 0.000000 4.026560 
# 
# 
# High freq. dielectric constant tensor:
#      x y z
#    x 1.768550 0.000000 0.011690 
#    y 0.000000 1.768330 0.000000 
#    z 0.011690 0.000000 1.811580 
# 
# From -- ./inp_files/329498.got.cif
#   From: 2010.06.25/outbox.cif.g09.slc.cpg/sg12_165_cif.got.tgz:329498.got - 2010.06.28 00:19:55.
