data_PCOD8086914
_publ_section_title
;
Structure prediction by ZEFSAII (Michael W. Deem and Ramdas Pophale) SiO2 
 PCOD8086914
Probable space group: C 2/M
;
_chemical_formula_sum "Si O2"
_cell_formula_units_Z 56
_cell_length_a 20.039661
_cell_length_b 8.858864
_cell_length_c 19.210337
_cell_angle_alpha 90.000000
_cell_angle_beta 120.167389
_cell_angle_gamma 90.000000
_cell_volume 2948.485607
_symmetry_space_group_name_H-M "C 2/M"
_symmetry_group_IT_number 12
_symmetry_cell_setting 'monoclinic'
loop_
_space_group_symop_operation_xyz
x,y,z
-x,y,-z
-x,-y,-z
x,-y,z
1/2+x,1/2+y,z
1/2-x,1/2+y,-z
1/2-x,1/2-y,-z
1/2+x,1/2-y,z
loop_
_atom_site_type_symbol
_atom_site_label
_atom_site_fract_x
_atom_site_fract_y
_atom_site_fract_z
Si Si1 0.534651 0.825802 0.832030
Si Si2 0.925536 0.832933 0.509471
Si Si3 0.661113 0.321558 0.667026
Si Si4 0.051705 0.824547 0.092693
Si Si5 0.730025 0.324033 0.178508
Si Si6 0.518208 0.173334 0.664842
Si Si7 0.803859 0.822044 0.085429
O O1 0.469202 0.774790 0.851504
O O2 0.501572 0.800141 0.737365
O O3 0.609059 0.724353 0.885370
O O4 0.556355 0.000000 0.855592
O O5 0.855681 0.777629 0.422658
O O6 0.000000 0.838832 0.500000
O O7 0.940729 0.721526 0.582189
O O8 0.908040 0.000000 0.529945
O O9 0.671490 0.500000 0.680331
O O10 0.739446 0.235961 0.730842
O O11 0.590918 0.272765 0.680239
O O12 0.140241 0.789343 0.121058
O O13 0.039259 0.000000 0.103861
O O14 0.000000 0.774972 0.000000
O O15 0.748060 0.500000 0.180245
O O16 0.779543 0.234872 0.148074
O O17 0.537208 0.000000 0.658166
O O18 0.796265 0.000000 0.077156
O O19 0.750000 0.750000 0.000000
#
# Coordination Sequence:
#
# PCOD8086914 Si02
#       7
#     8   8   8   8   8   8   8
#     4  11  23  38  58  85 116 148 188 234 280 339
#     4   8  16  29  47  75 111 147 186 226 274 336
#     4  10  19  32  52  80 113 151 188 228 281 337
#     4  10  23  42  61  81 109 149 192 235 287 343
#     4  11  22  37  58  85 115 146 189 238 283 341
#     4  10  19  31  51  81 115 147 184 231 281 332
#     4  12  24  38  59  84 113 147 184 232 287 338
#
# _framework density 18.992801
#
# number of rings (size 3 to 8) (size 9 to 14) (size 15 to 20)
#    0.000    1.714    1.429    4.714    0.000    7.429 
#    0.000    0.000    0.000    0.857    0.000    0.000 
#    0.000    0.000    0.000    0.000    0.000    0.000 
#
# Total GULP energy -347238.457887 kJ/mol
# GULP energy per Si atom -12401.373496 kJ/mol
# Density = 1.894957 g / cm^3
# Si number density = 18.992801 Si / 1000 Ang^3
#
#
#
# Elastic Constant Matrix: (Units=GPa)
#
#
# Indices 1 2 3 4 5 6 
#
# 1 45.2284 24.9571 20.2275 0.0000 0.6720 0.0000
# 2 24.9571 104.3038 46.0736 0.0000 -0.0969 0.0000
# 3 20.2275 46.0736 126.3476 0.0000 10.6377 0.0000
# 4 0.0000 0.0000 0.0000 37.8936 0.0000 0.6056
# 5 0.6720 -0.0969 10.6377 0.0000 26.4936 0.0000
# 6 0.0000 0.0000 0.0000 0.6056 0.0000 26.5814
#
#
#
# Elastic Compliance Matrix: (Units=1/GPa)
#
#
# Indices 1 2 3 4 5 6 
#
# 1 0.026004 -0.005214 -0.002282 0.000000 0.000238 0.000000
# 2 -0.005214 0.012555 -0.003890 0.000000 0.001740 0.000000
# 3 -0.002282 -0.003890 0.010034 0.000000 -0.003985 0.000000
# 4 0.000000 0.000000 0.000000 0.026399 0.000000 -0.000601
# 5 0.000238 0.001740 -0.003985 0.000000 0.039345 0.000000
# 6 0.000000 0.000000 0.000000 -0.000601 0.000000 0.037634
#
#
# Mechanical properties :
#
#
# Convention : Reuss Voigt Hill
#
# Bulk Modulus (GPa) = 38.72747 50.93291 44.83019
# Shear Modulus (GPa) = 27.27021 30.50182 28.88601
#
# Velocity S-wave (km/s) = 3.79333 4.01180 3.90409
# Velocity P-wave (km/s) = 6.29450 6.95231 6.63156
#
# Compressibility (1/GPa) = 0.02582146
#
# Stress axis : x y z
#
# Youngs Moduli (GPa) = 38.45561 79.65041 99.66085
#
# Poissons Ratio (x) = 0.41529 0.22740
# Poissons Ratio (y) = 0.20050 0.38768
# Poissons Ratio (z) = 0.08775 0.30984
#
# Static dielectric constant tensor:
#      x y z
#    x 3.101910 0.000000 0.125240 
#    y 0.000000 3.560830 0.000000 
#    z 0.125240 0.000000 4.029490 
# 
# 
# High freq. dielectric constant tensor:
#      x y z
#    x 1.693670 0.000000 0.008090 
#    y 0.000000 1.747810 0.000000 
#    z 0.008090 0.000000 1.760090 
# 
# From -- ./inp_files/281657.got.cif
#   From: 2010.06.25/outbox.cif.g09.slc.cpg/sg12_141_cif.got.tgz:281657.got - 2010.06.28 00:19:55.
