data_PCOD8086871
_publ_section_title
;
Structure prediction by ZEFSAII (Michael W. Deem and Ramdas Pophale) SiO2 
 PCOD8086871
Probable space group: C 2/M
;
_chemical_formula_sum "Si O2"
_cell_formula_units_Z 48
_cell_length_a 18.006781
_cell_length_b 9.014456
_cell_length_c 31.314953
_cell_angle_alpha 90.000000
_cell_angle_beta 29.323139
_cell_angle_gamma 90.000000
_cell_volume 2489.362581
_symmetry_space_group_name_H-M "C 2/M"
_symmetry_group_IT_number 12
_symmetry_cell_setting 'monoclinic'
loop_
_space_group_symop_operation_xyz
x,y,z
-x,y,-z
-x,-y,-z
x,-y,z
1/2+x,1/2+y,z
1/2-x,1/2+y,-z
1/2-x,1/2-y,-z
1/2+x,1/2-y,z
loop_
_atom_site_type_symbol
_atom_site_label
_atom_site_fract_x
_atom_site_fract_y
_atom_site_fract_z
Si Si1 0.334040 0.669606 0.666218
Si Si2 0.846702 0.175735 0.988518
Si Si3 0.592037 0.836214 0.497603
Si Si4 0.355211 0.324764 0.310023
Si Si5 0.156849 0.330496 0.838667
Si Si6 0.798092 0.173626 0.858590
O O1 0.334834 0.500000 0.651504
O O2 0.505012 0.731401 0.574623
O O3 0.208692 0.751152 0.700649
O O4 0.290595 0.690017 0.737338
O O5 0.020879 0.221009 0.895059
O O6 0.830521 0.000000 0.993249
O O7 0.750000 0.250000 0.000000
O O8 0.790213 0.230810 0.062552
O O9 0.500000 0.842361 0.500000
O O10 0.759509 0.776325 0.400405
O O11 0.602797 0.000000 0.512761
O O12 0.338460 0.500000 0.312222
O O13 0.527601 0.275337 0.230022
O O14 0.096830 0.500000 0.868656
O O15 0.224300 0.287686 0.850478
O O16 0.783426 0.000000 0.877122
#
# Coordination Sequence:
#
# PCOD8086871 Si02
#       6
#     8   8   8   8   8   8
#     4  10  19  31  51  79 108 139 178 224 270 315
#     4  12  25  40  60  85 110 138 178 224 269 320
#     4   8  15  29  49  74 104 138 179 223 265 313
#     4   9  18  33  54  78 103 139 184 223 264 318
#     4  10  22  39  57  80 112 147 180 218 269 325
#     4  10  21  39  60  80 109 147 181 218 269 324
#
# _framework density 19.282043999999999
#
# number of rings (size 3 to 8) (size 9 to 14) (size 15 to 20)
#    0.000    2.167    0.000    4.500    0.000   10.333 
#    0.000    0.833    0.000    0.000    0.000    0.000 
#    0.000    0.000    0.000    0.000    0.000    0.000 
#
# Total GULP energy -297601.352829 kJ/mol
# GULP energy per Si atom -12400.056368 kJ/mol
# Density = 1.923816 g / cm^3
# Si number density = 19.282044 Si / 1000 Ang^3
#
#
#
# Elastic Constant Matrix: (Units=GPa)
#
#
# Indices 1 2 3 4 5 6 
#
# 1 73.9532 31.4339 23.8123 0.0033 21.4963 0.0739
# 2 31.4339 76.7325 35.9640 0.0015 15.7974 0.0230
# 3 23.8123 35.9640 109.1409 -0.0027 17.9997 0.0106
# 4 0.0033 0.0015 -0.0027 35.1291 -0.0043 1.8292
# 5 21.4963 15.7974 17.9997 -0.0043 21.9137 0.0053
# 6 0.0739 0.0230 0.0106 1.8292 0.0053 21.4053
#
#
#
# Elastic Compliance Matrix: (Units=1/GPa)
#
#
# Indices 1 2 3 4 5 6 
#
# 1 0.020418 -0.004934 -0.000130 -0.000001 -0.016366 -0.000061
# 2 -0.004934 0.017931 -0.004047 -0.000001 -0.004762 0.000001
# 3 -0.000130 -0.004047 0.011592 0.000000 -0.006477 0.000001
# 4 -0.000001 -0.000001 0.000000 0.028594 0.000007 -0.002443
# 5 -0.016366 -0.004762 -0.006477 0.000007 0.070441 0.000047
# 6 -0.000061 0.000001 0.000001 -0.002443 0.000047 0.046926
#
#
# Mechanical properties :
#
#
# Convention : Reuss Voigt Hill
#
# Bulk Modulus (GPa) = 31.52583 49.13856 40.33220
# Shear Modulus (GPa) = 22.25215 26.93070 24.59143
#
# Velocity S-wave (km/s) = 3.40079 3.74126 3.57508
# Velocity P-wave (km/s) = 5.63967 6.64847 6.16474
#
# Compressibility (1/GPa) = 0.03172002
#
# Stress axis : x y z
#
# Youngs Moduli (GPa) = 48.97550 55.77052 86.26267
#
# Poissons Ratio (x) = 0.27519 0.01120
# Poissons Ratio (y) = 0.24166 0.34907
# Poissons Ratio (z) = 0.00636 0.22568
#
# Static dielectric constant tensor:
#      x y z
#    x 3.305500 -0.000030 -0.061250 
#    y -0.000030 3.521930 0.000000 
#    z -0.061250 0.000000 4.019390 
# 
# 
# High freq. dielectric constant tensor:
#      x y z
#    x 1.727150 0.000000 0.001180 
#    y 0.000000 1.743960 0.000000 
#    z 0.001180 0.000000 1.772130 
# 
# From -- ./inp_files/274630.got.cif
#   From: 2010.06.25/outbox.cif.g09.slc.cpg/sg12_138_cif.got.tgz:274630.got - 2010.06.28 00:19:55.
