data_PCOD8086519
_publ_section_title
;
Structure prediction by ZEFSAII (Michael W. Deem and Ramdas Pophale) SiO2 
 PCOD8086519
Probable space group: C 2/M
;
_chemical_formula_sum "Si O2"
_cell_formula_units_Z 56
_cell_length_a 39.325410
_cell_length_b 8.827219
_cell_length_c 11.693723
_cell_angle_alpha 90.000000
_cell_angle_beta 52.198400
_cell_angle_gamma 90.000000
_cell_volume 3207.398004
_symmetry_space_group_name_H-M "C 2/M"
_symmetry_group_IT_number 12
_symmetry_cell_setting 'monoclinic'
loop_
_space_group_symop_operation_xyz
x,y,z
-x,y,-z
-x,-y,-z
x,-y,z
1/2+x,1/2+y,z
1/2-x,1/2+y,-z
1/2-x,1/2-y,-z
1/2+x,1/2-y,z
loop_
_atom_site_type_symbol
_atom_site_label
_atom_site_fract_x
_atom_site_fract_y
_atom_site_fract_z
Si Si1 0.914808 0.821154 0.945949
Si Si2 0.495844 0.679111 0.634617
Si Si3 0.450578 0.820544 0.099416
Si Si4 0.252497 0.674333 0.874930
Si Si5 0.154382 0.822158 0.298120
Si Si6 0.075549 0.820238 0.616762
Si Si7 0.840136 0.678643 0.962448
O O1 0.869176 0.765520 0.993783
O O2 0.950253 0.772069 0.779831
O O3 0.914167 0.000000 0.966857
O O4 0.925688 0.741507 0.041648
O O5 0.500000 0.751331 0.500000
O O6 0.500416 0.500000 0.617242
O O7 0.533884 0.741707 0.635586
O O8 0.424014 0.759492 0.261933
O O9 0.449440 0.000000 0.100369
O O10 0.500000 0.760959 0.000000
O O11 0.248824 0.500000 0.908957
O O12 0.300248 0.711919 0.727342
O O13 0.250000 0.750000 0.000000
O O14 0.209196 0.719877 0.894668
O O15 0.117237 0.767381 0.459919
O O16 0.150978 0.734064 0.185252
O O17 0.149285 0.000000 0.280434
O O18 0.074564 0.000000 0.636420
O O19 0.849508 0.500000 0.949099
#
# Coordination Sequence:
#
# PCOD8086519 Si02
#       7
#     8   8   8   8   8   8   8
#     4  11  21  34  54  74  99 133 175 216 247 294
#     4   9  17  29  47  73 101 127 157 199 248 291
#     4  11  23  38  54  72 100 133 170 212 258 307
#     4   8  15  28  47  73 104 137 168 203 247 299
#     4   9  17  31  53  79 105 135 173 210 248 299
#     4  10  19  33  54  76 100 131 172 215 250 294
#     4  10  19  31  49  76 111 141 167 204 256 307
#
# _framework density 17.459636
#
# number of rings (size 3 to 8) (size 9 to 14) (size 15 to 20)
#    0.000    2.286    1.429    2.143    0.000    4.000 
#    0.000    0.000    0.000    3.000    0.000    0.000 
#    0.000    0.000    0.000    0.000    0.000    0.000 
#
# Total GULP energy -346996.946472 kJ/mol
# GULP energy per Si atom -12392.748088 kJ/mol
# Density = 1.741990 g / cm^3
# Si number density = 17.459636 Si / 1000 Ang^3
#
#
#
# Elastic Constant Matrix: (Units=GPa)
#
#
# Indices 1 2 3 4 5 6 
#
# 1 121.0596 24.3881 44.0536 0.0000 -7.0021 0.0000
# 2 24.3881 35.1181 20.1339 0.0000 -1.3723 0.0000
# 3 44.0536 20.1339 45.0215 0.0000 4.6961 0.0000
# 4 0.0000 0.0000 0.0000 18.6917 0.0000 0.3677
# 5 -7.0021 -1.3723 4.6961 0.0000 34.4460 0.0000
# 6 0.0000 0.0000 0.0000 0.3677 0.0000 25.9811
#
#
#
# Elastic Compliance Matrix: (Units=1/GPa)
#
#
# Indices 1 2 3 4 5 6 
#
# 1 0.013602 -0.001849 -0.012948 0.000000 0.004457 0.000000
# 2 -0.001849 0.039073 -0.016015 0.000000 0.003364 0.000000
# 3 -0.012948 -0.016015 0.042996 0.000000 -0.009132 0.000000
# 4 0.000000 0.000000 0.000000 0.053515 0.000000 -0.000757
# 5 0.004457 0.003364 -0.009132 0.000000 0.031316 0.000000
# 6 0.000000 0.000000 0.000000 -0.000757 0.000000 0.038500
#
#
# Mechanical properties :
#
#
# Convention : Reuss Voigt Hill
#
# Bulk Modulus (GPa) = 29.37151 42.03893 35.70522
# Shear Modulus (GPa) = 17.12475 23.33200 20.22837
#
# Velocity S-wave (km/s) = 3.13520 3.65956 3.40748
# Velocity P-wave (km/s) = 5.47403 6.47971 5.99798
#
# Compressibility (1/GPa) = 0.03404659
#
# Stress axis : x y z
#
# Youngs Moduli (GPa) = 73.51638 25.59334 23.25801
#
# Poissons Ratio (x) = 0.04732 0.30115
# Poissons Ratio (y) = 0.13592 0.37249
# Poissons Ratio (z) = 0.95189 0.40989
#
# Static dielectric constant tensor:
#      x y z
#    x 3.994870 0.000000 -0.855770 
#    y 0.000000 3.080400 0.000000 
#    z -0.855770 0.000000 3.909270 
# 
# 
# High freq. dielectric constant tensor:
#      x y z
#    x 1.679840 0.000000 -0.018730 
#    y 0.000000 1.665930 0.000000 
#    z -0.018730 0.000000 1.660040 
# 
# From -- ./inp_files/187145.got.cif
#   From: 2010.06.25/outbox.cif.g09.slc.cpg/sg12_94_cif.got.tgz:187145.got - 2010.06.28 00:19:55.
