data_PCOD8086886
_publ_section_title
;
Structure prediction by ZEFSAII (Michael W. Deem and Ramdas Pophale) SiO2 
 PCOD8086886
Probable space group: C 2/M
;
_chemical_formula_sum "Si O2"
_cell_formula_units_Z 56
_cell_length_a 28.625705
_cell_length_b 9.102472
_cell_length_c 10.678443
_cell_angle_alpha 90.000000
_cell_angle_beta 78.922218
_cell_angle_gamma 90.000000
_cell_volume 2730.580822
_symmetry_space_group_name_H-M "C 2/M"
_symmetry_group_IT_number 12
_symmetry_cell_setting 'monoclinic'
loop_
_space_group_symop_operation_xyz
x,y,z
-x,y,-z
-x,-y,-z
x,-y,z
1/2+x,1/2+y,z
1/2-x,1/2+y,-z
1/2-x,1/2-y,-z
1/2+x,1/2-y,z
loop_
_atom_site_type_symbol
_atom_site_label
_atom_site_fract_x
_atom_site_fract_y
_atom_site_fract_z
Si Si1 0.552706 0.829923 0.488568
Si Si2 0.052861 0.834720 0.722295
Si Si3 0.198810 0.322552 0.528321
Si Si4 0.855290 0.670619 0.689977
Si Si5 0.527943 0.162690 0.114183
Si Si6 0.863464 0.674397 0.959708
Si Si7 0.350233 0.668975 0.211890
O O1 0.500000 0.762901 0.500000
O O2 0.576580 0.750693 0.594413
O O3 0.587658 0.800230 0.353451
O O4 0.549797 0.000000 0.523569
O O5 0.092155 0.824379 0.811452
O O6 0.001492 0.767896 0.780066
O O7 0.043037 0.000000 0.687164
O O8 0.200681 0.500000 0.533875
O O9 0.250000 0.250000 0.500000
O O10 0.173847 0.263288 0.412376
O O11 0.172269 0.262238 0.664450
O O12 0.844673 0.500000 0.691953
O O13 0.841243 0.727307 0.836665
O O14 0.529464 0.000000 0.175183
O O15 0.500000 0.156522 0.000000
O O16 0.581157 0.220593 0.066732
O O17 0.857727 0.500000 0.982876
O O18 0.836093 0.759417 0.085253
O O19 0.332160 0.500000 0.227167
#
# Coordination Sequence:
#
# PCOD8086886 Si02
#       7
#     8   8   8   8   8   8   8
#     4  10  19  34  57  82 114 156 204 248 290 349
#     4  11  22  33  50  78 118 159 201 248 293 346
#     4  11  23  43  70  95 119 151 196 251 310 368
#     4   9  19  36  60  90 120 153 196 249 303 354
#     4  10  19  31  51  79 114 160 211 250 285 341
#     4  10  20  37  60  87 120 160 204 249 298 350
#     4  11  23  39  59  88 122 158 198 242 295 359
#
# _framework density 20.508458999999998
#
# number of rings (size 3 to 8) (size 9 to 14) (size 15 to 20)
#    0.000    1.714    2.857    2.143    0.000    4.571 
#    0.000    2.857    0.000    0.000    0.000    0.000 
#    0.000    0.000    0.000    0.000    0.000    0.000 
#
# Total GULP energy -347000.161326 kJ/mol
# GULP energy per Si atom -12392.862905 kJ/mol
# Density = 2.046178 g / cm^3
# Si number density = 20.508459 Si / 1000 Ang^3
#
#
#
# Elastic Constant Matrix: (Units=GPa)
#
#
# Indices 1 2 3 4 5 6 
#
# 1 83.2658 26.9087 44.0961 0.0000 4.8279 0.0000
# 2 26.9087 78.7520 51.7916 0.0000 0.8375 0.0000
# 3 44.0961 51.7916 150.6824 0.0000 21.5541 0.0000
# 4 0.0000 0.0000 0.0000 12.0862 0.0000 2.0750
# 5 4.8279 0.8375 21.5541 0.0000 24.9911 0.0000
# 6 0.0000 0.0000 0.0000 2.0750 0.0000 19.7917
#
#
#
# Elastic Compliance Matrix: (Units=1/GPa)
#
#
# Indices 1 2 3 4 5 6 
#
# 1 0.014686 -0.002816 -0.003351 0.000000 0.000147 0.000000
# 2 -0.002816 0.017495 -0.005913 0.000000 0.005057 0.000000
# 3 -0.003351 -0.005913 0.010869 0.000000 -0.008529 0.000000
# 4 0.000000 0.000000 0.000000 0.084255 0.000000 -0.008834
# 5 0.000147 0.005057 -0.008529 0.000000 0.047172 0.000000
# 6 0.000000 0.000000 0.000000 -0.008834 0.000000 0.051452
#
#
# Mechanical properties :
#
#
# Convention : Reuss Voigt Hill
#
# Bulk Modulus (GPa) = 52.93423 62.03256 57.48340
# Shear Modulus (GPa) = 19.50187 24.03407 21.76797
#
# Velocity S-wave (km/s) = 3.08704 3.42703 3.26147
# Velocity P-wave (km/s) = 6.21075 6.78029 6.50176
#
# Compressibility (1/GPa) = 0.01889137
#
# Stress axis : x y z
#
# Youngs Moduli (GPa) = 68.09325 57.15958 92.00164
#
# Poissons Ratio (x) = 0.16095 0.30829
# Poissons Ratio (y) = 0.19173 0.54397
# Poissons Ratio (z) = 0.22818 0.33796
#
# Static dielectric constant tensor:
#      x y z
#    x 3.675600 0.000000 0.231990 
#    y 0.000000 3.549770 0.000000 
#    z 0.231990 0.000000 3.965680 
# 
# 
# High freq. dielectric constant tensor:
#      x y z
#    x 1.781360 0.000000 0.011600 
#    y 0.000000 1.779720 0.000000 
#    z 0.011600 0.000000 1.813620 
# 
# From -- ./inp_files/186408.got.cif
#   From: 2010.06.25/outbox.cif.g09.slc.cpg/sg12_94_cif.got.tgz:186408.got - 2010.06.28 00:19:55.
