data_PCOD8086218
_publ_section_title
;
Structure prediction by ZEFSAII (Michael W. Deem and Ramdas Pophale) SiO2 
 PCOD8086218
Probable space group: C 2/M
;
_chemical_formula_sum "Si O2"
_cell_formula_units_Z 48
_cell_length_a 26.678974
_cell_length_b 13.442483
_cell_length_c 22.771458
_cell_angle_alpha 90.000000
_cell_angle_beta 158.971107
_cell_angle_gamma 90.000000
_cell_volume 2930.479706
_symmetry_space_group_name_H-M "C 2/M"
_symmetry_group_IT_number 12
_symmetry_cell_setting 'monoclinic'
loop_
_space_group_symop_operation_xyz
x,y,z
-x,y,-z
-x,-y,-z
x,-y,z
1/2+x,1/2+y,z
1/2-x,1/2+y,-z
1/2-x,1/2-y,-z
1/2+x,1/2-y,z
loop_
_atom_site_type_symbol
_atom_site_label
_atom_site_fract_x
_atom_site_fract_y
_atom_site_fract_z
Si Si1 0.648065 0.614503 0.684803
Si Si2 0.864576 0.613737 0.819804
Si Si3 0.295418 0.198114 0.957223
Si Si4 0.353200 0.611097 0.618201
Si Si5 0.885405 0.696461 0.719535
Si Si6 0.159796 0.888026 0.922462
O O1 0.500000 0.653200 0.500000
O O2 0.643444 0.500000 0.701806
O O3 0.738580 0.625388 0.725952
O O4 0.703353 0.683267 0.798127
O O5 0.887194 0.500000 0.824014
O O6 0.839341 0.680994 0.735726
O O7 0.000000 0.655585 0.000000
O O8 0.235606 0.129661 0.943614
O O9 0.454378 0.165261 0.117402
O O10 0.285557 0.313059 0.967207
O O11 0.348566 0.500000 0.639323
O O12 0.213980 0.628396 0.428774
O O13 0.359403 0.687206 0.679075
O O14 0.492451 0.626199 0.730553
O O15 0.193935 0.000000 0.980932
#
# Coordination Sequence:
#
# PCOD8086218 Si02
#       6
#     8   8   8   8   8   8
#     4  10  21  33  48  71  97 126 159 197 238 284
#     4  10  19  31  48  71  96 124 158 196 239 284
#     4  10  19  33  51  72  98 128 161 197 239 286
#     4   9  19  33  50  73  99 127 159 199 240 280
#     4  10  19  32  51  73  99 128 159 196 240 287
#     4   9  19  33  51  73  97 127 161 198 239 283
#
# _framework density 16.379570999999999
#
# number of rings (size 3 to 8) (size 9 to 14) (size 15 to 20)
#    0.000    2.333    1.667    1.000    2.333    2.000 
#    0.000    0.000    0.000    2.000    0.000    0.000 
#    0.000    0.000    0.000    0.000    0.000    0.000 
#
# Total GULP energy -297558.702245 kJ/mol
# GULP energy per Si atom -12398.279260 kJ/mol
# Density = 1.634229 g / cm^3
# Si number density = 16.379571 Si / 1000 Ang^3
#
#
#
# Elastic Constant Matrix: (Units=GPa)
#
#
# Indices 1 2 3 4 5 6 
#
# 1 76.3432 40.5710 48.7812 0.0005 -13.4020 -0.0001
# 2 40.5710 97.3855 47.5655 0.0006 -9.5678 -0.0022
# 3 48.7812 47.5655 128.2832 0.0007 -4.0879 -0.0011
# 4 0.0005 0.0006 0.0007 14.7950 0.0004 3.8892
# 5 -13.4020 -9.5678 -4.0879 0.0004 25.9476 -0.0005
# 6 -0.0001 -0.0022 -0.0011 3.8892 -0.0005 20.8573
#
#
#
# Elastic Compliance Matrix: (Units=1/GPa)
#
#
# Indices 1 2 3 4 5 6 
#
# 1 0.020927 -0.005090 -0.005815 0.000000 0.008016 0.000000
# 2 -0.005090 0.014185 -0.003257 -0.000001 0.002088 0.000001
# 3 -0.005815 -0.003257 0.011136 0.000000 -0.002450 0.000000
# 4 0.000000 -0.000001 0.000000 0.071074 -0.000002 -0.013253
# 5 0.008016 0.002088 -0.002450 -0.000002 0.043063 0.000002
# 6 0.000000 0.000001 0.000000 -0.013253 0.000002 0.050416
#
#
# Mechanical properties :
#
#
# Convention : Reuss Voigt Hill
#
# Bulk Modulus (GPa) = 55.79504 63.98302 59.88903
# Shear Modulus (GPa) = 20.39974 23.32625 21.86300
#
# Velocity S-wave (km/s) = 3.53291 3.77783 3.65742
# Velocity P-wave (km/s) = 7.12598 7.62737 7.38094
#
# Compressibility (1/GPa) = 0.01792274
#
# Stress axis : x y z
#
# Youngs Moduli (GPa) = 47.78628 70.49524 89.79813
#
# Poissons Ratio (x) = 0.35886 0.52215
# Poissons Ratio (y) = 0.24326 0.29251
# Poissons Ratio (z) = 0.27786 0.22963
#
# Static dielectric constant tensor:
#      x y z
#    x 3.052780 0.000000 0.163020 
#    y 0.000000 3.080460 0.000000 
#    z 0.163020 0.000000 3.167570 
# 
# 
# High freq. dielectric constant tensor:
#      x y z
#    x 1.630120 0.000000 0.015700 
#    y 0.000000 1.616940 0.000000 
#    z 0.015700 0.000000 1.634610 
# 
# From -- ./inp_files/316332.got.cif
#   From: 2010.06.25/outbox.cif.g09.slc.cpg/sg12_159_cif.got.tgz:316332.got - 2010.06.28 00:19:55.
