data_PCOD8086014
_publ_section_title
;
Structure prediction by ZEFSAII (Michael W. Deem and Ramdas Pophale) SiO2 
 PCOD8086014
Probable space group: C 2/M
;
_chemical_formula_sum "Si O2"
_cell_formula_units_Z 56
_cell_length_a 32.088082
_cell_length_b 8.944096
_cell_length_c 15.816157
_cell_angle_alpha 90.000000
_cell_angle_beta 50.193205
_cell_angle_gamma 90.000000
_cell_volume 3487.062890
_symmetry_space_group_name_H-M "C 2/M"
_symmetry_group_IT_number 12
_symmetry_cell_setting 'monoclinic'
loop_
_space_group_symop_operation_xyz
x,y,z
-x,y,-z
-x,-y,-z
x,-y,z
1/2+x,1/2+y,z
1/2-x,1/2+y,-z
1/2-x,1/2-y,-z
1/2+x,1/2-y,z
loop_
_atom_site_type_symbol
_atom_site_label
_atom_site_fract_x
_atom_site_fract_y
_atom_site_fract_z
Si Si1 0.504528 0.675120 0.800985
Si Si2 0.309145 0.326301 0.834618
Si Si3 0.801569 0.174314 0.039107
Si Si4 0.602231 0.822989 0.990431
Si Si5 0.556484 0.164410 0.878759
Si Si6 0.984785 0.671714 0.384345
Si Si7 0.587013 0.828265 0.363751
O O1 0.495641 0.500000 0.817868
O O2 0.551215 0.721945 0.807467
O O3 0.525273 0.721095 0.681762
O O4 0.447253 0.753104 0.893011
O O5 0.296837 0.500000 0.836155
O O6 0.258871 0.232001 0.864411
O O7 0.362136 0.279554 0.714280
O O8 0.318681 0.290541 0.920804
O O9 0.841331 0.261926 0.049211
O O10 0.804597 0.000000 0.055936
O O11 0.599355 0.780194 0.894131
O O12 0.598798 0.000000 0.007270
O O13 0.572622 0.000000 0.822845
O O14 0.500000 0.152417 0.000000
O O15 0.986442 0.500000 0.352154
O O16 0.041185 0.715155 0.355547
O O17 0.935454 0.697188 0.512988
O O18 0.604698 0.000000 0.327828
#
# Coordination Sequence:
#
# PCOD8086014 Si02
#       7
#     8   8   8   8   8   8   8
#     4  11  20  28  43  68  95 122 152 186 224 266
#     4  10  20  32  46  66  93 123 152 186 226 265
#     4  10  20  32  47  68  92 120 154 187 222 266
#     4  10  19  31  47  66  91 122 153 186 226 270
#     4   8  16  30  45  62  87 120 152 182 222 269
#     4   9  18  32  48  66  90 121 155 187 224 269
#     4   9  18  32  49  67  88 119 156 191 225 263
#
# _framework density 16.059359000000001
#
# number of rings (size 3 to 8) (size 9 to 14) (size 15 to 20)
#    0.000    2.429    0.000    5.143    0.000    8.286 
#    0.000    1.429    0.000    0.000    0.000    1.000 
#    0.000    0.000    0.000    0.000    0.000    0.000 
#
# Total GULP energy -347203.201528 kJ/mol
# GULP energy per Si atom -12400.114340 kJ/mol
# Density = 1.602281 g / cm^3
# Si number density = 16.059359 Si / 1000 Ang^3
#
#
#
# Elastic Constant Matrix: (Units=GPa)
#
#
# Indices 1 2 3 4 5 6 
#
# 1 109.3783 53.4271 41.5147 0.0000 9.3071 0.0000
# 2 53.4271 90.4164 37.2186 0.0000 7.3675 -0.0001
# 3 41.5147 37.2186 68.6724 0.0000 1.4020 0.0000
# 4 0.0000 0.0000 0.0000 24.2834 0.0000 -3.0820
# 5 9.3071 7.3675 1.4020 0.0000 23.3060 0.0000
# 6 0.0000 -0.0001 0.0000 -3.0820 0.0000 26.4073
#
#
#
# Elastic Compliance Matrix: (Units=1/GPa)
#
#
# Indices 1 2 3 4 5 6 
#
# 1 0.014429 -0.006020 -0.005388 0.000000 -0.003535 0.000000
# 2 -0.006020 0.017138 -0.005594 0.000000 -0.002677 0.000000
# 3 -0.005388 -0.005594 0.020797 0.000000 0.002669 0.000000
# 4 0.000000 0.000000 0.000000 0.041800 0.000000 0.004878
# 5 -0.003535 -0.002677 0.002669 0.000000 0.045005 0.000000
# 6 0.000000 0.000000 0.000000 0.004878 0.000000 0.038438
#
#
# Mechanical properties :
#
#
# Convention : Reuss Voigt Hill
#
# Bulk Modulus (GPa) = 54.46958 59.19868 56.83413
# Shear Modulus (GPa) = 22.96419 23.88645 23.42532
#
# Velocity S-wave (km/s) = 3.78558 3.86085 3.82340
# Velocity P-wave (km/s) = 7.28689 7.53772 7.41337
#
# Compressibility (1/GPa) = 0.01835887
#
# Stress axis : x y z
#
# Youngs Moduli (GPa) = 69.30498 58.34886 48.08490
#
# Poissons Ratio (x) = 0.35127 0.25907
# Poissons Ratio (y) = 0.41723 0.26901
# Poissons Ratio (z) = 0.37340 0.32643
#
# Static dielectric constant tensor:
#      x y z
#    x 3.199100 0.000000 0.157190 
#    y 0.000000 3.049230 0.000000 
#    z 0.157190 0.000000 2.800620 
# 
# 
# High freq. dielectric constant tensor:
#      x y z
#    x 1.612100 0.000000 0.010360 
#    y 0.000000 1.625230 0.000000 
#    z 0.010360 0.000000 1.587350 
# 
# From -- ./inp_files/237820.got.cif
#   From: 2010.06.25/outbox.cif.g09.slc.cpg/sg12_119_cif.got.tgz:237820.got - 2010.06.28 00:19:55.
