data_PCOD8086529
_publ_section_title
;
Structure prediction by ZEFSAII (Michael W. Deem and Ramdas Pophale) SiO2 
 PCOD8086529
Probable space group: C 2/M
;
_chemical_formula_sum "Si O2"
_cell_formula_units_Z 56
_cell_length_a 25.425075
_cell_length_b 9.109191
_cell_length_c 13.876458
_cell_angle_alpha 90.000000
_cell_angle_beta 125.144688
_cell_angle_gamma 90.000000
_cell_volume 2627.938522
_symmetry_space_group_name_H-M "C 2/M"
_symmetry_group_IT_number 12
_symmetry_cell_setting 'monoclinic'
loop_
_space_group_symop_operation_xyz
x,y,z
-x,y,-z
-x,-y,-z
x,-y,z
1/2+x,1/2+y,z
1/2-x,1/2+y,-z
1/2-x,1/2-y,-z
1/2+x,1/2-y,z
loop_
_atom_site_type_symbol
_atom_site_label
_atom_site_fract_x
_atom_site_fract_y
_atom_site_fract_z
Si Si1 0.151361 0.327634 0.214005
Si Si2 0.392700 0.161310 0.301860
Si Si3 0.297778 0.330835 0.343594
Si Si4 0.093794 0.826868 0.988434
Si Si5 0.867802 0.831940 0.610311
Si Si6 0.309686 0.838016 0.027943
Si Si7 0.012644 0.830086 0.721055
O O1 0.139468 0.500000 0.196296
O O2 0.223069 0.286765 0.250485
O O3 0.146378 0.277709 0.318545
O O4 0.092643 0.248585 0.093066
O O5 0.345078 0.239709 0.325476
O O6 0.358267 0.140050 0.164903
O O7 0.456989 0.251283 0.341125
O O8 0.411145 0.000000 0.362541
O O9 0.309456 0.500000 0.329858
O O10 0.315203 0.300775 0.473106
O O11 0.161623 0.765735 0.023310
O O12 0.038627 0.777348 0.854399
O O13 0.094359 0.000000 0.003923
O O14 0.937320 0.798704 0.637320
O O15 0.864858 0.000000 0.644273
O O16 0.291497 0.000000 0.966489
O O17 0.250000 0.750000 0.000000
O O18 0.030756 0.000000 0.729207
#
# Coordination Sequence:
#
# PCOD8086529 Si02
#       7
#     8   8   8   8   8   8   8
#     4  11  23  38  58  86 116 148 185 231 285 337
#     4  10  21  35  55  83 115 148 183 228 281 333
#     4  10  22  39  59  83 113 149 189 231 280 334
#     4  10  20  35  56  81 110 146 185 229 277 331
#     4  10  22  41  62  82 108 148 194 238 277 325
#     4  10  19  31  49  77 111 147 185 227 277 332
#     4   9  20  39  61  84 112 148 190 230 276 332
#
# _framework density 21.309480000000001
#
# number of rings (size 3 to 8) (size 9 to 14) (size 15 to 20)
#    0.000    2.000    0.000    3.000    0.000    8.000 
#    0.000    5.714    0.000    0.000    0.000    0.000 
#    0.000    0.000    0.000    0.000    0.000    0.000 
#
# Total GULP energy -347037.608143 kJ/mol
# GULP energy per Si atom -12394.200291 kJ/mol
# Density = 2.126098 g / cm^3
# Si number density = 21.309480 Si / 1000 Ang^3
#
#
#
# Elastic Constant Matrix: (Units=GPa)
#
#
# Indices 1 2 3 4 5 6 
#
# 1 50.5997 22.9556 -9.7208 0.0000 -8.4147 0.0000
# 2 22.9556 89.7891 13.5382 0.0000 -7.6695 0.0000
# 3 -9.7208 13.5382 40.0296 0.0000 -3.6592 0.0000
# 4 0.0000 0.0000 0.0000 27.5918 0.0000 -8.8624
# 5 -8.4147 -7.6695 -3.6592 0.0000 30.9795 0.0000
# 6 0.0000 0.0000 0.0000 -8.8624 0.0000 36.7636
#
#
#
# Elastic Compliance Matrix: (Units=1/GPa)
#
#
# Indices 1 2 3 4 5 6 
#
# 1 0.026056 -0.007547 0.009458 0.000000 0.006326 0.000000
# 2 -0.007547 0.014111 -0.006544 0.000000 0.000670 0.000000
# 3 0.009458 -0.006544 0.029901 0.000000 0.004481 0.000000
# 4 0.000000 0.000000 0.000000 0.039284 0.000000 0.009470
# 5 0.006326 0.000670 0.004481 0.000000 0.034693 0.000000
# 6 0.000000 0.000000 0.000000 0.009470 0.000000 0.029484
#
#
# Mechanical properties :
#
#
# Convention : Reuss Voigt Hill
#
# Bulk Modulus (GPa) = 16.44678 25.99604 21.22141
# Shear Modulus (GPa) = 24.62303 29.30999 26.96651
#
# Velocity S-wave (km/s) = 3.40295 3.71272 3.56120
# Velocity P-wave (km/s) = 4.81403 5.53216 5.18554
#
# Compressibility (1/GPa) = 0.06080219
#
# Stress axis : x y z
#
# Youngs Moduli (GPa) = 38.37887 70.86829 33.44354
#
# Poissons Ratio (x) = 0.53486 -0.31632
# Poissons Ratio (y) = 0.28966 0.21885
# Poissons Ratio (z) = -0.36300 0.46375
#
# Static dielectric constant tensor:
#      x y z
#    x 3.648130 0.000000 -0.037820 
#    y 0.000000 4.006340 0.000000 
#    z -0.037820 0.000000 3.796900 
# 
# 
# High freq. dielectric constant tensor:
#      x y z
#    x 1.827540 0.000000 -0.003680 
#    y 0.000000 1.835890 0.000000 
#    z -0.003680 0.000000 1.842690 
# 
# From -- ./inp_files/238928.got.cif
#   From: 2010.06.25/outbox.cif.g09.slc.cpg/sg12_120_cif.got.tgz:238928.got - 2010.06.28 00:19:55.
