data_PCOD8086481
_publ_section_title
;
Structure prediction by ZEFSAII (Michael W. Deem and Ramdas Pophale) SiO2 
 PCOD8086481
Probable space group: C 2/M
;
_chemical_formula_sum "Si O2"
_cell_formula_units_Z 48
_cell_length_a 23.015247
_cell_length_b 8.719891
_cell_length_c 16.021705
_cell_angle_alpha 90.000000
_cell_angle_beta 122.325046
_cell_angle_gamma 90.000000
_cell_volume 2717.106199
_symmetry_space_group_name_H-M "C 2/M"
_symmetry_group_IT_number 12
_symmetry_cell_setting 'monoclinic'
loop_
_space_group_symop_operation_xyz
x,y,z
-x,y,-z
-x,-y,-z
x,-y,z
1/2+x,1/2+y,z
1/2-x,1/2+y,-z
1/2-x,1/2-y,-z
1/2+x,1/2-y,z
loop_
_atom_site_type_symbol
_atom_site_label
_atom_site_fract_x
_atom_site_fract_y
_atom_site_fract_z
Si Si1 0.375946 0.821374 0.277418
Si Si2 0.973222 0.681601 0.848637
Si Si3 0.577546 0.331351 0.529041
Si Si4 0.895570 0.318578 0.949920
Si Si5 0.486235 0.319470 0.684763
Si Si6 0.747056 0.181489 0.089053
O O1 0.381086 0.786337 0.380602
O O2 0.443739 0.771371 0.279824
O O3 0.312050 0.729333 0.192683
O O4 0.363868 0.000000 0.254158
O O5 0.970778 0.500000 0.831011
O O6 0.916397 0.735182 0.872792
O O7 0.956375 0.770393 0.750788
O O8 0.047992 0.735485 0.939080
O O9 0.500000 0.343166 0.500000
O O10 0.612243 0.500000 0.562453
O O11 0.572892 0.276418 0.428925
O O12 0.895731 0.500000 0.950304
O O13 0.821224 0.252903 0.917751
O O14 0.502360 0.500000 0.693347
O O15 0.743893 0.000000 0.079205
O O16 0.750000 0.250000 0.000000
#
# Coordination Sequence:
#
# PCOD8086481 Si02
#       6
#     8   8   8   8   8   8
#     4  11  21  32  48  72 100 131 166 203 242 284
#     4   9  16  31  53  74  96 124 162 202 238 285
#     4   8  16  31  48  68  97 128 157 196 248 297
#     4   8  17  32  50  71  97 130 162 195 239 288
#     4  10  19  31  49  75 102 127 158 199 249 296
#     4  11  21  34  51  73 102 134 165 196 238 291
#
# _framework density 17.665854
#
# number of rings (size 3 to 8) (size 9 to 14) (size 15 to 20)
#    0.000    2.500    0.000    5.500    0.000    5.000 
#    0.000    4.167    0.000    1.000    0.000    0.000 
#    0.000    0.000    0.000    0.000    0.000    0.000 
#
# Total GULP energy -297511.730382 kJ/mol
# GULP energy per Si atom -12396.322099 kJ/mol
# Density = 1.762565 g / cm^3
# Si number density = 17.665854 Si / 1000 Ang^3
#
#
#
# Elastic Constant Matrix: (Units=GPa)
#
#
# Indices 1 2 3 4 5 6 
#
# 1 98.6608 24.4062 58.8214 0.0000 -12.7062 0.0000
# 2 24.4062 53.8230 26.3339 0.0000 -5.6309 0.0000
# 3 58.8214 26.3339 119.4455 0.0000 -23.1505 0.0000
# 4 0.0000 0.0000 0.0000 24.5824 0.0000 -6.2809
# 5 -12.7062 -5.6309 -23.1505 0.0000 32.6544 0.0000
# 6 0.0000 0.0000 0.0000 -6.2809 0.0000 20.8564
#
#
#
# Elastic Compliance Matrix: (Units=1/GPa)
#
#
# Indices 1 2 3 4 5 6 
#
# 1 0.014943 -0.003553 -0.006454 0.000000 0.000626 0.000000
# 2 -0.003553 0.021675 -0.002982 0.000000 0.000241 0.000000
# 3 -0.006454 -0.002982 0.013473 0.000000 0.006526 0.000000
# 4 0.000000 0.000000 0.000000 0.044071 0.000000 0.013272
# 5 0.000626 0.000241 0.006526 0.000000 0.035536 0.000000
# 6 0.000000 0.000000 0.000000 0.013272 0.000000 0.051944
#
#
# Mechanical properties :
#
#
# Convention : Reuss Voigt Hill
#
# Bulk Modulus (GPa) = 41.47281 54.56135 48.01708
# Shear Modulus (GPa) = 23.18503 26.44317 24.81410
#
# Velocity S-wave (km/s) = 3.62666 3.87311 3.75191
# Velocity P-wave (km/s) = 6.40813 7.13818 6.78298
#
# Compressibility (1/GPa) = 0.02411218
#
# Stress axis : x y z
#
# Youngs Moduli (GPa) = 66.92001 46.13664 74.22374
#
# Poissons Ratio (x) = 0.16391 0.47906
# Poissons Ratio (y) = 0.23775 0.22136
# Poissons Ratio (z) = 0.43192 0.13760
#
# Static dielectric constant tensor:
#      x y z
#    x 3.381140 0.000000 -0.190940 
#    y 0.000000 3.118680 0.000000 
#    z -0.190940 0.000000 3.741510 
# 
# 
# High freq. dielectric constant tensor:
#      x y z
#    x 1.658960 0.000000 -0.019560 
#    y 0.000000 1.672420 0.000000 
#    z -0.019560 0.000000 1.688700 
# 
# From -- ./inp_files/287953.got.cif
#   From: 2010.06.25/outbox.cif.g09.slc.cpg/sg12_144_cif.got.tgz:287953.got - 2010.06.28 00:19:55.
