data_PCOD8086577
_publ_section_title
;
Structure prediction by ZEFSAII (Michael W. Deem and Ramdas Pophale) SiO2 
 PCOD8086577
Probable space group: C 2/M
;
_chemical_formula_sum "Si O2"
_cell_formula_units_Z 56
_cell_length_a 18.208918
_cell_length_b 28.259059
_cell_length_c 8.869386
_cell_angle_alpha 90.000000
_cell_angle_beta 138.702195
_cell_angle_gamma 90.000000
_cell_volume 3012.045210
_symmetry_space_group_name_H-M "C 2/M"
_symmetry_group_IT_number 12
_symmetry_cell_setting 'monoclinic'
loop_
_space_group_symop_operation_xyz
x,y,z
-x,y,-z
-x,-y,-z
x,-y,z
1/2+x,1/2+y,z
1/2-x,1/2+y,-z
1/2-x,1/2-y,-z
1/2+x,1/2-y,z
loop_
_atom_site_type_symbol
_atom_site_label
_atom_site_fract_x
_atom_site_fract_y
_atom_site_fract_z
Si Si1 0.186849 0.189855 0.443324
Si Si2 0.111739 0.621200 0.257982
Si Si3 0.536413 0.903020 0.715997
Si Si4 0.780600 0.554471 0.807517
Si Si5 0.882813 0.133719 0.399995
Si Si6 0.222551 0.233878 0.207335
Si Si7 0.185724 0.313014 0.934575
O O1 0.309206 0.166533 0.616643
O O2 0.106042 0.153568 0.409864
O O3 0.147392 0.202404 0.209839
O O4 0.194394 0.237293 0.555081
O O5 0.172354 0.577403 0.271624
O O6 0.078395 0.601376 0.369369
O O7 0.000000 0.637044 0.000000
O O8 0.500000 0.923109 0.500000
O O9 0.588405 0.850728 0.790193
O O10 0.624970 0.939975 0.919098
O O11 0.752394 0.500000 0.737323
O O12 0.666297 0.580667 0.677214
O O13 0.000000 0.133242 0.500000
O O14 0.800303 0.167493 0.180316
O O15 0.296475 0.200833 0.212193
O O16 0.150198 0.268136 0.985490
#
# Coordination Sequence:
#
# PCOD8086577 Si02
#       7
#     8   8   8   8   8   8   8
#     4   9  17  30  46  67  95 128 166 201 235 275
#     4   9  17  30  48  69  97 127 153 188 239 293
#     4  10  19  31  50  73  99 129 154 185 238 294
#     4   9  19  34  52  74  96 119 152 195 240 292
#     4   9  18  34  51  67  93 126 161 200 240 279
#     4   9  16  30  47  65  97 130 161 205 234 265
#     4   9  18  32  46  68 101 129 160 199 235 272
#
# _framework density 18.592016999999998
#
# number of rings (size 3 to 8) (size 9 to 14) (size 15 to 20)
#    0.000    2.857    0.000    3.429    0.000    3.143 
#    0.000   25.714    0.000    0.000    0.000    0.000 
#    0.000    9.143    0.000    0.000    0.000    0.000 
#
# Total GULP energy -346979.263029 kJ/mol
# GULP energy per Si atom -12392.116537 kJ/mol
# Density = 1.854970 g / cm^3
# Si number density = 18.592017 Si / 1000 Ang^3
#
#
#
# Elastic Constant Matrix: (Units=GPa)
#
#
# Indices 1 2 3 4 5 6 
#
# 1 142.1010 42.5078 49.9782 0.0000 -12.2961 0.0000
# 2 42.5078 100.0814 23.9341 0.0000 -3.4963 0.0000
# 3 49.9782 23.9341 42.3175 0.0000 -11.4125 0.0000
# 4 0.0000 0.0000 0.0000 4.6918 0.0000 -1.3795
# 5 -12.2961 -3.4963 -11.4125 0.0000 37.6261 0.0000
# 6 0.0000 0.0000 0.0000 -1.3795 0.0000 18.4500
#
#
#
# Elastic Compliance Matrix: (Units=1/GPa)
#
#
# Indices 1 2 3 4 5 6 
#
# 1 0.012389 -0.002030 -0.013551 0.000000 -0.000250 0.000000
# 2 -0.002030 0.011921 -0.004602 0.000000 -0.000951 0.000000
# 3 -0.013551 -0.004602 0.044574 0.000000 0.008664 0.000000
# 4 0.000000 0.000000 0.000000 0.217928 0.000000 0.016294
# 5 -0.000250 -0.000951 0.008664 0.000000 0.029035 0.000000
# 6 0.000000 0.000000 0.000000 0.016294 0.000000 0.055419
#
#
# Mechanical properties :
#
#
# Convention : Reuss Voigt Hill
#
# Bulk Modulus (GPa) = 35.06409 57.48222 46.27315
# Shear Modulus (GPa) = 11.87263 23.35892 17.61578
#
# Velocity S-wave (km/s) = 2.52977 3.54841 3.08147
# Velocity P-wave (km/s) = 5.23772 6.91181 6.13216
#
# Compressibility (1/GPa) = 0.02851921
#
# Stress axis : x y z
#
# Youngs Moduli (GPa) = 80.71794 83.88353 22.43464
#
# Poissons Ratio (x) = 0.17029 0.30401
# Poissons Ratio (y) = 0.16386 0.10323
# Poissons Ratio (z) = 1.09380 0.38599
#
# Static dielectric constant tensor:
#      x y z
#    x 3.756350 0.000000 -0.336510 
#    y 0.000000 3.265640 0.000000 
#    z -0.336510 0.000000 3.182840 
# 
# 
# High freq. dielectric constant tensor:
#      x y z
#    x 1.734100 0.000000 -0.023630 
#    y 0.000000 1.706720 0.000000 
#    z -0.023630 0.000000 1.683950 
# 
# From -- ./inp_files/80475.got.cif
#   From: 2010.06.25/outbox.cif.g09.slc.cpg/sg12_41_cif.got.tgz:80475.got - 2010.06.28 00:19:55.
