data_PCOD8086699
_publ_section_title
;
Structure prediction by ZEFSAII (Michael W. Deem and Ramdas Pophale) SiO2 
 PCOD8086699
Probable space group: C 2/M
;
_chemical_formula_sum "Si O2"
_cell_formula_units_Z 64
_cell_length_a 32.094109
_cell_length_b 8.800469
_cell_length_c 14.911657
_cell_angle_alpha 90.000000
_cell_angle_beta 130.930100
_cell_angle_gamma 90.000000
_cell_volume 3181.976139
_symmetry_space_group_name_H-M "C 2/M"
_symmetry_group_IT_number 12
_symmetry_cell_setting 'monoclinic'
loop_
_space_group_symop_operation_xyz
x,y,z
-x,y,-z
-x,-y,-z
x,-y,z
1/2+x,1/2+y,z
1/2-x,1/2+y,-z
1/2-x,1/2-y,-z
1/2+x,1/2-y,z
loop_
_atom_site_type_symbol
_atom_site_label
_atom_site_fract_x
_atom_site_fract_y
_atom_site_fract_z
Si Si1 0.565718 0.179883 0.800555
Si Si2 0.859594 0.180429 0.945135
Si Si3 0.701947 0.834648 0.385030
Si Si4 0.133771 0.320533 0.552032
Si Si5 0.063082 0.178029 0.607667
Si Si6 0.598076 0.323403 0.189002
Si Si7 0.049634 0.321571 0.280444
Si Si8 0.748094 0.832971 0.257646
O O1 0.579988 0.266390 0.729617
O O2 0.506063 0.235677 0.750582
O O3 0.567268 0.000000 0.787014
O O4 0.612013 0.227870 0.935958
O O5 0.892197 0.229968 0.899684
O O6 0.794768 0.227095 0.857659
O O7 0.863475 0.000000 0.963875
O O8 0.750000 0.750000 0.500000
O O9 0.650483 0.723686 0.322316
O O10 0.717058 0.863762 0.305195
O O11 0.689229 0.000000 0.412312
O O12 0.140542 0.500000 0.564574
O O13 0.099876 0.268810 0.589986
O O14 0.101329 0.269547 0.415819
O O15 0.194125 0.247765 0.641885
O O16 0.000000 0.219711 0.500000
O O17 0.074780 0.000000 0.614491
O O18 0.587507 0.500000 0.177100
O O19 0.549128 0.245971 0.177710
O O20 0.048605 0.500000 0.267921
O O21 0.757364 0.000000 0.224917
#
# Coordination Sequence:
#
# PCOD8086699 Si02
#       8
#     8   8   8   8   8   8   8   8
#     4  11  23  41  64  89 118 157 199 245 298 354
#     4  10  22  41  61  85 118 160 205 247 294 350
#     4  10  19  31  50  76 110 151 196 243 293 348
#     4  11  22  38  61  90 124 158 194 244 299 355
#     4  11  23  40  64  93 122 154 192 240 296 355
#     4  10  21  35  54  80 115 157 200 246 293 344
#     4  10  22  37  57  87 122 158 199 245 297 353
#     4  10  21  37  57  84 116 155 199 244 294 351
#
# _framework density 20.113285999999999
#
# number of rings (size 3 to 8) (size 9 to 14) (size 15 to 20)
#    0.000    1.625    1.250    3.375    0.000    8.000 
#    0.000    3.125    0.000    0.000    0.000    0.000 
#    0.000    0.000    0.000    0.000    0.000    0.000 
#
# Total GULP energy -396640.181473 kJ/mol
# GULP energy per Si atom -12395.005671 kJ/mol
# Density = 2.006751 g / cm^3
# Si number density = 20.113286 Si / 1000 Ang^3
#
#
#
# Elastic Constant Matrix: (Units=GPa)
#
#
# Indices 1 2 3 4 5 6 
#
# 1 62.3783 21.5451 11.8495 0.0000 1.7104 0.0000
# 2 21.5451 53.4960 17.3537 0.0000 3.6756 0.0000
# 3 11.8495 17.3537 82.5170 0.0000 3.2706 0.0000
# 4 0.0000 0.0000 0.0000 19.2578 0.0000 1.9258
# 5 1.7104 3.6756 3.2706 0.0000 30.6248 0.0000
# 6 0.0000 0.0000 0.0000 1.9258 0.0000 33.6659
#
#
#
# Elastic Compliance Matrix: (Units=1/GPa)
#
#
# Indices 1 2 3 4 5 6 
#
# 1 0.018729 -0.007155 -0.001182 0.000000 -0.000061 0.000000
# 2 -0.007155 0.022914 -0.003714 0.000000 -0.001954 0.000000
# 3 -0.001182 -0.003714 0.013105 0.000000 -0.000888 0.000000
# 4 0.000000 0.000000 0.000000 0.052226 0.000000 -0.002988
# 5 -0.000061 -0.001954 -0.000888 0.000000 0.032986 0.000000
# 6 0.000000 0.000000 0.000000 -0.002988 0.000000 0.029875
#
#
# Mechanical properties :
#
#
# Convention : Reuss Voigt Hill
#
# Bulk Modulus (GPa) = 32.63230 33.32089 32.97659
# Shear Modulus (GPa) = 24.49167 26.55258 25.52212
#
# Velocity S-wave (km/s) = 3.49332 3.63733 3.56605
# Velocity P-wave (km/s) = 5.70355 5.85173 5.77812
#
# Compressibility (1/GPa) = 0.03064448
#
# Stress axis : x y z
#
# Youngs Moduli (GPa) = 53.39367 43.64202 76.30832
#
# Poissons Ratio (x) = 0.31227 0.09022
# Poissons Ratio (y) = 0.38204 0.28340
# Poissons Ratio (z) = 0.06313 0.16208
#
# Static dielectric constant tensor:
#      x y z
#    x 3.865810 0.000000 0.082280 
#    y 0.000000 3.763510 0.000000 
#    z 0.082280 0.000000 3.451980 
# 
# 
# High freq. dielectric constant tensor:
#      x y z
#    x 1.784060 0.000000 0.003230 
#    y 0.000000 1.795640 0.000000 
#    z 0.003230 0.000000 1.778840 
# 
# From -- ./inp_files/249919.got.cif
#   From: 2010.06.25/outbox.cif.g09.slc.cpg/sg12_125_cif.got.tgz:249919.got - 2010.06.28 00:19:55.
