data_PCOD8086545
_publ_section_title
;
Structure prediction by ZEFSAII (Michael W. Deem and Ramdas Pophale) SiO2 
 PCOD8086545
Probable space group: C 2/M
;
_chemical_formula_sum "Si O2"
_cell_formula_units_Z 64
_cell_length_a 18.292946
_cell_length_b 19.494987
_cell_length_c 17.868440
_cell_angle_alpha 90.000000
_cell_angle_beta 31.980272
_cell_angle_gamma 90.000000
_cell_volume 3374.920519
_symmetry_space_group_name_H-M "C 2/M"
_symmetry_group_IT_number 12
_symmetry_cell_setting 'monoclinic'
loop_
_space_group_symop_operation_xyz
x,y,z
-x,y,-z
-x,-y,-z
x,-y,z
1/2+x,1/2+y,z
1/2-x,1/2+y,-z
1/2-x,1/2-y,-z
1/2+x,1/2-y,z
loop_
_atom_site_type_symbol
_atom_site_label
_atom_site_fract_x
_atom_site_fract_y
_atom_site_fract_z
Si Si1 0.705047 0.425247 0.433988
Si Si2 0.528608 0.299213 0.570380
Si Si3 0.178510 0.920227 0.628494
Si Si4 0.857695 0.663005 0.583940
Si Si5 0.764078 0.265553 0.214994
Si Si6 0.440757 0.113146 0.126431
Si Si7 0.443114 0.683844 0.813335
Si Si8 0.849747 0.303064 0.981312
O O1 0.631753 0.500000 0.494478
O O2 0.610888 0.367999 0.477807
O O3 0.737139 0.407890 0.493368
O O4 0.841498 0.432167 0.263913
O O5 0.618532 0.230243 0.487938
O O6 0.392734 0.295278 0.635065
O O7 0.483725 0.305021 0.693872
O O8 0.295195 0.896489 0.586205
O O9 0.035925 0.877858 0.766090
O O10 0.146231 0.000000 0.671073
O O11 0.742605 0.688135 0.745235
O O12 0.000000 0.637058 0.500000
O O13 0.872767 0.314030 0.162077
O O14 0.795137 0.260319 0.100459
O O15 0.574050 0.127908 0.061082
O O16 0.500000 0.075224 0.000000
O O17 0.462082 0.754688 0.842265
O O18 0.276804 0.671150 0.961163
#
# Coordination Sequence:
#
# PCOD8086545 Si02
#       8
#     8   8   8   8   8   8   8   8
#     4  10  21  35  51  75 110 143 178 221 262 314
#     4   9  18  31  53  79 107 133 184 219 269 312
#     4  10  22  37  54  79 107 140 180 220 270 318
#     4  10  19  32  56  82 104 136 168 225 274 316
#     4   9  17  32  50  79 111 136 168 222 264 315
#     4  10  19  31  50  72 108 144 174 212 257 316
#     4   9  18  32  53  79 103 136 176 227 264 312
#     4   9  18  31  51  81 105 133 176 221 267 308
#
# _framework density 18.96341
#
# number of rings (size 3 to 8) (size 9 to 14) (size 15 to 20)
#    0.000    2.500    1.250    0.750    1.750    1.500 
#    0.000    1.875    0.000    6.000    0.000    0.000 
#    0.000    0.000    0.000    0.000    0.000    0.000 
#
# Total GULP energy -396503.202955 kJ/mol
# GULP energy per Si atom -12390.725092 kJ/mol
# Density = 1.892025 g / cm^3
# Si number density = 18.963410 Si / 1000 Ang^3
#
#
#
# Elastic Constant Matrix: (Units=GPa)
#
#
# Indices 1 2 3 4 5 6 
#
# 1 79.3040 40.3685 11.4343 -0.0030 -16.5236 0.0005
# 2 40.3685 88.1778 28.4832 -0.0017 -9.5533 0.0008
# 3 11.4343 28.4832 73.0225 -0.0157 -7.4638 0.0093
# 4 -0.0030 -0.0017 -0.0157 19.2717 0.0029 1.5736
# 5 -16.5236 -9.5533 -7.4638 0.0029 14.8318 -0.0008
# 6 0.0005 0.0008 0.0093 1.5736 -0.0008 21.3586
#
#
#
# Elastic Compliance Matrix: (Units=1/GPa)
#
#
# Indices 1 2 3 4 5 6 
#
# 1 0.020143 -0.007808 0.001762 0.000001 0.018298 0.000000
# 2 -0.007808 0.016553 -0.005306 -0.000004 -0.000707 0.000002
# 3 0.001762 -0.005306 0.016171 0.000013 0.006683 -0.000008
# 4 0.000001 -0.000004 0.000013 0.052204 -0.000005 -0.003846
# 5 0.018298 -0.000707 0.006683 -0.000005 0.090715 0.000001
# 6 0.000000 0.000002 -0.000008 -0.003846 0.000001 0.047103
#
#
# Mechanical properties :
#
#
# Convention : Reuss Voigt Hill
#
# Bulk Modulus (GPa) = 33.15465 44.56403 38.85934
# Shear Modulus (GPa) = 18.13908 21.77362 19.95635
#
# Velocity S-wave (km/s) = 3.09614 3.39217 3.24753
# Velocity P-wave (km/s) = 5.50480 6.23646 5.88202
#
# Compressibility (1/GPa) = 0.03016169
#
# Stress axis : x y z
#
# Youngs Moduli (GPa) = 49.64545 60.41278 61.83769
#
# Poissons Ratio (x) = 0.47172 -0.10895
# Poissons Ratio (y) = 0.38764 0.32813
# Poissons Ratio (z) = -0.08747 0.32056
#
# Static dielectric constant tensor:
#      x y z
#    x 3.615380 0.000000 0.017970 
#    y 0.000000 3.152240 0.000010 
#    z 0.017970 0.000010 3.788180 
# 
# 
# High freq. dielectric constant tensor:
#      x y z
#    x 1.742980 0.000000 0.007300 
#    y 0.000000 1.698350 0.000000 
#    z 0.007300 0.000000 1.743500 
# 
# From -- ./inp_files/279105.got.cif
#   From: 2010.06.25/outbox.cif.g09.slc.cpg/sg12_140_cif.got.tgz:279105.got - 2010.06.28 00:19:55.
