data_PCOD8086896
_publ_section_title
;
Structure prediction by ZEFSAII (Michael W. Deem and Ramdas Pophale) SiO2 
 PCOD8086896
Probable space group: C 2/M
;
_chemical_formula_sum "Si O2"
_cell_formula_units_Z 64
_cell_length_a 23.259376
_cell_length_b 13.302033
_cell_length_c 22.210854
_cell_angle_alpha 90.000000
_cell_angle_beta 149.804107
_cell_angle_gamma 90.000000
_cell_volume 3456.312901
_symmetry_space_group_name_H-M "C 2/M"
_symmetry_group_IT_number 12
_symmetry_cell_setting 'monoclinic'
loop_
_space_group_symop_operation_xyz
x,y,z
-x,y,-z
-x,-y,-z
x,-y,z
1/2+x,1/2+y,z
1/2-x,1/2+y,-z
1/2-x,1/2-y,-z
1/2+x,1/2-y,z
loop_
_atom_site_type_symbol
_atom_site_label
_atom_site_fract_x
_atom_site_fract_y
_atom_site_fract_z
Si Si1 0.465771 0.775863 0.218894
Si Si2 0.365047 0.235513 0.999178
Si Si3 0.558794 0.380349 0.391202
Si Si4 0.561234 0.742017 0.615495
Si Si5 0.934263 0.387444 0.864724
Si Si6 0.174164 0.617590 0.807613
Si Si7 0.819793 0.386778 0.638814
Si Si8 0.737085 0.111867 0.187049
O O1 0.488112 0.669460 0.272108
O O2 0.393606 0.852599 0.193679
O O3 0.589028 0.819310 0.313632
O O4 0.384753 0.761644 0.087895
O O5 0.304778 0.339818 0.925439
O O6 0.277136 0.149231 0.895305
O O7 0.482250 0.207290 0.070908
O O8 0.537299 0.500000 0.371927
O O9 0.517210 0.331247 0.415603
O O10 0.692434 0.353296 0.505685
O O11 0.500000 0.778691 0.500000
O O12 0.599430 0.842455 0.684359
O O13 0.672161 0.679412 0.695808
O O14 0.992463 0.500000 0.910437
O O15 0.834459 0.379053 0.724374
O O16 0.882643 0.379326 0.885093
O O17 0.185440 0.500000 0.812078
O O18 0.841034 0.500000 0.636028
O O19 0.784822 0.000000 0.228610
#
# Coordination Sequence:
#
# PCOD8086896 Si02
#       8
#     8   8   8   8   8   8   8   8
#     4  10  20  35  52  74 102 138 177 213 251 295
#     4  10  20  33  50  74 102 133 172 215 256 295
#     4  10  20  33  51  79 110 136 165 205 255 306
#     4  10  21  36  55  79 106 133 163 204 255 308
#     4   9  17  30  51  79 107 134 165 204 254 309
#     4  10  22  38  54  72  97 133 177 218 253 295
#     4   9  17  30  51  77 105 137 171 208 250 298
#     4  10  19  31  51  80 110 137 165 202 252 309
#
# _framework density 18.516842
#
# number of rings (size 3 to 8) (size 9 to 14) (size 15 to 20)
#    0.000    2.250    0.000    3.000    0.000    5.250 
#    0.000    0.625    0.000    6.000    0.000   10.500 
#    0.000    0.000    0.000    0.000    0.000    0.000 
#
# Total GULP energy -396571.555277 kJ/mol
# GULP energy per Si atom -12392.861102 kJ/mol
# Density = 1.847470 g / cm^3
# Si number density = 18.516842 Si / 1000 Ang^3
#
#
#
# Elastic Constant Matrix: (Units=GPa)
#
#
# Indices 1 2 3 4 5 6 
#
# 1 82.3852 54.9494 52.7707 0.0001 -11.7351 0.0000
# 2 54.9494 133.3789 57.8762 0.0001 -2.3223 0.0000
# 3 52.7707 57.8762 107.7994 0.0001 -14.4284 0.0000
# 4 0.0001 0.0001 0.0001 24.9440 0.0000 5.1585
# 5 -11.7351 -2.3223 -14.4284 0.0000 40.2043 0.0000
# 6 0.0000 0.0000 0.0000 5.1585 0.0000 19.9926
#
#
#
# Elastic Compliance Matrix: (Units=1/GPa)
#
#
# Indices 1 2 3 4 5 6 
#
# 1 0.020554 -0.005522 -0.006656 0.000000 0.003292 0.000000
# 2 -0.005522 0.011332 -0.003686 0.000000 -0.002280 0.000000
# 3 -0.006656 -0.003686 0.014943 0.000000 0.003207 0.000000
# 4 0.000000 0.000000 0.000000 0.042350 0.000000 -0.010927
# 5 0.003292 -0.002280 0.003207 0.000000 0.026853 0.000000
# 6 0.000000 0.000000 0.000000 -0.010927 0.000000 0.052838
#
#
# Mechanical properties :
#
#
# Convention : Reuss Voigt Hill
#
# Bulk Modulus (GPa) = 66.22448 72.75066 69.48757
# Shear Modulus (GPa) = 24.31532 27.55934 25.93733
#
# Velocity S-wave (km/s) = 3.62767 3.86209 3.74671
# Velocity P-wave (km/s) = 7.30676 7.69817 7.50502
#
# Compressibility (1/GPa) = 0.01510016
#
# Stress axis : x y z
#
# Youngs Moduli (GPa) = 48.65309 88.24407 66.92019
#
# Poissons Ratio (x) = 0.48729 0.44544
# Poissons Ratio (y) = 0.26867 0.24667
# Poissons Ratio (z) = 0.32385 0.32528
#
# Static dielectric constant tensor:
#      x y z
#    x 3.351070 0.000000 0.017680 
#    y 0.000000 3.219570 0.000000 
#    z 0.017680 0.000000 3.657500 
# 
# 
# High freq. dielectric constant tensor:
#      x y z
#    x 1.712750 0.000000 -0.001930 
#    y 0.000000 1.697310 0.000000 
#    z -0.001930 0.000000 1.737420 
# 
# From -- ./inp_files/349402.got.cif
#   From: 2010.06.25/outbox.cif.g09.slc.cpg/sg12_175_cif.got.tgz:349402.got - 2010.06.28 00:19:55.
