data_PCOD8086208
_publ_section_title
;
Structure prediction by ZEFSAII (Michael W. Deem and Ramdas Pophale) SiO2 
 PCOD8086208
Probable space group: C 2/M
;
_chemical_formula_sum "Si O2"
_cell_formula_units_Z 64
_cell_length_a 20.333427
_cell_length_b 18.262620
_cell_length_c 22.956467
_cell_angle_alpha 90.000000
_cell_angle_beta 152.244536
_cell_angle_gamma 90.000000
_cell_volume 3969.939976
_symmetry_space_group_name_H-M "C 2/M"
_symmetry_group_IT_number 12
_symmetry_cell_setting 'monoclinic'
loop_
_space_group_symop_operation_xyz
x,y,z
-x,y,-z
-x,-y,-z
x,-y,z
1/2+x,1/2+y,z
1/2-x,1/2+y,-z
1/2-x,1/2-y,-z
1/2+x,1/2-y,z
loop_
_atom_site_type_symbol
_atom_site_label
_atom_site_fract_x
_atom_site_fract_y
_atom_site_fract_z
Si Si1 0.399736 0.082589 0.621959
Si Si2 0.308977 0.783372 0.607431
Si Si3 0.569652 0.224249 0.497256
Si Si4 0.462678 0.417027 0.144820
Si Si5 0.869649 0.082178 0.940610
Si Si6 0.288404 0.919494 0.406882
Si Si7 0.378201 0.722099 0.139517
Si Si8 0.867708 0.688291 0.239144
O O1 0.313512 0.128509 0.602850
O O2 0.308940 0.083046 0.492161
O O3 0.546393 0.125031 0.727413
O O4 0.428121 0.000000 0.666380
O O5 0.250000 0.750000 0.500000
O O6 0.205828 0.767624 0.580541
O O7 0.464801 0.755276 0.747801
O O8 0.500000 0.260528 0.500000
O O9 0.614053 0.140747 0.547674
O O10 0.451192 0.226590 0.355777
O O11 0.433969 0.500000 0.142813
O O12 0.627509 0.400356 0.268799
O O13 0.389783 0.364802 0.135807
O O14 0.403609 0.401922 0.034371
O O15 0.765112 0.146047 0.837849
O O16 0.805524 0.000000 0.883840
O O17 0.000000 0.089650 0.000000
O O18 0.328142 0.000000 0.413278
O O19 0.330446 0.743924 0.167313
O O20 0.250000 0.750000 0.000000
#
# Coordination Sequence:
#
# PCOD8086208 Si02
#       8
#     8   8   8   8   8   8   8   8
#     4   9  17  30  52  74  93 124 166 212 256 299
#     4  11  18  35  53  71 102 134 168 214 260 302
#     4  11  22  33  51  74 100 138 173 212 254 305
#     4  10  19  31  48  71 101 132 166 202 247 304
#     4  10  21  33  45  65 103 147 172 199 249 305
#     4   9  17  30  47  71  98 128 165 204 244 296
#     4  11  19  32  54  76  98 133 170 215 259 295
#     4  10  20  33  50  72 101 132 173 214 251 306
#
# _framework density 16.12115
#
# number of rings (size 3 to 8) (size 9 to 14) (size 15 to 20)
#    0.000    1.875    6.250    0.375    1.750    0.750 
#    0.000    0.000    0.000    0.375    0.000    0.000 
#    0.000    0.500    0.000    0.250    0.000    0.000 
#
# Total GULP energy -396500.937166 kJ/mol
# GULP energy per Si atom -12390.654286 kJ/mol
# Density = 1.608446 g / cm^3
# Si number density = 16.121150 Si / 1000 Ang^3
#
#
#
# Elastic Constant Matrix: (Units=GPa)
#
#
# Indices 1 2 3 4 5 6 
#
# 1 83.6841 42.0104 18.0348 -0.0039 8.7909 -0.0014
# 2 42.0104 78.2416 17.4333 -0.0185 -3.7125 -0.0062
# 3 18.0348 17.4333 85.4470 -0.0229 0.9122 -0.0060
# 4 -0.0039 -0.0185 -0.0229 21.9147 -0.0091 4.1622
# 5 8.7909 -3.7125 0.9122 -0.0091 13.2477 -0.0019
# 6 -0.0014 -0.0062 -0.0060 4.1622 -0.0019 24.6006
#
#
#
# Elastic Compliance Matrix: (Units=1/GPa)
#
#
# Indices 1 2 3 4 5 6 
#
# 1 0.019385 -0.010772 -0.001725 -0.000014 -0.015764 -0.000001
# 2 -0.010772 0.019585 -0.001858 0.000018 0.012764 0.000002
# 3 -0.001725 -0.001858 0.012449 0.000011 -0.000233 0.000001
# 4 -0.000014 0.000018 0.000011 0.047146 0.000045 -0.007977
# 5 -0.015764 0.012764 -0.000233 0.000045 0.089539 0.000002
# 6 -0.000001 0.000002 0.000001 -0.007977 0.000002 0.041999
#
#
# Mechanical properties :
#
#
# Convention : Reuss Voigt Hill
#
# Bulk Modulus (GPa) = 44.03950 44.70329 44.37140
# Shear Modulus (GPa) = 18.76991 23.27887 21.02439
#
# Velocity S-wave (km/s) = 3.41589 3.80412 3.61522
# Velocity P-wave (km/s) = 6.55247 6.86184 6.70894
#
# Compressibility (1/GPa) = 0.02270689
#
# Stress axis : x y z
#
# Youngs Moduli (GPa) = 51.58570 51.06074 80.32774
#
# Poissons Ratio (x) = 0.55003 0.13860
# Poissons Ratio (y) = 0.55568 0.14928
# Poissons Ratio (z) = 0.08901 0.09489
#
# Static dielectric constant tensor:
#      x y z
#    x 3.117300 -0.000030 0.053700 
#    y -0.000030 3.338030 -0.000010 
#    z 0.053700 -0.000010 3.217170 
# 
# 
# High freq. dielectric constant tensor:
#      x y z
#    x 1.586190 0.000000 0.000910 
#    y 0.000000 1.608400 0.000000 
#    z 0.000910 0.000000 1.634900 
# 
# From -- ./inp_files/317822.got.cif
#   From: 2010.06.25/outbox.cif.g09.slc.cpg/sg12_159_cif.got.tgz:317822.got - 2010.06.28 00:19:55.
