data_PCOD8086520
_publ_section_title
;
Structure prediction by ZEFSAII (Michael W. Deem and Ramdas Pophale) SiO2 
 PCOD8086520
Probable space group: C 2/M
;
_chemical_formula_sum "Si O2"
_cell_formula_units_Z 64
_cell_length_a 29.958292
_cell_length_b 8.754126
_cell_length_c 22.902949
_cell_angle_alpha 90.000000
_cell_angle_beta 31.650049
_cell_angle_gamma 90.000000
_cell_volume 3151.787292
_symmetry_space_group_name_H-M "C 2/M"
_symmetry_group_IT_number 12
_symmetry_cell_setting 'monoclinic'
loop_
_space_group_symop_operation_xyz
x,y,z
-x,y,-z
-x,-y,-z
x,-y,z
1/2+x,1/2+y,z
1/2-x,1/2+y,-z
1/2-x,1/2-y,-z
1/2+x,1/2-y,z
loop_
_atom_site_type_symbol
_atom_site_label
_atom_site_fract_x
_atom_site_fract_y
_atom_site_fract_z
Si Si1 0.135584 0.167612 0.491468
Si Si2 0.209297 0.332291 0.598443
Si Si3 0.990008 0.322960 0.728010
Si Si4 0.093637 0.822898 0.810336
Si Si5 0.183051 0.820160 0.118945
Si Si6 0.724453 0.319968 0.881698
Si Si7 0.046833 0.323747 0.099738
Si Si8 0.757348 0.819467 0.271666
O O1 0.220329 0.138758 0.432320
O O2 0.169145 0.250841 0.395368
O O3 0.072185 0.270530 0.600096
O O4 0.095287 0.000000 0.521807
O O5 0.168820 0.500000 0.627742
O O6 0.250000 0.250000 0.500000
O O7 0.140201 0.212236 0.697735
O O8 0.972654 0.500000 0.733936
O O9 0.911595 0.224613 0.792844
O O10 0.003207 0.296987 0.783006
O O11 0.154387 0.763833 0.795226
O O12 0.004916 0.732179 0.900534
O O13 0.071397 0.000000 0.842122
O O14 0.201618 0.759602 0.163320
O O15 0.193526 0.000000 0.105597
O O16 0.250000 0.750000 0.000000
O O17 0.733467 0.500000 0.878006
O O18 0.736160 0.266689 0.802110
O O19 0.633337 0.270746 0.007777
O O20 0.069598 0.500000 0.065528
O O21 0.751463 0.000000 0.286504
#
# Coordination Sequence:
#
# PCOD8086520 Si02
#       8
#     8   8   8   8   8   8   8   8
#     4  10  21  36  57  85 117 155 197 246 298 349
#     4  10  19  31  49  76 111 151 197 242 295 351
#     4  11  23  39  61  89 123 158 196 245 300 358
#     4  10  20  35  55  80 115 157 202 246 292 346
#     4  12  24  41  65  93 123 153 192 240 299 361
#     4  11  23  41  65  89 118 156 199 247 299 357
#     4  11  23  37  57  88 123 158 201 248 301 356
#     4   9  21  41  62  85 117 162 206 244 293 354
#
# _framework density 20.305938000000001
#
# number of rings (size 3 to 8) (size 9 to 14) (size 15 to 20)
#    0.000    1.500    1.250    4.125    0.000    7.000 
#    0.000    3.125    0.000    3.750    0.000    0.000 
#    0.000    0.000    0.000    0.000    0.000    0.000 
#
# Total GULP energy -396667.153107 kJ/mol
# GULP energy per Si atom -12395.848535 kJ/mol
# Density = 2.025972 g / cm^3
# Si number density = 20.305938 Si / 1000 Ang^3
#
#
#
# Elastic Constant Matrix: (Units=GPa)
#
#
# Indices 1 2 3 4 5 6 
#
# 1 97.8032 42.9661 20.9949 0.0055 8.9048 0.0042
# 2 42.9661 106.8510 27.5459 -0.0331 7.9787 0.0059
# 3 20.9949 27.5459 70.3785 -0.0279 10.6080 0.0051
# 4 0.0055 -0.0331 -0.0279 34.3176 0.0033 -3.9323
# 5 8.9048 7.9787 10.6080 0.0033 29.7953 -0.0064
# 6 0.0042 0.0059 0.0051 -3.9323 -0.0064 29.5173
#
#
#
# Elastic Compliance Matrix: (Units=1/GPa)
#
#
# Indices 1 2 3 4 5 6 
#
# 1 0.012772 -0.004541 -0.001734 -0.000008 -0.001984 -0.000002
# 2 -0.004541 0.012080 -0.003266 0.000010 -0.000715 0.000000
# 3 -0.001734 -0.003266 0.016690 0.000011 -0.004549 -0.000001
# 4 -0.000008 0.000010 0.000011 0.029591 -0.000007 0.003942
# 5 -0.001984 -0.000715 -0.004549 -0.000007 0.035967 0.000008
# 6 -0.000002 0.000000 -0.000001 0.003942 0.000008 0.034404
#
#
# Mechanical properties :
#
#
# Convention : Reuss Voigt Hill
#
# Bulk Modulus (GPa) = 44.52042 50.89407 47.70724
# Shear Modulus (GPa) = 29.74923 30.96109 30.35516
#
# Velocity S-wave (km/s) = 3.83175 3.90902 3.87058
# Velocity P-wave (km/s) = 6.44584 6.74477 6.59700
#
# Compressibility (1/GPa) = 0.02246160
#
# Stress axis : x y z
#
# Youngs Moduli (GPa) = 78.29469 82.78130 59.91599
#
# Poissons Ratio (x) = 0.37589 0.10389
# Poissons Ratio (y) = 0.35552 0.19567
# Poissons Ratio (z) = 0.13575 0.27034
#
# Static dielectric constant tensor:
#      x y z
#    x 4.433840 0.000140 -0.016860 
#    y 0.000140 3.849520 0.000040 
#    z -0.016860 0.000040 3.691900 
# 
# 
# High freq. dielectric constant tensor:
#      x y z
#    x 1.787050 0.000000 -0.000760 
#    y 0.000000 1.804680 0.000000 
#    z -0.000760 0.000000 1.786510 
# 
# From -- ./inp_files/353344.got.cif
#   From: 2010.06.25/outbox.cif.g09.slc.cpg/sg12_177_cif.got.tgz:353344.got - 2010.06.28 00:19:55.
