data_PCOD8086735
_publ_section_title
;
Structure prediction by ZEFSAII (Michael W. Deem and Ramdas Pophale) SiO2 
 PCOD8086735
Probable space group: C 2/M
;
_chemical_formula_sum "Si O2"
_cell_formula_units_Z 56
_cell_length_a 25.400388
_cell_length_b 18.048139
_cell_length_c 9.698010
_cell_angle_alpha 90.000000
_cell_angle_beta 46.566245
_cell_angle_gamma 90.000000
_cell_volume 3228.446271
_symmetry_space_group_name_H-M "C 2/M"
_symmetry_group_IT_number 12
_symmetry_cell_setting 'monoclinic'
loop_
_space_group_symop_operation_xyz
x,y,z
-x,y,-z
-x,-y,-z
x,-y,z
1/2+x,1/2+y,z
1/2-x,1/2+y,-z
1/2-x,1/2-y,-z
1/2+x,1/2-y,z
loop_
_atom_site_type_symbol
_atom_site_label
_atom_site_fract_x
_atom_site_fract_y
_atom_site_fract_z
Si Si1 0.348568 0.295721 0.960854
Si Si2 0.440180 0.414244 0.214543
Si Si3 0.010764 0.817654 0.631824
Si Si4 0.223062 0.917647 0.541729
Si Si5 0.732249 0.086913 0.229338
Si Si6 0.253606 0.218388 0.341223
Si Si7 0.362160 0.781551 0.649571
O O1 0.432670 0.308211 0.841268
O O2 0.336965 0.251035 0.841004
O O3 0.302281 0.372450 0.035158
O O4 0.323777 0.245797 0.133772
O O5 0.454773 0.500000 0.221115
O O6 0.442940 0.371485 0.354842
O O7 0.362323 0.400868 0.284618
O O8 0.500000 0.383772 0.000000
O O9 0.053432 0.738625 0.532517
O O10 0.000000 0.854558 0.500000
O O11 0.261861 0.903261 0.617232
O O12 0.257341 0.869888 0.356243
O O13 0.236099 0.000000 0.466493
O O14 0.658175 0.130344 0.317088
O O15 0.729444 0.000000 0.190972
O O16 0.250000 0.250000 0.500000
O O17 0.182110 0.240362 0.388645
#
# Coordination Sequence:
#
# PCOD8086735 Si02
#       7
#     8   8   8   8   8   8   8
#     4  10  21  35  53  79 108 137 178 222 258 316
#     4  10  20  32  49  75 109 141 173 211 256 317
#     4  10  21  35  53  74 107 146 174 216 263 310
#     4  10  19  31  50  78 106 134 171 216 262 311
#     4  10  19  34  56  80 107 140 175 219 268 316
#     4  11  18  32  53  76 100 136 173 218 261 308
#     4  10  20  36  54  77 107 139 182 219 259 314
#
# _framework density 17.345806
#
# number of rings (size 3 to 8) (size 9 to 14) (size 15 to 20)
#    0.000    1.857    4.286    2.571    0.000    2.000 
#    0.000    5.000    0.000    4.714    0.000    2.000 
#    0.000    0.000    0.000    0.000    0.000    0.000 
#
# Total GULP energy -346998.870163 kJ/mol
# GULP energy per Si atom -12392.816792 kJ/mol
# Density = 1.730633 g / cm^3
# Si number density = 17.345806 Si / 1000 Ang^3
#
#
#
# Elastic Constant Matrix: (Units=GPa)
#
#
# Indices 1 2 3 4 5 6 
#
# 1 56.9692 30.3541 22.2013 0.0000 8.5277 0.0000
# 2 30.3541 124.7145 44.8549 0.0000 1.6058 0.0000
# 3 22.2013 44.8549 86.0931 0.0000 1.1568 0.0000
# 4 0.0000 0.0000 0.0000 22.5198 0.0000 5.4406
# 5 8.5277 1.6058 1.1568 0.0000 32.6557 0.0000
# 6 0.0000 0.0000 0.0000 5.4406 0.0000 22.4914
#
#
#
# Elastic Compliance Matrix: (Units=1/GPa)
#
#
# Indices 1 2 3 4 5 6 
#
# 1 0.021844 -0.003996 -0.003479 0.000000 -0.005385 0.000000
# 2 -0.003996 0.010601 -0.004502 0.000000 0.000682 0.000000
# 3 -0.003479 -0.004502 0.014850 0.000000 0.000604 0.000000
# 4 0.000000 0.000000 0.000000 0.047162 0.000000 -0.011408
# 5 -0.005385 0.000682 0.000604 0.000000 0.031974 0.000000
# 6 0.000000 0.000000 0.000000 -0.011408 0.000000 0.047221
#
#
# Mechanical properties :
#
#
# Convention : Reuss Voigt Hill
#
# Bulk Modulus (GPa) = 42.84176 51.39971 47.12073
# Shear Modulus (GPa) = 24.34437 26.89114 25.61776
#
# Velocity S-wave (km/s) = 3.75036 3.94165 3.84719
# Velocity P-wave (km/s) = 6.59590 7.10015 6.85266
#
# Compressibility (1/GPa) = 0.02334171
#
# Stress axis : x y z
#
# Youngs Moduli (GPa) = 45.77860 94.32762 67.34069
#
# Poissons Ratio (x) = 0.37695 0.23426
# Poissons Ratio (y) = 0.18294 0.30317
# Poissons Ratio (z) = 0.15925 0.42466
#
# Static dielectric constant tensor:
#      x y z
#    x 3.371480 0.000000 0.073160 
#    y 0.000000 3.605900 0.000000 
#    z 0.073160 0.000000 3.346150 
# 
# 
# High freq. dielectric constant tensor:
#      x y z
#    x 1.673220 0.000000 0.010900 
#    y 0.000000 1.658950 0.000000 
#    z 0.010900 0.000000 1.662920 
# 
# From -- ./inp_files/105560.got.cif
#   From: 2010.06.25/outbox.cif.g09.slc.cpg/sg12_53_cif.got.tgz:105560.got - 2010.06.28 00:19:55.
