data_PCOD8086256
_publ_section_title
;
Structure prediction by ZEFSAII (Michael W. Deem and Ramdas Pophale) SiO2 
 PCOD8086256
Probable space group: C 2/M
;
_chemical_formula_sum "Si O2"
_cell_formula_units_Z 64
_cell_length_a 30.518294
_cell_length_b 8.938517
_cell_length_c 16.599145
_cell_angle_alpha 90.000000
_cell_angle_beta 132.666702
_cell_angle_gamma 90.000000
_cell_volume 3329.515808
_symmetry_space_group_name_H-M "C 2/M"
_symmetry_group_IT_number 12
_symmetry_cell_setting 'monoclinic'
loop_
_space_group_symop_operation_xyz
x,y,z
-x,y,-z
-x,-y,-z
x,-y,z
1/2+x,1/2+y,z
1/2-x,1/2+y,-z
1/2-x,1/2-y,-z
1/2+x,1/2-y,z
loop_
_atom_site_type_symbol
_atom_site_label
_atom_site_fract_x
_atom_site_fract_y
_atom_site_fract_z
Si Si1 0.858248 0.825112 0.395192
Si Si2 0.640589 0.177027 0.289157
Si Si3 0.058691 0.325418 0.623865
Si Si4 0.451933 0.677199 0.217985
Si Si5 0.725117 0.823107 0.253081
Si Si6 0.586443 0.326786 0.365141
Si Si7 0.877441 0.324176 0.992327
Si Si8 0.433099 0.661748 0.923209
O O1 0.883998 0.730642 0.353659
O O2 0.791739 0.761523 0.328021
O O3 0.898381 0.796053 0.523192
O O4 0.857075 0.000000 0.370777
O O5 0.696500 0.232048 0.303078
O O6 0.636475 0.237346 0.375493
O O7 0.582915 0.251306 0.177871
O O8 0.636539 0.000000 0.285150
O O9 0.065311 0.500000 0.651390
O O10 0.055469 0.233773 0.701342
O O11 0.000000 0.289588 0.500000
O O12 0.446828 0.500000 0.210608
O O13 0.517571 0.725391 0.266161
O O14 0.396137 0.743146 0.098145
O O15 0.686089 0.772510 0.126146
O O16 0.725304 0.000000 0.256494
O O17 0.594119 0.500000 0.352649
O O18 0.878983 0.500000 0.009716
O O19 0.926016 0.275355 0.987993
O O20 0.398898 0.500000 0.891021
O O21 0.500000 0.616181 0.000000
#
# Coordination Sequence:
#
# PCOD8086256 Si02
#       8
#     8   8   8   8   8   8   8   8
#     4  10  20  39  63  82 108 149 190 230 278 335
#     4  10  20  33  51  77 111 150 189 230 277 328
#     4  11  23  39  60  88 118 142 175 228 288 340
#     4  11  22  37  58  86 116 148 188 228 276 339
#     4   8  18  37  58  80 110 150 194 232 271 326
#     4  10  21  34  53  83 114 145 187 234 279 331
#     4  10  20  35  55  81 112 147 185 230 282 327
#     4  10  19  31  48  72 105 145 190 235 277 328
#
# _framework density 19.222014000000001
#
# number of rings (size 3 to 8) (size 9 to 14) (size 15 to 20)
#    0.000    2.000    1.250    3.375    0.000    6.500 
#    0.000    4.375    0.000    0.000    0.000    0.000 
#    0.000    0.000    0.000    0.000    0.000    0.000 
#
# Total GULP energy -396543.739421 kJ/mol
# GULP energy per Si atom -12391.991857 kJ/mol
# Density = 1.917826 g / cm^3
# Si number density = 19.222014 Si / 1000 Ang^3
#
#
#
# Elastic Constant Matrix: (Units=GPa)
#
#
# Indices 1 2 3 4 5 6 
#
# 1 110.8881 35.0489 34.5632 0.0000 4.2650 0.0000
# 2 35.0489 67.5846 29.7352 0.0000 -1.6797 0.0000
# 3 34.5632 29.7352 63.1955 0.0000 -3.2764 0.0000
# 4 0.0000 0.0000 0.0000 66.1015 0.0000 -21.0780
# 5 4.2650 -1.6797 -3.2764 0.0000 26.6158 0.0000
# 6 0.0000 0.0000 0.0000 -21.0780 0.0000 33.7249
#
#
#
# Elastic Compliance Matrix: (Units=1/GPa)
#
#
# Indices 1 2 3 4 5 6 
#
# 1 0.011906 -0.004181 -0.004687 0.000000 -0.002749 0.000000
# 2 -0.004181 0.020127 -0.007129 0.000000 0.001063 0.000000
# 3 -0.004687 -0.007129 0.021897 0.000000 0.002997 0.000000
# 4 0.000000 0.000000 0.000000 0.018894 0.000000 0.011808
# 5 -0.002749 0.001063 0.002997 0.000000 0.038448 0.000000
# 6 0.000000 0.000000 0.000000 0.011808 0.000000 0.037032
#
#
# Mechanical properties :
#
#
# Convention : Reuss Voigt Hill
#
# Bulk Modulus (GPa) = 45.58458 48.92922 47.25690
# Shear Modulus (GPa) = 26.65107 34.77652 30.71379
#
# Velocity S-wave (km/s) = 3.72760 4.25809 4.00164
# Velocity P-wave (km/s) = 6.50330 7.04877 6.78152
#
# Compressibility (1/GPa) = 0.02193724
#
# Stress axis : x y z
#
# Youngs Moduli (GPa) = 83.99013 49.68413 45.66797
#
# Poissons Ratio (x) = 0.20771 0.21406
# Poissons Ratio (y) = 0.35112 0.32556
# Poissons Ratio (z) = 0.39368 0.35419
#
# Static dielectric constant tensor:
#      x y z
#    x 3.554310 0.000000 0.013990 
#    y 0.000000 3.430870 0.000000 
#    z 0.013990 0.000000 3.427810 
# 
# 
# High freq. dielectric constant tensor:
#      x y z
#    x 1.737780 0.000000 -0.006380 
#    y 0.000000 1.745930 0.000000 
#    z -0.006380 0.000000 1.745410 
# 
# From -- ./inp_files/250078.got.cif
#   From: 2010.06.25/outbox.cif.g09.slc.cpg/sg12_126_cif.got.tgz:250078.got - 2010.06.28 00:19:55.
