data_PCOD8086660
_publ_section_title
;
Structure prediction by ZEFSAII (Michael W. Deem and Ramdas Pophale) SiO2 
 PCOD8086660
Probable space group: C 2/M
;
_chemical_formula_sum "Si O2"
_cell_formula_units_Z 64
_cell_length_a 20.030124
_cell_length_b 8.873017
_cell_length_c 31.747095
_cell_angle_alpha 90.000000
_cell_angle_beta 142.742482
_cell_angle_gamma 90.000000
_cell_volume 3415.861339
_symmetry_space_group_name_H-M "C 2/M"
_symmetry_group_IT_number 12
_symmetry_cell_setting 'monoclinic'
loop_
_space_group_symop_operation_xyz
x,y,z
-x,y,-z
-x,-y,-z
x,-y,z
1/2+x,1/2+y,z
1/2-x,1/2+y,-z
1/2-x,1/2-y,-z
1/2+x,1/2-y,z
loop_
_atom_site_type_symbol
_atom_site_label
_atom_site_fract_x
_atom_site_fract_y
_atom_site_fract_z
Si Si1 0.070638 0.674303 0.792336
Si Si2 0.423008 0.324873 0.654318
Si Si3 0.591145 0.174395 0.211096
Si Si4 0.800001 0.177445 0.428139
Si Si5 0.582804 0.330083 0.929374
Si Si6 0.753945 0.830131 0.067201
Si Si7 0.183272 0.322431 0.651657
Si Si8 0.521270 0.674327 0.413144
O O1 0.086317 0.500000 0.789201
O O2 0.188109 0.740017 0.865853
O O3 0.033243 0.763944 0.732054
O O4 0.979273 0.699257 0.782247
O O5 0.407771 0.500000 0.657107
O O6 0.320340 0.235040 0.620997
O O7 0.431203 0.294229 0.609039
O O8 0.526105 0.237832 0.138030
O O9 0.703528 0.264871 0.271769
O O10 0.617334 0.000000 0.216568
O O11 0.842571 0.249907 0.406472
O O12 0.884242 0.223775 0.506936
O O13 0.793017 0.000000 0.417915
O O14 0.549578 0.500000 0.924902
O O15 0.667567 0.330181 0.933612
O O16 0.639045 0.250933 0.997907
O O17 0.729010 0.000000 0.069473
O O18 0.189334 0.500000 0.649641
O O19 0.085584 0.276783 0.634048
O O20 0.488560 0.500000 0.402815
#
# Coordination Sequence:
#
# PCOD8086660 Si02
#       8
#     8   8   8   8   8   8   8   8
#     4  10  19  31  50  75 105 143 181 221 270 323
#     4  11  22  37  58  83 110 142 182 228 274 327
#     4  10  19  32  51  74 105 143 181 221 270 325
#     4  11  22  39  61  82 108 143 180 224 277 333
#     4   9  16  26  42  68 103 138 176 220 267 319
#     4   9  16  26  42  67 102 140 177 219 267 318
#     4  12  24  37  57  83 110 142 184 230 275 325
#     4  10  24  42  58  79 110 145 181 224 278 332
#
# _framework density 18.736124
#
# number of rings (size 3 to 8) (size 9 to 14) (size 15 to 20)
#    0.000    1.750    1.250    4.125    0.000    7.500 
#    0.000    0.000    0.000    0.000    0.000    0.875 
#    0.000    7.000    0.000    0.000    0.000    0.000 
#
# Total GULP energy -396943.782521 kJ/mol
# GULP energy per Si atom -12404.493204 kJ/mol
# Density = 1.869348 g / cm^3
# Si number density = 18.736124 Si / 1000 Ang^3
#
#
#
# Elastic Constant Matrix: (Units=GPa)
#
#
# Indices 1 2 3 4 5 6 
#
# 1 26.4184 14.0158 4.6469 0.0000 -0.0726 0.0000
# 2 14.0158 109.9117 37.7319 -0.0001 0.8430 0.0001
# 3 4.6469 37.7319 118.5848 0.0000 -4.3910 0.0001
# 4 0.0000 -0.0001 0.0000 36.9266 0.0000 0.7261
# 5 -0.0726 0.8430 -4.3910 0.0000 3.6564 0.0000
# 6 0.0000 0.0001 0.0001 0.7261 0.0000 21.7692
#
#
#
# Elastic Compliance Matrix: (Units=1/GPa)
#
#
# Indices 1 2 3 4 5 6 
#
# 1 0.040616 -0.005252 0.000161 0.000000 0.002210 0.000000
# 2 -0.005252 0.011045 -0.003565 0.000000 -0.006932 0.000000
# 3 0.000161 -0.003565 0.010038 0.000000 0.012880 0.000000
# 4 0.000000 0.000000 0.000000 0.027099 0.000000 -0.000904
# 5 0.002210 -0.006932 0.012880 0.000000 0.290606 0.000000
# 6 0.000000 0.000000 0.000000 -0.000904 0.000000 0.045967
#
#
# Mechanical properties :
#
#
# Convention : Reuss Voigt Hill
#
# Bulk Modulus (GPa) = 22.52872 40.85601 31.69237
# Shear Modulus (GPa) = 10.92951 25.70511 18.31731
#
# Velocity S-wave (km/s) = 2.41786 3.70801 3.13013
# Velocity P-wave (km/s) = 4.45478 6.33923 5.47863
#
# Compressibility (1/GPa) = 0.04438779
#
# Stress axis : x y z
#
# Youngs Moduli (GPa) = 24.62063 90.53873 99.62363
#
# Poissons Ratio (x) = 0.47548 -0.01606
# Poissons Ratio (y) = 0.12930 0.35518
# Poissons Ratio (z) = -0.00397 0.32279
#
# Static dielectric constant tensor:
#      x y z
#    x 2.997200 0.000000 -0.059640 
#    y 0.000000 3.583210 0.000000 
#    z -0.059640 0.000000 3.708170 
# 
# 
# High freq. dielectric constant tensor:
#      x y z
#    x 1.675020 0.000000 -0.002590 
#    y 0.000000 1.743890 0.000000 
#    z -0.002590 0.000000 1.747680 
# 
# From -- ./inp_files/378393.got.cif
#   From: 2010.06.25/outbox.cif.g09.slc.cpg/sg12_190_cif.got.tgz:378393.got - 2010.06.28 00:19:55.
