data_PCOD8086385
_publ_section_title
;
Structure prediction by ZEFSAII (Michael W. Deem and Ramdas Pophale) SiO2 
 PCOD8086385
Probable space group: C 2/M
;
_chemical_formula_sum "Si O2"
_cell_formula_units_Z 56
_cell_length_a 21.172688
_cell_length_b 14.719839
_cell_length_c 10.105176
_cell_angle_alpha 90.000000
_cell_angle_beta 80.367647
_cell_angle_gamma 90.000000
_cell_volume 3104.963935
_symmetry_space_group_name_H-M "C 2/M"
_symmetry_group_IT_number 12
_symmetry_cell_setting 'monoclinic'
loop_
_space_group_symop_operation_xyz
x,y,z
-x,y,-z
-x,-y,-z
x,-y,z
1/2+x,1/2+y,z
1/2-x,1/2+y,-z
1/2-x,1/2-y,-z
1/2+x,1/2-y,z
loop_
_atom_site_type_symbol
_atom_site_label
_atom_site_fract_x
_atom_site_fract_y
_atom_site_fract_z
Si Si1 0.653980 0.242628 0.017957
Si Si2 0.157414 0.895120 0.523284
Si Si3 0.116744 0.747051 0.736439
Si Si4 0.712208 0.101354 0.643367
Si Si5 0.243827 0.895830 0.071593
Si Si6 0.547027 0.604274 0.374305
Si Si7 0.019086 0.219953 0.137461
O O1 0.679715 0.336019 0.074681
O O2 0.583045 0.218376 0.098755
O O3 0.652216 0.261615 0.862378
O O4 0.699395 0.155526 0.030333
O O5 0.124901 0.839419 0.652276
O O6 0.230966 0.865608 0.474060
O O7 0.119570 0.879586 0.398488
O O8 0.152762 0.000000 0.567093
O O9 0.150331 0.664843 0.645479
O O10 0.041402 0.723353 0.783812
O O11 0.738973 0.102063 0.781500
O O12 0.690397 0.000000 0.612591
O O13 0.235049 0.000000 0.022657
O O14 0.500000 0.650351 0.500000
O O15 0.528713 0.500000 0.369236
O O16 0.536805 0.640809 0.231423
O O17 0.000000 0.178810 0.000000
#
# Coordination Sequence:
#
# PCOD8086385 Si02
#       7
#     8   8   8   8   8   8   8
#     4   9  19  32  49  74 100 127 167 206 244 301
#     4  10  19  31  49  72  98 128 167 205 242 296
#     4  10  19  32  48  70 101 133 161 203 252 295
#     4   9  18  32  51  72  93 124 170 213 248 290
#     4   9  17  33  53  72  97 128 163 208 253 291
#     4  10  19  32  49  71 100 133 169 203 241 298
#     4  10  20  33  49  73 104 133 164 203 248 296
#
# _framework density 18.035636
#
# number of rings (size 3 to 8) (size 9 to 14) (size 15 to 20)
#    0.000    2.429    1.429    1.286    0.000    2.571 
#    0.000    3.571    0.000    4.286    0.000    2.000 
#    0.000    0.000    0.000    0.000    0.000    0.000 
#
# Total GULP energy -347004.674843 kJ/mol
# GULP energy per Si atom -12393.024102 kJ/mol
# Density = 1.799459 g / cm^3
# Si number density = 18.035636 Si / 1000 Ang^3
#
#
#
# Elastic Constant Matrix: (Units=GPa)
#
#
# Indices 1 2 3 4 5 6 
#
# 1 126.2337 47.5616 26.0230 0.0000 -25.9701 0.0000
# 2 47.5616 78.9142 16.6982 0.0000 -9.9965 0.0000
# 3 26.0230 16.6982 50.9186 0.0000 -12.0986 0.0000
# 4 0.0000 0.0000 0.0000 21.0622 0.0000 0.4315
# 5 -25.9701 -9.9965 -12.0986 0.0000 28.2478 0.0000
# 6 0.0000 0.0000 0.0000 0.4315 0.0000 19.6760
#
#
#
# Elastic Compliance Matrix: (Units=1/GPa)
#
#
# Indices 1 2 3 4 5 6 
#
# 1 0.012324 -0.005875 -0.002420 0.000000 0.008215 0.000000
# 2 -0.005875 0.016689 -0.002617 0.000000 -0.000616 0.000000
# 3 -0.002420 -0.002617 0.023363 0.000000 0.006856 0.000000
# 4 0.000000 0.000000 0.000000 0.047500 0.000000 -0.001042
# 5 0.008215 -0.000616 0.006856 0.000000 0.045672 0.000000
# 6 0.000000 0.000000 0.000000 -0.001042 0.000000 0.050846
#
#
# Mechanical properties :
#
#
# Convention : Reuss Voigt Hill
#
# Bulk Modulus (GPa) = 32.73070 48.51466 40.62268
# Shear Modulus (GPa) = 21.89127 24.84944 23.37036
#
# Velocity S-wave (km/s) = 3.48771 3.71590 3.60361
# Velocity P-wave (km/s) = 5.86567 6.73559 6.31563
#
# Compressibility (1/GPa) = 0.03055236
#
# Stress axis : x y z
#
# Youngs Moduli (GPa) = 81.13987 59.92122 42.80268
#
# Poissons Ratio (x) = 0.35205 0.10358
# Poissons Ratio (y) = 0.47671 0.11200
# Poissons Ratio (z) = 0.19636 0.15679
#
# Static dielectric constant tensor:
#      x y z
#    x 3.655040 0.000000 -0.169850 
#    y 0.000000 3.232170 0.000000 
#    z -0.169850 0.000000 3.249860 
# 
# 
# High freq. dielectric constant tensor:
#      x y z
#    x 1.711870 0.000000 -0.011770 
#    y 0.000000 1.666650 0.000000 
#    z -0.011770 0.000000 1.689130 
# 
# From -- ./inp_files/86316.got.cif
#   From: 2010.06.25/outbox.cif.g09.slc.cpg/sg12_44_cif.got.tgz:86316.got - 2010.06.28 00:19:55.
