data_PCOD8086781
_publ_section_title
;
Structure prediction by ZEFSAII (Michael W. Deem and Ramdas Pophale) SiO2 
 PCOD8086781
Probable space group: C 2/M
;
_chemical_formula_sum "Si O2"
_cell_formula_units_Z 64
_cell_length_a 23.314070
_cell_length_b 25.912454
_cell_length_c 19.178084
_cell_angle_alpha 90.000000
_cell_angle_beta 162.481408
_cell_angle_gamma 90.000000
_cell_volume 3487.549375
_symmetry_space_group_name_H-M "C 2/M"
_symmetry_group_IT_number 12
_symmetry_cell_setting 'monoclinic'
loop_
_space_group_symop_operation_xyz
x,y,z
-x,y,-z
-x,-y,-z
x,-y,z
1/2+x,1/2+y,z
1/2-x,1/2+y,-z
1/2-x,1/2-y,-z
1/2+x,1/2-y,z
loop_
_atom_site_type_symbol
_atom_site_label
_atom_site_fract_x
_atom_site_fract_y
_atom_site_fract_z
Si Si1 0.410049 0.332401 0.820093
Si Si2 0.165113 0.057164 0.330231
Si Si3 0.451732 0.593983 0.212654
Si Si4 0.783929 0.060593 0.367148
Si Si5 0.382524 0.060594 0.965741
Si Si6 0.602891 0.703250 0.907206
Si Si7 0.505747 0.796750 0.310059
Si Si8 0.429899 0.906019 0.168977
O O1 0.392960 0.394462 0.785918
O O2 0.548875 0.303629 0.925934
O O3 0.205256 0.303627 0.582312
O O4 0.500000 0.325177 0.000000
O O5 0.388205 0.058291 0.607407
O O6 0.050188 0.058293 0.269389
O O7 0.124841 0.000000 0.249692
O O8 0.540301 0.587849 0.391957
O O9 0.477682 0.653571 0.225163
O O10 0.228846 0.578704 0.957698
O O11 0.767358 0.078878 0.267357
O O12 0.816671 0.000000 0.407620
O O13 0.593609 0.076188 0.187209
O O14 0.365255 0.000000 0.956194
O O15 0.336997 0.087845 0.985340
O O16 0.490578 0.750001 0.740580
O O17 0.832132 0.709530 0.164258
O O18 0.482734 0.846430 0.235252
#
# Coordination Sequence:
#
# PCOD8086781 Si02
#       8
#     8   8   8   8   8   8   8   8
#     4  10  21  36  56  82 109 137 173 214 260 316
#     4  10  20  34  51  73 104 136 171 217 261 306
#     4  10  19  31  51  75  97 130 175 216 255 304
#     4   9  17  29  44  64  96 135 167 199 246 299
#     4   9  17  29  44  64  96 135 167 199 246 299
#     4   9  19  37  59  79 103 136 173 215 260 307
#     4   9  19  37  59  79 103 136 173 215 260 307
#     4  10  19  31  51  75  97 130 175 216 255 304
#
# _framework density 18.350994
#
# number of rings (size 3 to 8) (size 9 to 14) (size 15 to 20)
#    0.000    2.500    1.250    1.875    0.000    3.250 
#    0.000    2.500    0.000    4.500    0.000    7.000 
#    0.000    0.000    0.000    0.000    0.000    0.000 
#
# Total GULP energy -396616.215232 kJ/mol
# GULP energy per Si atom -12394.256726 kJ/mol
# Density = 1.830923 g / cm^3
# Si number density = 18.350994 Si / 1000 Ang^3
#
#
#
# Elastic Constant Matrix: (Units=GPa)
#
#
# Indices 1 2 3 4 5 6 
#
# 1 99.7911 38.4716 64.5097 0.0017 -4.8498 0.0013
# 2 38.4716 77.0873 41.2861 0.0058 6.4119 0.0043
# 3 64.5097 41.2861 97.7933 -0.0059 0.2939 -0.0047
# 4 0.0017 0.0058 -0.0059 -10.3591 -0.0084 -23.1719
# 5 -4.8498 6.4119 0.2939 -0.0084 28.3094 -0.0064
# 6 0.0013 0.0043 -0.0047 -23.1719 -0.0064 -0.2001
#
#
#
# Elastic Compliance Matrix: (Units=1/GPa)
#
#
# Indices 1 2 3 4 5 6 
#
# 1 0.018616 -0.003949 -0.010626 0.000001 0.004194 0.000001
# 2 -0.003949 0.018002 -0.004981 0.000005 -0.004702 0.000005
# 3 -0.010626 -0.004981 0.019341 -0.000005 -0.000893 -0.000004
# 4 0.000001 0.000005 -0.000005 0.000374 -0.000011 -0.043323
# 5 0.004194 -0.004702 -0.000893 -0.000011 0.037117 -0.000009
# 6 0.000001 0.000005 -0.000004 -0.043323 -0.000009 0.019368
#
#
# Mechanical properties :
#
#
# Convention : Reuss Voigt Hill
#
# Bulk Modulus (GPa) = 59.35593 62.57846 60.96720
# Shear Modulus (GPa) = 31.73731 12.24366 21.99049
#
# Velocity S-wave (km/s) = 4.16319 2.58581 3.46544
# Velocity P-wave (km/s) = 7.45148 6.56431 7.02192
#
# Compressibility (1/GPa) = 0.01684752
#
# Stress axis : x y z
#
# Youngs Moduli (GPa) = 53.71736 55.55010 51.70490
#
# Poissons Ratio (x) = 0.21934 0.54940
# Poissons Ratio (y) = 0.21211 0.25755
# Poissons Ratio (z) = 0.57078 0.27670
#
# Static dielectric constant tensor:
#      x y z
#    x 3.353430 0.000000 0.209500 
#    y 0.000000 3.290440 0.000000 
#    z 0.209500 0.000000 3.445300 
# 
# 
# High freq. dielectric constant tensor:
#      x y z
#    x 1.702080 0.000000 0.017520 
#    y 0.000000 1.700640 0.000000 
#    z 0.017520 0.000000 1.709760 
# 
# From -- ./inp_files/286714.got.cif
#   From: 2010.06.25/outbox.cif.g09.slc.cpg/sg12_144_cif.got.tgz:286714.got - 2010.06.28 00:19:55.
