data_PCOD8086205
_publ_section_title
;
Structure prediction by ZEFSAII (Michael W. Deem and Ramdas Pophale) SiO2 
 PCOD8086205
Probable space group: C 2/M
;
_chemical_formula_sum "Si O2"
_cell_formula_units_Z 64
_cell_length_a 29.155721
_cell_length_b 9.094889
_cell_length_c 12.661229
_cell_angle_alpha 90.000000
_cell_angle_beta 85.267959
_cell_angle_gamma 90.000000
_cell_volume 3345.909513
_symmetry_space_group_name_H-M "C 2/M"
_symmetry_group_IT_number 12
_symmetry_cell_setting 'monoclinic'
loop_
_space_group_symop_operation_xyz
x,y,z
-x,y,-z
-x,-y,-z
x,-y,z
1/2+x,1/2+y,z
1/2-x,1/2+y,-z
1/2-x,1/2-y,-z
1/2+x,1/2-y,z
loop_
_atom_site_type_symbol
_atom_site_label
_atom_site_fract_x
_atom_site_fract_y
_atom_site_fract_z
Si Si1 0.050861 0.175520 0.469845
Si Si2 0.950875 0.824806 0.967902
Si Si3 0.380691 0.675403 0.367723
Si Si4 0.870558 0.825211 0.135073
Si Si5 0.232938 0.824970 0.897236
Si Si6 0.910022 0.174591 0.758074
Si Si7 0.692118 0.667992 0.247613
Si Si8 0.704211 0.666373 0.488927
O O1 0.078992 0.236030 0.565056
O O2 0.070249 0.240459 0.355398
O O3 0.000000 0.234888 0.500000
O O4 0.052617 0.000000 0.464817
O O5 0.941723 0.770942 0.849599
O O6 0.951473 0.000000 0.973241
O O7 0.908906 0.763415 0.047301
O O8 0.000000 0.762719 0.000000
O O9 0.381404 0.500000 0.368966
O O10 0.384859 0.735405 0.247854
O O11 0.333347 0.735095 0.425676
O O12 0.819259 0.771235 0.114774
O O13 0.870888 0.000000 0.134731
O O14 0.266438 0.772232 0.797172
O O15 0.235543 0.000000 0.906534
O O16 0.250000 0.750000 0.000000
O O17 0.856994 0.222312 0.789693
O O18 0.911127 0.000000 0.750246
O O19 0.702605 0.500000 0.210268
O O20 0.686264 0.679542 0.373733
O O21 0.713738 0.500000 0.518805
O O22 0.750000 0.750000 0.500000
#
# Coordination Sequence:
#
# PCOD8086205 Si02
#       8
#     8   8   8   8   8   8   8   8
#     4   9  16  24  40  65  93 132 171 205 250 308
#     4   9  17  26  39  60  88 126 164 199 247 304
#     4   9  16  28  43  64  97 131 166 203 250 303
#     4   9  18  30  44  65  95 130 164 205 250 297
#     4  11  22  36  54  76 102 136 174 212 257 303
#     4   9  16  28  43  64  96 131 168 209 256 307
#     4  10  19  33  52  73 102 137 171 210 259 310
#     4  10  19  31  48  71 100 137 173 209 256 305
#
# _framework density 19.127834
#
# number of rings (size 3 to 8) (size 9 to 14) (size 15 to 20)
#    0.000    2.500    1.250    1.875    1.750    3.500 
#    0.000    0.000    0.000    0.000    0.000    0.000 
#    0.000   14.500    0.000    0.000    0.250    0.000 
#
# Total GULP energy -396669.384308 kJ/mol
# GULP energy per Si atom -12395.918260 kJ/mol
# Density = 1.908430 g / cm^3
# Si number density = 19.127834 Si / 1000 Ang^3
#
#
#
# Elastic Constant Matrix: (Units=GPa)
#
#
# Indices 1 2 3 4 5 6 
#
# 1 175.1707 19.8138 79.0061 0.0000 8.2799 0.0000
# 2 19.8138 22.4816 13.7567 0.0000 0.3464 0.0000
# 3 79.0061 13.7567 139.7711 0.0000 5.2336 0.0000
# 4 0.0000 0.0000 0.0000 14.9371 0.0000 -1.2857
# 5 8.2799 0.3464 5.2336 0.0000 40.0409 0.0000
# 6 0.0000 0.0000 0.0000 -1.2857 0.0000 18.3103
#
#
#
# Elastic Compliance Matrix: (Units=1/GPa)
#
#
# Indices 1 2 3 4 5 6 
#
# 1 0.008136 -0.004644 -0.004100 0.000000 -0.001106 0.000000
# 2 -0.004644 0.049984 -0.002326 0.000000 0.000832 0.000000
# 3 -0.004100 -0.002326 0.009716 0.000000 -0.000402 0.000000
# 4 0.000000 0.000000 0.000000 0.067354 0.000000 0.004729
# 5 -0.001106 0.000832 -0.000402 0.000000 0.025249 0.000000
# 6 0.000000 0.000000 0.000000 0.004729 0.000000 0.054946
#
#
# Mechanical properties :
#
#
# Convention : Reuss Voigt Hill
#
# Bulk Modulus (GPa) = 21.88375 62.50852 42.19613
# Shear Modulus (GPa) = 19.78186 29.64745 24.71465
#
# Velocity S-wave (km/s) = 3.21937 3.94123 3.59845
# Velocity P-wave (km/s) = 5.02840 7.31173 6.27480
#
# Compressibility (1/GPa) = 0.04569601
#
# Stress axis : x y z
#
# Youngs Moduli (GPa) = 122.91683 20.00631 102.92175
#
# Poissons Ratio (x) = 0.09291 0.42199
# Poissons Ratio (y) = 0.57085 0.23936
# Poissons Ratio (z) = 0.50398 0.04653
#
# Static dielectric constant tensor:
#      x y z
#    x 3.791020 0.000000 -0.002200 
#    y 0.000000 2.702980 0.000000 
#    z -0.002200 0.000000 3.745910 
# 
# 
# High freq. dielectric constant tensor:
#      x y z
#    x 1.760140 0.000000 0.002240 
#    y 0.000000 1.659830 0.000000 
#    z 0.002240 0.000000 1.762440 
# 
# From -- ./inp_files/182078.got.cif
#   From: 2010.06.25/outbox.cif.g09.slc.cpg/sg12_92_cif.got.tgz:182078.got - 2010.06.28 00:19:55.
