data_PCOD8086229
_publ_section_title
;
Structure prediction by ZEFSAII (Michael W. Deem and Ramdas Pophale) SiO2 
 PCOD8086229
Probable space group: C 2/M
;
_chemical_formula_sum "Si O2"
_cell_formula_units_Z 56
_cell_length_a 23.803232
_cell_length_b 9.176939
_cell_length_c 14.903959
_cell_angle_alpha 90.000000
_cell_angle_beta 109.096062
_cell_angle_gamma 90.000000
_cell_volume 3076.479930
_symmetry_space_group_name_H-M "C 2/M"
_symmetry_group_IT_number 12
_symmetry_cell_setting 'monoclinic'
loop_
_space_group_symop_operation_xyz
x,y,z
-x,y,-z
-x,-y,-z
x,-y,z
1/2+x,1/2+y,z
1/2-x,1/2+y,-z
1/2-x,1/2-y,-z
1/2+x,1/2-y,z
loop_
_atom_site_type_symbol
_atom_site_label
_atom_site_fract_x
_atom_site_fract_y
_atom_site_fract_z
Si Si1 0.261076 0.169350 0.914285
Si Si2 0.395731 0.170496 0.961447
Si Si3 0.680715 0.328784 0.374093
Si Si4 0.651685 0.328090 0.741870
Si Si5 0.928264 0.168382 0.804157
Si Si6 0.439155 0.669329 0.160806
Si Si7 0.301185 0.671225 0.415949
O O1 0.326211 0.203280 0.909982
O O2 0.213062 0.227462 0.818035
O O3 0.252658 0.000000 0.929741
O O4 0.250000 0.250000 0.000000
O O5 0.430656 0.239838 0.896566
O O6 0.409906 0.000000 0.972370
O O7 0.417364 0.240807 0.064512
O O8 0.690803 0.500000 0.368637
O O9 0.623085 0.275216 0.289400
O O10 0.670799 0.286666 0.473496
O O11 0.738289 0.248427 0.366239
O O12 0.648819 0.500000 0.743140
O O13 0.594950 0.269300 0.768340
O O14 0.652867 0.276784 0.638211
O O15 0.990813 0.191159 0.786186
O O16 0.918314 0.000000 0.824528
O O17 0.423757 0.500000 0.135256
O O18 0.288563 0.500000 0.402152
#
# Coordination Sequence:
#
# PCOD8086229 Si02
#       7
#     8   8   8   8   8   8   8
#     4  10  19  31  48  71  98 126 159 198 243 292
#     4  11  22  34  51  76 101 130 170 213 254 295
#     4   9  18  33  52  77 104 127 161 208 249 294
#     4   9  17  31  51  73  98 130 164 199 244 296
#     4  10  21  35  51  72  99 135 174 207 246 297
#     4  10  20  35  52  69  98 139 174 204 245 299
#     4   9  17  32  55  78 101 129 160 201 255 304
#
# _framework density 18.202622999999999
#
# number of rings (size 3 to 8) (size 9 to 14) (size 15 to 20)
#    0.000    2.286    1.429    1.714    0.000    4.571 
#    0.000    2.143    0.000    4.286    0.000    0.000 
#    0.000    6.857    0.000    0.000    0.000    0.000 
#
# Total GULP energy -347149.736591 kJ/mol
# GULP energy per Si atom -12398.204878 kJ/mol
# Density = 1.816119 g / cm^3
# Si number density = 18.202623 Si / 1000 Ang^3
#
#
#
# Elastic Constant Matrix: (Units=GPa)
#
#
# Indices 1 2 3 4 5 6 
#
# 1 122.9249 32.5052 64.5189 0.0000 -17.7052 0.0000
# 2 32.5052 40.1153 28.1200 0.0000 -3.9718 0.0000
# 3 64.5189 28.1200 108.5868 0.0000 -22.5015 0.0000
# 4 0.0000 0.0000 0.0000 19.9268 0.0000 1.2140
# 5 -17.7052 -3.9718 -22.5015 0.0000 28.7892 0.0000
# 6 0.0000 0.0000 0.0000 1.2140 0.0000 22.7396
#
#
#
# Elastic Compliance Matrix: (Units=1/GPa)
#
#
# Indices 1 2 3 4 5 6 
#
# 1 0.013184 -0.006505 -0.005554 0.000000 0.002869 0.000000
# 2 -0.006505 0.033800 -0.005669 0.000000 -0.003768 0.000000
# 3 -0.005554 -0.005669 0.015641 0.000000 0.008027 0.000000
# 4 0.000000 0.000000 0.000000 0.050347 0.000000 -0.002688
# 5 0.002869 -0.003768 0.008027 0.000000 0.042254 0.000000
# 6 0.000000 0.000000 0.000000 -0.002688 0.000000 0.044120
#
#
# Mechanical properties :
#
#
# Convention : Reuss Voigt Hill
#
# Bulk Modulus (GPa) = 36.80771 57.99059 47.39915
# Shear Modulus (GPa) = 20.50384 24.05664 22.28024
#
# Velocity S-wave (km/s) = 3.35986 3.63933 3.50238
# Velocity P-wave (km/s) = 5.94278 7.04182 6.51551
#
# Compressibility (1/GPa) = 0.02716822
#
# Stress axis : x y z
#
# Youngs Moduli (GPa) = 75.85140 29.58604 63.93619
#
# Poissons Ratio (x) = 0.19246 0.35511
# Poissons Ratio (y) = 0.49343 0.36242
# Poissons Ratio (z) = 0.42129 0.16771
#
# Static dielectric constant tensor:
#      x y z
#    x 3.900420 0.000000 0.109820 
#    y 0.000000 3.209650 0.000000 
#    z 0.109820 0.000000 3.665950 
# 
# 
# High freq. dielectric constant tensor:
#      x y z
#    x 1.709740 0.000000 -0.008980 
#    y 0.000000 1.685560 0.000000 
#    z -0.008980 0.000000 1.702980 
# 
# From -- ./inp_files/237452.got.cif
#   From: 2010.06.25/outbox.cif.g09.slc.cpg/sg12_119_cif.got.tgz:237452.got - 2010.06.28 00:19:55.
