data_PCOD8086539
_publ_section_title
;
Structure prediction by ZEFSAII (Michael W. Deem and Ramdas Pophale) SiO2 
 PCOD8086539
Probable space group: C 2/M
;
_chemical_formula_sum "Si O2"
_cell_formula_units_Z 44
_cell_length_a 10.604918
_cell_length_b 20.458374
_cell_length_c 10.737958
_cell_angle_alpha 90.000000
_cell_angle_beta 82.243339
_cell_angle_gamma 90.000000
_cell_volume 2308.384432
_symmetry_space_group_name_H-M "C 2/M"
_symmetry_group_IT_number 12
_symmetry_cell_setting 'monoclinic'
loop_
_space_group_symop_operation_xyz
x,y,z
-x,y,-z
-x,-y,-z
x,-y,z
1/2+x,1/2+y,z
1/2-x,1/2+y,-z
1/2-x,1/2-y,-z
1/2+x,1/2-y,z
loop_
_atom_site_type_symbol
_atom_site_label
_atom_site_fract_x
_atom_site_fract_y
_atom_site_fract_z
Si Si1 0.207949 0.926931 0.730934
Si Si2 0.500000 0.171515 0.000000
Si Si3 0.453195 0.389398 0.873127
Si Si4 0.200581 0.571134 0.008367
Si Si5 0.525880 0.744243 0.234759
Si Si6 0.751953 0.211717 0.370742
O O1 0.283455 0.910056 0.847979
O O2 0.234819 0.868424 0.627074
O O3 0.059181 0.931103 0.786556
O O4 0.245236 0.000000 0.674509
O O5 0.382705 0.124790 0.051214
O O6 0.457431 0.214022 0.890443
O O7 0.416408 0.327294 0.794640
O O8 0.500000 0.361809 0.000000
O O9 0.332117 0.434435 0.915071
O O10 0.135787 0.500000 0.008671
O O11 0.614295 0.775039 0.328975
O O12 0.374994 0.740331 0.283434
O O13 0.750000 0.250000 0.500000
#
# Coordination Sequence:
#
# PCOD8086539 Si02
#       6
#     8   4   8   8   8   8
#     4   9  18  34  57  82 109 147 192 234 282 335
#     4  12  21  32  54  84 123 148 184 226 286 350
#     4   9  17  30  53  82 112 145 183 230 281 338
#     4  10  19  31  49  80 122 155 179 216 278 350
#     4  11  22  36  59  86 115 149 189 240 289 335
#     4  11  23  40  60  82 113 153 199 242 284 335
#
# _framework density 19.060949000000001
#
# number of rings (size 3 to 8) (size 9 to 14) (size 15 to 20)
#    0.000    1.818    2.727    2.455    0.000    3.636 
#    0.000    0.000    0.000   16.364    0.000    0.000 
#    0.000    0.000    0.000    0.000    0.000    0.000 
#
# Total GULP energy -272573.791430 kJ/mol
# GULP energy per Si atom -12389.717792 kJ/mol
# Density = 1.901757 g / cm^3
# Si number density = 19.060949 Si / 1000 Ang^3
#
#
#
# Elastic Constant Matrix: (Units=GPa)
#
#
# Indices 1 2 3 4 5 6 
#
# 1 75.8961 25.1984 6.4125 0.0000 8.7922 0.0000
# 2 25.1984 122.1373 36.8846 0.0000 3.8755 0.0000
# 3 6.4125 36.8846 57.2660 0.0000 7.6953 0.0000
# 4 0.0000 0.0000 0.0000 24.8348 0.0000 -2.8136
# 5 8.7922 3.8755 7.6953 0.0000 23.7763 0.0000
# 6 0.0000 0.0000 0.0000 -2.8136 0.0000 20.2560
#
#
#
# Elastic Compliance Matrix: (Units=1/GPa)
#
#
# Indices 1 2 3 4 5 6 
#
# 1 0.014763 -0.003220 0.001133 0.000000 -0.005301 0.000000
# 2 -0.003220 0.010872 -0.006862 0.000000 0.001640 0.000000
# 3 0.001133 -0.006862 0.022646 0.000000 -0.006630 0.000000
# 4 0.000000 0.000000 0.000000 0.040910 0.000000 0.005683
# 5 -0.005301 0.001640 -0.006630 0.000000 0.045898 0.000000
# 6 0.000000 0.000000 0.000000 0.005683 0.000000 0.050158
#
#
# Mechanical properties :
#
#
# Convention : Reuss Voigt Hill
#
# Bulk Modulus (GPa) = 32.91252 43.58781 38.25016
# Shear Modulus (GPa) = 23.44409 26.22700 24.83555
#
# Velocity S-wave (km/s) = 3.51087 3.71341 3.61356
# Velocity P-wave (km/s) = 5.80857 6.42675 6.12546
#
# Compressibility (1/GPa) = 0.03038358
#
# Stress axis : x y z
#
# Youngs Moduli (GPa) = 67.73548 91.97784 44.15694
#
# Poissons Ratio (x) = 0.29615 -0.05003
# Poissons Ratio (y) = 0.21810 0.30303
# Poissons Ratio (z) = -0.07675 0.63119
#
# Static dielectric constant tensor:
#      x y z
#    x 1.121010 0.000000 -1.760770 
#    y 0.000000 3.556490 0.000000 
#    z -1.760770 0.000000 1.880030 
# 
# 
# High freq. dielectric constant tensor:
#      x y z
#    x 1.743830 0.000000 -0.001970 
#    y 0.000000 1.756490 0.000000 
#    z -0.001970 0.000000 1.692460 
# 
# From -- ./inp_files/49264.got.cif
#   From: 2010.06.25/outbox.cif.g09.slc.cpg/sg12_25_cif.got.tgz:49264.got - 2010.06.28 00:19:55.
