data_PCOD8086171
_publ_section_title
;
Structure prediction by ZEFSAII (Michael W. Deem and Ramdas Pophale) SiO2 
 PCOD8086171
Probable space group: C 2/M
;
_chemical_formula_sum "Si O2"
_cell_formula_units_Z 64
_cell_length_a 21.224825
_cell_length_b 14.455251
_cell_length_c 14.170238
_cell_angle_alpha 90.000000
_cell_angle_beta 116.866546
_cell_angle_gamma 90.000000
_cell_volume 3878.302844
_symmetry_space_group_name_H-M "C 2/M"
_symmetry_group_IT_number 12
_symmetry_cell_setting 'monoclinic'
loop_
_space_group_symop_operation_xyz
x,y,z
-x,y,-z
-x,-y,-z
x,-y,z
1/2+x,1/2+y,z
1/2-x,1/2+y,-z
1/2-x,1/2-y,-z
1/2+x,1/2-y,z
loop_
_atom_site_type_symbol
_atom_site_label
_atom_site_fract_x
_atom_site_fract_y
_atom_site_fract_z
Si Si1 0.147876 0.731237 0.231541
Si Si2 0.493521 0.271163 0.101080
Si Si3 0.220828 0.894276 0.957142
Si Si4 0.137130 0.895500 0.707843
Si Si5 0.658144 0.770401 0.022080
Si Si6 0.153130 0.893964 0.372711
Si Si7 0.004775 0.106878 0.720723
Si Si8 0.264496 0.608698 0.386884
O O1 0.176704 0.728648 0.145118
O O2 0.164545 0.831336 0.288475
O O3 0.187735 0.653739 0.319675
O O4 0.063366 0.711941 0.175753
O O5 0.483213 0.353879 0.167002
O O6 0.500000 0.314237 0.000000
O O7 0.424043 0.206309 0.054754
O O8 0.175107 0.833481 0.998410
O O9 0.226487 0.000000 0.997589
O O10 0.187165 0.890199 0.831715
O O11 0.298619 0.849194 0.003352
O O12 0.060791 0.849187 0.683000
O O13 0.177719 0.847747 0.647257
O O14 0.122587 0.000000 0.665707
O O15 0.210837 0.869077 0.490518
O O16 0.075625 0.877040 0.367031
O O17 0.160005 0.000000 0.344042
O O18 0.024842 0.000000 0.744020
O O19 0.255700 0.500000 0.363072
#
# Coordination Sequence:
#
# PCOD8086171 Si02
#       8
#     8   8   8   8   8   8   8   8
#     4  10  19  32  48  67  93 123 155 190 226 268
#     4   9  18  29  42  64  92 122 153 183 220 269
#     4  10  19  31  48  70  94 122 153 187 226 271
#     4   9  16  27  46  66  88 116 147 185 226 270
#     4  10  19  31  49  70  94 123 153 186 226 271
#     4   9  19  32  47  68  94 121 151 190 231 274
#     4   9  16  28  44  65  93 119 146 184 229 274
#     4  10  19  32  49  68  89 120 159 193 230 269
#
# _framework density 16.502064000000001
#
# number of rings (size 3 to 8) (size 9 to 14) (size 15 to 20)
#    0.000    2.500    2.500    0.375    0.000    1.250 
#    0.000    5.625    0.000    2.250    0.000    0.000 
#    0.000    0.000    0.000   21.750    0.000    0.375 
#
# Total GULP energy -396572.999642 kJ/mol
# GULP energy per Si atom -12392.906239 kJ/mol
# Density = 1.646450 g / cm^3
# Si number density = 16.502064 Si / 1000 Ang^3
#
#
#
# Elastic Constant Matrix: (Units=GPa)
#
#
# Indices 1 2 3 4 5 6 
#
# 1 84.8290 26.9294 30.4794 0.0000 13.4835 0.0000
# 2 26.9294 51.5634 19.5462 0.0000 11.3209 0.0000
# 3 30.4794 19.5462 66.2527 0.0000 18.7813 0.0000
# 4 0.0000 0.0000 0.0000 21.8985 0.0000 0.6886
# 5 13.4835 11.3209 18.7813 0.0000 21.0993 0.0000
# 6 0.0000 0.0000 0.0000 0.6886 0.0000 17.9829
#
#
#
# Elastic Compliance Matrix: (Units=1/GPa)
#
#
# Indices 1 2 3 4 5 6 
#
# 1 0.015788 -0.005842 -0.004772 0.000000 -0.002707 0.000000
# 2 -0.005842 0.025056 -0.002611 0.000000 -0.007387 0.000000
# 3 -0.004772 -0.002611 0.022467 0.000000 -0.015548 0.000000
# 4 0.000000 0.000000 0.000000 0.045720 0.000000 -0.001751
# 5 -0.002707 -0.007387 -0.015548 0.000000 0.066928 0.000000
# 6 0.000000 0.000000 0.000000 -0.001751 0.000000 0.055675
#
#
# Mechanical properties :
#
#
# Convention : Reuss Voigt Hill
#
# Bulk Modulus (GPa) = 27.12887 39.61724 33.37306
# Shear Modulus (GPa) = 18.49305 20.57548 19.53426
#
# Velocity S-wave (km/s) = 3.35124 3.53490 3.44429
# Velocity P-wave (km/s) = 5.60801 6.38124 6.00708
#
# Compressibility (1/GPa) = 0.03686110
#
# Stress axis : x y z
#
# Youngs Moduli (GPa) = 63.33929 39.91048 44.50967
#
# Poissons Ratio (x) = 0.23316 0.21242
# Poissons Ratio (y) = 0.37003 0.11619
# Poissons Ratio (z) = 0.30228 0.10419
#
# Static dielectric constant tensor:
#      x y z
#    x 3.363610 0.000000 0.049550 
#    y 0.000000 2.841900 0.000000 
#    z 0.049550 0.000000 3.080770 
# 
# 
# High freq. dielectric constant tensor:
#      x y z
#    x 1.646950 0.000000 0.004950 
#    y 0.000000 1.594350 0.000000 
#    z 0.004950 0.000000 1.633620 
# 
# From -- ./inp_files/167317.got.cif
#   From: 2010.06.25/outbox.cif.g09.slc.cpg/sg12_84_cif.got.tgz:167317.got - 2010.06.28 00:19:55.
