data_PCOD8086030
_publ_section_title
;
Structure prediction by ZEFSAII (Michael W. Deem and Ramdas Pophale) SiO2 
 PCOD8086030
Probable space group: C 2/M
;
_chemical_formula_sum "Si O2"
_cell_formula_units_Z 64
_cell_length_a 18.574482
_cell_length_b 9.024022
_cell_length_c 22.294392
_cell_angle_alpha 90.000000
_cell_angle_beta 67.667788
_cell_angle_gamma 90.000000
_cell_volume 3456.626514
_symmetry_space_group_name_H-M "C 2/M"
_symmetry_group_IT_number 12
_symmetry_cell_setting 'monoclinic'
loop_
_space_group_symop_operation_xyz
x,y,z
-x,y,-z
-x,-y,-z
x,-y,z
1/2+x,1/2+y,z
1/2-x,1/2+y,-z
1/2-x,1/2-y,-z
1/2+x,1/2-y,z
loop_
_atom_site_type_symbol
_atom_site_label
_atom_site_fract_x
_atom_site_fract_y
_atom_site_fract_z
Si Si1 0.561725 0.827345 0.109122
Si Si2 0.118427 0.327980 0.857697
Si Si3 0.481475 0.828859 0.634706
Si Si4 0.249909 0.176259 0.744897
Si Si5 0.838089 0.174051 0.620144
Si Si6 0.591208 0.332775 0.983431
Si Si7 0.396161 0.828633 0.775331
Si Si8 0.925447 0.166553 0.480827
O O1 0.469955 0.801611 0.133349
O O2 0.608066 0.741260 0.042409
O O3 0.589532 0.757147 0.163860
O O4 0.581650 0.000000 0.096162
O O5 0.140771 0.500000 0.852219
O O6 0.169224 0.243226 0.792500
O O7 0.135223 0.259333 0.917971
O O8 0.416124 0.725277 0.627745
O O9 0.473596 0.807161 0.709199
O O10 0.564154 0.774530 0.580508
O O11 0.466878 0.000000 0.622077
O O12 0.265953 0.237139 0.672311
O O13 0.319020 0.234303 0.767059
O O14 0.245367 0.000000 0.743892
O O15 0.849112 0.208160 0.545144
O O16 0.826294 0.000000 0.634546
O O17 0.623683 0.500000 0.973105
O O18 0.500000 0.329429 0.000000
O O19 0.381729 0.000000 0.791353
O O20 0.000000 0.182262 0.500000
O O21 0.917575 0.000000 0.458807
#
# Coordination Sequence:
#
# PCOD8086030 Si02
#       8
#     8   8   8   8   8   8   8   8
#     4   9  17  32  52  70  90 117 152 187 218 263
#     4  10  19  31  50  72  91 117 151 184 221 266
#     4   9  15  23  38  60  86 116 149 184 224 266
#     4  10  19  31  47  67  94 123 149 183 227 270
#     4   9  16  26  39  57  85 118 151 185 222 265
#     4   9  17  30  48  70  94 116 144 186 229 263
#     4   8  16  30  46  66  92 122 151 182 223 266
#     4   8  14  23  35  54  82 115 148 184 223 262
#
# _framework density 18.515160999999999
#
# number of rings (size 3 to 8) (size 9 to 14) (size 15 to 20)
#    0.000    3.000    0.000    3.375    0.000    4.750 
#    0.000    4.375    0.000    0.000    0.000    0.875 
#    0.000    0.000    0.000    0.000    0.000    0.000 
#
# Total GULP energy -396494.324739 kJ/mol
# GULP energy per Si atom -12390.447648 kJ/mol
# Density = 1.847302 g / cm^3
# Si number density = 18.515161 Si / 1000 Ang^3
#
#
#
# Elastic Constant Matrix: (Units=GPa)
#
#
# Indices 1 2 3 4 5 6 
#
# 1 9.5843 8.0351 -3.6230 0.0000 -1.4259 0.0000
# 2 8.0351 78.4219 24.0726 0.0000 -13.4033 0.0000
# 3 -3.6230 24.0726 57.9375 0.0000 -21.7346 0.0000
# 4 0.0000 0.0000 0.0000 37.4356 0.0000 -6.5767
# 5 -1.4259 -13.4033 -21.7346 0.0000 19.8022 0.0000
# 6 0.0000 0.0000 0.0000 -6.5767 0.0000 11.1204
#
#
#
# Elastic Compliance Matrix: (Units=1/GPa)
#
#
# Indices 1 2 3 4 5 6 
#
# 1 0.131385 -0.016714 0.024591 0.000000 0.025139 -0.000001
# 2 -0.016714 0.017101 -0.007241 0.000000 0.002423 0.000000
# 3 0.024591 -0.007241 0.035073 0.000000 0.035366 0.000000
# 4 0.000000 0.000000 0.000000 0.029810 0.000000 0.017630
# 5 0.025139 0.002423 0.035366 0.000000 0.092767 0.000000
# 6 -0.000001 0.000000 0.000000 0.017630 0.000000 0.100351
#
#
# Mechanical properties :
#
#
# Convention : Reuss Voigt Hill
#
# Bulk Modulus (GPa) = 5.41035 22.54588 13.97812
# Shear Modulus (GPa) = 10.71064 21.50225 16.10644
#
# Velocity S-wave (km/s) = 2.40777 3.41153 2.95262
# Velocity P-wave (km/s) = 3.26470 5.26512 4.38062
#
# Compressibility (1/GPa) = 0.18483104
#
# Stress axis : x y z
#
# Youngs Moduli (GPa) = 7.61124 58.47606 28.51159
#
# Poissons Ratio (x) = 0.97734 -0.70112
# Poissons Ratio (y) = 0.12721 0.20646
# Poissons Ratio (z) = -0.18717 0.42345
#
# Static dielectric constant tensor:
#      x y z
#    x 2.871100 0.000000 -0.010510 
#    y 0.000000 3.408270 0.000000 
#    z -0.010510 0.000000 4.131830 
# 
# 
# High freq. dielectric constant tensor:
#      x y z
#    x 1.644240 0.000000 -0.007150 
#    y 0.000000 1.715910 0.000000 
#    z -0.007150 0.000000 1.743570 
# 
# From -- ./inp_files/345539.got.cif
#   From: 2010.06.25/outbox.cif.g09.slc.cpg/sg12_173_cif.got.tgz:345539.got - 2010.06.28 00:19:55.
