data_PCOD8086759
_publ_section_title
;
Structure prediction by ZEFSAII (Michael W. Deem and Ramdas Pophale) SiO2 
 PCOD8086759
Probable space group: C 2/M
;
_chemical_formula_sum "Si O2"
_cell_formula_units_Z 64
_cell_length_a 15.068292
_cell_length_b 23.896294
_cell_length_c 8.694230
_cell_angle_alpha 90.000000
_cell_angle_beta 83.715465
_cell_angle_gamma 90.000000
_cell_volume 3111.773340
_symmetry_space_group_name_H-M "C 2/M"
_symmetry_group_IT_number 12
_symmetry_cell_setting 'monoclinic'
loop_
_space_group_symop_operation_xyz
x,y,z
-x,y,-z
-x,-y,-z
x,-y,z
1/2+x,1/2+y,z
1/2-x,1/2+y,-z
1/2-x,1/2-y,-z
1/2+x,1/2-y,z
loop_
_atom_site_type_symbol
_atom_site_label
_atom_site_fract_x
_atom_site_fract_y
_atom_site_fract_z
Si Si1 0.040689 0.564028 0.649175
Si Si2 0.210298 0.934990 0.673841
Si Si3 0.583283 0.632013 0.889340
Si Si4 0.363950 0.063585 0.856665
Si Si5 0.697430 0.298026 0.101683
Si Si6 0.856665 0.064467 0.638860
Si Si7 0.037280 0.175368 0.329139
Si Si8 0.806988 0.392457 0.184938
O O1 0.072608 0.500000 0.615582
O O2 0.967146 0.567170 0.795070
O O3 0.000000 0.588982 0.500000
O O4 0.125058 0.600185 0.686258
O O5 0.128855 0.920914 0.801589
O O6 0.302590 0.911096 0.729872
O O7 0.188670 0.911404 0.509017
O O8 0.220109 0.000000 0.651114
O O9 0.546576 0.676808 0.771443
O O10 0.500000 0.607760 0.000000
O O11 0.656318 0.661597 0.981259
O O12 0.334076 0.000000 0.892502
O O13 0.354672 0.097081 0.014843
O O14 0.616412 0.284913 0.240332
O O15 0.772519 0.328801 0.189542
O O16 0.750000 0.250000 0.000000
O O17 0.933559 0.109386 0.665094
O O18 0.778290 0.066307 0.780959
O O19 0.893576 0.000000 0.620573
O O20 0.000000 0.198116 0.500000
#
# Coordination Sequence:
#
# PCOD8086759 Si02
#       8
#     8   8   8   8   8   8   8   8
#     4  10  20  34  53  82 122 161 193 233 294 361
#     4  10  19  32  52  83 124 164 196 230 276 343
#     4  10  20  38  58  84 117 156 190 238 297 356
#     4  10  19  31  50  80 115 155 198 236 284 352
#     4  10  23  43  65  85 109 151 200 257 316 355
#     4  10  20  32  53  88 128 164 196 229 276 345
#     4  10  20  37  64  90 122 157 194 238 296 363
#     4  11  20  35  58  82 112 154 204 246 295 352
#
# _framework density 20.567050999999999
#
# number of rings (size 3 to 8) (size 9 to 14) (size 15 to 20)
#    0.000    1.875    2.500    2.250    0.000    4.000 
#    0.000    4.375    0.000    1.500    0.000    0.000 
#    0.000    0.000    0.000    0.000    0.000    0.000 
#
# Total GULP energy -396531.432797 kJ/mol
# GULP energy per Si atom -12391.607275 kJ/mol
# Density = 2.052024 g / cm^3
# Si number density = 20.567051 Si / 1000 Ang^3
#
#
#
# Elastic Constant Matrix: (Units=GPa)
#
#
# Indices 1 2 3 4 5 6 
#
# 1 91.6402 26.9646 27.6842 0.0000 6.1076 0.0000
# 2 26.9646 39.3257 16.6984 0.0000 -1.3366 0.0000
# 3 27.6842 16.6984 100.2276 0.0000 -1.3048 0.0000
# 4 0.0000 0.0000 0.0000 23.9921 0.0000 -6.8278
# 5 6.1076 -1.3366 -1.3048 0.0000 45.3848 0.0000
# 6 0.0000 0.0000 0.0000 -6.8278 0.0000 19.7848
#
#
#
# Elastic Compliance Matrix: (Units=1/GPa)
#
#
# Indices 1 2 3 4 5 6 
#
# 1 0.014452 -0.008910 -0.002537 0.000000 -0.002280 0.000000
# 2 -0.008910 0.032878 -0.002990 0.000000 0.002081 0.000000
# 3 -0.002537 -0.002990 0.011184 0.000000 0.000575 0.000000
# 4 0.000000 0.000000 0.000000 0.046220 0.000000 0.015951
# 5 -0.002280 0.002081 0.000575 0.000000 0.022419 0.000000
# 6 0.000000 0.000000 0.000000 0.015951 0.000000 0.056049
#
#
# Mechanical properties :
#
#
# Convention : Reuss Voigt Hill
#
# Bulk Modulus (GPa) = 33.73707 41.54309 37.64008
# Shear Modulus (GPa) = 22.52720 28.48877 25.50798
#
# Velocity S-wave (km/s) = 3.31313 3.72582 3.52552
# Velocity P-wave (km/s) = 5.57448 6.22508 5.90874
#
# Compressibility (1/GPa) = 0.02964099
#
# Stress axis : x y z
#
# Youngs Moduli (GPa) = 69.19297 30.41553 89.41614
#
# Poissons Ratio (x) = 0.27099 0.22687
# Poissons Ratio (y) = 0.61649 0.26731
# Poissons Ratio (z) = 0.17556 0.09093
#
# Static dielectric constant tensor:
#      x y z
#    x 3.934570 0.000000 0.099480 
#    y 0.000000 3.135940 0.000000 
#    z 0.099480 0.000000 4.115130 
# 
# 
# High freq. dielectric constant tensor:
#      x y z
#    x 1.819060 0.000000 -0.000120 
#    y 0.000000 1.730800 0.000000 
#    z -0.000120 0.000000 1.825660 
# 
# From -- ./inp_files/65854.got.cif
#   From: 2010.06.25/outbox.cif.g09.slc.cpg/sg12_33_cif.got.tgz:65854.got - 2010.06.28 00:19:55.
