data_PCOD8086555
_publ_section_title
;
Structure prediction by ZEFSAII (Michael W. Deem and Ramdas Pophale) SiO2 
 PCOD8086555
Probable space group: C 2/M
;
_chemical_formula_sum "Si O2"
_cell_formula_units_Z 56
_cell_length_a 8.942428
_cell_length_b 19.355854
_cell_length_c 25.242309
_cell_angle_alpha 90.000000
_cell_angle_beta 41.090652
_cell_angle_gamma 90.000000
_cell_volume 2871.633274
_symmetry_space_group_name_H-M "C 2/M"
_symmetry_group_IT_number 12
_symmetry_cell_setting 'monoclinic'
loop_
_space_group_symop_operation_xyz
x,y,z
-x,y,-z
-x,-y,-z
x,-y,z
1/2+x,1/2+y,z
1/2-x,1/2+y,-z
1/2-x,1/2-y,-z
1/2+x,1/2-y,z
loop_
_atom_site_type_symbol
_atom_site_label
_atom_site_fract_x
_atom_site_fract_y
_atom_site_fract_z
Si Si1 0.809275 0.079081 0.768692
Si Si2 0.453674 0.291831 0.574993
Si Si3 0.885769 0.643203 0.476215
Si Si4 0.709626 0.922296 0.319520
Si Si5 0.765666 0.420282 0.089864
Si Si6 0.844229 0.827778 0.194676
Si Si7 0.077497 0.691395 0.758092
O O1 0.705849 0.090088 0.854839
O O2 0.673902 0.125141 0.762917
O O3 0.076962 0.100633 0.700106
O O4 0.781941 0.000000 0.757370
O O5 0.500000 0.299483 0.500000
O O6 0.614914 0.351344 0.557449
O O7 0.529570 0.215413 0.571907
O O8 0.204725 0.301570 0.666674
O O9 0.000000 0.624058 0.500000
O O10 0.968200 0.583913 0.414029
O O11 0.693573 0.876490 0.271975
O O12 0.751603 0.000000 0.289507
O O13 0.700695 0.500000 0.094254
O O14 0.574832 0.368349 0.117540
O O15 0.000000 0.398902 0.000000
O O16 0.894655 0.756562 0.211194
O O17 0.690889 0.815165 0.183277
#
# Coordination Sequence:
#
# PCOD8086555 Si02
#       7
#     8   8   8   8   8   8   8
#     4   9  20  37  59  88 118 155 195 234 292 352
#     4  10  21  33  51  76 107 150 199 248 295 339
#     4  10  19  31  50  73 104 142 194 246 288 345
#     4  10  19  35  56  79 112 148 193 247 293 351
#     4   9  19  41  69  93 121 152 185 229 283 350
#     4  11  22  36  58  89 113 153 198 233 289 351
#     4  12  23  37  60  83 121 157 197 250 292 339
#
# _framework density 19.501097999999999
#
# number of rings (size 3 to 8) (size 9 to 14) (size 15 to 20)
#    0.000    1.857    1.429    4.714    4.000    1.429 
#    0.000    4.286    0.000    4.286    0.000    0.000 
#    0.000    0.000    0.000    0.000    0.000    0.000 
#
# Total GULP energy -347000.144379 kJ/mol
# GULP energy per Si atom -12392.862299 kJ/mol
# Density = 1.945671 g / cm^3
# Si number density = 19.501098 Si / 1000 Ang^3
#
#
#
# Elastic Constant Matrix: (Units=GPa)
#
#
# Indices 1 2 3 4 5 6 
#
# 1 87.1085 38.8527 6.7039 0.0372 -11.1370 -0.0458
# 2 38.8527 83.3722 19.5243 0.0038 -6.6779 -0.0185
# 3 6.7039 19.5243 85.7511 0.0273 -13.5790 -0.0581
# 4 0.0372 0.0038 0.0273 27.1424 -0.0119 -3.0081
# 5 -11.1370 -6.6779 -13.5790 -0.0119 20.7310 -0.0073
# 6 -0.0458 -0.0185 -0.0581 -3.0081 -0.0073 27.5209
#
#
#
# Elastic Compliance Matrix: (Units=1/GPa)
#
#
# Indices 1 2 3 4 5 6 
#
# 1 0.015356 -0.006945 0.001487 -0.000016 0.006987 0.000024
# 2 -0.006945 0.015923 -0.003192 0.000009 -0.000693 -0.000007
# 3 0.001487 -0.003192 0.013652 -0.000008 0.008713 0.000031
# 4 -0.000016 0.000009 -0.000008 0.037295 0.000012 0.004076
# 5 0.006987 -0.000693 0.008713 0.000012 0.057474 0.000046
# 6 0.000024 -0.000007 0.000031 0.004076 0.000046 0.036782
#
#
# Mechanical properties :
#
#
# Convention : Reuss Voigt Hill
#
# Bulk Modulus (GPa) = 36.19097 42.93261 39.56179
# Shear Modulus (GPa) = 24.63151 27.82224 26.22687
#
# Velocity S-wave (km/s) = 3.55784 3.78127 3.67126
# Velocity P-wave (km/s) = 5.95621 6.41305 6.18885
#
# Compressibility (1/GPa) = 0.02763120
#
# Stress axis : x y z
#
# Youngs Moduli (GPa) = 65.11944 62.80251 73.24974
#
# Poissons Ratio (x) = 0.43616 -0.10893
# Poissons Ratio (y) = 0.45225 0.23383
# Poissons Ratio (z) = -0.09684 0.20048
#
# Static dielectric constant tensor:
#      x y z
#    x 3.420370 0.000010 -0.140480 
#    y 0.000010 3.584080 0.000050 
#    z -0.140480 0.000050 3.555150 
# 
# 
# High freq. dielectric constant tensor:
#      x y z
#    x 1.746240 0.000000 -0.005700 
#    y 0.000000 1.757760 0.000000 
#    z -0.005700 0.000000 1.746760 
# 
# From -- ./inp_files/300874.got.cif
#   From: 2010.06.25/outbox.cif.g09.slc.cpg/sg12_151_cif.got.tgz:300874.got - 2010.06.28 00:19:55.
