data_PCOD8086595
_publ_section_title
;
Structure prediction by ZEFSAII (Michael W. Deem and Ramdas Pophale) SiO2 
 PCOD8086595
Probable space group: C 2/M
;
_chemical_formula_sum "Si O2"
_cell_formula_units_Z 64
_cell_length_a 23.260979
_cell_length_b 8.893899
_cell_length_c 16.961268
_cell_angle_alpha 90.000000
_cell_angle_beta 94.883002
_cell_angle_gamma 90.000000
_cell_volume 3496.225211
_symmetry_space_group_name_H-M "C 2/M"
_symmetry_group_IT_number 12
_symmetry_cell_setting 'monoclinic'
loop_
_space_group_symop_operation_xyz
x,y,z
-x,y,-z
-x,-y,-z
x,-y,z
1/2+x,1/2+y,z
1/2-x,1/2+y,-z
1/2-x,1/2-y,-z
1/2+x,1/2-y,z
loop_
_atom_site_type_symbol
_atom_site_label
_atom_site_fract_x
_atom_site_fract_y
_atom_site_fract_z
Si Si1 0.386741 0.669415 0.166499
Si Si2 0.530561 0.668632 0.674353
Si Si3 0.519854 0.822900 0.917112
Si Si4 0.295071 0.825226 0.253008
Si Si5 0.622421 0.174325 0.589790
Si Si6 0.690939 0.321947 0.464797
Si Si7 0.557066 0.827951 0.236988
Si Si8 0.816239 0.674044 0.702438
O O1 0.368745 0.500000 0.142250
O O2 0.428833 0.672193 0.245374
O O3 0.419381 0.744682 0.096650
O O4 0.329799 0.764084 0.181451
O O5 0.522090 0.500000 0.641382
O O6 0.559535 0.769194 0.609702
O O7 0.468724 0.734790 0.692410
O O8 0.470184 0.775675 0.849219
O O9 0.530670 0.000000 0.918621
O O10 0.500000 0.764295 0.000000
O O11 0.330009 0.796218 0.337495
O O12 0.235501 0.734893 0.250059
O O13 0.282331 0.000000 0.238977
O O14 0.639248 0.268458 0.514832
O O15 0.618492 0.000000 0.567214
O O16 0.697100 0.500000 0.468338
O O17 0.750000 0.250000 0.500000
O O18 0.677316 0.270868 0.375320
O O19 0.625554 0.804751 0.240266
O O20 0.540318 0.000000 0.251313
O O21 0.805310 0.500000 0.679519
#
# Coordination Sequence:
#
# PCOD8086595 Si02
#       8
#     8   8   8   8   8   8   8   8
#     4   9  17  29  48  76 107 134 167 210 255 302
#     4   9  17  30  50  74 100 133 170 213 259 305
#     4   9  17  32  56  83 109 136 168 207 252 305
#     4  10  19  31  50  74 101 134 174 215 257 305
#     4  10  19  32  51  74 100 131 170 219 266 308
#     4  12  23  35  51  73 102 134 174 220 263 308
#     4   9  19  35  53  76 105 138 172 207 255 311
#     4  11  22  35  52  73 103 139 174 214 259 310
#
# _framework density 18.305457000000001
#
# number of rings (size 3 to 8) (size 9 to 14) (size 15 to 20)
#    0.000    2.125    1.250    3.000    0.000    5.250 
#    0.000    0.625    0.000    4.500    0.000    0.000 
#    0.000    0.000    0.000    0.000    0.000    0.000 
#
# Total GULP energy -396870.057314 kJ/mol
# GULP energy per Si atom -12402.189291 kJ/mol
# Density = 1.826379 g / cm^3
# Si number density = 18.305457 Si / 1000 Ang^3
#
#
#
# Elastic Constant Matrix: (Units=GPa)
#
#
# Indices 1 2 3 4 5 6 
#
# 1 110.3874 55.0681 48.0679 0.0000 -26.2774 0.0000
# 2 55.0681 121.9426 41.8281 0.0000 -17.8715 0.0000
# 3 48.0679 41.8281 82.4738 0.0000 -27.3570 0.0000
# 4 0.0000 0.0000 0.0000 22.6861 0.0000 -10.5272
# 5 -26.2774 -17.8715 -27.3570 0.0000 31.2876 0.0000
# 6 0.0000 0.0000 0.0000 -10.5272 0.0000 32.8027
#
#
#
# Elastic Compliance Matrix: (Units=1/GPa)
#
#
# Indices 1 2 3 4 5 6 
#
# 1 0.014440 -0.004163 -0.004325 0.000000 0.005968 0.000000
# 2 -0.004163 0.011199 -0.003228 0.000000 0.000079 0.000000
# 3 -0.004325 -0.003228 0.020376 0.000000 0.012340 0.000000
# 4 0.000000 0.000000 0.000000 0.051793 0.000000 0.016622
# 5 0.005968 0.000079 0.012340 0.000000 0.047809 0.000000
# 6 0.000000 0.000000 0.000000 0.016622 0.000000 0.035820
#
#
# Mechanical properties :
#
#
# Convention : Reuss Voigt Hill
#
# Bulk Modulus (GPa) = 44.27869 67.19243 55.73556
# Shear Modulus (GPa) = 23.54110 28.67791 26.10950
#
# Velocity S-wave (km/s) = 3.59000 3.96236 3.78077
# Velocity P-wave (km/s) = 6.43626 7.59735 7.04078
#
# Compressibility (1/GPa) = 0.02258423
#
# Stress axis : x y z
#
# Youngs Moduli (GPa) = 69.25443 89.29354 49.07713
#
# Poissons Ratio (x) = 0.37169 0.21226
# Poissons Ratio (y) = 0.28828 0.15840
# Poissons Ratio (z) = 0.29953 0.28821
#
# Static dielectric constant tensor:
#      x y z
#    x 3.396310 0.000000 -0.239510 
#    y 0.000000 3.524400 0.000000 
#    z -0.239510 0.000000 3.211190 
# 
# 
# High freq. dielectric constant tensor:
#      x y z
#    x 1.705520 0.000000 -0.028420 
#    y 0.000000 1.722050 0.000000 
#    z -0.028420 0.000000 1.674690 
# 
# From -- ./inp_files/281353.got.cif
#   From: 2010.06.25/outbox.cif.g09.slc.cpg/sg12_141_cif.got.tgz:281353.got - 2010.06.28 00:19:55.
