data_PCOD8086629
_publ_section_title
;
Structure prediction by ZEFSAII (Michael W. Deem and Ramdas Pophale) SiO2 
 PCOD8086629
Probable space group: C 2/M
;
_chemical_formula_sum "Si O2"
_cell_formula_units_Z 64
_cell_length_a 30.377770
_cell_length_b 9.122043
_cell_length_c 14.663213
_cell_angle_alpha 90.000000
_cell_angle_beta 61.580412
_cell_angle_gamma 90.000000
_cell_volume 3573.600809
_symmetry_space_group_name_H-M "C 2/M"
_symmetry_group_IT_number 12
_symmetry_cell_setting 'monoclinic'
loop_
_space_group_symop_operation_xyz
x,y,z
-x,y,-z
-x,-y,-z
x,-y,z
1/2+x,1/2+y,z
1/2-x,1/2+y,-z
1/2-x,1/2-y,-z
1/2+x,1/2-y,z
loop_
_atom_site_type_symbol
_atom_site_label
_atom_site_fract_x
_atom_site_fract_y
_atom_site_fract_z
Si Si1 0.414584 0.669469 0.240237
Si Si2 0.579669 0.169890 0.584220
Si Si3 0.304855 0.671372 0.845816
Si Si4 0.467822 0.669532 0.885100
Si Si5 0.190360 0.330331 0.976633
Si Si6 0.964747 0.331019 0.707394
Si Si7 0.380225 0.829392 0.649498
Si Si8 0.106403 0.672625 0.915530
O O1 0.399380 0.500000 0.251940
O O2 0.399290 0.733788 0.353490
O O3 0.473188 0.693624 0.165323
O O4 0.384281 0.756973 0.192742
O O5 0.521441 0.203685 0.622405
O O6 0.610577 0.214473 0.464228
O O7 0.587058 0.000000 0.601598
O O8 0.314781 0.500000 0.839638
O O9 0.246516 0.710249 0.891431
O O10 0.333081 0.738058 0.731281
O O11 0.326193 0.740324 0.918014
O O12 0.452873 0.500000 0.906924
O O13 0.447683 0.733163 0.809606
O O14 0.443026 0.756378 0.992466
O O15 0.185462 0.500000 0.007796
O O16 0.154518 0.287868 0.928841
O O17 0.958331 0.500000 0.742765
O O18 0.930034 0.289417 0.656707
O O19 0.367642 0.000000 0.671544
O O20 0.098269 0.500000 0.913680
#
# Coordination Sequence:
#
# PCOD8086629 Si02
#       8
#     8   8   8   8   8   8   8   8
#     4  10  21  35  49  69 100 132 162 202 246 285
#     4   9  18  33  51  70  96 133 171 202 236 281
#     4  10  20  34  53  76 102 130 158 193 242 296
#     4  10  20  32  46  70 104 134 160 196 242 289
#     4   9  20  37  53  73 101 129 159 198 242 288
#     4   9  17  30  48  71 100 133 167 200 235 280
#     4  10  19  31  50  75 101 129 164 204 241 282
#     4  11  21  33  52  73  94 126 167 205 240 285
#
# _framework density 17.909106999999999
#
# number of rings (size 3 to 8) (size 9 to 14) (size 15 to 20)
#    0.000    2.250    0.000    3.000    0.000   10.000 
#    0.000    0.000    0.000    4.500    0.000    0.000 
#    0.000    0.000    0.000    0.000    0.000    0.000 
#
# Total GULP energy -396938.473574 kJ/mol
# GULP energy per Si atom -12404.327299 kJ/mol
# Density = 1.786835 g / cm^3
# Si number density = 17.909107 Si / 1000 Ang^3
#
#
#
# Elastic Constant Matrix: (Units=GPa)
#
#
# Indices 1 2 3 4 5 6 
#
# 1 69.1423 44.6089 48.0093 0.0000 19.0732 0.0000
# 2 44.6089 88.9771 59.9243 0.0000 14.1478 0.0000
# 3 48.0093 59.9243 127.5558 0.0000 16.3412 0.0000
# 4 0.0000 0.0000 0.0000 31.6274 0.0000 -0.9741
# 5 19.0732 14.1478 16.3412 0.0000 26.2613 0.0000
# 6 0.0000 0.0000 0.0000 -0.9741 0.0000 19.9645
#
#
#
# Elastic Compliance Matrix: (Units=1/GPa)
#
#
# Indices 1 2 3 4 5 6 
#
# 1 0.026102 -0.008213 -0.004459 0.000000 -0.011758 0.000000
# 2 -0.008213 0.019507 -0.005966 0.000000 -0.000831 0.000000
# 3 -0.004459 -0.005966 0.012490 0.000000 -0.001319 0.000000
# 4 0.000000 0.000000 0.000000 0.031666 0.000000 0.001545
# 5 -0.011758 -0.000831 -0.001319 0.000000 0.047887 0.000000
# 6 0.000000 0.000000 0.000000 0.001545 0.000000 0.050164
#
#
# Mechanical properties :
#
#
# Convention : Reuss Voigt Hill
#
# Bulk Modulus (GPa) = 48.02919 65.64002 56.83460
# Shear Modulus (GPa) = 21.54857 24.44615 22.99736
#
# Velocity S-wave (km/s) = 3.47251 3.69862 3.58734
# Velocity P-wave (km/s) = 6.55395 7.41424 6.99733
#
# Compressibility (1/GPa) = 0.02082067
#
# Stress axis : x y z
#
# Youngs Moduli (GPa) = 38.31159 51.26350 80.06402
#
# Poissons Ratio (x) = 0.42105 0.35703
# Poissons Ratio (y) = 0.31467 0.47769
# Poissons Ratio (z) = 0.17084 0.30586
#
# Static dielectric constant tensor:
#      x y z
#    x 3.201750 0.000000 0.095520 
#    y 0.000000 3.344620 0.000000 
#    z 0.095520 0.000000 3.334910 
# 
# 
# High freq. dielectric constant tensor:
#      x y z
#    x 1.676160 0.000000 0.011450 
#    y 0.000000 1.697460 0.000000 
#    z 0.011450 0.000000 1.687890 
# 
# From -- ./inp_files/249038.got.cif
#   From: 2010.06.25/outbox.cif.g09.slc.cpg/sg12_125_cif.got.tgz:249038.got - 2010.06.28 00:19:55.
