data_PCOD8086216
_publ_section_title
;
Structure prediction by ZEFSAII (Michael W. Deem and Ramdas Pophale) SiO2 
 PCOD8086216
Probable space group: C 2/M
;
_chemical_formula_sum "Si O2"
_cell_formula_units_Z 64
_cell_length_a 5.148181
_cell_length_b 22.965195
_cell_length_c 30.958388
_cell_angle_alpha 90.000000
_cell_angle_beta 105.586482
_cell_angle_gamma 90.000000
_cell_volume 3525.579196
_symmetry_space_group_name_H-M "C 2/M"
_symmetry_group_IT_number 12
_symmetry_cell_setting 'monoclinic'
loop_
_space_group_symop_operation_xyz
x,y,z
-x,y,-z
-x,-y,-z
x,-y,z
1/2+x,1/2+y,z
1/2-x,1/2+y,-z
1/2-x,1/2-y,-z
1/2+x,1/2-y,z
loop_
_atom_site_type_symbol
_atom_site_label
_atom_site_fract_x
_atom_site_fract_y
_atom_site_fract_z
Si Si1 0.872686 0.431614 0.759215
Si Si2 0.818710 0.131742 0.725832
Si Si3 0.090824 0.867243 0.886570
Si Si4 0.502315 0.213314 0.545620
Si Si5 0.000547 0.785569 0.804956
Si Si6 0.733010 0.210207 0.643628
Si Si7 0.782011 0.184491 0.019858
Si Si8 0.443951 0.931833 0.136392
O O1 0.902120 0.500000 0.753290
O O2 0.563401 0.413725 0.738871
O O3 0.052432 0.399020 0.731959
O O4 0.968315 0.413475 0.811373
O O5 0.883123 0.189900 0.755415
O O6 0.764241 0.153714 0.675090
O O7 0.131083 0.819405 0.926282
O O8 0.369045 0.900128 0.890236
O O9 0.987081 0.834951 0.839937
O O10 0.862278 0.914227 0.887792
O O11 0.500000 0.176182 0.500000
O O12 0.197525 0.231321 0.543824
O O13 0.635927 0.182502 0.593310
O O14 0.810135 0.733033 0.812085
O O15 0.516456 0.256401 0.652023
O O16 0.500000 0.151370 0.000000
O O17 0.750000 0.250000 0.000000
O O18 0.000000 0.151466 0.000000
O O19 0.477511 0.000000 0.131475
#
# Coordination Sequence:
#
# PCOD8086216 Si02
#       8
#     8   8   8   8   8   8   8   8
#     4  11  22  38  57  78 106 138 181 233 272 306
#     4  12  21  37  50  77 111 145 180 211 273 321
#     4  12  23  40  64  86 115 144 178 217 261 312
#     4   8  14  25  42  65  94 134 185 227 262 305
#     4  12  24  34  52  80 115 147 173 209 245 313
#     4  10  19  31  48  71 108 153 180 216 267 323
#     4  10  23  40  59  84 113 144 171 207 256 306
#     4  11  22  41  64  89 109 139 184 228 270 308
#
# _framework density 18.153044000000001
#
# number of rings (size 3 to 8) (size 9 to 14) (size 15 to 20)
#    0.000    1.250    2.500    4.500    3.500    2.000 
#    0.000    0.000    0.000    7.500    0.000    0.000 
#    0.000    3.000    0.000    0.000    0.000    0.000 
#
# Total GULP energy -396682.382524 kJ/mol
# GULP energy per Si atom -12396.324454 kJ/mol
# Density = 1.811173 g / cm^3
# Si number density = 18.153044 Si / 1000 Ang^3
#
#
#
# Elastic Constant Matrix: (Units=GPa)
#
#
# Indices 1 2 3 4 5 6 
#
# 1 110.4943 15.3513 23.6944 0.0000 -8.9035 0.0000
# 2 15.3513 54.7191 33.6168 0.0000 -7.5628 0.0000
# 3 23.6944 33.6168 117.0516 0.0000 -9.0971 0.0000
# 4 0.0000 0.0000 0.0000 17.1581 0.0000 -0.2721
# 5 -8.9035 -7.5628 -9.0971 0.0000 24.7543 0.0000
# 6 0.0000 0.0000 0.0000 -0.2721 0.0000 26.9202
#
#
#
# Elastic Compliance Matrix: (Units=1/GPa)
#
#
# Indices 1 2 3 4 5 6 
#
# 1 0.009758 -0.001571 -0.001326 0.000000 0.002542 0.000000
# 2 -0.001571 0.022957 -0.005944 0.000000 0.004264 0.000000
# 3 -0.001326 -0.005944 0.010645 0.000000 0.001619 0.000000
# 4 0.000000 0.000000 0.000000 0.058291 0.000000 0.000589
# 5 0.002542 0.004264 0.001619 0.000000 0.043209 0.000000
# 6 0.000000 0.000000 0.000000 0.000589 0.000000 0.037153
#
#
# Mechanical properties :
#
#
# Convention : Reuss Voigt Hill
#
# Bulk Modulus (GPa) = 38.94610 47.51002 43.22806
# Shear Modulus (GPa) = 24.00922 27.74003 25.87462
#
# Velocity S-wave (km/s) = 3.64070 3.91336 3.77949
# Velocity P-wave (km/s) = 6.25890 6.82993 6.55064
#
# Compressibility (1/GPa) = 0.02567651
#
# Stress axis : x y z
#
# Youngs Moduli (GPa) = 102.48183 43.55999 93.94472
#
# Poissons Ratio (x) = 0.06845 0.12461
# Poissons Ratio (y) = 0.16103 0.55837
# Poissons Ratio (z) = 0.13593 0.25891
#
# Static dielectric constant tensor:
#      x y z
#    x 5.628710 0.000000 0.021120 
#    y 0.000000 2.966480 0.000000 
#    z 0.021120 0.000000 3.569730 
# 
# 
# High freq. dielectric constant tensor:
#      x y z
#    x 1.736740 0.000000 -0.002430 
#    y 0.000000 1.656680 0.000000 
#    z -0.002430 0.000000 1.702430 
# 
# From -- ./inp_files/371683.got.cif
#   From: 2010.06.25/outbox.cif.g09.slc.cpg/sg12_186_cif.got.tgz:371683.got - 2010.06.28 00:19:55.
