data_PCOD8086138
_publ_section_title
;
Structure prediction by ZEFSAII (Michael W. Deem and Ramdas Pophale) SiO2 
 PCOD8086138
Probable space group: C 2/M
;
_chemical_formula_sum "Si O2"
_cell_formula_units_Z 64
_cell_length_a 24.804047
_cell_length_b 9.321334
_cell_length_c 27.214517
_cell_angle_alpha 90.000000
_cell_angle_beta 39.535368
_cell_angle_gamma 90.000000
_cell_volume 4005.315950
_symmetry_space_group_name_H-M "C 2/M"
_symmetry_group_IT_number 12
_symmetry_cell_setting 'monoclinic'
loop_
_space_group_symop_operation_xyz
x,y,z
-x,y,-z
-x,-y,-z
x,-y,z
1/2+x,1/2+y,z
1/2-x,1/2+y,-z
1/2-x,1/2-y,-z
1/2+x,1/2-y,z
loop_
_atom_site_type_symbol
_atom_site_label
_atom_site_fract_x
_atom_site_fract_y
_atom_site_fract_z
Si Si1 0.592459 0.330282 0.415742
Si Si2 0.943860 0.832358 0.828544
Si Si3 0.622523 0.667072 0.667432
Si Si4 0.676781 0.834319 0.159879
Si Si5 0.309225 0.335072 0.994182
Si Si6 0.907611 0.665412 0.683709
Si Si7 0.803893 0.332740 0.577969
Si Si8 0.406558 0.834056 0.409977
O O1 0.500000 0.284937 0.500000
O O2 0.604133 0.500000 0.406838
O O3 0.606256 0.270237 0.351746
O O4 0.663538 0.261326 0.399948
O O5 0.889602 0.755713 0.824894
O O6 0.041360 0.782239 0.756616
O O7 0.937610 0.000000 0.821619
O O8 0.906547 0.797071 0.910127
O O9 0.618771 0.500000 0.657248
O O10 0.704846 0.702288 0.641773
O O11 0.626894 0.747206 0.612800
O O12 0.775195 0.802057 0.073644
O O13 0.666936 0.800251 0.224604
O O14 0.653133 0.000000 0.167472
O O15 0.293469 0.500000 0.993482
O O16 0.250000 0.250000 0.000000
O O17 0.905528 0.500000 0.667202
O O18 0.995631 0.700148 0.648737
O O19 0.820661 0.500000 0.577456
O O20 0.852670 0.284528 0.494749
O O21 0.391328 0.000000 0.409221
#
# Coordination Sequence:
#
# PCOD8086138 Si02
#       8
#     8   8   8   8   8   8   8   8
#     4  11  23  36  51  70  89 114 152 197 239 273
#     4   9  16  26  41  64  94 124 149 180 224 264
#     4  10  20  31  46  69  96 125 156 188 224 267
#     4   9  16  27  43  65  91 120 154 184 216 266
#     4   8  14  24  39  60  89 121 149 179 216 262
#     4  10  19  31  49  70  92 122 155 187 227 273
#     4  10  21  36  50  65  89 124 160 191 226 271
#     4  10  19  31  48  68  92 124 157 186 224 269
#
# _framework density 15.978764999999999
#
# number of rings (size 3 to 8) (size 9 to 14) (size 15 to 20)
#    0.000    2.375    2.500    0.750    0.000    2.500 
#    0.000    0.000    0.000    0.000    0.000    0.875 
#    0.000    7.000    0.000    0.000    0.000    0.000 
#
# Total GULP energy -396550.453488 kJ/mol
# GULP energy per Si atom -12392.201672 kJ/mol
# Density = 1.594240 g / cm^3
# Si number density = 15.978765 Si / 1000 Ang^3
#
#
#
# Elastic Constant Matrix: (Units=GPa)
#
#
# Indices 1 2 3 4 5 6 
#
# 1 62.8739 29.7639 31.2942 0.0017 9.9369 -0.0115
# 2 29.7639 39.6339 26.5020 0.0012 7.1170 -0.0105
# 3 31.2942 26.5020 119.8055 0.0005 11.9526 -0.0077
# 4 0.0017 0.0012 0.0005 18.6834 0.0004 4.3852
# 5 9.9369 7.1170 11.9526 0.0004 12.6083 0.0039
# 6 -0.0115 -0.0105 -0.0077 4.3852 0.0039 23.9755
#
#
#
# Elastic Compliance Matrix: (Units=1/GPa)
#
#
# Indices 1 2 3 4 5 6 
#
# 1 0.026368 -0.016612 -0.002292 -0.000003 -0.009232 0.000007
# 2 -0.016612 0.041697 -0.004244 -0.000003 -0.006421 0.000011
# 3 -0.002292 -0.004244 0.010454 0.000000 -0.005708 0.000001
# 4 -0.000003 -0.000003 0.000000 0.055924 0.000006 -0.010229
# 5 -0.009232 -0.006421 -0.005708 0.000006 0.095624 -0.000026
# 6 0.000007 0.000011 0.000001 -0.010229 -0.000026 0.043580
#
#
# Mechanical properties :
#
#
# Convention : Reuss Voigt Hill
#
# Bulk Modulus (GPa) = 31.03288 44.15926 37.59607
# Shear Modulus (GPa) = 15.12017 20.03699 17.57858
#
# Velocity S-wave (km/s) = 3.07948 3.54499 3.32041
# Velocity P-wave (km/s) = 5.66637 6.66725 6.18708
#
# Compressibility (1/GPa) = 0.03222388
#
# Stress axis : x y z
#
# Youngs Moduli (GPa) = 37.92405 23.98278 95.65872
#
# Poissons Ratio (x) = 0.39839 0.21925
# Poissons Ratio (y) = 0.62998 0.40597
# Poissons Ratio (z) = 0.08692 0.10178
#
# Static dielectric constant tensor:
#      x y z
#    x 2.630050 0.000000 -0.095340 
#    y 0.000000 2.901440 0.000000 
#    z -0.095340 0.000000 3.705170 
# 
# 
# High freq. dielectric constant tensor:
#      x y z
#    x 1.568260 0.000000 -0.001100 
#    y 0.000000 1.615890 0.000000 
#    z -0.001100 0.000000 1.633520 
# 
# From -- ./inp_files/346048.got.cif
#   From: 2010.06.25/outbox.cif.g09.slc.cpg/sg12_174_cif.got.tgz:346048.got - 2010.06.28 00:19:55.
