data_PCOD8086163
_publ_section_title
;
Structure prediction by ZEFSAII (Michael W. Deem and Ramdas Pophale) SiO2 
 PCOD8086163
Probable space group: C 2/M
;
_chemical_formula_sum "Si O2"
_cell_formula_units_Z 48
_cell_length_a 28.497493
_cell_length_b 8.718340
_cell_length_c 12.084765
_cell_angle_alpha 90.000000
_cell_angle_beta 110.657947
_cell_angle_gamma 90.000000
_cell_volume 2809.420773
_symmetry_space_group_name_H-M "C 2/M"
_symmetry_group_IT_number 12
_symmetry_cell_setting 'monoclinic'
loop_
_space_group_symop_operation_xyz
x,y,z
-x,y,-z
-x,-y,-z
x,-y,z
1/2+x,1/2+y,z
1/2-x,1/2+y,-z
1/2-x,1/2-y,-z
1/2+x,1/2-y,z
loop_
_atom_site_type_symbol
_atom_site_label
_atom_site_fract_x
_atom_site_fract_y
_atom_site_fract_z
Si Si1 0.527710 0.677634 0.409067
Si Si2 0.837397 0.324254 0.754247
Si Si3 0.633727 0.821138 0.473580
Si Si4 0.731691 0.678923 0.597788
Si Si5 0.506544 0.180894 0.839428
Si Si6 0.573804 0.679577 0.067192
O O1 0.500000 0.710325 0.500000
O O2 0.526491 0.500000 0.374695
O O3 0.584728 0.730718 0.469793
O O4 0.498253 0.773672 0.292032
O O5 0.850836 0.500000 0.790442
O O6 0.853717 0.282698 0.643040
O O7 0.777638 0.295211 0.722428
O O8 0.867647 0.218166 0.865665
O O9 0.680035 0.763111 0.589562
O O10 0.625097 0.000000 0.486119
O O11 0.720989 0.500000 0.572249
O O12 0.750000 0.750000 0.500000
O O13 0.457051 0.235129 0.862608
O O14 0.511815 0.000000 0.855299
O O15 0.555832 0.260530 0.932552
O O16 0.564043 0.500000 0.067639
#
# Coordination Sequence:
#
# PCOD8086163 Si02
#       6
#     8   8   8   8   8   8
#     4  11  23  37  53  73  98 130 170 211 249 292
#     4   9  17  29  45  70 100 132 163 197 245 296
#     4  10  19  31  48  69  98 131 165 204 247 295
#     4   9  17  28  44  66  97 130 164 201 243 295
#     4  11  21  34  50  69  98 131 166 205 247 297
#     4  11  20  30  49  73 100 132 165 202 247 296
#
# _framework density 17.085372
#
# number of rings (size 3 to 8) (size 9 to 14) (size 15 to 20)
#    0.000    1.833    1.667    6.500    0.000    4.667 
#    0.000    0.000    0.000    0.000    0.000    1.167 
#    0.000    0.000    0.000    0.000    0.000    0.000 
#
# Total GULP energy -297558.104828 kJ/mol
# GULP energy per Si atom -12398.254368 kJ/mol
# Density = 1.704648 g / cm^3
# Si number density = 17.085372 Si / 1000 Ang^3
#
#
#
# Elastic Constant Matrix: (Units=GPa)
#
#
# Indices 1 2 3 4 5 6 
#
# 1 85.4900 27.0287 46.5659 0.0000 24.3793 0.0000
# 2 27.0287 73.2981 32.9560 0.0000 9.2908 0.0000
# 3 46.5659 32.9560 69.6963 0.0000 21.2972 0.0000
# 4 0.0000 0.0000 0.0000 24.9268 0.0000 9.4264
# 5 24.3793 9.2908 21.2972 0.0000 28.6037 0.0000
# 6 0.0000 0.0000 0.0000 9.4264 0.0000 26.0810
#
#
#
# Elastic Compliance Matrix: (Units=1/GPa)
#
#
# Indices 1 2 3 4 5 6 
#
# 1 0.020319 -0.001891 -0.009809 0.000000 -0.009400 0.000000
# 2 -0.001891 0.017511 -0.007471 0.000000 0.001486 0.000000
# 3 -0.009809 -0.007471 0.027364 0.000000 -0.009587 0.000000
# 4 0.000000 0.000000 0.000000 0.046469 0.000000 -0.016795
# 5 -0.009400 0.001486 -0.009587 0.000000 0.049628 0.000000
# 6 0.000000 0.000000 0.000000 -0.016795 0.000000 0.044412
#
#
# Mechanical properties :
#
#
# Convention : Reuss Voigt Hill
#
# Bulk Modulus (GPa) = 37.24115 49.06507 43.15311
# Shear Modulus (GPa) = 19.76333 24.05122 21.90728
#
# Velocity S-wave (km/s) = 3.40478 3.75601 3.58470
# Velocity P-wave (km/s) = 6.10746 6.89856 6.51503
#
# Compressibility (1/GPa) = 0.02685201
#
# Stress axis : x y z
#
# Youngs Moduli (GPa) = 49.21590 57.10764 36.54472
#
# Poissons Ratio (x) = 0.10798 0.35846
# Poissons Ratio (y) = 0.09306 0.27302
# Poissons Ratio (z) = 0.48275 0.42665
#
# Static dielectric constant tensor:
#      x y z
#    x 3.366180 0.000000 0.518840 
#    y 0.000000 3.338480 0.000000 
#    z 0.518840 0.000000 3.094930 
# 
# 
# High freq. dielectric constant tensor:
#      x y z
#    x 1.642890 0.000000 0.045970 
#    y 0.000000 1.678230 0.000000 
#    z 0.045970 0.000000 1.625450 
# 
# From -- ./inp_files/179307.got.cif
#   From: 2010.06.25/outbox.cif.g09.slc.cpg/sg12_90_cif.got.tgz:179307.got - 2010.06.28 00:19:55.
