data_PCOD8086646
_publ_section_title
;
Structure prediction by ZEFSAII (Michael W. Deem and Ramdas Pophale) SiO2 
 PCOD8086646
Probable space group: C 2/M
;
_chemical_formula_sum "Si O2"
_cell_formula_units_Z 64
_cell_length_a 19.345160
_cell_length_b 9.087175
_cell_length_c 20.051452
_cell_angle_alpha 90.000000
_cell_angle_beta 90.789233
_cell_angle_gamma 90.000000
_cell_volume 3524.567573
_symmetry_space_group_name_H-M "C 2/M"
_symmetry_group_IT_number 12
_symmetry_cell_setting 'monoclinic'
loop_
_space_group_symop_operation_xyz
x,y,z
-x,y,-z
-x,-y,-z
x,-y,z
1/2+x,1/2+y,z
1/2-x,1/2+y,-z
1/2-x,1/2-y,-z
1/2+x,1/2-y,z
loop_
_atom_site_type_symbol
_atom_site_label
_atom_site_fract_x
_atom_site_fract_y
_atom_site_fract_z
Si Si1 0.316639 0.327472 0.650301
Si Si2 0.823857 0.827009 0.997157
Si Si3 0.419330 0.168975 0.744922
Si Si4 0.328761 0.328266 0.362892
Si Si5 0.426502 0.170018 0.901240
Si Si6 0.934786 0.830496 0.107622
Si Si7 0.179457 0.167888 0.493145
Si Si8 0.942360 0.171312 0.259952
O O1 0.316899 0.500000 0.666063
O O2 0.354486 0.245307 0.710129
O O3 0.238523 0.270257 0.647397
O O4 0.355061 0.291046 0.579063
O O5 0.866985 0.760252 0.937013
O O6 0.813287 0.000000 0.985165
O O7 0.750000 0.750000 0.000000
O O8 0.865246 0.795365 0.066094
O O9 0.411409 0.190866 0.823396
O O10 0.489112 0.242140 0.719281
O O11 0.420726 0.000000 0.724277
O O12 0.309957 0.500000 0.351953
O O13 0.362376 0.303593 0.438146
O O14 0.383233 0.273922 0.309011
O O15 0.502235 0.233337 0.920104
O O16 0.424128 0.000000 0.922984
O O17 0.918828 0.792126 0.184270
O O18 0.957084 0.000000 0.099488
O O19 0.250000 0.250000 0.500000
O O20 0.201077 0.000000 0.488573
O O21 0.958121 0.000000 0.269662
#
# Coordination Sequence:
#
# PCOD8086646 Si02
#       8
#     8   8   8   8   8   8   8   8
#     4  10  19  31  50  75 102 134 172 213 255 304
#     4  11  23  37  54  79 111 141 169 208 254 298
#     4  10  21  36  53  74 102 134 169 212 258 304
#     4   9  17  31  52  76 102 134 170 210 257 305
#     4  10  21  37  57  78 100 132 174 214 253 303
#     4   9  19  36  56  77 102 134 170 206 249 303
#     4   8  15  28  46  70  99 131 169 209 250 300
#     4   9  18  34  55  76 100 132 169 208 251 302
#
# _framework density 18.158256999999999
#
# number of rings (size 3 to 8) (size 9 to 14) (size 15 to 20)
#    0.000    2.500    0.000    1.875    0.000    6.000 
#    0.000    3.125    0.000    3.750    0.000    0.000 
#    0.000    0.000    0.000    0.000    0.000    0.000 
#
# Total GULP energy -396630.888541 kJ/mol
# GULP energy per Si atom -12394.715267 kJ/mol
# Density = 1.811693 g / cm^3
# Si number density = 18.158257 Si / 1000 Ang^3
#
#
#
# Elastic Constant Matrix: (Units=GPa)
#
#
# Indices 1 2 3 4 5 6 
#
# 1 94.9807 49.5481 45.3875 0.0000 -15.6992 0.0000
# 2 49.5481 85.8411 40.7612 0.0000 -6.0217 0.0000
# 3 45.3875 40.7612 70.9142 0.0000 -19.4168 0.0000
# 4 0.0000 0.0000 0.0000 24.4738 0.0000 0.8652
# 5 -15.6992 -6.0217 -19.4168 0.0000 26.8523 0.0000
# 6 0.0000 0.0000 0.0000 0.8652 0.0000 34.1956
#
#
#
# Elastic Compliance Matrix: (Units=1/GPa)
#
#
# Indices 1 2 3 4 5 6 
#
# 1 0.017911 -0.007096 -0.006176 0.000000 0.004414 0.000000
# 2 -0.007096 0.019155 -0.008015 0.000000 -0.005649 0.000000
# 3 -0.006176 -0.008015 0.026410 0.000000 0.013688 0.000000
# 4 0.000000 0.000000 0.000000 0.040897 0.000000 -0.001035
# 5 0.004414 -0.005649 0.013688 0.000000 0.048453 0.000000
# 6 0.000000 0.000000 0.000000 -0.001035 0.000000 0.029270
#
#
# Mechanical properties :
#
#
# Convention : Reuss Voigt Hill
#
# Bulk Modulus (GPa) = 47.84512 58.12552 52.98532
# Shear Modulus (GPa) = 21.58544 24.84029 23.21286
#
# Velocity S-wave (km/s) = 3.45155 3.70265 3.57930
# Velocity P-wave (km/s) = 6.50311 7.09644 6.80624
#
# Compressibility (1/GPa) = 0.02090077
#
# Stress axis : x y z
#
# Youngs Moduli (GPa) = 55.83069 52.20545 37.86477
#
# Poissons Ratio (x) = 0.37045 0.23387
# Poissons Ratio (y) = 0.39618 0.30350
# Poissons Ratio (z) = 0.34483 0.41844
#
# Static dielectric constant tensor:
#      x y z
#    x 3.111770 0.000000 -0.039370 
#    y 0.000000 3.181420 0.000000 
#    z -0.039370 0.000000 3.832410 
# 
# 
# High freq. dielectric constant tensor:
#      x y z
#    x 1.678190 0.000000 -0.000550 
#    y 0.000000 1.711290 0.000000 
#    z -0.000550 0.000000 1.720420 
# 
# From -- ./inp_files/314043.got.cif
#   From: 2010.06.25/outbox.cif.g09.slc.cpg/sg12_158_cif.got.tgz:314043.got - 2010.06.28 00:19:55.
