data_PCOD8086055
_publ_section_title
;
Structure prediction by ZEFSAII (Michael W. Deem and Ramdas Pophale) SiO2 
 PCOD8086055
Probable space group: C 2/M
;
_chemical_formula_sum "Si O2"
_cell_formula_units_Z 56
_cell_length_a 18.977136
_cell_length_b 8.862648
_cell_length_c 18.561663
_cell_angle_alpha 90.000000
_cell_angle_beta 85.122244
_cell_angle_gamma 90.000000
_cell_volume 3110.536850
_symmetry_space_group_name_H-M "C 2/M"
_symmetry_group_IT_number 12
_symmetry_cell_setting 'monoclinic'
loop_
_space_group_symop_operation_xyz
x,y,z
-x,y,-z
-x,-y,-z
x,-y,z
1/2+x,1/2+y,z
1/2-x,1/2+y,-z
1/2-x,1/2-y,-z
1/2+x,1/2-y,z
loop_
_atom_site_type_symbol
_atom_site_label
_atom_site_fract_x
_atom_site_fract_y
_atom_site_fract_z
Si Si1 0.403719 0.177298 0.201437
Si Si2 0.699928 0.177815 0.904403
Si Si3 0.328448 0.320378 0.489916
Si Si4 0.504007 0.328680 0.081632
Si Si5 0.925263 0.319657 0.359337
Si Si6 0.157570 0.170796 0.046051
Si Si7 0.943409 0.331931 0.568379
O O1 0.329502 0.229178 0.171192
O O2 0.465721 0.227130 0.143082
O O3 0.409739 0.245200 0.280847
O O4 0.409488 0.000000 0.208894
O O5 0.779441 0.239239 0.909968
O O6 0.695638 0.000000 0.909313
O O7 0.649156 0.241711 0.971352
O O8 0.321797 0.500000 0.488530
O O9 0.250000 0.250000 0.500000
O O10 0.368649 0.260671 0.415836
O O11 0.376066 0.274020 0.555875
O O12 0.474599 0.500000 0.086979
O O13 0.586105 0.320256 0.097890
O O14 0.500000 0.267668 0.000000
O O15 0.915008 0.500000 0.368313
O O16 0.007746 0.275754 0.368831
O O17 0.176650 0.000000 0.023554
O O18 0.913114 0.500000 0.584799
O O19 0.000000 0.335462 0.500000
#
# Coordination Sequence:
#
# PCOD8086055 Si02
#       7
#     8   8   8   8   8   8   8
#     4  10  20  33  51  74 101 133 168 210 258 307
#     4   9  17  29  47  69  92 123 163 207 251 300
#     4  11  21  34  56  84 110 137 172 212 251 301
#     4  10  19  31  47  68  96 131 169 215 262 304
#     4   9  19  36  54  75 107 142 172 211 264 315
#     4   9  17  30  46  65  91 123 163 209 257 301
#     4   8  15  31  54  76 103 138 171 206 251 303
#
# _framework density 18.003322000000001
#
# number of rings (size 3 to 8) (size 9 to 14) (size 15 to 20)
#    0.000    2.571    1.429    2.143    0.000    4.000 
#    0.000    1.429    0.000    1.714    0.000    0.000 
#    0.000    0.000    0.000    0.000    0.000    0.000 
#
# Total GULP energy -346916.172894 kJ/mol
# GULP energy per Si atom -12389.863318 kJ/mol
# Density = 1.796235 g / cm^3
# Si number density = 18.003322 Si / 1000 Ang^3
#
#
#
# Elastic Constant Matrix: (Units=GPa)
#
#
# Indices 1 2 3 4 5 6 
#
# 1 122.4508 43.2703 61.3093 0.0000 18.0301 0.0000
# 2 43.2703 43.2605 29.3033 0.0000 9.9901 0.0000
# 3 61.3093 29.3033 112.3278 0.0000 26.5936 0.0000
# 4 0.0000 0.0000 0.0000 21.0412 0.0000 -1.6731
# 5 18.0301 9.9901 26.5936 0.0000 28.8922 0.0000
# 6 0.0000 0.0000 0.0000 -1.6731 0.0000 26.8408
#
#
#
# Elastic Compliance Matrix: (Units=1/GPa)
#
#
# Indices 1 2 3 4 5 6 
#
# 1 0.014698 -0.011190 -0.004920 0.000000 -0.000775 0.000000
# 2 -0.011190 0.036925 -0.002756 0.000000 -0.003247 0.000000
# 3 -0.004920 -0.002756 0.014518 0.000000 -0.009340 0.000000
# 4 0.000000 0.000000 0.000000 0.047763 0.000000 0.002977
# 5 -0.000775 -0.003247 -0.009340 0.000000 0.044814 0.000000
# 6 0.000000 0.000000 0.000000 0.002977 0.000000 0.037442
#
#
# Mechanical properties :
#
#
# Convention : Reuss Voigt Hill
#
# Bulk Modulus (GPa) = 35.19992 60.64500 47.92246
# Shear Modulus (GPa) = 20.54547 24.96526 22.75536
#
# Velocity S-wave (km/s) = 3.38184 3.72789 3.55907
# Velocity P-wave (km/s) = 5.90283 7.23105 6.60044
#
# Compressibility (1/GPa) = 0.02840916
#
# Stress axis : x y z
#
# Youngs Moduli (GPa) = 68.03626 27.08166 68.88015
#
# Poissons Ratio (x) = 0.30304 0.33887
# Poissons Ratio (y) = 0.76133 0.18986
# Poissons Ratio (z) = 0.33472 0.07465
#
# Static dielectric constant tensor:
#      x y z
#    x 3.814100 0.000000 0.523010 
#    y 0.000000 3.214540 0.000000 
#    z 0.523010 0.000000 3.396760 
# 
# 
# High freq. dielectric constant tensor:
#      x y z
#    x 1.710670 0.000000 0.023780 
#    y 0.000000 1.684170 0.000000 
#    z 0.023780 0.000000 1.667490 
# 
# From -- ./inp_files/280247.got.cif
#   From: 2010.06.25/outbox.cif.g09.slc.cpg/sg12_141_cif.got.tgz:280247.got - 2010.06.28 00:19:55.
