data_PCOD8086869
_publ_section_title
;
Structure prediction by ZEFSAII (Michael W. Deem and Ramdas Pophale) SiO2 
 PCOD8086869
Probable space group: C 2/M
;
_chemical_formula_sum "Si O2"
_cell_formula_units_Z 64
_cell_length_a 20.542597
_cell_length_b 9.048640
_cell_length_c 20.528910
_cell_angle_alpha 90.000000
_cell_angle_beta 60.170662
_cell_angle_gamma 90.000000
_cell_volume 3310.392359
_symmetry_space_group_name_H-M "C 2/M"
_symmetry_group_IT_number 12
_symmetry_cell_setting 'monoclinic'
loop_
_space_group_symop_operation_xyz
x,y,z
-x,y,-z
-x,-y,-z
x,-y,z
1/2+x,1/2+y,z
1/2-x,1/2+y,-z
1/2-x,1/2-y,-z
1/2+x,1/2-y,z
loop_
_atom_site_type_symbol
_atom_site_label
_atom_site_fract_x
_atom_site_fract_y
_atom_site_fract_z
Si Si1 0.662395 0.828669 0.419145
Si Si2 0.168280 0.175632 0.653532
Si Si3 0.327740 0.173959 0.844323
Si Si4 0.159115 0.824630 0.911646
Si Si5 0.920240 0.176258 0.177527
Si Si6 0.579149 0.829856 0.328461
Si Si7 0.576476 0.324949 0.574600
Si Si8 0.410476 0.675284 0.919008
O O1 0.746457 0.765736 0.386473
O O2 0.638356 0.803946 0.356777
O O3 0.605695 0.739555 0.492545
O O4 0.658065 0.000000 0.441072
O O5 0.122355 0.239598 0.737884
O O6 0.129243 0.232744 0.606986
O O7 0.167976 0.000000 0.657235
O O8 0.244330 0.232281 0.870989
O O9 0.380498 0.217363 0.757952
O O10 0.354581 0.254584 0.895377
O O11 0.328028 0.000000 0.856795
O O12 0.119563 0.758887 0.867054
O O13 0.157382 0.000000 0.908924
O O14 0.113874 0.769700 0.997395
O O15 0.005659 0.232438 0.136737
O O16 0.917920 0.000000 0.177866
O O17 0.507887 0.726317 0.372076
O O18 0.552797 0.000000 0.340215
O O19 0.577352 0.500000 0.570117
O O20 0.404839 0.500000 0.916089
#
# Coordination Sequence:
#
# PCOD8086869 Si02
#       8
#     8   8   8   8   8   8   8   8
#     4  10  20  36  56  75  98 132 174 213 247 293
#     4   9  18  32  51  75 102 133 169 210 254 297
#     4  10  20  34  52  74 102 136 172 210 251 297
#     4   9  17  30  50  76 103 133 172 213 250 292
#     4   9  16  29  51  77 102 130 170 216 253 289
#     4  10  21  36  54  75  99 133 176 214 247 291
#     4  11  22  35  53  79 108 133 160 203 260 312
#     4  10  19  31  51  79 107 134 166 208 256 302
#
# _framework density 19.333055999999999
#
# number of rings (size 3 to 8) (size 9 to 14) (size 15 to 20)
#    0.000    2.250    0.000    3.375    0.000    8.000 
#    0.000    0.625    0.000    3.000    0.000    0.000 
#    0.000    0.000    0.000    0.000    0.000    0.000 
#
# Total GULP energy -396888.655621 kJ/mol
# GULP energy per Si atom -12402.770488 kJ/mol
# Density = 1.928905 g / cm^3
# Si number density = 19.333056 Si / 1000 Ang^3
#
#
#
# Elastic Constant Matrix: (Units=GPa)
#
#
# Indices 1 2 3 4 5 6 
#
# 1 91.2392 17.2566 5.6977 -0.0001 -4.4617 0.0004
# 2 17.2566 28.0062 18.1150 -0.0003 -0.9693 0.0004
# 3 5.6977 18.1150 88.1973 0.0000 -3.6826 0.0004
# 4 -0.0001 -0.0003 0.0000 10.6972 0.0001 6.3051
# 5 -4.4617 -0.9693 -3.6826 0.0001 42.8329 0.0000
# 6 0.0004 0.0004 0.0004 6.3051 0.0000 25.1869
#
#
#
# Elastic Compliance Matrix: (Units=1/GPa)
#
#
# Indices 1 2 3 4 5 6 
#
# 1 0.012527 -0.008287 0.000943 0.000000 0.001198 0.000000
# 2 -0.008287 0.046661 -0.009073 0.000002 -0.000587 -0.000001
# 3 0.000943 -0.009073 0.013184 0.000000 0.001026 0.000000
# 4 0.000000 0.000002 0.000000 0.109663 0.000000 -0.027452
# 5 0.001198 -0.000587 0.001026 0.000000 0.023546 0.000000
# 6 0.000000 -0.000001 0.000000 -0.027452 0.000000 0.046575
#
#
# Mechanical properties :
#
#
# Convention : Reuss Voigt Hill
#
# Bulk Modulus (GPa) = 25.29260 32.17570 28.73415
# Shear Modulus (GPa) = 16.76893 26.83497 21.80195
#
# Velocity S-wave (km/s) = 2.94831 3.72968 3.36177
# Velocity P-wave (km/s) = 4.97001 5.93517 5.47391
#
# Compressibility (1/GPa) = 0.03953725
#
# Stress axis : x y z
#
# Youngs Moduli (GPa) = 79.82528 21.43114 75.85149
#
# Poissons Ratio (x) = 0.17761 -0.07152
# Poissons Ratio (y) = 0.66154 0.68820
# Poissons Ratio (z) = -0.07527 0.19444
#
# Static dielectric constant tensor:
#      x y z
#    x 3.730430 0.000000 -0.000890 
#    y 0.000000 3.048130 0.000000 
#    z -0.000890 0.000000 3.740150 
# 
# 
# High freq. dielectric constant tensor:
#      x y z
#    x 1.770640 0.000000 -0.000130 
#    y 0.000000 1.701750 0.000000 
#    z -0.000130 0.000000 1.771130 
# 
# From -- ./inp_files/319783.got.cif
#   From: 2010.06.25/outbox.cif.g09.slc.cpg/sg12_160_cif.got.tgz:319783.got - 2010.06.28 00:19:55.
