data_PCOD8086497
_publ_section_title
;
Structure prediction by ZEFSAII (Michael W. Deem and Ramdas Pophale) SiO2 
 PCOD8086497
Probable space group: C 2/M
;
_chemical_formula_sum "Si O2"
_cell_formula_units_Z 48
_cell_length_a 18.847346
_cell_length_b 8.870303
_cell_length_c 15.356009
_cell_angle_alpha 90.000000
_cell_angle_beta 89.994380
_cell_angle_gamma 90.000000
_cell_volume 2567.243213
_symmetry_space_group_name_H-M "C 2/M"
_symmetry_group_IT_number 12
_symmetry_cell_setting 'monoclinic'
loop_
_space_group_symop_operation_xyz
x,y,z
-x,y,-z
-x,-y,-z
x,-y,z
1/2+x,1/2+y,z
1/2-x,1/2+y,-z
1/2-x,1/2-y,-z
1/2+x,1/2-y,z
loop_
_atom_site_type_symbol
_atom_site_label
_atom_site_fract_x
_atom_site_fract_y
_atom_site_fract_z
Si Si1 0.082779 0.174927 0.147415
Si Si2 0.421654 0.678522 0.656881
Si Si3 0.326478 0.320436 0.500033
Si Si4 0.673159 0.177055 0.999962
Si Si5 0.078310 0.821480 0.656806
Si Si6 0.917179 0.174924 0.147488
O O1 0.102909 0.222967 0.245926
O O2 0.999975 0.205713 0.129256
O O3 0.100232 0.000000 0.130427
O O4 0.130142 0.275961 0.085304
O O5 0.426476 0.500000 0.649916
O O6 0.366906 0.741258 0.585652
O O7 0.499977 0.745738 0.637822
O O8 0.321235 0.500000 0.500019
O O9 0.250000 0.250000 0.500000
O O10 0.366972 0.258715 0.414460
O O11 0.630224 0.224041 0.914568
O O12 0.683128 0.000000 0.999968
O O13 0.750000 0.250000 0.000000
O O14 0.102909 0.777050 0.753982
O O15 0.073495 0.000000 0.649822
O O16 0.899721 0.000000 0.130507
#
# Coordination Sequence:
#
# PCOD8086497 Si02
#       6
#     8   8   8   8   8   8
#     4   9  18  35  58  81 105 134 170 213 261 311
#     4   8  15  30  54  79 100 130 173 213 247 292
#     4  10  19  31  49  75 107 138 170 208 250 298
#     4  12  25  38  53  75 105 139 175 214 259 310
#     4   8  15  30  54  79 100 130 173 213 247 292
#     4   9  18  35  58  81 105 134 170 213 261 311
#
# _framework density 18.697099000000001
#
# number of rings (size 3 to 8) (size 9 to 14) (size 15 to 20)
#    0.000    2.667    0.000    4.500    0.000    6.000 
#    0.000    5.000    0.000    4.000    0.000    0.000 
#    0.000    0.000    0.000    0.000    0.000    0.000 
#
# Total GULP energy -297546.099069 kJ/mol
# GULP energy per Si atom -12397.754128 kJ/mol
# Density = 1.865454 g / cm^3
# Si number density = 18.697099 Si / 1000 Ang^3
#
#
#
# Elastic Constant Matrix: (Units=GPa)
#
#
# Indices 1 2 3 4 5 6 
#
# 1 137.7855 52.8432 104.7090 0.0000 0.2355 0.0000
# 2 52.8432 70.3250 51.1460 0.0000 0.0966 0.0000
# 3 104.7090 51.1460 173.3045 0.0000 0.2502 0.0000
# 4 0.0000 0.0000 0.0000 16.2728 0.0000 0.0133
# 5 0.2355 0.0966 0.2502 0.0000 10.5222 0.0000
# 6 0.0000 0.0000 0.0000 0.0133 0.0000 31.1564
#
#
#
# Elastic Compliance Matrix: (Units=1/GPa)
#
#
# Indices 1 2 3 4 5 6 
#
# 1 0.015197 -0.006037 -0.007400 0.000000 -0.000109 0.000000
# 2 -0.006037 0.020504 -0.002404 0.000000 0.000004 0.000000
# 3 -0.007400 -0.002404 0.010951 0.000000 -0.000073 0.000000
# 4 0.000000 0.000000 0.000000 0.061452 0.000000 -0.000026
# 5 -0.000109 0.000004 -0.000073 0.000000 0.095041 0.000000
# 6 0.000000 0.000000 0.000000 -0.000026 0.000000 0.032096
#
#
# Mechanical properties :
#
#
# Convention : Reuss Voigt Hill
#
# Bulk Modulus (GPa) = 66.79937 88.75683 77.77810
# Shear Modulus (GPa) = 18.38830 23.10474 20.74652
#
# Velocity S-wave (km/s) = 3.13946 3.51912 3.33470
# Velocity P-wave (km/s) = 6.99616 8.00539 7.51773
#
# Compressibility (1/GPa) = 0.01497020
#
# Stress axis : x y z
#
# Youngs Moduli (GPa) = 65.80422 48.77059 91.31923
#
# Poissons Ratio (x) = 0.29443 0.67575
# Poissons Ratio (y) = 0.39726 0.21951
# Poissons Ratio (z) = 0.48694 0.11723
#
# Static dielectric constant tensor:
#      x y z
#    x 3.522430 0.000000 0.000250 
#    y 0.000000 3.005940 0.000000 
#    z 0.000250 0.000000 3.820920 
# 
# 
# High freq. dielectric constant tensor:
#      x y z
#    x 1.726580 0.000000 0.000010 
#    y 0.000000 1.682930 0.000000 
#    z 0.000010 0.000000 1.745300 
# 
# From -- ./inp_files/221643.got.cif
#   From: 2010.06.25/outbox.cif.g09.slc.cpg/sg12_111_cif.got.tgz:221643.got - 2010.06.28 00:19:55.
