data_PCOD8086474
_publ_section_title
;
Structure prediction by ZEFSAII (Michael W. Deem and Ramdas Pophale) SiO2 
 PCOD8086474
Probable space group: C 2/M
;
_chemical_formula_sum "Si O2"
_cell_formula_units_Z 48
_cell_length_a 27.196449
_cell_length_b 8.751088
_cell_length_c 20.648222
_cell_angle_alpha 90.000000
_cell_angle_beta 147.087113
_cell_angle_gamma 90.000000
_cell_volume 2670.220978
_symmetry_space_group_name_H-M "C 2/M"
_symmetry_group_IT_number 12
_symmetry_cell_setting 'monoclinic'
loop_
_space_group_symop_operation_xyz
x,y,z
-x,y,-z
-x,-y,-z
x,-y,z
1/2+x,1/2+y,z
1/2-x,1/2+y,-z
1/2-x,1/2-y,-z
1/2+x,1/2-y,z
loop_
_atom_site_type_symbol
_atom_site_label
_atom_site_fract_x
_atom_site_fract_y
_atom_site_fract_z
Si Si1 0.322110 0.179021 0.532343
Si Si2 0.473320 0.181089 0.235600
Si Si3 0.519297 0.326185 0.622121
Si Si4 0.803144 0.180527 0.998003
Si Si5 0.166214 0.320168 0.600399
Si Si6 0.790549 0.827179 0.226053
O O1 0.250000 0.250000 0.500000
O O2 0.423218 0.227069 0.666375
O O3 0.303578 0.233594 0.438117
O O4 0.311509 0.000000 0.524477
O O5 0.443519 0.254824 0.270417
O O6 0.405090 0.251461 0.107363
O O7 0.461676 0.000000 0.227246
O O8 0.485792 0.500000 0.596180
O O9 0.438282 0.224408 0.504934
O O10 0.601318 0.322727 0.662417
O O11 0.806025 0.000000 0.009786
O O12 0.750000 0.250000 0.000000
O O13 0.757412 0.221800 0.879655
O O14 0.176269 0.500000 0.620224
O O15 0.228935 0.237514 0.723361
O O16 0.753654 0.000000 0.179347
#
# Coordination Sequence:
#
# PCOD8086474 Si02
#       6
#     8   8   8   8   8   8
#     4   9  20  37  59  84 107 136 174 223 277 326
#     4  10  20  35  54  79 110 142 182 225 268 317
#     4  10  19  31  49  74 106 143 182 219 261 314
#     4  12  23  35  53  77 109 150 188 222 261 311
#     4  10  21  35  51  76 108 140 178 222 273 323
#     4  11  22  34  50  75 108 146 185 220 261 316
#
# _framework density 17.976040999999999
#
# number of rings (size 3 to 8) (size 9 to 14) (size 15 to 20)
#    0.000    1.667    1.667    5.000    0.000    8.000 
#    0.000    0.000    0.000    1.000    0.000    7.000 
#    0.000    0.000    0.000    0.000    0.000    0.000 
#
# Total GULP energy -297596.230694 kJ/mol
# GULP energy per Si atom -12399.842946 kJ/mol
# Density = 1.793513 g / cm^3
# Si number density = 17.976041 Si / 1000 Ang^3
#
#
#
# Elastic Constant Matrix: (Units=GPa)
#
#
# Indices 1 2 3 4 5 6 
#
# 1 99.3902 46.2044 59.6031 0.0000 -4.4958 0.0000
# 2 46.2044 78.3524 13.4970 0.0000 2.0549 0.0000
# 3 59.6031 13.4970 75.3490 0.0000 -11.0502 0.0000
# 4 0.0000 0.0000 0.0000 35.2109 0.0000 -2.3051
# 5 -4.4958 2.0549 -11.0502 0.0000 21.6557 0.0000
# 6 0.0000 0.0000 0.0000 -2.3051 0.0000 26.6886
#
#
#
# Elastic Compliance Matrix: (Units=1/GPa)
#
#
# Indices 1 2 3 4 5 6 
#
# 1 0.028297 -0.013061 -0.020538 0.000000 -0.003366 0.000000
# 2 -0.013061 0.019340 0.006702 0.000000 -0.001127 0.000000
# 3 -0.020538 0.006702 0.029831 0.000000 0.010322 0.000000
# 4 0.000000 0.000000 0.000000 0.028562 0.000000 0.002467
# 5 -0.003366 -0.001127 0.010322 0.000000 0.050852 0.000000
# 6 0.000000 0.000000 0.000000 0.002467 0.000000 0.037682
#
#
# Mechanical properties :
#
#
# Convention : Reuss Voigt Hill
#
# Bulk Modulus (GPa) = 42.23988 54.63339 48.43664
# Shear Modulus (GPa) = 19.51232 25.63018 22.57125
#
# Velocity S-wave (km/s) = 3.29821 3.78007 3.54733
# Velocity P-wave (km/s) = 6.16872 7.03635 6.61677
#
# Compressibility (1/GPa) = 0.02367431
#
# Stress axis : x y z
#
# Youngs Moduli (GPa) = 35.33960 51.70697 33.52246
#
# Poissons Ratio (x) = 0.67532 0.68847
# Poissons Ratio (y) = 0.46155 -0.22466
# Poissons Ratio (z) = 0.72579 -0.34653
#
# Static dielectric constant tensor:
#      x y z
#    x 2.297540 0.000000 -0.126520 
#    y 0.000000 3.437310 0.000000 
#    z -0.126520 0.000000 3.457240 
# 
# 
# High freq. dielectric constant tensor:
#      x y z
#    x 1.660640 0.000000 -0.016230 
#    y 0.000000 1.711460 0.000000 
#    z -0.016230 0.000000 1.696640 
# 
# From -- ./inp_files/323487.got.cif
#   From: 2010.06.25/outbox.cif.g09.slc.cpg/sg12_162_cif.got.tgz:323487.got - 2010.06.28 00:19:55.
