data_PCOD8086770
_publ_section_title
;
Structure prediction by ZEFSAII (Michael W. Deem and Ramdas Pophale) SiO2 
 PCOD8086770
Probable space group: C 2/M
;
_chemical_formula_sum "Si O2"
_cell_formula_units_Z 56
_cell_length_a 25.321172
_cell_length_b 9.353309
_cell_length_c 13.817507
_cell_angle_alpha 90.000000
_cell_angle_beta 104.970150
_cell_angle_gamma 90.000000
_cell_volume 3161.426720
_symmetry_space_group_name_H-M "C 2/M"
_symmetry_group_IT_number 12
_symmetry_cell_setting 'monoclinic'
loop_
_space_group_symop_operation_xyz
x,y,z
-x,y,-z
-x,-y,-z
x,-y,z
1/2+x,1/2+y,z
1/2-x,1/2+y,-z
1/2-x,1/2-y,-z
1/2+x,1/2-y,z
loop_
_atom_site_type_symbol
_atom_site_label
_atom_site_fract_x
_atom_site_fract_y
_atom_site_fract_z
Si Si1 0.567890 0.330245 0.126456
Si Si2 0.062597 0.835501 0.533952
Si Si3 0.169725 0.166864 0.297853
Si Si4 0.376731 0.665433 0.239355
Si Si5 0.211954 0.662819 0.705313
Si Si6 0.653142 0.167790 0.480142
Si Si7 0.553171 0.329818 0.904574
O O1 0.570167 0.500000 0.126836
O O2 0.617458 0.271353 0.215064
O O3 0.509539 0.277402 0.141352
O O4 0.574498 0.275522 0.019026
O O5 0.083295 0.808430 0.651914
O O6 0.093873 0.735601 0.472780
O O7 0.000000 0.789938 0.500000
O O8 0.070906 0.000000 0.506399
O O9 0.223168 0.188887 0.256182
O O10 0.178549 0.257654 0.398541
O O11 0.162909 0.000000 0.321976
O O12 0.363339 0.500000 0.217540
O O13 0.318866 0.742868 0.228996
O O14 0.407190 0.731701 0.159967
O O15 0.196358 0.500000 0.720157
O O16 0.193057 0.703560 0.588111
O O17 0.647007 0.000000 0.458610
O O18 0.553400 0.500000 0.899699
#
# Coordination Sequence:
#
# PCOD8086770 Si02
#       7
#     8   8   8   8   8   8   8
#     4   8  15  27  47  73  97 118 148 198 243 278
#     4   9  18  30  46  70  97 123 158 200 231 271
#     4  10  19  31  51  72  92 123 163 202 234 271
#     4   9  17  29  49  71  93 124 157 192 236 281
#     4   9  19  34  47  66  96 129 162 192 231 283
#     4  10  20  32  46  66  97 131 158 191 236 284
#     4   8  14  27  47  73  98 118 148 192 244 286
#
# _framework density 17.713521
#
# number of rings (size 3 to 8) (size 9 to 14) (size 15 to 20)
#    0.000    3.000    0.000    1.714    2.000    1.429 
#    0.000    0.714    0.000    0.857    0.000    2.000 
#    0.000    0.000    0.000    0.000    0.000    0.000 
#
# Total GULP energy -347140.196505 kJ/mol
# GULP energy per Si atom -12397.864161 kJ/mol
# Density = 1.767320 g / cm^3
# Si number density = 17.713521 Si / 1000 Ang^3
#
#
#
# Elastic Constant Matrix: (Units=GPa)
#
#
# Indices 1 2 3 4 5 6 
#
# 1 125.3530 40.1086 55.0930 0.0000 -11.7482 0.0000
# 2 40.1086 43.6424 25.2698 0.0000 -7.1220 0.0000
# 3 55.0930 25.2698 64.3696 0.0000 -10.1037 0.0000
# 4 0.0000 0.0000 0.0000 11.7652 0.0000 -2.8683
# 5 -11.7482 -7.1220 -10.1037 0.0000 31.9709 0.0000
# 6 0.0000 0.0000 0.0000 -2.8683 0.0000 27.5320
#
#
#
# Elastic Compliance Matrix: (Units=1/GPa)
#
#
# Indices 1 2 3 4 5 6 
#
# 1 0.014704 -0.007995 -0.009341 0.000000 0.000670 0.000000
# 2 -0.007995 0.034293 -0.006188 0.000000 0.002746 0.000000
# 3 -0.009341 -0.006188 0.026520 0.000000 0.003570 0.000000
# 4 0.000000 0.000000 0.000000 0.087212 0.000000 0.009086
# 5 0.000670 0.002746 0.003570 0.000000 0.033265 0.000000
# 6 0.000000 0.000000 0.000000 0.009086 0.000000 0.037268
#
#
# Mechanical properties :
#
#
# Convention : Reuss Voigt Hill
#
# Bulk Modulus (GPa) = 35.12826 52.70090 43.91458
# Shear Modulus (GPa) = 17.25336 21.77985 19.51661
#
# Velocity S-wave (km/s) = 3.12432 3.51031 3.32293
# Velocity P-wave (km/s) = 5.73494 6.80045 6.29030
#
# Compressibility (1/GPa) = 0.02846711
#
# Stress axis : x y z
#
# Youngs Moduli (GPa) = 68.00941 29.16075 37.70772
#
# Poissons Ratio (x) = 0.23315 0.35222
# Poissons Ratio (y) = 0.54376 0.23335
# Poissons Ratio (z) = 0.63527 0.18046
#
# Static dielectric constant tensor:
#      x y z
#    x 3.477700 0.000000 -0.011790 
#    y 0.000000 2.977040 0.000000 
#    z -0.011790 0.000000 3.297380 
# 
# 
# High freq. dielectric constant tensor:
#      x y z
#    x 1.695210 0.000000 -0.002950 
#    y 0.000000 1.647980 0.000000 
#    z -0.002950 0.000000 1.670450 
# 
# From -- ./inp_files/237843.got.cif
#   From: 2010.06.25/outbox.cif.g09.slc.cpg/sg12_119_cif.got.tgz:237843.got - 2010.06.28 00:19:55.
