data_PCOD8086253
_publ_section_title
;
Structure prediction by ZEFSAII (Michael W. Deem and Ramdas Pophale) SiO2 
 PCOD8086253
Probable space group: C 2/M
;
_chemical_formula_sum "Si O2"
_cell_formula_units_Z 64
_cell_length_a 35.111941
_cell_length_b 8.817580
_cell_length_c 12.404940
_cell_angle_alpha 90.000000
_cell_angle_beta 77.001186
_cell_angle_gamma 90.000000
_cell_volume 3742.182150
_symmetry_space_group_name_H-M "C 2/M"
_symmetry_group_IT_number 12
_symmetry_cell_setting 'monoclinic'
loop_
_space_group_symop_operation_xyz
x,y,z
-x,y,-z
-x,-y,-z
x,-y,z
1/2+x,1/2+y,z
1/2-x,1/2+y,-z
1/2-x,1/2-y,-z
1/2+x,1/2-y,z
loop_
_atom_site_type_symbol
_atom_site_label
_atom_site_fract_x
_atom_site_fract_y
_atom_site_fract_z
Si Si1 0.842905 0.320883 0.401997
Si Si2 0.209848 0.823744 0.988453
Si Si3 0.579680 0.321470 0.569556
Si Si4 0.290940 0.676064 0.263005
Si Si5 0.421228 0.321607 0.679251
Si Si6 0.204359 0.679840 0.361400
Si Si7 0.999524 0.670911 0.372273
Si Si8 0.345007 0.819830 0.809720
O O1 0.848460 0.500000 0.404476
O O2 0.884917 0.243410 0.383453
O O3 0.823919 0.273177 0.301486
O O4 0.815246 0.260839 0.516337
O O5 0.203618 0.797384 0.866466
O O6 0.211485 0.000000 0.016701
O O7 0.250000 0.750000 0.000000
O O8 0.173366 0.745631 0.069820
O O9 0.577046 0.500000 0.585086
O O10 0.585458 0.275377 0.441048
O O11 0.540069 0.250272 0.643183
O O12 0.295471 0.500000 0.291083
O O13 0.248650 0.739844 0.326655
O O14 0.418437 0.500000 0.698054
O O15 0.463276 0.264460 0.694363
O O16 0.389048 0.239072 0.772196
O O17 0.204412 0.500000 0.355496
O O18 0.179982 0.742984 0.275532
O O19 0.001331 0.500000 0.326072
O O20 0.000000 0.672687 0.500000
O O21 0.344822 0.000000 0.814799
#
# Coordination Sequence:
#
# PCOD8086253 Si02
#       8
#     8   8   8   8   8   8   8   8
#     4  11  21  33  51  76 104 136 176 216 254 310
#     4  11  22  37  56  76 100 133 175 221 266 311
#     4  10  19  31  48  72 104 140 172 209 255 307
#     4  10  21  38  53  70 100 137 174 217 264 308
#     4  10  19  31  48  75 106 136 173 212 254 310
#     4   9  18  33  51  72 101 135 169 210 260 306
#     4   9  17  29  47  71 101 138 172 207 253 306
#     4  11  20  34  54  76 104 137 174 217 263 309
#
# _framework density 17.102319999999999
#
# number of rings (size 3 to 8) (size 9 to 14) (size 15 to 20)
#    0.000    1.875    2.500    2.625    0.000    3.500 
#    0.000    0.625    0.000    0.000    0.000    0.875 
#    0.000    7.000    0.000    0.000    0.000    0.000 
#
# Total GULP energy -396914.247526 kJ/mol
# GULP energy per Si atom -12403.570235 kJ/mol
# Density = 1.706339 g / cm^3
# Si number density = 17.102320 Si / 1000 Ang^3
#
#
#
# Elastic Constant Matrix: (Units=GPa)
#
#
# Indices 1 2 3 4 5 6 
#
# 1 145.5415 46.3856 46.6111 0.0000 -8.6832 0.0000
# 2 46.3856 78.6655 32.5348 0.0000 -3.3980 0.0000
# 3 46.6111 32.5348 59.8653 0.0000 -4.7450 0.0000
# 4 0.0000 0.0000 0.0000 23.2575 0.0000 -2.0352
# 5 -8.6832 -3.3980 -4.7450 0.0000 18.7599 0.0000
# 6 0.0000 0.0000 0.0000 -2.0352 0.0000 33.8971
#
#
#
# Elastic Compliance Matrix: (Units=1/GPa)
#
#
# Indices 1 2 3 4 5 6 
#
# 1 0.009923 -0.003392 -0.005681 0.000000 0.002542 0.000000
# 2 -0.003392 0.017567 -0.006917 0.000000 -0.000138 0.000000
# 3 -0.005681 -0.006917 0.025082 0.000000 0.002462 0.000000
# 4 0.000000 0.000000 0.000000 0.043224 0.000000 0.002595
# 5 0.002542 -0.000138 0.002462 0.000000 0.055079 0.000000
# 6 0.000000 0.000000 0.000000 0.002595 0.000000 0.029657
#
#
# Mechanical properties :
#
#
# Convention : Reuss Voigt Hill
#
# Bulk Modulus (GPa) = 48.56362 59.45949 54.01155
# Shear Modulus (GPa) = 22.79192 25.75229 24.27211
#
# Velocity S-wave (km/s) = 3.65455 3.88465 3.77135
# Velocity P-wave (km/s) = 6.80185 7.41370 7.11436
#
# Compressibility (1/GPa) = 0.02059155
#
# Stress axis : x y z
#
# Youngs Moduli (GPa) = 100.77609 56.92534 39.86918
#
# Poissons Ratio (x) = 0.19307 0.22651
# Poissons Ratio (y) = 0.34180 0.27578
# Poissons Ratio (z) = 0.57254 0.39376
#
# Static dielectric constant tensor:
#      x y z
#    x 3.292630 0.000000 -0.096120 
#    y 0.000000 3.193100 0.000000 
#    z -0.096120 0.000000 2.961850 
# 
# 
# High freq. dielectric constant tensor:
#      x y z
#    x 1.667610 0.000000 -0.009280 
#    y 0.000000 1.665310 0.000000 
#    z -0.009280 0.000000 1.622140 
# 
# From -- ./inp_files/187402.got.cif
#   From: 2010.06.25/outbox.cif.g09.slc.cpg/sg12_94_cif.got.tgz:187402.got - 2010.06.28 00:19:55.
