data_PCOD8086384
_publ_section_title
;
Structure prediction by ZEFSAII (Michael W. Deem and Ramdas Pophale) SiO2 
 PCOD8086384
Probable space group: C 2/M
;
_chemical_formula_sum "Si O2"
_cell_formula_units_Z 48
_cell_length_a 18.374793
_cell_length_b 8.981509
_cell_length_c 32.071084
_cell_angle_alpha 90.000000
_cell_angle_beta 149.222916
_cell_angle_gamma 90.000000
_cell_volume 2708.321425
_symmetry_space_group_name_H-M "C 2/M"
_symmetry_group_IT_number 12
_symmetry_cell_setting 'monoclinic'
loop_
_space_group_symop_operation_xyz
x,y,z
-x,y,-z
-x,-y,-z
x,-y,z
1/2+x,1/2+y,z
1/2-x,1/2+y,-z
1/2-x,1/2-y,-z
1/2+x,1/2-y,z
loop_
_atom_site_type_symbol
_atom_site_label
_atom_site_fract_x
_atom_site_fract_y
_atom_site_fract_z
Si Si1 0.452257 0.174197 0.021340
Si Si2 0.600969 0.324920 0.172527
Si Si3 0.168660 0.667776 0.581607
Si Si4 0.333747 0.674762 0.503730
Si Si5 0.177536 0.830008 0.926939
Si Si6 0.834709 0.174010 0.336283
O O1 0.537252 0.267363 0.097652
O O2 0.488031 0.000000 0.045356
O O3 0.500000 0.232664 0.000000
O O4 0.279251 0.201535 0.937186
O O5 0.632315 0.500000 0.184400
O O6 0.489829 0.286051 0.156144
O O7 0.747294 0.240443 0.254447
O O8 0.230229 0.500000 0.610757
O O9 0.222346 0.755785 0.567267
O O10 0.222781 0.749664 0.649742
O O11 0.000000 0.665998 0.500000
O O12 0.301992 0.500000 0.487553
O O13 0.250000 0.750000 0.500000
O O14 0.500506 0.708705 0.591376
O O15 0.183558 0.000000 0.942521
O O16 0.250000 0.750000 0.000000
O O17 0.807046 0.000000 0.326932
#
# Coordination Sequence:
#
# PCOD8086384 Si02
#       6
#     8   8   8   8   8   8
#     4   9  17  31  51  72  96 128 163 200 246 300
#     4  10  19  31  49  72  98 128 163 206 250 292
#     4   9  17  31  52  75  98 127 164 204 245 292
#     4  10  20  34  53  76 102 133 168 206 250 302
#     4   8  15  28  46  68  91 119 157 196 235 283
#     4  10  20  34  52  74 100 131 168 209 252 299
#
# _framework density 17.723154999999998
#
# number of rings (size 3 to 8) (size 9 to 14) (size 15 to 20)
#    0.000    2.667    0.000    2.000    0.000    5.000 
#    0.000    1.667    0.000    8.000    0.000    0.000 
#    0.000    0.000    0.000    0.000    0.000    0.000 
#
# Total GULP energy -297367.182062 kJ/mol
# GULP energy per Si atom -12390.299253 kJ/mol
# Density = 1.768282 g / cm^3
# Si number density = 17.723155 Si / 1000 Ang^3
#
#
#
# Elastic Constant Matrix: (Units=GPa)
#
#
# Indices 1 2 3 4 5 6 
#
# 1 128.6443 55.0606 37.7692 0.0001 -5.5641 -0.0002
# 2 55.0606 99.7311 43.7426 0.0002 -0.1787 -0.0005
# 3 37.7692 43.7426 76.9987 0.0000 -4.3134 0.0000
# 4 0.0001 0.0002 0.0000 26.1590 0.0000 -4.4036
# 5 -5.5641 -0.1787 -4.3134 0.0000 17.1678 0.0001
# 6 -0.0002 -0.0005 0.0000 -4.4036 0.0001 29.0716
#
#
#
# Elastic Compliance Matrix: (Units=1/GPa)
#
#
# Indices 1 2 3 4 5 6 
#
# 1 0.010655 -0.004867 -0.002303 0.000000 0.002824 0.000000
# 2 -0.004867 0.015632 -0.006666 0.000000 -0.003090 0.000000
# 3 -0.002303 -0.006666 0.018113 0.000000 0.003735 0.000000
# 4 0.000000 0.000000 0.000000 0.039228 0.000000 0.005942
# 5 0.002824 -0.003090 0.003735 0.000000 0.060070 0.000000
# 6 0.000000 0.000000 0.000000 0.005942 0.000000 0.035298
#
#
# Mechanical properties :
#
#
# Convention : Reuss Voigt Hill
#
# Bulk Modulus (GPa) = 59.78283 64.27989 62.03136
# Shear Modulus (GPa) = 23.55755 25.73311 24.64533
#
# Velocity S-wave (km/s) = 3.64977 3.81458 3.73308
# Velocity P-wave (km/s) = 7.18093 7.46652 7.32512
#
# Compressibility (1/GPa) = 0.01672721
#
# Stress axis : x y z
#
# Youngs Moduli (GPa) = 93.85330 63.96943 55.20795
#
# Poissons Ratio (x) = 0.31135 0.12715
# Poissons Ratio (y) = 0.45681 0.36803
# Poissons Ratio (z) = 0.21616 0.42644
#
# Static dielectric constant tensor:
#      x y z
#    x 3.857430 -0.000040 0.335050 
#    y -0.000040 3.153880 -0.000020 
#    z 0.335050 -0.000020 3.227650 
# 
# 
# High freq. dielectric constant tensor:
#      x y z
#    x 1.680080 0.000000 0.005670 
#    y 0.000000 1.698610 0.000000 
#    z 0.005670 0.000000 1.661870 
# 
# From -- ./inp_files/274129.got.cif
#   From: 2010.06.25/outbox.cif.g09.slc.cpg/sg12_138_cif.got.tgz:274129.got - 2010.06.28 00:19:55.
