data_PCOD8086607
_publ_section_title
;
Structure prediction by ZEFSAII (Michael W. Deem and Ramdas Pophale) SiO2 
 PCOD8086607
Probable space group: C 2/M
;
_chemical_formula_sum "Si O2"
_cell_formula_units_Z 64
_cell_length_a 18.417687
_cell_length_b 9.323495
_cell_length_c 20.721858
_cell_angle_alpha 90.000000
_cell_angle_beta 89.579298
_cell_angle_gamma 90.000000
_cell_volume 3558.203776
_symmetry_space_group_name_H-M "C 2/M"
_symmetry_group_IT_number 12
_symmetry_cell_setting 'monoclinic'
loop_
_space_group_symop_operation_xyz
x,y,z
-x,y,-z
-x,-y,-z
x,-y,z
1/2+x,1/2+y,z
1/2-x,1/2+y,-z
1/2-x,1/2-y,-z
1/2+x,1/2-y,z
loop_
_atom_site_type_symbol
_atom_site_label
_atom_site_fract_x
_atom_site_fract_y
_atom_site_fract_z
Si Si1 0.048663 0.329615 0.681487
Si Si2 0.045716 0.328746 0.199335
Si Si3 0.707576 0.829323 0.199174
Si Si4 0.790869 0.667465 0.555815
Si Si5 0.712045 0.836919 0.055837
Si Si6 0.955363 0.329792 0.561008
Si Si7 0.197981 0.832479 0.682618
Si Si8 0.457473 0.164208 0.941490
O O1 0.059837 0.500000 0.680181
O O2 0.125534 0.255840 0.670901
O O3 0.012840 0.275247 0.748396
O O4 0.995057 0.277463 0.625411
O O5 0.048567 0.500000 0.197729
O O6 0.126567 0.272005 0.216431
O O7 0.023138 0.267961 0.128725
O O8 0.764187 0.773814 0.252237
O O9 0.704744 0.000000 0.199680
O O10 0.731603 0.776873 0.127397
O O11 0.790309 0.500000 0.538438
O O12 0.750000 0.750000 0.500000
O O13 0.872970 0.727698 0.559973
O O14 0.752698 0.697417 0.623967
O O15 0.738257 0.000000 0.049859
O O16 0.750000 0.750000 0.000000
O O17 0.627061 0.822936 0.044513
O O18 0.953970 0.500000 0.558920
O O19 0.000000 0.267432 0.500000
O O20 0.178848 0.000000 0.688276
O O21 0.483027 0.000000 0.939019
O O22 0.500000 0.243124 0.000000
#
# Coordination Sequence:
#
# PCOD8086607 Si02
#       8
#     8   8   8   8   8   8   8   8
#     4  10  19  31  50  74  96 119 154 200 239 272
#     4   8  14  26  45  66  86 115 157 195 225 266
#     4   8  15  30  49  67  91 127 165 194 229 284
#     4  10  20  34  53  75  98 127 161 196 236 281
#     4   9  17  29  47  69  94 125 158 195 238 284
#     4   9  17  30  49  71  94 121 153 189 228 271
#     4  10  20  33  49  70  98 129 158 189 232 290
#     4   8  14  25  42  65  91 117 148 189 234 274
#
# _framework density 17.986602999999999
#
# number of rings (size 3 to 8) (size 9 to 14) (size 15 to 20)
#    0.000    3.000    0.000    3.000    0.000    5.500 
#    0.000    2.500    0.000    7.875    0.000    0.000 
#    0.000    0.000    0.000    0.000    0.000    0.000 
#
# Total GULP energy -396631.793560 kJ/mol
# GULP energy per Si atom -12394.743549 kJ/mol
# Density = 1.794567 g / cm^3
# Si number density = 17.986603 Si / 1000 Ang^3
#
#
#
# Elastic Constant Matrix: (Units=GPa)
#
#
# Indices 1 2 3 4 5 6 
#
# 1 134.3896 31.7359 86.8240 0.0000 6.2391 0.0000
# 2 31.7359 25.5079 33.6082 0.0000 -1.7062 0.0000
# 3 86.8240 33.6082 159.5333 0.0000 7.5854 0.0000
# 4 0.0000 0.0000 0.0000 18.8324 0.0000 -3.8570
# 5 6.2391 -1.7062 7.5854 0.0000 40.3666 0.0000
# 6 0.0000 0.0000 0.0000 -3.8570 0.0000 22.3739
#
#
#
# Elastic Compliance Matrix: (Units=1/GPa)
#
#
# Indices 1 2 3 4 5 6 
#
# 1 0.013019 -0.009767 -0.004957 0.000000 -0.001494 0.000000
# 2 -0.009767 0.062408 -0.008101 0.000000 0.005670 0.000000
# 3 -0.004957 -0.008101 0.010749 0.000000 -0.001596 0.000000
# 4 0.000000 0.000000 0.000000 0.055043 0.000000 0.009489
# 5 -0.001494 0.005670 -0.001596 0.000000 0.025543 0.000000
# 6 0.000000 0.000000 0.000000 0.009489 0.000000 0.046331
#
#
# Mechanical properties :
#
#
# Convention : Reuss Voigt Hill
#
# Bulk Modulus (GPa) = 24.67563 69.30744 46.99154
# Shear Modulus (GPa) = 18.36525 27.46542 22.91534
#
# Velocity S-wave (km/s) = 3.19886 3.91192 3.57322
# Velocity P-wave (km/s) = 5.23376 7.68248 6.57316
#
# Compressibility (1/GPa) = 0.04052581
#
# Stress axis : x y z
#
# Youngs Moduli (GPa) = 76.80829 16.02348 93.03460
#
# Poissons Ratio (x) = 0.15650 0.46118
# Poissons Ratio (y) = 0.75018 0.75371
# Poissons Ratio (z) = 0.38075 0.12981
#
# Static dielectric constant tensor:
#      x y z
#    x 20.237560 0.000000 14.752160 
#    y 0.000000 2.784760 0.000000 
#    z 14.752160 0.000000 16.549960 
# 
# 
# High freq. dielectric constant tensor:
#      x y z
#    x 1.700620 0.000000 0.001740 
#    y 0.000000 1.632250 0.000000 
#    z 0.001740 0.000000 1.719440 
# 
# From -- ./inp_files/276550.got.cif
#   From: 2010.06.25/outbox.cif.g09.slc.cpg/sg12_139_cif.got.tgz:276550.got - 2010.06.28 00:19:55.
