data_PCOD8086234
_publ_section_title
;
Structure prediction by ZEFSAII (Michael W. Deem and Ramdas Pophale) SiO2 
 PCOD8086234
Probable space group: C 2/M
;
_chemical_formula_sum "Si O2"
_cell_formula_units_Z 56
_cell_length_a 18.674449
_cell_length_b 9.079341
_cell_length_c 18.145660
_cell_angle_alpha 90.000000
_cell_angle_beta 89.158876
_cell_angle_gamma 90.000000
_cell_volume 3076.295806
_symmetry_space_group_name_H-M "C 2/M"
_symmetry_group_IT_number 12
_symmetry_cell_setting 'monoclinic'
loop_
_space_group_symop_operation_xyz
x,y,z
-x,y,-z
-x,-y,-z
x,-y,z
1/2+x,1/2+y,z
1/2-x,1/2+y,-z
1/2-x,1/2-y,-z
1/2+x,1/2-y,z
loop_
_atom_site_type_symbol
_atom_site_label
_atom_site_fract_x
_atom_site_fract_y
_atom_site_fract_z
Si Si1 0.332786 0.827973 0.279568
Si Si2 0.913438 0.171514 0.146823
Si Si3 0.418844 0.670483 0.856314
Si Si4 0.085124 0.665976 0.999023
Si Si5 0.665799 0.329191 0.285635
Si Si6 0.165459 0.166359 0.573679
Si Si7 0.664003 0.834193 0.430962
O O1 0.373238 0.753334 0.212205
O O2 0.248934 0.797821 0.269996
O O3 0.361023 0.756048 0.354763
O O4 0.350626 0.000000 0.281496
O O5 0.886143 0.239601 0.070180
O O6 0.997436 0.198989 0.156537
O O7 0.893958 0.000000 0.147984
O O8 0.402964 0.500000 0.872435
O O9 0.377921 0.726229 0.784472
O O10 0.387496 0.761334 0.925692
O O11 0.115049 0.500000 0.992828
O O12 0.000000 0.667585 0.000000
O O13 0.651690 0.500000 0.302026
O O14 0.636422 0.240275 0.356322
O O15 0.250677 0.167034 0.568708
O O16 0.133741 0.243943 0.501239
O O17 0.135882 0.000000 0.578480
O O18 0.634255 0.000000 0.435434
#
# Coordination Sequence:
#
# PCOD8086234 Si02
#       7
#     8   8   8   8   8   8   8
#     4  10  19  31  48  71  99 126 155 194 237 279
#     4  10  19  32  51  72  95 124 158 194 233 280
#     4   9  18  33  52  72  94 123 159 195 232 278
#     4   9  17  30  49  72  95 120 155 197 236 275
#     4   9  18  32  49  70  97 127 157 192 235 280
#     4   9  16  27  44  66  93 125 160 194 230 275
#     4   9  16  26  43  68  95 123 157 195 233 274
#
# _framework density 18.203711999999999
#
# number of rings (size 3 to 8) (size 9 to 14) (size 15 to 20)
#    0.000    2.714    0.000    2.143    0.000    6.857 
#    0.000    0.714    0.000    0.857    0.000    6.000 
#    0.000    0.000    0.000    0.000    0.000    0.000 
#
# Total GULP energy -347221.430315 kJ/mol
# GULP energy per Si atom -12400.765368 kJ/mol
# Density = 1.816228 g / cm^3
# Si number density = 18.203712 Si / 1000 Ang^3
#
#
#
# Elastic Constant Matrix: (Units=GPa)
#
#
# Indices 1 2 3 4 5 6 
#
# 1 22.2510 32.3080 41.8648 0.0000 1.5626 0.0000
# 2 32.3080 155.7724 112.4166 0.0000 -17.9362 0.0000
# 3 41.8648 112.4166 210.9035 0.0000 -9.2326 0.0000
# 4 0.0000 0.0000 0.0000 44.2830 0.0000 -4.5789
# 5 1.5626 -17.9362 -9.2326 0.0000 66.3098 0.0000
# 6 0.0000 0.0000 0.0000 -4.5789 0.0000 16.4079
#
#
#
# Elastic Compliance Matrix: (Units=1/GPa)
#
#
# Indices 1 2 3 4 5 6 
#
# 1 0.079702 -0.009111 -0.011223 0.000000 -0.005905 0.000000
# 2 -0.009111 0.011762 -0.004339 0.000000 0.002792 0.000000
# 3 -0.011223 -0.004339 0.009299 0.000000 0.000386 0.000000
# 4 0.000000 0.000000 0.000000 0.023253 0.000000 0.006489
# 5 -0.005905 0.002792 0.000386 0.000000 0.016029 0.000000
# 6 0.000000 0.000000 0.000000 0.006489 0.000000 0.062757
#
#
# Mechanical properties :
#
#
# Convention : Reuss Voigt Hill
#
# Bulk Modulus (GPa) = 19.44886 84.67842 52.06364
# Shear Modulus (GPa) = 18.56765 38.88931 28.72848
#
# Velocity S-wave (km/s) = 3.19720 4.62707 3.97692
# Velocity P-wave (km/s) = 4.93322 8.66974 7.05341
#
# Compressibility (1/GPa) = 0.05141690
#
# Stress axis : x y z
#
# Youngs Moduli (GPa) = 12.54677 85.02099 107.54177
#
# Poissons Ratio (x) = 0.77464 1.20694
# Poissons Ratio (y) = 0.11432 0.46657
# Poissons Ratio (z) = 0.14081 0.36886
#
# Static dielectric constant tensor:
#      x y z
#    x 2.902440 0.000000 0.094530 
#    y 0.000000 3.549200 0.000000 
#    z 0.094530 0.000000 3.621110 
# 
# 
# High freq. dielectric constant tensor:
#      x y z
#    x 1.646930 0.000000 0.000600 
#    y 0.000000 1.718970 0.000000 
#    z 0.000600 0.000000 1.724010 
# 
# From -- ./inp_files/280295.got.cif
#   From: 2010.06.25/outbox.cif.g09.slc.cpg/sg12_141_cif.got.tgz:280295.got - 2010.06.28 00:19:55.
