data_PCOD8086650
_publ_section_title
;
Structure prediction by ZEFSAII (Michael W. Deem and Ramdas Pophale) SiO2 
 PCOD8086650
Probable space group: C 2/M
;
_chemical_formula_sum "Si O2"
_cell_formula_units_Z 56
_cell_length_a 13.844438
_cell_length_b 16.752183
_cell_length_c 15.655708
_cell_angle_alpha 90.000000
_cell_angle_beta 120.434231
_cell_angle_gamma 90.000000
_cell_volume 3130.639828
_symmetry_space_group_name_H-M "C 2/M"
_symmetry_group_IT_number 12
_symmetry_cell_setting 'monoclinic'
loop_
_space_group_symop_operation_xyz
x,y,z
-x,y,-z
-x,-y,-z
x,-y,z
1/2+x,1/2+y,z
1/2-x,1/2+y,-z
1/2-x,1/2-y,-z
1/2+x,1/2-y,z
loop_
_atom_site_type_symbol
_atom_site_label
_atom_site_fract_x
_atom_site_fract_y
_atom_site_fract_z
Si Si1 0.112795 0.746353 0.507177
Si Si2 0.142883 0.819898 0.197688
Si Si3 0.755222 0.320489 0.071035
Si Si4 0.157225 0.695663 0.347207
Si Si5 0.665300 0.090555 0.636182
Si Si6 0.056370 0.085337 0.933681
Si Si7 0.457125 0.908969 0.245535
O O1 0.096728 0.742758 0.397990
O O2 0.210467 0.811572 0.570792
O O3 0.142597 0.656426 0.553059
O O4 0.000000 0.778778 0.500000
O O5 0.186274 0.793586 0.123965
O O6 0.152473 0.742223 0.257618
O O7 0.215137 0.893979 0.266180
O O8 0.013599 0.846698 0.146230
O O9 0.880024 0.350782 0.152017
O O10 0.750000 0.250000 0.000000
O O11 0.687255 0.393420 0.998464
O O12 0.088849 0.614328 0.298289
O O13 0.572450 0.100107 0.667962
O O14 0.662600 0.000000 0.596927
O O15 0.049298 0.000000 0.882764
O O16 0.000000 0.076485 0.000000
O O17 0.441697 0.000000 0.207612
#
# Coordination Sequence:
#
# PCOD8086650 Si02
#       7
#     8   8   8   8   8   8   8
#     4  10  19  33  51  77 105 131 166 206 255 310
#     4   9  18  31  48  74 103 134 170 202 247 306
#     4  10  19  31  50  75 103 134 169 208 251 300
#     4  10  20  33  51  74 103 136 167 204 254 306
#     4   9  17  29  49  78 107 129 157 209 268 310
#     4   9  16  28  47  71 100 127 157 204 256 298
#     4  10  19  32  51  76 104 132 168 213 262 304
#
# _framework density 17.887716999999999
#
# number of rings (size 3 to 8) (size 9 to 14) (size 15 to 20)
#    0.000    2.429    1.429    1.714    0.000    4.286 
#    0.000    0.000    0.000    3.000    0.000    0.000 
#    0.000    0.000    0.000    0.000    0.000    0.000 
#
# Total GULP energy -346935.392267 kJ/mol
# GULP energy per Si atom -12390.549724 kJ/mol
# Density = 1.784700 g / cm^3
# Si number density = 17.887717 Si / 1000 Ang^3
#
#
#
# Elastic Constant Matrix: (Units=GPa)
#
#
# Indices 1 2 3 4 5 6 
#
# 1 87.2966 29.5036 29.1396 0.0000 13.3019 0.0000
# 2 29.5036 70.7422 24.5572 0.0000 -0.1071 0.0000
# 3 29.1396 24.5572 67.4862 0.0000 1.6808 0.0000
# 4 0.0000 0.0000 0.0000 20.0885 0.0000 9.1362
# 5 13.3019 -0.1071 1.6808 0.0000 29.2718 0.0000
# 6 0.0000 0.0000 0.0000 9.1362 0.0000 5.7019
#
#
#
# Elastic Compliance Matrix: (Units=1/GPa)
#
#
# Indices 1 2 3 4 5 6 
#
# 1 0.015790 -0.004909 -0.004859 0.000000 -0.006914 0.000000
# 2 -0.004909 0.017710 -0.004388 0.000000 0.002548 0.000000
# 3 -0.004859 -0.004388 0.018485 0.000000 0.001131 0.000000
# 4 0.000000 0.000000 0.000000 0.183506 0.000000 -0.294033
# 5 -0.006914 0.002548 0.001131 0.000000 0.037249 0.000000
# 6 0.000000 0.000000 0.000000 -0.294033 0.000000 0.646514
#
#
# Mechanical properties :
#
#
# Convention : Reuss Voigt Hill
#
# Bulk Modulus (GPa) = 42.24458 43.54733 42.89595
# Shear Modulus (GPa) = 5.23310 20.50074 12.86692
#
# Velocity S-wave (km/s) = 1.71227 3.38905 2.68492
# Velocity P-wave (km/s) = 5.25138 6.30174 5.80038
#
# Compressibility (1/GPa) = 0.02367168
#
# Stress axis : x y z
#
# Youngs Moduli (GPa) = 63.33162 56.46413 54.09866
#
# Poissons Ratio (x) = 0.27718 0.26289
# Poissons Ratio (y) = 0.31089 0.23741
# Poissons Ratio (z) = 0.30775 0.24779
#
# Static dielectric constant tensor:
#      x y z
#    x 3.437670 0.000000 0.306290 
#    y 0.000000 3.141290 0.000000 
#    z 0.306290 0.000000 3.479940 
# 
# 
# High freq. dielectric constant tensor:
#      x y z
#    x 1.676070 0.000000 0.020020 
#    y 0.000000 1.665110 0.000000 
#    z 0.020020 0.000000 1.699400 
# 
# From -- ./inp_files/269943.got.cif
#   From: 2010.06.25/outbox.cif.g09.slc.cpg/sg12_135_cif.got.tgz:269943.got - 2010.06.28 00:19:55.
