data_PCOD8086717
_publ_section_title
;
Structure prediction by ZEFSAII (Michael W. Deem and Ramdas Pophale) SiO2 
 PCOD8086717
Probable space group: C 2/M
;
_chemical_formula_sum "Si O2"
_cell_formula_units_Z 40
_cell_length_a 27.539144
_cell_length_b 9.188969
_cell_length_c 25.356938
_cell_angle_alpha 90.000000
_cell_angle_beta 20.281369
_cell_angle_gamma 90.000000
_cell_volume 2224.236705
_symmetry_space_group_name_H-M "C 2/M"
_symmetry_group_IT_number 12
_symmetry_cell_setting 'monoclinic'
loop_
_space_group_symop_operation_xyz
x,y,z
-x,y,-z
-x,-y,-z
x,-y,z
1/2+x,1/2+y,z
1/2-x,1/2+y,-z
1/2-x,1/2-y,-z
1/2+x,1/2-y,z
loop_
_atom_site_type_symbol
_atom_site_label
_atom_site_fract_x
_atom_site_fract_y
_atom_site_fract_z
Si Si1 0.726918 0.332051 0.738932
Si Si2 0.760921 0.170285 0.152647
Si Si3 0.770290 0.169641 0.533875
Si Si4 0.034490 0.330855 0.858796
Si Si5 0.039979 0.668381 0.582263
O O1 0.682664 0.500000 0.779875
O O2 0.752855 0.283925 0.772323
O O3 0.599225 0.239758 0.845425
O O4 0.870062 0.300920 0.561846
O O5 0.618769 0.213853 0.267821
O O6 0.791475 0.000000 0.116035
O O7 0.885395 0.258407 0.998008
O O8 0.750000 0.250000 0.500000
O O9 0.633212 0.199670 0.708409
O O10 0.906572 0.233854 0.423998
O O11 0.795164 0.000000 0.498517
O O12 0.014084 0.500000 0.890379
O O13 0.051883 0.500000 0.586690
#
# Coordination Sequence:
#
# PCOD8086717 Si02
#       5
#     8   8   8   8   8
#     4   9  17  31  51  74 103 140 176 205 237 285
#     4  10  19  31  50  77 107 138 170 203 242 291
#     4  10  21  38  58  76  95 125 167 211 256 305
#     4  10  21  34  49  74 105 134 167 207 250 297
#     4   9  18  33  53  77 104 133 168 209 249 290
#
# _framework density 17.983696999999999
#
# number of rings (size 3 to 8) (size 9 to 14) (size 15 to 20)
#    0.000    2.400    0.000    2.400    0.000    8.800 
#    0.000    1.000    0.000    6.000    0.000    0.000 
#    0.000    0.000    0.000    0.000    0.000    0.000 
#
# Total GULP energy -248080.325271 kJ/mol
# GULP energy per Si atom -12404.016264 kJ/mol
# Density = 1.794277 g / cm^3
# Si number density = 17.983697 Si / 1000 Ang^3
#
#
#
# Elastic Constant Matrix: (Units=GPa)
#
#
# Indices 1 2 3 4 5 6 
#
# 1 130.8571 72.9354 61.8866 0.0007 -12.8358 -0.0002
# 2 72.9354 95.6239 67.2368 0.0010 -11.5850 0.0004
# 3 61.8866 67.2368 122.2762 0.0050 -30.4579 -0.0013
# 4 0.0007 0.0010 0.0050 30.6848 -0.0009 -0.3612
# 5 -12.8358 -11.5850 -30.4579 -0.0009 20.8573 0.0004
# 6 -0.0002 0.0004 -0.0013 -0.3612 0.0004 27.0733
#
#
#
# Elastic Compliance Matrix: (Units=1/GPa)
#
#
# Indices 1 2 3 4 5 6 
#
# 1 0.013574 -0.009083 -0.001653 0.000000 0.000895 0.000000
# 2 -0.009083 0.023732 -0.010313 0.000001 -0.007468 -0.000001
# 3 -0.001653 -0.010313 0.020440 -0.000002 0.023104 0.000001
# 4 0.000000 0.000001 -0.000002 0.032595 -0.000001 0.000435
# 5 0.000895 -0.007468 0.023104 -0.000001 0.078086 0.000000
# 6 0.000000 -0.000001 0.000001 0.000435 0.000000 0.036943
#
#
# Mechanical properties :
#
#
# Convention : Reuss Voigt Hill
#
# Bulk Modulus (GPa) = 63.89863 83.65277 73.77570
# Shear Modulus (GPa) = 19.78772 25.50297 22.64534
#
# Velocity S-wave (km/s) = 3.32070 3.76987 3.55239
# Velocity P-wave (km/s) = 7.09304 8.09729 7.61175
#
# Compressibility (1/GPa) = 0.01564979
#
# Stress axis : x y z
#
# Youngs Moduli (GPa) = 73.67212 42.13750 48.92275
#
# Poissons Ratio (x) = 0.38272 0.08085
# Poissons Ratio (y) = 0.66913 0.50453
# Poissons Ratio (z) = 0.12175 0.43456
#
# Static dielectric constant tensor:
#      x y z
#    x 3.225210 0.000000 -0.081360 
#    y 0.000000 3.331220 0.000000 
#    z -0.081360 0.000000 3.406720 
# 
# 
# High freq. dielectric constant tensor:
#      x y z
#    x 1.684610 0.000000 -0.006350 
#    y 0.000000 1.696010 0.000000 
#    z -0.006350 0.000000 1.698790 
# 
# From -- ./inp_files/92751.got.cif
#   From: 2010.06.25/outbox.cif.g09.slc.cpg/sg12_47_cif.got.tgz:92751.got - 2010.06.28 00:19:55.
