data_PCOD8086013
_publ_section_title
;
Structure prediction by ZEFSAII (Michael W. Deem and Ramdas Pophale) SiO2 
 PCOD8086013
Probable space group: C 2/M
;
_chemical_formula_sum "Si O2"
_cell_formula_units_Z 40
_cell_length_a 27.952395
_cell_length_b 9.099578
_cell_length_c 19.279143
_cell_angle_alpha 90.000000
_cell_angle_beta 152.917307
_cell_angle_gamma 90.000000
_cell_volume 2232.557969
_symmetry_space_group_name_H-M "C 2/M"
_symmetry_group_IT_number 12
_symmetry_cell_setting 'monoclinic'
loop_
_space_group_symop_operation_xyz
x,y,z
-x,y,-z
-x,-y,-z
x,-y,z
1/2+x,1/2+y,z
1/2-x,1/2+y,-z
1/2-x,1/2-y,-z
1/2+x,1/2-y,z
loop_
_atom_site_type_symbol
_atom_site_label
_atom_site_fract_x
_atom_site_fract_y
_atom_site_fract_z
Si Si1 0.008816 0.167624 0.722997
Si Si2 0.359162 0.826619 0.626012
Si Si3 0.175504 0.837125 0.061553
Si Si4 0.666520 0.173518 0.843233
Si Si5 0.472575 0.170822 0.039534
O O1 0.053733 0.249871 0.712052
O O2 0.906468 0.255247 0.617208
O O3 0.978415 0.000000 0.665289
O O4 0.096445 0.174213 0.895171
O O5 0.250000 0.750000 0.500000
O O6 0.433677 0.790849 0.787248
O O7 0.344728 0.000000 0.596276
O O8 0.292696 0.800125 0.183434
O O9 0.174035 0.000000 0.091006
O O10 0.138690 0.731672 0.075903
O O11 0.660468 0.000000 0.852258
O O12 0.750000 0.250000 0.000000
O O13 0.454323 0.000000 0.007773
O O14 0.500000 0.240690 0.000000
#
# Coordination Sequence:
#
# PCOD8086013 Si02
#       5
#     8   8   8   8   8
#     4   9  16  26  40  60  86 114 146 181 220 265
#     4  10  19  31  47  66  91 120 150 185 222 263
#     4   8  15  25  38  59  86 114 143 178 218 261
#     4   9  15  23  36  57  85 114 144 178 220 266
#     4   9  18  31  46  65  89 118 151 185 220 259
#
# _framework density 17.916667
#
# number of rings (size 3 to 8) (size 9 to 14) (size 15 to 20)
#    0.000    3.000    0.000    3.000    0.000    6.800 
#    0.000    0.000    0.000    0.000    0.000    1.400 
#    0.000   11.200    0.000    0.000    0.000    0.000 
#
# Total GULP energy -247828.912234 kJ/mol
# GULP energy per Si atom -12391.445612 kJ/mol
# Density = 1.787589 g / cm^3
# Si number density = 17.916667 Si / 1000 Ang^3
#
#
#
# Elastic Constant Matrix: (Units=GPa)
#
#
# Indices 1 2 3 4 5 6 
#
# 1 157.6091 75.5875 44.6658 0.0000 46.1084 0.0000
# 2 75.5875 111.6904 39.0835 0.0000 26.5923 0.0000
# 3 44.6658 39.0835 36.9913 0.0000 28.3317 0.0000
# 4 0.0000 0.0000 0.0000 19.3603 0.0000 13.8705
# 5 46.1084 26.5923 28.3317 0.0000 33.5629 0.0000
# 6 0.0000 0.0000 0.0000 13.8705 0.0000 35.4351
#
#
#
# Elastic Compliance Matrix: (Units=1/GPa)
#
#
# Indices 1 2 3 4 5 6 
#
# 1 0.012948 -0.005918 0.001842 0.000000 -0.014654 0.000000
# 2 -0.005918 0.017103 -0.019161 0.000000 0.010754 0.000000
# 3 0.001842 -0.019161 0.100048 0.000000 -0.071804 0.000000
# 4 0.000000 0.000000 0.000000 0.071783 0.000000 -0.028098
# 5 -0.014654 0.010754 -0.071804 0.000000 0.102018 0.000000
# 6 0.000000 0.000000 0.000000 -0.028098 0.000000 0.039219
#
#
# Mechanical properties :
#
#
# Convention : Reuss Voigt Hill
#
# Bulk Modulus (GPa) = 11.95807 69.44050 40.69929
# Shear Modulus (GPa) = 11.97696 27.46860 19.72278
#
# Velocity S-wave (km/s) = 2.58831 3.91977 3.32144
# Velocity P-wave (km/s) = 3.95237 7.70245 6.12164
#
# Compressibility (1/GPa) = 0.08362551
#
# Stress axis : x y z
#
# Youngs Moduli (GPa) = 77.23111 58.46882 9.99520
#
# Poissons Ratio (x) = 0.34605 -0.01841
# Poissons Ratio (y) = 0.45709 0.19151
# Poissons Ratio (z) = -0.14227 1.12029
#
# Static dielectric constant tensor:
#      x y z
#    x 4.075570 0.000000 0.606830 
#    y 0.000000 3.441450 0.000000 
#    z 0.606830 0.000000 2.961990 
# 
# 
# High freq. dielectric constant tensor:
#      x y z
#    x 1.701980 0.000000 0.045210 
#    y 0.000000 1.703870 0.000000 
#    z 0.045210 0.000000 1.627850 
# 
# From -- ./inp_files/171387.got.cif
#   From: 2010.06.25/outbox.cif.g09.slc.cpg/sg12_86_cif.got.tgz:171387.got - 2010.06.28 00:19:55.
