data_PCOD8086856
_publ_section_title
;
Structure prediction by ZEFSAII (Michael W. Deem and Ramdas Pophale) SiO2 
 PCOD8086856
Probable space group: C 2/M
;
_chemical_formula_sum "Si O2"
_cell_formula_units_Z 64
_cell_length_a 5.330535
_cell_length_b 26.618370
_cell_length_c 22.247746
_cell_angle_alpha 90.000000
_cell_angle_beta 106.187185
_cell_angle_gamma 90.000000
_cell_volume 3031.590632
_symmetry_space_group_name_H-M "C 2/M"
_symmetry_group_IT_number 12
_symmetry_cell_setting 'monoclinic'
loop_
_space_group_symop_operation_xyz
x,y,z
-x,y,-z
-x,-y,-z
x,-y,z
1/2+x,1/2+y,z
1/2-x,1/2+y,-z
1/2-x,1/2-y,-z
1/2+x,1/2-y,z
loop_
_atom_site_type_symbol
_atom_site_label
_atom_site_fract_x
_atom_site_fract_y
_atom_site_fract_z
Si Si1 0.625041 0.185264 0.569160
Si Si2 0.374960 0.814736 0.930839
Si Si3 0.226825 0.735459 0.819200
Si Si4 0.203542 0.941536 0.711881
Si Si5 0.273174 0.235459 0.680800
Si Si6 0.339977 0.639666 0.885935
Si Si7 0.203543 0.941536 0.211882
Si Si8 0.160025 0.860333 0.614064
O O1 0.500000 0.207424 0.500000
O O2 0.721449 0.233126 0.614875
O O3 0.405803 0.149823 0.586475
O O4 0.873019 0.150292 0.566824
O O5 0.278551 0.766874 0.885126
O O6 0.594200 0.850177 0.913525
O O7 0.126983 0.849709 0.933176
O O8 0.500000 0.792576 0.000000
O O9 0.416658 0.762141 0.783484
O O10 0.309560 0.678075 0.828409
O O11 0.500000 0.929757 0.750000
O O12 0.156070 0.915077 0.644253
O O13 1.000000 0.922833 0.750000
O O14 0.157177 0.000000 0.696724
O O15 0.583342 0.237859 0.716517
O O16 0.190442 0.178075 0.671591
O O17 0.343929 0.584923 0.855746
O O18 0.157177 0.000000 0.196725
#
# Coordination Sequence:
#
# PCOD8086856 Si02
#       8
#     8   8   8   8   8   8   8   8
#     4  10  19  31  51  78 108 143 176 201 237 298
#     4  10  19  31  51  78 108 143 176 201 237 298
#     4   8  16  27  44  69 102 133 166 201 238 284
#     4  10  21  38  60  80  96 125 173 223 269 312
#     4   8  16  27  44  69 102 133 166 201 238 284
#     4  10  19  32  52  76 105 133 169 218 257 294
#     4  10  21  38  60  80  96 125 173 223 269 312
#     4  10  19  32  52  76 105 133 169 218 257 294
#
# _framework density 21.111031000000001
#
# number of rings (size 3 to 8) (size 9 to 14) (size 15 to 20)
#    0.000    2.500    0.000    2.250    0.000    9.000 
#    0.000    0.000    0.000   45.000    0.000    0.000 
#    0.000    0.000    0.000    0.000    0.000    0.000 
#
# Total GULP energy -396443.420938 kJ/mol
# GULP energy per Si atom -12388.856904 kJ/mol
# Density = 2.106298 g / cm^3
# Si number density = 21.111031 Si / 1000 Ang^3
#
#
#
# Elastic Constant Matrix: (Units=GPa)
#
#
# Indices 1 2 3 4 5 6 
#
# 1 157.8287 14.9355 3.4893 0.0000 12.4425 0.0000
# 2 14.9355 63.0201 23.2222 0.0000 5.6019 0.0000
# 3 3.4893 23.2222 80.5818 0.0000 12.9935 0.0000
# 4 0.0000 0.0000 0.0000 23.6275 0.0000 -4.1178
# 5 12.4425 5.6019 12.9935 0.0000 35.2070 0.0000
# 6 0.0000 0.0000 0.0000 -4.1178 0.0000 23.8985
#
#
#
# Elastic Compliance Matrix: (Units=1/GPa)
#
#
# Indices 1 2 3 4 5 6 
#
# 1 0.006654 -0.001570 0.000535 0.000000 -0.002299 0.000000
# 2 -0.001570 0.018156 -0.005091 0.000000 -0.000455 0.000000
# 3 0.000535 -0.005091 0.014624 0.000000 -0.004776 0.000000
# 4 0.000000 0.000000 0.000000 0.043634 0.000000 0.007518
# 5 -0.002299 -0.000455 -0.004776 0.000000 0.031051 0.000000
# 6 0.000000 0.000000 0.000000 0.007518 0.000000 0.043139
#
#
# Mechanical properties :
#
#
# Convention : Reuss Voigt Hill
#
# Bulk Modulus (GPa) = 36.78795 42.74720 39.76757
# Shear Modulus (GPa) = 28.00013 33.86551 30.93282
#
# Velocity S-wave (km/s) = 3.64583 4.00954 3.83200
# Velocity P-wave (km/s) = 5.93182 6.45972 6.20139
#
# Compressibility (1/GPa) = 0.02718281
#
# Stress axis : x y z
#
# Youngs Moduli (GPa) = 150.28641 55.07694 68.38151
#
# Poissons Ratio (x) = 0.08646 -0.03658
# Poissons Ratio (y) = 0.23591 0.34813
# Poissons Ratio (z) = -0.08040 0.28039
#
# Static dielectric constant tensor:
#      x y z
#    x 4.876260 0.000000 0.113080 
#    y 0.000000 3.492180 0.000000 
#    z 0.113080 0.000000 3.659630 
# 
# 
# High freq. dielectric constant tensor:
#      x y z
#    x 1.885070 0.000000 0.004860 
#    y 0.000000 1.786890 0.000000 
#    z 0.004860 0.000000 1.828150 
# 
# From -- ./inp_files/331452.got.cif
#   From: 2010.06.25/outbox.cif.g09.slc.cpg/sg12_166_cif.got.tgz:331452.got - 2010.06.28 00:19:55.
