data_PCOD8086793
_publ_section_title
;
Structure prediction by ZEFSAII (Michael W. Deem and Ramdas Pophale) SiO2 
 PCOD8086793
Probable space group: C 2/M
;
_chemical_formula_sum "Si O2"
_cell_formula_units_Z 48
_cell_length_a 31.134961
_cell_length_b 9.072235
_cell_length_c 9.530834
_cell_angle_alpha 90.000000
_cell_angle_beta 77.258460
_cell_angle_gamma 90.000000
_cell_volume 2625.820876
_symmetry_space_group_name_H-M "C 2/M"
_symmetry_group_IT_number 12
_symmetry_cell_setting 'monoclinic'
loop_
_space_group_symop_operation_xyz
x,y,z
-x,y,-z
-x,-y,-z
x,-y,z
1/2+x,1/2+y,z
1/2-x,1/2+y,-z
1/2-x,1/2-y,-z
1/2+x,1/2-y,z
loop_
_atom_site_type_symbol
_atom_site_label
_atom_site_fract_x
_atom_site_fract_y
_atom_site_fract_z
Si Si1 0.933277 0.828240 0.340369
Si Si2 0.856583 0.827334 0.182279
Si Si3 0.511175 0.172476 0.147699
Si Si4 0.612056 0.170354 0.107248
Si Si5 0.626927 0.830973 0.412079
Si Si6 0.295630 0.172836 0.436436
O O1 0.901252 0.789886 0.233598
O O2 0.912479 0.767303 0.498635
O O3 0.980303 0.754031 0.281372
O O4 0.940639 0.000000 0.353195
O O5 0.815912 0.741841 0.280941
O O6 0.846020 0.000000 0.191200
O O7 0.861665 0.771468 0.020276
O O8 0.560939 0.214664 0.148578
O O9 0.501870 0.000000 0.167885
O O10 0.500000 0.229415 0.000000
O O11 0.633134 0.202142 0.243500
O O12 0.617096 0.000000 0.058613
O O13 0.672759 0.793282 0.454636
O O14 0.613424 0.000000 0.447357
O O15 0.250000 0.250000 0.500000
O O16 0.288460 0.000000 0.418220
#
# Coordination Sequence:
#
# PCOD8086793 Si02
#       6
#     8   8   8   8   8   8
#     4  10  20  33  51  75 106 143 182 222 261 305
#     4  10  20  34  54  80 108 140 176 215 261 312
#     4  10  19  31  51  76 104 141 185 224 257 301
#     4  10  20  35  54  78 107 141 179 220 263 306
#     4   9  20  37  56  77 106 140 174 215 265 316
#     4  10  20  37  61  84 105 133 171 214 260 317
#
# _framework density 18.279999
#
# number of rings (size 3 to 8) (size 9 to 14) (size 15 to 20)
#    0.000    2.167    1.667    1.500    0.000    4.333 
#    0.000    4.167    0.000    0.000    0.000    0.000 
#    0.000    0.000    0.000    0.000    0.000    0.000 
#
# Total GULP energy -297717.009522 kJ/mol
# GULP energy per Si atom -12404.875397 kJ/mol
# Density = 1.823839 g / cm^3
# Si number density = 18.279999 Si / 1000 Ang^3
#
#
#
# Elastic Constant Matrix: (Units=GPa)
#
#
# Indices 1 2 3 4 5 6 
#
# 1 102.5068 56.2099 56.2330 0.0000 -21.9459 0.0000
# 2 56.2099 89.9214 56.3236 0.0000 -18.3560 0.0000
# 3 56.2330 56.3236 113.1206 0.0000 -11.2767 0.0000
# 4 0.0000 0.0000 0.0000 31.1023 0.0000 -8.7781
# 5 -21.9459 -18.3560 -11.2767 0.0000 27.3161 0.0000
# 6 0.0000 0.0000 0.0000 -8.7781 0.0000 30.6405
#
#
#
# Elastic Compliance Matrix: (Units=1/GPa)
#
#
# Indices 1 2 3 4 5 6 
#
# 1 0.017548 -0.006386 -0.004762 0.000000 0.007841 0.000000
# 2 -0.006386 0.020284 -0.006338 0.000000 0.005883 0.000000
# 3 -0.004762 -0.006338 0.014139 0.000000 -0.002248 0.000000
# 4 0.000000 0.000000 0.000000 0.034980 0.000000 0.010021
# 5 0.007841 0.005883 -0.002248 0.000000 0.045933 0.000000
# 6 0.000000 0.000000 0.000000 0.010021 0.000000 0.035507
#
#
# Mechanical properties :
#
#
# Convention : Reuss Voigt Hill
#
# Bulk Modulus (GPa) = 58.82938 71.45353 65.14145
# Shear Modulus (GPa) = 23.91977 26.93060 25.42518
#
# Velocity S-wave (km/s) = 3.62127 3.84243 3.73349
# Velocity P-wave (km/s) = 7.05245 7.67196 7.36872
#
# Compressibility (1/GPa) = 0.01699831
#
# Stress axis : x y z
#
# Youngs Moduli (GPa) = 56.98535 49.30023 70.72505
#
# Poissons Ratio (x) = 0.31483 0.33680
# Poissons Ratio (y) = 0.36391 0.44829
# Poissons Ratio (z) = 0.27137 0.31249
#
# Static dielectric constant tensor:
#      x y z
#    x 3.235070 0.000000 -0.008220 
#    y 0.000000 3.345870 0.000000 
#    z -0.008220 0.000000 3.368330 
# 
# 
# High freq. dielectric constant tensor:
#      x y z
#    x 1.694370 0.000000 -0.008070 
#    y 0.000000 1.712220 0.000000 
#    z -0.008070 0.000000 1.707640 
# 
# From -- ./inp_files/108659.got.cif
#   From: 2010.06.25/outbox.cif.g09.slc.cpg/sg12_55_cif.got.tgz:108659.got - 2010.06.28 00:19:55.
