data_PCOD8086923
_publ_section_title
;
Structure prediction by ZEFSAII (Michael W. Deem and Ramdas Pophale) SiO2 
 PCOD8086923
Probable space group: C 2/M
;
_chemical_formula_sum "Si O2"
_cell_formula_units_Z 64
_cell_length_a 24.063011
_cell_length_b 8.986905
_cell_length_c 20.775913
_cell_angle_alpha 90.000000
_cell_angle_beta 128.143080
_cell_angle_gamma 90.000000
_cell_volume 3533.481917
_symmetry_space_group_name_H-M "C 2/M"
_symmetry_group_IT_number 12
_symmetry_cell_setting 'monoclinic'
loop_
_space_group_symop_operation_xyz
x,y,z
-x,y,-z
-x,-y,-z
x,-y,z
1/2+x,1/2+y,z
1/2-x,1/2+y,-z
1/2-x,1/2-y,-z
1/2+x,1/2-y,z
loop_
_atom_site_type_symbol
_atom_site_label
_atom_site_fract_x
_atom_site_fract_y
_atom_site_fract_z
Si Si1 0.854516 0.671450 0.181591
Si Si2 0.857425 0.827589 0.563433
Si Si3 0.279263 0.173472 0.866490
Si Si4 0.669691 0.672524 0.223290
Si Si5 0.381617 0.827358 0.055443
Si Si6 0.986277 0.672869 0.694177
Si Si7 0.980303 0.827749 0.825010
Si Si8 0.772172 0.673259 0.614386
O O1 0.832142 0.500000 0.173961
O O2 0.801292 0.774745 0.182834
O O3 0.853428 0.716991 0.105807
O O4 0.932343 0.700696 0.266698
O O5 0.824845 0.752312 0.603140
O O6 0.808646 0.800873 0.466237
O O7 0.934613 0.755340 0.606302
O O8 0.866063 0.000000 0.585696
O O9 0.316734 0.263097 0.837082
O O10 0.280565 0.000000 0.850749
O O11 0.320630 0.210773 0.961518
O O12 0.690093 0.500000 0.239900
O O13 0.587363 0.698532 0.178685
O O14 0.719979 0.756708 0.309765
O O15 0.451037 0.731643 0.087700
O O16 0.403507 0.000000 0.069828
O O17 0.968151 0.500000 0.681382
O O18 0.969783 0.735128 0.752848
O O19 0.990481 0.000000 0.814711
O O20 0.791214 0.500000 0.629876
#
# Coordination Sequence:
#
# PCOD8086923 Si02
#       8
#     8   8   8   8   8   8   8   8
#     4   9  19  36  56  79 106 136 176 223 269 313
#     4  10  19  31  51  82 113 140 175 215 261 313
#     4  11  23  37  55  78 103 140 184 221 267 321
#     4  11  23  37  53  75 109 146 180 220 264 317
#     4   9  20  37  56  79 106 136 174 222 273 321
#     4  10  19  32  54  81 110 142 174 217 269 316
#     4  10  20  33  52  78 106 139 178 219 266 316
#     4  10  20  33  52  78 110 145 177 215 260 311
#
# _framework density 18.112445999999998
#
# number of rings (size 3 to 8) (size 9 to 14) (size 15 to 20)
#    0.000    2.000    1.250    3.375    0.000    7.000 
#    0.000    2.500    0.000    0.750    0.000    5.250 
#    0.000    0.000    0.000    0.000    0.000    0.000 
#
# Total GULP energy -396883.604348 kJ/mol
# GULP energy per Si atom -12402.612636 kJ/mol
# Density = 1.807122 g / cm^3
# Si number density = 18.112446 Si / 1000 Ang^3
#
#
#
# Elastic Constant Matrix: (Units=GPa)
#
#
# Indices 1 2 3 4 5 6 
#
# 1 83.6164 46.5186 27.3417 0.0000 16.1615 0.0000
# 2 46.5186 103.3252 35.8550 0.0000 17.5865 0.0000
# 3 27.3417 35.8550 51.6233 0.0000 22.9834 0.0000
# 4 0.0000 0.0000 0.0000 31.6383 0.0000 3.7556
# 5 16.1615 17.5865 22.9834 0.0000 24.9345 0.0000
# 6 0.0000 0.0000 0.0000 3.7556 0.0000 32.0252
#
#
#
# Elastic Compliance Matrix: (Units=1/GPa)
#
#
# Indices 1 2 3 4 5 6 
#
# 1 0.017043 -0.005900 -0.003160 0.000000 -0.003972 0.000000
# 2 -0.005900 0.014823 -0.007155 0.000000 -0.000036 0.000000
# 3 -0.003160 -0.007155 0.038763 0.000000 -0.028635 0.000000
# 4 0.000000 0.000000 0.000000 0.032053 0.000000 -0.003759
# 5 -0.003972 -0.000036 -0.028635 0.000000 0.069099 0.000000
# 6 0.000000 0.000000 0.000000 -0.003759 0.000000 0.031666
#
#
# Mechanical properties :
#
#
# Convention : Reuss Voigt Hill
#
# Bulk Modulus (GPa) = 26.17853 50.88839 38.53346
# Shear Modulus (GPa) = 20.11173 26.30959 23.21066
#
# Velocity S-wave (km/s) = 3.33585 3.81539 3.58365
# Velocity P-wave (km/s) = 5.41497 6.89684 6.20034
#
# Compressibility (1/GPa) = 0.03819924
#
# Stress axis : x y z
#
# Youngs Moduli (GPa) = 58.67513 67.46065 25.79804
#
# Poissons Ratio (x) = 0.39804 0.08152
# Poissons Ratio (y) = 0.34620 0.18457
# Poissons Ratio (z) = 0.18541 0.48265
#
# Static dielectric constant tensor:
#      x y z
#    x 3.172480 0.000000 0.293370 
#    y 0.000000 3.480450 0.000000 
#    z 0.293370 0.000000 3.488010 
# 
# 
# High freq. dielectric constant tensor:
#      x y z
#    x 1.679130 0.000000 0.024780 
#    y 0.000000 1.716830 0.000000 
#    z 0.024780 0.000000 1.698970 
# 
# From -- ./inp_files/319985.got.cif
#   From: 2010.06.25/outbox.cif.g09.slc.cpg/sg12_160_cif.got.tgz:319985.got - 2010.06.28 00:19:55.
