data_PCOD8086965
_publ_section_title
;
Structure prediction by ZEFSAII (Michael W. Deem and Ramdas Pophale) SiO2 
 PCOD8086965
Probable space group: C 2/M
;
_chemical_formula_sum "Si O2"
_cell_formula_units_Z 64
_cell_length_a 25.074781
_cell_length_b 9.527624
_cell_length_c 15.233203
_cell_angle_alpha 90.000000
_cell_angle_beta 108.721074
_cell_angle_gamma 90.000000
_cell_volume 3446.714320
_symmetry_space_group_name_H-M "C 2/M"
_symmetry_group_IT_number 12
_symmetry_cell_setting 'monoclinic'
loop_
_space_group_symop_operation_xyz
x,y,z
-x,y,-z
-x,-y,-z
x,-y,z
1/2+x,1/2+y,z
1/2-x,1/2+y,-z
1/2-x,1/2-y,-z
1/2+x,1/2-y,z
loop_
_atom_site_type_symbol
_atom_site_label
_atom_site_fract_x
_atom_site_fract_y
_atom_site_fract_z
Si Si1 0.225373 0.842331 0.410859
Si Si2 0.374398 0.834790 0.254653
Si Si3 0.597243 0.658067 0.386883
Si Si4 0.364786 0.332851 0.908774
Si Si5 0.064987 0.336066 0.532519
Si Si6 0.580962 0.335618 0.884203
Si Si7 0.750010 0.666508 0.232354
Si Si8 0.046756 0.164474 0.184450
O O1 0.250000 0.750000 0.500000
O O2 0.158528 0.842151 0.376926
O O3 0.245213 0.776037 0.328936
O O4 0.249047 0.000000 0.434376
O O5 0.405367 0.793874 0.361118
O O6 0.404235 0.751637 0.193479
O O7 0.309326 0.785186 0.223149
O O8 0.379442 0.000000 0.239123
O O9 0.579304 0.500000 0.404679
O O10 0.596109 0.755028 0.471383
O O11 0.557071 0.721456 0.289043
O O12 0.367596 0.500000 0.906383
O O13 0.302103 0.275938 0.853490
O O14 0.410114 0.268908 0.863695
O O15 0.380136 0.283446 0.015043
O O16 0.071651 0.500000 0.516842
O O17 0.000000 0.290333 0.500000
O O18 0.589134 0.500000 0.867985
O O19 0.516783 0.302759 0.877987
O O20 0.746116 0.500000 0.234563
O O21 0.059021 0.000000 0.194738
#
# Coordination Sequence:
#
# PCOD8086965 Si02
#       8
#     8   8   8   8   8   8   8   8
#     4  10  19  32  51  75 101 131 169 210 252 302
#     4  10  21  36  52  71 100 141 178 207 249 305
#     4  10  19  31  52  79 103 130 165 211 263 304
#     4   9  16  30  53  79 103 130 168 211 255 305
#     4  10  21  36  52  72 102 141 180 212 247 302
#     4  10  20  32  53  81 103 129 168 216 260 295
#     4   9  17  32  52  72 100 137 173 206 245 305
#     4   9  16  30  51  79 109 130 160 209 261 310
#
# _framework density 18.568408000000002
#
# number of rings (size 3 to 8) (size 9 to 14) (size 15 to 20)
#    0.000    2.375    1.250    1.875    0.000    4.250 
#    0.000    0.625    0.000    3.000    0.000    0.000 
#    0.000    0.000    0.000    0.000    0.000    0.000 
#
# Total GULP energy -396776.571717 kJ/mol
# GULP energy per Si atom -12399.267866 kJ/mol
# Density = 1.852615 g / cm^3
# Si number density = 18.568408 Si / 1000 Ang^3
#
#
#
# Elastic Constant Matrix: (Units=GPa)
#
#
# Indices 1 2 3 4 5 6 
#
# 1 99.4707 19.6578 42.4457 0.0000 9.7378 0.0000
# 2 19.6578 31.6657 32.8874 0.0000 -1.3857 0.0000
# 3 42.4457 32.8874 120.1527 0.0000 10.8932 0.0000
# 4 0.0000 0.0000 0.0000 17.7096 0.0000 -2.9151
# 5 9.7378 -1.3857 10.8932 0.0000 38.1715 0.0000
# 6 0.0000 0.0000 0.0000 -2.9151 0.0000 18.3812
#
#
#
# Elastic Compliance Matrix: (Units=1/GPa)
#
#
# Indices 1 2 3 4 5 6 
#
# 1 0.012484 -0.004921 -0.002832 0.000000 -0.002555 0.000000
# 2 -0.004921 0.047084 -0.011721 0.000000 0.006310 0.000000
# 3 -0.002832 -0.011721 0.012837 0.000000 -0.003366 0.000000
# 4 0.000000 0.000000 0.000000 0.057980 0.000000 0.009195
# 5 -0.002555 0.006310 -0.003366 0.000000 0.028039 0.000000
# 6 0.000000 0.000000 0.000000 0.009195 0.000000 0.055862
#
#
# Mechanical properties :
#
#
# Convention : Reuss Voigt Hill
#
# Bulk Modulus (GPa) = 29.88880 49.03010 39.45945
# Shear Modulus (GPa) = 18.91174 25.27236 22.09205
#
# Velocity S-wave (km/s) = 3.19484 3.69323 3.45304
# Velocity P-wave (km/s) = 5.45352 6.68199 6.09877
#
# Compressibility (1/GPa) = 0.03345734
#
# Stress axis : x y z
#
# Youngs Moduli (GPa) = 80.10135 21.23842 77.90283
#
# Poissons Ratio (x) = 0.10452 0.22059
# Poissons Ratio (y) = 0.39419 0.91312
# Poissons Ratio (z) = 0.22681 0.24894
#
# Static dielectric constant tensor:
#      x y z
#    x 3.655230 0.000000 0.179600 
#    y 0.000000 2.997080 0.000000 
#    z 0.179600 0.000000 3.513310 
# 
# 
# High freq. dielectric constant tensor:
#      x y z
#    x 1.733220 0.000000 0.007450 
#    y 0.000000 1.668120 0.000000 
#    z 0.007450 0.000000 1.732350 
# 
# From -- ./inp_files/174673.got.cif
#   From: 2010.06.25/outbox.cif.g09.slc.cpg/sg12_88_cif.got.tgz:174673.got - 2010.06.28 00:19:55.
