data_PCOD8086997
_publ_section_title
;
Structure prediction by ZEFSAII (Michael W. Deem and Ramdas Pophale) SiO2 
 PCOD8086997
Probable space group: C 2/M
;
_chemical_formula_sum "Si O2"
_cell_formula_units_Z 64
_cell_length_a 22.921684
_cell_length_b 9.290856
_cell_length_c 31.342762
_cell_angle_alpha 90.000000
_cell_angle_beta 148.203097
_cell_angle_gamma 90.000000
_cell_volume 3517.028089
_symmetry_space_group_name_H-M "C 2/M"
_symmetry_group_IT_number 12
_symmetry_cell_setting 'monoclinic'
loop_
_space_group_symop_operation_xyz
x,y,z
-x,y,-z
-x,-y,-z
x,-y,z
1/2+x,1/2+y,z
1/2-x,1/2+y,-z
1/2-x,1/2-y,-z
1/2+x,1/2-y,z
loop_
_atom_site_type_symbol
_atom_site_label
_atom_site_fract_x
_atom_site_fract_y
_atom_site_fract_z
Si Si1 0.833235 0.667204 0.235944
Si Si2 0.416565 0.832328 0.598795
Si Si3 0.324505 0.333966 0.785863
Si Si4 0.321514 0.663825 0.687410
Si Si5 0.043352 0.333318 0.921116
Si Si6 0.575252 0.333322 0.856770
Si Si7 0.752927 0.834499 0.106717
Si Si8 0.736790 0.332211 0.557235
O O1 0.829519 0.500000 0.222294
O O2 0.778306 0.699746 0.247501
O O3 0.763704 0.747967 0.156926
O O4 0.959294 0.722514 0.315531
O O5 0.368940 0.743616 0.529513
O O6 0.346073 0.800220 0.597345
O O7 0.413603 0.000000 0.584652
O O8 0.362757 0.500000 0.812310
O O9 0.286925 0.298233 0.714326
O O10 0.428598 0.237858 0.864399
O O11 0.290201 0.500000 0.656405
O O12 0.452039 0.689381 0.762378
O O13 0.254093 0.769542 0.615014
O O14 0.023166 0.500000 0.897944
O O15 0.094438 0.258621 0.911160
O O16 0.128581 0.313548 0.012791
O O17 0.597860 0.500000 0.882064
O O18 0.659926 0.275518 0.873919
O O19 0.779600 0.000000 0.133021
O O20 0.711358 0.500000 0.544978
#
# Coordination Sequence:
#
# PCOD8086997 Si02
#       8
#     8   8   8   8   8   8   8   8
#     4  10  21  37  56  75  97 132 178 219 252 295
#     4   9  19  35  53  76 105 132 161 202 249 297
#     4   9  20  38  55  72  98 135 177 216 255 299
#     4   9  17  31  52  74  98 131 168 206 249 296
#     4  10  20  33  51  76 104 135 171 212 258 304
#     4   9  18  33  52  75 105 138 170 207 254 307
#     4  10  21  34  50  76 107 136 167 209 263 313
#     4  10  19  31  52  81 107 130 159 197 247 307
#
# _framework density 18.197182000000002
#
# number of rings (size 3 to 8) (size 9 to 14) (size 15 to 20)
#    0.000    2.500    0.000    2.625    0.000    5.500 
#    0.000    3.125    0.000    3.750    0.000    0.000 
#    0.000    0.000    0.000    0.000    0.000    0.000 
#
# Total GULP energy -396913.557529 kJ/mol
# GULP energy per Si atom -12403.548673 kJ/mol
# Density = 1.815576 g / cm^3
# Si number density = 18.197182 Si / 1000 Ang^3
#
#
#
# Elastic Constant Matrix: (Units=GPa)
#
#
# Indices 1 2 3 4 5 6 
#
# 1 82.1062 37.9736 46.2362 0.0000 -7.9974 0.0000
# 2 37.9736 78.5652 57.6143 0.0000 -12.2192 0.0003
# 3 46.2362 57.6143 104.6298 0.0003 -18.3144 0.0001
# 4 0.0000 0.0000 0.0003 32.1190 0.0001 -2.3895
# 5 -7.9974 -12.2192 -18.3144 0.0001 19.6301 0.0000
# 6 0.0000 0.0003 0.0001 -2.3895 0.0000 24.7013
#
#
#
# Elastic Compliance Matrix: (Units=1/GPa)
#
#
# Indices 1 2 3 4 5 6 
#
# 1 0.017151 -0.004614 -0.005161 0.000000 -0.000700 0.000000
# 2 -0.004614 0.022718 -0.009949 0.000000 0.002979 0.000000
# 3 -0.005161 -0.009949 0.018961 0.000000 0.009394 0.000000
# 4 0.000000 0.000000 0.000000 0.031360 0.000000 0.003034
# 5 -0.000700 0.002979 0.009394 0.000000 0.061276 0.000000
# 6 0.000000 0.000000 0.000000 0.003034 0.000000 0.040777
#
#
# Mechanical properties :
#
#
# Convention : Reuss Voigt Hill
#
# Bulk Modulus (GPa) = 51.59434 60.99437 56.29436
# Shear Modulus (GPa) = 20.99494 23.52189 22.25842
#
# Velocity S-wave (km/s) = 3.40037 3.59919 3.50119
# Velocity P-wave (km/s) = 6.62051 7.13187 6.88094
#
# Compressibility (1/GPa) = 0.01938197
#
# Stress axis : x y z
#
# Youngs Moduli (GPa) = 58.30402 44.01845 52.73973
#
# Poissons Ratio (x) = 0.20310 0.27219
# Poissons Ratio (y) = 0.26902 0.52471
# Poissons Ratio (z) = 0.30091 0.43794
#
# Static dielectric constant tensor:
#      x y z
#    x 3.311010 0.000000 0.023010 
#    y 0.000000 3.328860 0.000000 
#    z 0.023010 0.000000 3.261840 
# 
# 
# High freq. dielectric constant tensor:
#      x y z
#    x 1.697490 0.000000 -0.003260 
#    y 0.000000 1.704430 0.000000 
#    z -0.003260 0.000000 1.701970 
# 
# From -- ./inp_files/382410.got.cif
#   From: 2010.06.25/outbox.cif.g09.slc.cpg/sg12_192_cif.got.tgz:382410.got - 2010.06.28 00:19:55.
