data_PCOD8086289
_publ_section_title
;
Structure prediction by ZEFSAII (Michael W. Deem and Ramdas Pophale) SiO2 
 PCOD8086289
Probable space group: C 2/M
;
_chemical_formula_sum "Si O2"
_cell_formula_units_Z 56
_cell_length_a 20.057972
_cell_length_b 14.181289
_cell_length_c 12.690385
_cell_angle_alpha 90.000000
_cell_angle_beta 114.674466
_cell_angle_gamma 90.000000
_cell_volume 3280.162318
_symmetry_space_group_name_H-M "C 2/M"
_symmetry_group_IT_number 12
_symmetry_cell_setting 'monoclinic'
loop_
_space_group_symop_operation_xyz
x,y,z
-x,y,-z
-x,-y,-z
x,-y,z
1/2+x,1/2+y,z
1/2-x,1/2+y,-z
1/2-x,1/2-y,-z
1/2+x,1/2-y,z
loop_
_atom_site_type_symbol
_atom_site_label
_atom_site_fract_x
_atom_site_fract_y
_atom_site_fract_z
Si Si1 0.918336 0.696680 0.899042
Si Si2 0.545759 0.889022 0.291888
Si Si3 0.393163 0.794557 0.241713
Si Si4 0.183584 0.608190 0.992761
Si Si5 0.146053 0.894906 0.863869
Si Si6 0.913761 0.101616 0.943633
Si Si7 0.586649 0.896019 0.540944
O O1 0.912047 0.641856 0.785002
O O2 0.892595 0.805709 0.861813
O O3 0.864926 0.645429 0.943812
O O4 0.000000 0.693922 0.000000
O O5 0.470399 0.831920 0.250106
O O6 0.598722 0.865451 0.426917
O O7 0.527131 0.000000 0.277227
O O8 0.330098 0.833734 0.123277
O O9 0.391804 0.680761 0.238685
O O10 0.376513 0.825119 0.351259
O O11 0.163068 0.500000 0.957345
O O12 0.267366 0.620805 0.079601
O O13 0.126243 0.000000 0.810477
O O14 0.114426 0.877459 0.958342
O O15 0.880495 0.000000 0.881004
O O16 0.000000 0.090366 0.000000
O O17 0.500000 0.898361 0.500000
O O18 0.619773 0.000000 0.583463
#
# Coordination Sequence:
#
# PCOD8086289 Si02
#       7
#     8   8   8   8   8   8   8
#     4  11  19  29  48  73 102 130 158 196 244 298
#     4  10  19  31  48  75 105 127 155 198 249 300
#     4  11  17  30  51  69  97 129 164 200 236 289
#     4  11  21  30  46  75 105 130 156 197 249 296
#     4  10  21  34  47  70 101 133 166 199 242 291
#     4   9  17  31  47  66  93 128 166 198 232 279
#     4   8  16  29  47  71  97 127 158 196 244 290
#
# _framework density 17.072324999999999
#
# number of rings (size 3 to 8) (size 9 to 14) (size 15 to 20)
#    0.000    2.000    2.857    3.857    0.000    0.571 
#    0.000    0.000    0.000    5.571    0.000    0.000 
#    0.000    0.000    0.000    0.000    0.000    0.000 
#
# Total GULP energy -347023.101374 kJ/mol
# GULP energy per Si atom -12393.682192 kJ/mol
# Density = 1.703347 g / cm^3
# Si number density = 17.072325 Si / 1000 Ang^3
#
#
#
# Elastic Constant Matrix: (Units=GPa)
#
#
# Indices 1 2 3 4 5 6 
#
# 1 66.3163 31.1277 27.3978 0.0000 -12.2389 0.0000
# 2 31.1277 144.4919 60.9494 0.0000 -6.2445 0.0000
# 3 27.3978 60.9494 97.8092 0.0000 -23.5553 0.0000
# 4 0.0000 0.0000 0.0000 21.6267 0.0000 -4.1927
# 5 -12.2389 -6.2445 -23.5553 0.0000 15.5962 0.0000
# 6 0.0000 0.0000 0.0000 -4.1927 0.0000 21.0992
#
#
#
# Elastic Compliance Matrix: (Units=1/GPa)
#
#
# Indices 1 2 3 4 5 6 
#
# 1 0.019283 -0.003659 0.000267 0.000000 0.014070 0.000000
# 2 -0.003659 0.010760 -0.008384 0.000000 -0.011225 0.000000
# 3 0.000267 -0.008384 0.022971 0.000000 0.031546 0.000000
# 4 0.000000 0.000000 0.000000 0.048092 0.000000 0.009556
# 5 0.014070 -0.011225 0.031546 0.000000 0.118310 0.000000
# 6 0.000000 0.000000 0.000000 0.009556 0.000000 0.049294
#
#
# Mechanical properties :
#
#
# Convention : Reuss Voigt Hill
#
# Bulk Modulus (GPa) = 33.94059 60.84081 47.39070
# Shear Modulus (GPa) = 16.55185 24.27394 20.41289
#
# Velocity S-wave (km/s) = 3.11708 3.77481 3.46160
# Velocity P-wave (km/s) = 5.73398 7.39685 6.61785
#
# Compressibility (1/GPa) = 0.02946325
#
# Stress axis : x y z
#
# Youngs Moduli (GPa) = 51.85919 92.93478 43.53400
#
# Poissons Ratio (x) = 0.34002 -0.01162
# Poissons Ratio (y) = 0.18973 0.36497
# Poissons Ratio (z) = -0.01385 0.77913
#
# Static dielectric constant tensor:
#      x y z
#    x 2.930720 0.000000 -0.224040 
#    y 0.000000 3.687510 0.000000 
#    z -0.224040 0.000000 3.233280 
# 
# 
# High freq. dielectric constant tensor:
#      x y z
#    x 1.641720 0.000000 -0.020900 
#    y 0.000000 1.678030 0.000000 
#    z -0.020900 0.000000 1.623490 
# 
# From -- ./inp_files/156178.got.cif
#   From: 2010.06.25/outbox.cif.g09.slc.cpg/sg12_79_cif.got.tgz:156178.got - 2010.06.28 00:19:55.
