data_PCOD8086656
_publ_section_title
;
Structure prediction by ZEFSAII (Michael W. Deem and Ramdas Pophale) SiO2 
 PCOD8086656
Probable space group: C 2/M
;
_chemical_formula_sum "Si O2"
_cell_formula_units_Z 48
_cell_length_a 30.153609
_cell_length_b 12.667181
_cell_length_c 7.329547
_cell_angle_alpha 90.000000
_cell_angle_beta 113.648509
_cell_angle_gamma 90.000000
_cell_volume 2564.501754
_symmetry_space_group_name_H-M "C 2/M"
_symmetry_group_IT_number 12
_symmetry_cell_setting 'monoclinic'
loop_
_space_group_symop_operation_xyz
x,y,z
-x,y,-z
-x,-y,-z
x,-y,z
1/2+x,1/2+y,z
1/2-x,1/2+y,-z
1/2-x,1/2-y,-z
1/2+x,1/2-y,z
loop_
_atom_site_type_symbol
_atom_site_label
_atom_site_fract_x
_atom_site_fract_y
_atom_site_fract_z
Si Si1 0.445945 0.243991 0.376442
Si Si2 0.852461 0.619706 0.158829
Si Si3 0.394930 0.380281 0.588898
Si Si4 0.197069 0.249727 0.621615
Si Si5 0.545922 0.620367 0.967754
Si Si6 0.791205 0.621786 0.715074
O O1 0.500000 0.199006 0.500000
O O2 0.408664 0.148472 0.283308
O O3 0.431485 0.310882 0.529616
O O4 0.442957 0.316917 0.195408
O O5 0.845313 0.500000 0.212614
O O6 0.816378 0.693888 0.212411
O O7 0.837987 0.632471 0.922898
O O8 0.399309 0.500000 0.526568
O O9 0.340049 0.343800 0.481084
O O10 0.407973 0.371221 0.823655
O O11 0.194412 0.338298 0.460789
O O12 0.249080 0.195634 0.726754
O O13 0.534649 0.500000 0.892552
O O14 0.500000 0.667971 0.000000
O O15 0.774094 0.500000 0.674916
#
# Coordination Sequence:
#
# PCOD8086656 Si02
#       6
#     8   8   8   8   8   8
#     4  11  21  34  53  75 102 139 180 219 259 304
#     4  10  22  38  55  76 105 139 176 217 259 304
#     4  10  20  33  51  78 110 138 171 213 258 310
#     4  10  20  35  57  82 106 137 172 210 257 310
#     4  10  19  31  50  75 104 137 170 208 258 311
#     4  10  20  36  58  81 107 136 170 211 259 312
#
# _framework density 18.717085999999998
#
# number of rings (size 3 to 8) (size 9 to 14) (size 15 to 20)
#    0.000    1.833    1.667    3.000    0.000    1.000 
#    0.000    0.000    0.000   16.500    0.000    0.000 
#    0.000    0.000    0.000    0.000    0.000    0.000 
#
# Total GULP energy -297645.872200 kJ/mol
# GULP energy per Si atom -12401.911342 kJ/mol
# Density = 1.867449 g / cm^3
# Si number density = 18.717086 Si / 1000 Ang^3
#
#
#
# Elastic Constant Matrix: (Units=GPa)
#
#
# Indices 1 2 3 4 5 6 
#
# 1 68.0598 16.1556 23.1397 0.0000 9.2707 0.0000
# 2 16.1556 78.3540 37.9055 0.0000 10.2164 0.0000
# 3 23.1397 37.9055 86.7883 0.0000 4.5504 0.0000
# 4 0.0000 0.0000 0.0000 30.6365 0.0000 -2.9723
# 5 9.2707 10.2164 4.5504 0.0000 29.9573 0.0000
# 6 0.0000 0.0000 0.0000 -2.9723 0.0000 46.6007
#
#
#
# Elastic Compliance Matrix: (Units=1/GPa)
#
#
# Indices 1 2 3 4 5 6 
#
# 1 0.016818 -0.001079 -0.003789 0.000000 -0.004261 0.000000
# 2 -0.001079 0.016870 -0.006851 0.000000 -0.004379 0.000000
# 3 -0.003789 -0.006851 0.015464 0.000000 0.001160 0.000000
# 4 0.000000 0.000000 0.000000 0.032844 0.000000 0.002095
# 5 -0.004261 -0.004379 0.001160 0.000000 0.036017 0.000000
# 6 0.000000 0.000000 0.000000 0.002095 0.000000 0.021593
#
#
# Mechanical properties :
#
#
# Convention : Reuss Voigt Hill
#
# Bulk Modulus (GPa) = 38.88985 43.06706 40.97846
# Shear Modulus (GPa) = 29.13498 31.83899 30.48698
#
# Velocity S-wave (km/s) = 3.94965 4.12887 4.04026
# Velocity P-wave (km/s) = 6.45155 6.76680 6.61105
#
# Compressibility (1/GPa) = 0.02571365
#
# Stress axis : x y z
#
# Youngs Moduli (GPa) = 59.46073 59.27573 64.66613
#
# Poissons Ratio (x) = 0.06395 0.24505
# Poissons Ratio (y) = 0.06415 0.44303
# Poissons Ratio (z) = 0.22532 0.40610
#
# Static dielectric constant tensor:
#      x y z
#    x 3.432280 0.000000 0.069810 
#    y 0.000000 4.416100 0.000000 
#    z 0.069810 0.000000 3.458140 
# 
# 
# High freq. dielectric constant tensor:
#      x y z
#    x 1.724490 0.000000 0.002840 
#    y 0.000000 1.718980 0.000000 
#    z 0.002840 0.000000 1.738160 
# 
# From -- ./inp_files/31392.got.cif
#   From: 2010.06.25/outbox.cif.g09.slc.cpg/sg12_16_cif.got.tgz:31392.got - 2010.06.28 00:19:55.
