data_PCOD8086927
_publ_section_title
;
Structure prediction by ZEFSAII (Michael W. Deem and Ramdas Pophale) SiO2 
 PCOD8086927
Probable space group: C 2/M
;
_chemical_formula_sum "Si O2"
_cell_formula_units_Z 44
_cell_length_a 23.740807
_cell_length_b 7.643319
_cell_length_c 13.471220
_cell_angle_alpha 90.000000
_cell_angle_beta 73.800253
_cell_angle_gamma 90.000000
_cell_volume 2347.410388
_symmetry_space_group_name_H-M "C 2/M"
_symmetry_group_IT_number 12
_symmetry_cell_setting 'monoclinic'
loop_
_space_group_symop_operation_xyz
x,y,z
-x,y,-z
-x,-y,-z
x,-y,z
1/2+x,1/2+y,z
1/2-x,1/2+y,-z
1/2-x,1/2-y,-z
1/2+x,1/2-y,z
loop_
_atom_site_type_symbol
_atom_site_label
_atom_site_fract_x
_atom_site_fract_y
_atom_site_fract_z
Si Si1 0.886862 0.701283 0.735341
Si Si2 0.093334 0.000000 0.771806
Si Si3 0.809794 0.697185 0.597794
Si Si4 0.036985 0.000000 0.221079
Si Si5 0.108748 0.000000 0.989002
Si Si6 0.683093 0.802662 0.031930
Si Si7 0.815612 0.193911 0.383943
O O1 0.908984 0.500000 0.711574
O O2 0.855211 0.783394 0.653075
O O3 0.942004 0.824771 0.733062
O O4 0.839461 0.716476 0.845422
O O5 0.079717 0.000000 0.894885
O O6 0.130957 0.174101 0.721299
O O7 0.033026 0.000000 0.741524
O O8 0.805421 0.500000 0.638759
O O9 0.835845 0.704443 0.473035
O O10 0.743607 0.780532 0.633972
O O11 0.058348 0.000000 0.096519
O O12 0.148259 0.173268 0.976760
O O13 0.674495 0.000000 0.996399
O O14 0.750000 0.750000 0.000000
O O15 0.796547 0.000000 0.430862
#
# Coordination Sequence:
#
# PCOD8086927 Si02
#       7
#     8   4   8   4   4   8   8
#     4   9  20  34  55  79 107 148 179 227 283 320
#     4  10  21  37  58  75 111 150 187 229 276 318
#     4   9  16  32  53  78 112 136 177 219 284 334
#     4  10  21  39  56  83 105 150 197 224 264 338
#     4  10  21  36  56  78 112 152 184 224 281 326
#     4  10  19  31  51  82 118 140 177 229 275 338
#     4   8  18  31  51  78 101 145 172 220 272 325
#
# _framework density 18.744059
#
# number of rings (size 3 to 8) (size 9 to 14) (size 15 to 20)
#    0.545    2.182    0.909    0.273    3.818    0.000 
#    0.000    4.545    0.000    6.545    0.000    0.000 
#    0.000    0.000    0.000    0.000    0.000    0.000 
#
# Total GULP energy -272589.839393 kJ/mol
# GULP energy per Si atom -12390.447245 kJ/mol
# Density = 1.870140 g / cm^3
# Si number density = 18.744059 Si / 1000 Ang^3
#
#
#
# Elastic Constant Matrix: (Units=GPa)
#
#
# Indices 1 2 3 4 5 6 
#
# 1 117.7348 34.4593 53.1968 0.0000 14.7338 0.0000
# 2 34.4593 83.3863 19.7612 0.0000 8.5289 0.0000
# 3 53.1968 19.7612 73.6727 0.0000 19.5134 0.0000
# 4 0.0000 0.0000 0.0000 24.8883 0.0000 -0.6357
# 5 14.7338 8.5289 19.5134 0.0000 30.9143 0.0000
# 6 0.0000 0.0000 0.0000 -0.6357 0.0000 11.0189
#
#
#
# Elastic Compliance Matrix: (Units=1/GPa)
#
#
# Indices 1 2 3 4 5 6 
#
# 1 0.013495 -0.003494 -0.008836 0.000000 0.000110 0.000000
# 2 -0.003494 0.013781 -0.000729 0.000000 -0.001676 0.000000
# 3 -0.008836 -0.000729 0.022791 0.000000 -0.009973 0.000000
# 4 0.000000 0.000000 0.000000 0.040239 0.000000 0.002322
# 5 0.000110 -0.001676 -0.009973 0.000000 0.039053 0.000000
# 6 0.000000 0.000000 0.000000 0.002322 0.000000 0.090887
#
#
# Mechanical properties :
#
#
# Convention : Reuss Voigt Hill
#
# Bulk Modulus (GPa) = 41.75809 54.40314 48.08062
# Shear Modulus (GPa) = 19.65813 24.52273 22.09043
#
# Velocity S-wave (km/s) = 3.24198 3.62096 3.43670
# Velocity P-wave (km/s) = 6.02829 6.82415 6.43853
#
# Compressibility (1/GPa) = 0.02394745
#
# Stress axis : x y z
#
# Youngs Moduli (GPa) = 74.10080 72.56580 43.87651
#
# Poissons Ratio (x) = 0.25355 0.38770
# Poissons Ratio (y) = 0.25891 0.03201
# Poissons Ratio (z) = 0.65477 0.05293
#
# Static dielectric constant tensor:
#      x y z
#    x 3.266760 0.000000 0.166560 
#    y 0.000000 3.559460 0.000000 
#    z 0.166560 0.000000 3.267890 
# 
# 
# High freq. dielectric constant tensor:
#      x y z
#    x 1.713560 0.000000 0.014250 
#    y 0.000000 1.716980 0.000000 
#    z 0.014250 0.000000 1.713770 
# 
# From -- ./inp_files/171991.got.cif
#   From: 2010.06.25/outbox.cif.g09.slc.cpg/sg12_86_cif.got.tgz:171991.got - 2010.06.28 00:19:55.
