data_PCOD8086773
_publ_section_title
;
Structure prediction by ZEFSAII (Michael W. Deem and Ramdas Pophale) SiO2 
 PCOD8086773
Probable space group: C 2/M
;
_chemical_formula_sum "Si O2"
_cell_formula_units_Z 64
_cell_length_a 30.893540
_cell_length_b 8.915583
_cell_length_c 14.182590
_cell_angle_alpha 90.000000
_cell_angle_beta 90.694154
_cell_angle_gamma 90.000000
_cell_volume 3906.079676
_symmetry_space_group_name_H-M "C 2/M"
_symmetry_group_IT_number 12
_symmetry_cell_setting 'monoclinic'
loop_
_space_group_symop_operation_xyz
x,y,z
-x,y,-z
-x,-y,-z
x,-y,z
1/2+x,1/2+y,z
1/2-x,1/2+y,-z
1/2-x,1/2-y,-z
1/2+x,1/2-y,z
loop_
_atom_site_type_symbol
_atom_site_label
_atom_site_fract_x
_atom_site_fract_y
_atom_site_fract_z
Si Si1 0.909442 0.676776 0.902140
Si Si2 0.333781 0.676911 0.785747
Si Si3 0.495103 0.664807 0.888820
Si Si4 0.297384 0.172799 0.611222
Si Si5 0.792105 0.328785 0.399275
Si Si6 0.250241 0.823870 0.101001
Si Si7 0.663803 0.826940 0.787751
Si Si8 0.410302 0.676864 0.103942
O O1 0.905442 0.500000 0.908106
O O2 0.875038 0.740354 0.828456
O O3 0.956954 0.719688 0.863078
O O4 0.900125 0.742950 0.004997
O O5 0.340957 0.500000 0.791299
O O6 0.328398 0.727202 0.677270
O O7 0.291409 0.730055 0.841664
O O8 0.483690 0.500000 0.846690
O O9 0.542153 0.721073 0.853585
O O10 0.500000 0.650583 0.000000
O O11 0.247541 0.219007 0.622456
O O12 0.311913 0.199958 0.503310
O O13 0.302151 0.000000 0.640614
O O14 0.774737 0.500000 0.389476
O O15 0.829638 0.300088 0.323705
O O16 0.293030 0.773592 0.157493
O O17 0.248934 0.000000 0.087033
O O18 0.250000 0.750000 0.000000
O O19 0.624050 0.725485 0.818959
O O20 0.653468 0.000000 0.810022
O O21 0.407655 0.500000 0.085227
#
# Coordination Sequence:
#
# PCOD8086773 Si02
#       8
#     8   8   8   8   8   8   8   8
#     4  11  21  32  49  74  99 126 166 205 240 286
#     4  11  21  35  50  67  97 133 164 198 245 292
#     4   8  16  32  50  68  95 128 160 197 243 289
#     4  10  19  31  51  74  94 122 163 208 246 287
#     4   9  18  34  51  69  96 127 161 203 250 291
#     4  10  21  33  45  62  91 130 166 196 229 277
#     4  10  19  33  49  68  95 130 167 201 239 284
#     4  10  20  33  49  72 100 131 165 199 241 290
#
# _framework density 16.384715
#
# number of rings (size 3 to 8) (size 9 to 14) (size 15 to 20)
#    0.000    2.125    1.250    3.750    0.000    7.250 
#    0.000    0.000    0.000    0.000    0.000    0.875 
#    0.000    7.000    0.000    0.000    0.000    0.000 
#
# Total GULP energy -396796.697172 kJ/mol
# GULP energy per Si atom -12399.896787 kJ/mol
# Density = 1.634742 g / cm^3
# Si number density = 16.384715 Si / 1000 Ang^3
#
#
#
# Elastic Constant Matrix: (Units=GPa)
#
#
# Indices 1 2 3 4 5 6 
#
# 1 118.7802 49.8943 54.1491 0.0000 0.8570 0.0000
# 2 49.8943 79.7117 42.2495 0.0000 2.0731 0.0000
# 3 54.1491 42.2495 97.1835 0.0000 -3.7616 0.0000
# 4 0.0000 0.0000 0.0000 25.2605 0.0000 1.8620
# 5 0.8570 2.0731 -3.7616 0.0000 10.6993 0.0000
# 6 0.0000 0.0000 0.0000 1.8620 0.0000 25.4440
#
#
#
# Elastic Compliance Matrix: (Units=1/GPa)
#
#
# Indices 1 2 3 4 5 6 
#
# 1 0.012969 -0.005468 -0.004915 0.000000 -0.001707 0.000000
# 2 -0.005468 0.018961 -0.005395 0.000000 -0.005133 0.000000
# 3 -0.004915 -0.005395 0.015642 0.000000 0.006938 0.000000
# 4 0.000000 0.000000 0.000000 0.039802 0.000000 -0.002913
# 5 -0.001707 -0.005133 0.006938 0.000000 0.097035 0.000000
# 6 0.000000 0.000000 0.000000 -0.002913 0.000000 0.039515
#
#
# Mechanical properties :
#
#
# Convention : Reuss Voigt Hill
#
# Bulk Modulus (GPa) = 62.43762 65.36237 63.89999
# Shear Modulus (GPa) = 19.17045 22.23960 20.70502
#
# Velocity S-wave (km/s) = 3.42427 3.68820 3.55868
# Velocity P-wave (km/s) = 7.33649 7.62339 7.48131
#
# Compressibility (1/GPa) = 0.01601599
#
# Stress axis : x y z
#
# Youngs Moduli (GPa) = 77.10869 52.74021 63.92962
#
# Poissons Ratio (x) = 0.28839 0.31420
# Poissons Ratio (y) = 0.42164 0.34489
# Poissons Ratio (z) = 0.37897 0.28453
#
# Static dielectric constant tensor:
#      x y z
#    x 3.299370 0.000000 -0.043060 
#    y 0.000000 3.145190 0.000000 
#    z -0.043060 0.000000 3.030590 
# 
# 
# High freq. dielectric constant tensor:
#      x y z
#    x 1.619560 0.000000 -0.000530 
#    y 0.000000 1.638110 0.000000 
#    z -0.000530 0.000000 1.611220 
# 
# From -- ./inp_files/244075.got.cif
#   From: 2010.06.25/outbox.cif.g09.slc.cpg/sg12_123_cif.got.tgz:244075.got - 2010.06.28 00:19:55.
