data_PCOD8086604
_publ_section_title
;
Structure prediction by ZEFSAII (Michael W. Deem and Ramdas Pophale) SiO2 
 PCOD8086604
Probable space group: C 2/M
;
_chemical_formula_sum "Si O2"
_cell_formula_units_Z 48
_cell_length_a 23.443859
_cell_length_b 8.842443
_cell_length_c 13.629056
_cell_angle_alpha 90.000000
_cell_angle_beta 107.783642
_cell_angle_gamma 90.000000
_cell_volume 2690.313604
_symmetry_space_group_name_H-M "C 2/M"
_symmetry_group_IT_number 12
_symmetry_cell_setting 'monoclinic'
loop_
_space_group_symop_operation_xyz
x,y,z
-x,y,-z
-x,-y,-z
x,-y,z
1/2+x,1/2+y,z
1/2-x,1/2+y,-z
1/2-x,1/2-y,-z
1/2+x,1/2-y,z
loop_
_atom_site_type_symbol
_atom_site_label
_atom_site_fract_x
_atom_site_fract_y
_atom_site_fract_z
Si Si1 0.866042 0.169630 0.722365
Si Si2 0.363662 0.172571 0.368988
Si Si3 0.750303 0.323034 0.607512
Si Si4 0.063544 0.170305 0.434535
Si Si5 0.988097 0.178408 0.882371
Si Si6 0.541614 0.174504 0.732662
O O1 0.808166 0.275630 0.701946
O O2 0.884350 0.171427 0.618548
O O3 0.920908 0.231102 0.817745
O O4 0.848812 0.000000 0.746562
O O5 0.306735 0.278116 0.356933
O O6 0.417693 0.217405 0.469465
O O7 0.390401 0.191886 0.272735
O O8 0.344759 0.000000 0.379346
O O9 0.750172 0.500000 0.591278
O O10 0.750000 0.250000 0.500000
O O11 0.001565 0.226010 0.357405
O O12 0.054878 0.000000 0.470254
O O13 0.037418 0.263639 0.841692
O O14 0.994821 0.000000 0.867498
O O15 0.000000 0.224943 0.000000
O O16 0.521317 0.000000 0.718950
#
# Coordination Sequence:
#
# PCOD8086604 Si02
#       6
#     8   8   8   8   8   8
#     4   9  18  33  52  77 107 137 174 216 260 310
#     4  11  22  34  49  71 105 145 180 216 259 309
#     4  12  23  34  51  74 105 145 184 219 257 306
#     4  10  19  31  50  74 104 142 178 214 258 310
#     4   9  19  37  61  84 105 133 171 218 270 321
#     4  10  21  34  50  76 107 138 173 217 267 315
#
# _framework density 17.841785999999999
#
# number of rings (size 3 to 8) (size 9 to 14) (size 15 to 20)
#    0.000    1.833    1.667    4.500    0.000    7.667 
#    0.000    0.000    0.000    1.000    0.000    0.000 
#    0.000    0.000    0.000    0.000    0.000    0.000 
#
# Total GULP energy -297590.345482 kJ/mol
# GULP energy per Si atom -12399.597728 kJ/mol
# Density = 1.780118 g / cm^3
# Si number density = 17.841786 Si / 1000 Ang^3
#
#
#
# Elastic Constant Matrix: (Units=GPa)
#
#
# Indices 1 2 3 4 5 6 
#
# 1 109.6307 48.8797 46.3489 0.0000 -9.5050 0.0000
# 2 48.8797 102.5335 31.5024 0.0000 -0.9526 0.0000
# 3 46.3489 31.5024 88.3404 0.0000 -5.9526 0.0000
# 4 0.0000 0.0000 0.0000 22.7966 0.0000 0.5716
# 5 -9.5050 -0.9526 -5.9526 0.0000 12.8011 0.0000
# 6 0.0000 0.0000 0.0000 0.5716 0.0000 29.1291
#
#
#
# Elastic Compliance Matrix: (Units=1/GPa)
#
#
# Indices 1 2 3 4 5 6 
#
# 1 0.014261 -0.005154 -0.005117 0.000000 0.007826 0.000000
# 2 -0.005154 0.012829 -0.002131 0.000000 -0.003863 0.000000
# 3 -0.005117 -0.002131 0.014967 0.000000 0.003002 0.000000
# 4 0.000000 0.000000 0.000000 0.043888 0.000000 -0.000861
# 5 0.007826 -0.003863 0.003002 0.000000 0.085038 0.000000
# 6 0.000000 0.000000 0.000000 -0.000861 0.000000 0.034347
#
#
# Mechanical properties :
#
#
# Convention : Reuss Voigt Hill
#
# Bulk Modulus (GPa) = 57.96149 61.55186 59.75668
# Shear Modulus (GPa) = 21.19682 24.53024 22.86353
#
# Velocity S-wave (km/s) = 3.45054 3.71195 3.58363
# Velocity P-wave (km/s) = 6.95930 7.27634 7.11958
#
# Compressibility (1/GPa) = 0.01725283
#
# Stress axis : x y z
#
# Youngs Moduli (GPa) = 70.11978 77.95054 66.81429
#
# Poissons Ratio (x) = 0.40174 0.34190
# Poissons Ratio (y) = 0.36138 0.14239
# Poissons Ratio (z) = 0.35882 0.16612
#
# Static dielectric constant tensor:
#      x y z
#    x 3.427400 0.000000 -0.094110 
#    y 0.000000 3.399500 0.000000 
#    z -0.094110 0.000000 3.111700 
# 
# 
# High freq. dielectric constant tensor:
#      x y z
#    x 1.692860 0.000000 -0.004140 
#    y 0.000000 1.699570 0.000000 
#    z -0.004140 0.000000 1.650890 
# 
# From -- ./inp_files/230405.got.cif
#   From: 2010.06.25/outbox.cif.g09.slc.cpg/sg12_116_cif.got.tgz:230405.got - 2010.06.28 00:19:55.
