data_PCOD8086439
_publ_section_title
;
Structure prediction by ZEFSAII (Michael W. Deem and Ramdas Pophale) SiO2 
 PCOD8086439
Probable space group: C 2/M
;
_chemical_formula_sum "Si O2"
_cell_formula_units_Z 40
_cell_length_a 25.310023
_cell_length_b 9.104979
_cell_length_c 12.139761
_cell_angle_alpha 90.000000
_cell_angle_beta 122.571974
_cell_angle_gamma 90.000000
_cell_volume 2357.560133
_symmetry_space_group_name_H-M "C 2/M"
_symmetry_group_IT_number 12
_symmetry_cell_setting 'monoclinic'
loop_
_space_group_symop_operation_xyz
x,y,z
-x,y,-z
-x,-y,-z
x,-y,z
1/2+x,1/2+y,z
1/2-x,1/2+y,-z
1/2-x,1/2-y,-z
1/2+x,1/2-y,z
loop_
_atom_site_type_symbol
_atom_site_label
_atom_site_fract_x
_atom_site_fract_y
_atom_site_fract_z
Si Si1 0.216967 0.330916 0.617816
Si Si2 0.665314 0.830981 0.316688
Si Si3 0.464859 0.669754 0.846700
Si Si4 0.491326 0.826133 0.312609
Si Si5 0.096310 0.673136 0.597102
O O1 0.236011 0.500000 0.657273
O O2 0.279221 0.233746 0.697098
O O3 0.182635 0.309597 0.463050
O O4 0.167581 0.273662 0.655105
O O5 0.602062 0.746362 0.219886
O O6 0.655864 0.000000 0.275028
O O7 0.454575 0.500000 0.806776
O O8 0.508568 0.742468 0.802661
O O9 0.500000 0.692773 0.000000
O O10 0.427410 0.784078 0.307180
O O11 0.549482 0.766313 0.450652
O O12 0.495719 0.000000 0.295732
O O13 0.093572 0.500000 0.580003
#
# Coordination Sequence:
#
# PCOD8086439 Si02
#       5
#     8   8   8   8   8
#     4   9  16  29  49  74 104 131 153 192 248 298
#     4  10  19  31  49  73  98 129 167 202 240 290
#     4  11  23  36  49  68  99 135 168 206 248 287
#     4   9  16  30  51  74  98 127 165 200 237 294
#     4   8  14  27  50  76 102 128 154 194 247 297
#
# _framework density 16.966692999999999
#
# number of rings (size 3 to 8) (size 9 to 14) (size 15 to 20)
#    0.000    2.600    2.000    2.400    0.000    2.400 
#    0.000    3.000    0.000    1.200    0.000    0.000 
#    0.000    0.000    0.000    0.000    0.000    0.000 
#
# Total GULP energy -247919.360083 kJ/mol
# GULP energy per Si atom -12395.968004 kJ/mol
# Density = 1.692808 g / cm^3
# Si number density = 16.966693 Si / 1000 Ang^3
#
#
#
# Elastic Constant Matrix: (Units=GPa)
#
#
# Indices 1 2 3 4 5 6 
#
# 1 178.6401 66.2746 46.8570 0.0000 -4.0496 0.0000
# 2 66.2746 91.9124 44.5249 0.0000 -0.8153 0.0000
# 3 46.8570 44.5249 49.3872 0.0000 -4.5039 0.0000
# 4 0.0000 0.0000 0.0000 21.7310 0.0000 1.6030
# 5 -4.0496 -0.8153 -4.5039 0.0000 19.7457 0.0000
# 6 0.0000 0.0000 0.0000 1.6030 0.0000 26.3543
#
#
#
# Elastic Compliance Matrix: (Units=1/GPa)
#
#
# Indices 1 2 3 4 5 6 
#
# 1 0.008134 -0.003810 -0.004233 0.000000 0.000545 0.000000
# 2 -0.003810 0.021306 -0.015916 0.000000 -0.003532 0.000000
# 3 -0.004233 -0.015916 0.039291 0.000000 0.007437 0.000000
# 4 0.000000 0.000000 0.000000 0.046225 0.000000 -0.002812
# 5 0.000545 -0.003532 0.007437 0.000000 0.052306 0.000000
# 6 0.000000 0.000000 0.000000 -0.002812 0.000000 0.038115
#
#
# Mechanical properties :
#
#
# Convention : Reuss Voigt Hill
#
# Bulk Modulus (GPa) = 48.04397 70.58365 59.31381
# Shear Modulus (GPa) = 19.21371 24.38508 21.79940
#
# Velocity S-wave (km/s) = 3.36882 3.79520 3.58835
# Velocity P-wave (km/s) = 6.59622 7.80361 7.22518
#
# Compressibility (1/GPa) = 0.02081426
#
# Stress axis : x y z
#
# Youngs Moduli (GPa) = 122.94325 46.93605 25.45120
#
# Poissons Ratio (x) = 0.17881 0.10773
# Poissons Ratio (y) = 0.46838 0.40507
# Poissons Ratio (z) = 0.52039 0.74701
#
# Static dielectric constant tensor:
#      x y z
#    x 3.764690 0.000000 0.018420 
#    y 0.000000 3.076340 0.000000 
#    z 0.018420 0.000000 2.777110 
# 
# 
# High freq. dielectric constant tensor:
#      x y z
#    x 1.675610 0.000000 0.001090 
#    y 0.000000 1.640530 0.000000 
#    z 0.001090 0.000000 1.606190 
# 
# From -- ./inp_files/162360.got.cif
#   From: 2010.06.25/outbox.cif.g09.slc.cpg/sg12_82_cif.got.tgz:162360.got - 2010.06.28 00:19:55.
