data_PCOD8086064
_publ_section_title
;
Structure prediction by ZEFSAII (Michael W. Deem and Ramdas Pophale) SiO2 
 PCOD8086064
Probable space group: C 2/M
;
_chemical_formula_sum "Si O2"
_cell_formula_units_Z 40
_cell_length_a 12.919498
_cell_length_b 18.445068
_cell_length_c 8.516466
_cell_angle_alpha 90.000000
_cell_angle_beta 109.597630
_cell_angle_gamma 90.000000
_cell_volume 1911.917299
_symmetry_space_group_name_H-M "C 2/M"
_symmetry_group_IT_number 12
_symmetry_cell_setting 'monoclinic'
loop_
_space_group_symop_operation_xyz
x,y,z
-x,y,-z
-x,-y,-z
x,-y,z
1/2+x,1/2+y,z
1/2-x,1/2+y,-z
1/2-x,1/2-y,-z
1/2+x,1/2-y,z
loop_
_atom_site_type_symbol
_atom_site_label
_atom_site_fract_x
_atom_site_fract_y
_atom_site_fract_z
Si Si1 0.241828 0.417931 0.560612
Si Si2 0.343010 0.082684 0.137700
Si Si3 0.761906 0.690213 0.873046
Si Si4 0.145150 0.207403 0.510026
Si Si5 0.562303 0.828160 0.291648
O O1 0.262384 0.500000 0.519214
O O2 0.223992 0.411208 0.736458
O O3 0.350751 0.372208 0.568015
O O4 0.134179 0.389165 0.416197
O O5 0.446813 0.136281 0.193063
O O6 0.379527 0.000000 0.122841
O O7 0.264204 0.111189 0.957909
O O8 0.656343 0.697314 0.703922
O O9 0.875798 0.698839 0.834072
O O10 0.750000 0.750000 0.000000
O O11 0.250000 0.250000 0.500000
O O12 0.043599 0.257204 0.397647
#
# Coordination Sequence:
#
# PCOD8086064 Si02
#       5
#     8   8   8   8   8
#     4   9  17  30  48  70  99 133 166 200 243 300
#     4  11  21  31  49  80 111 132 156 204 265 306
#     4  10  19  32  47  65  97 137 172 204 240 295
#     4   8  17  32  48  64  93 136 179 204 232 295
#     4  10  19  31  47  69 100 133 170 207 248 300
#
# _framework density 20.921406999999999
#
# number of rings (size 3 to 8) (size 9 to 14) (size 15 to 20)
#    0.000    2.800    0.000    5.400    0.000    6.400 
#    0.000    0.000    0.000    0.000    0.000    1.400 
#    0.000   73.600    0.000    1.200    0.000    4.400 
#
# Total GULP energy -247778.643838 kJ/mol
# GULP energy per Si atom -12388.932192 kJ/mol
# Density = 2.087379 g / cm^3
# Si number density = 20.921407 Si / 1000 Ang^3
#
#
#
# Elastic Constant Matrix: (Units=GPa)
#
#
# Indices 1 2 3 4 5 6 
#
# 1 41.0156 41.3547 31.9553 0.0000 -2.2552 0.0000
# 2 41.3547 180.2663 83.5832 0.0000 0.8261 0.0000
# 3 31.9553 83.5832 139.4973 0.0000 -16.3287 0.0000
# 4 0.0000 0.0000 0.0000 42.0454 0.0000 -0.5580
# 5 -2.2552 0.8261 -16.3287 0.0000 22.7333 0.0000
# 6 0.0000 0.0000 0.0000 -0.5580 0.0000 29.6563
#
#
#
# Elastic Compliance Matrix: (Units=1/GPa)
#
#
# Indices 1 2 3 4 5 6 
#
# 1 0.033443 -0.005749 -0.004152 0.000000 0.000544 0.000000
# 2 -0.005749 0.009003 -0.004566 0.000000 -0.004177 0.000000
# 3 -0.004152 -0.004566 0.011821 0.000000 0.008244 0.000000
# 4 0.000000 0.000000 0.000000 0.023790 0.000000 0.000448
# 5 0.000544 -0.004177 0.008244 0.000000 0.050116 0.000000
# 6 0.000000 0.000000 0.000000 0.000448 0.000000 0.033728
#
#
# Mechanical properties :
#
#
# Convention : Reuss Voigt Hill
#
# Bulk Modulus (GPa) = 39.47787 74.95174 57.21481
# Shear Modulus (GPa) = 25.09049 32.47939 28.78494
#
# Velocity S-wave (km/s) = 3.46681 3.94439 3.71328
# Velocity P-wave (km/s) = 5.91063 7.52645 6.76694
#
# Compressibility (1/GPa) = 0.02533064
#
# Stress axis : x y z
#
# Youngs Moduli (GPa) = 29.90177 111.07995 84.59733
#
# Poissons Ratio (x) = 0.63862 0.35129
# Poissons Ratio (y) = 0.17191 0.38627
# Poissons Ratio (z) = 0.12417 0.50719
#
# Static dielectric constant tensor:
#      x y z
#    x 3.708690 0.000000 0.052040 
#    y 0.000000 4.562400 0.000000 
#    z 0.052040 0.000000 4.265380 
# 
# 
# High freq. dielectric constant tensor:
#      x y z
#    x 1.777180 0.000000 -0.020560 
#    y 0.000000 1.824330 0.000000 
#    z -0.020560 0.000000 1.836880 
# 
# From -- ./inp_files/60381.got.cif
#   From: 2010.06.25/outbox.cif.g09.slc.cpg/sg12_31_cif.got.tgz:60381.got - 2010.06.28 00:19:55.
