data_PCOD8086585
_publ_section_title
;
Structure prediction by ZEFSAII (Michael W. Deem and Ramdas Pophale) SiO2 
 PCOD8086585
Probable space group: C 2/M
;
_chemical_formula_sum "Si O2"
_cell_formula_units_Z 56
_cell_length_a 18.121911
_cell_length_b 9.053365
_cell_length_c 28.624678
_cell_angle_alpha 90.000000
_cell_angle_beta 140.418360
_cell_angle_gamma 90.000000
_cell_volume 2992.366329
_symmetry_space_group_name_H-M "C 2/M"
_symmetry_group_IT_number 12
_symmetry_cell_setting 'monoclinic'
loop_
_space_group_symop_operation_xyz
x,y,z
-x,y,-z
-x,-y,-z
x,-y,z
1/2+x,1/2+y,z
1/2-x,1/2+y,-z
1/2-x,1/2-y,-z
1/2+x,1/2-y,z
loop_
_atom_site_type_symbol
_atom_site_label
_atom_site_fract_x
_atom_site_fract_y
_atom_site_fract_z
Si Si1 0.300894 0.171378 0.213352
Si Si2 0.371975 0.324887 0.068202
Si Si3 0.519842 0.333622 0.642012
Si Si4 0.361998 0.664044 0.656377
Si Si5 0.668113 0.172830 0.496977
Si Si6 0.539365 0.170125 0.797518
Si Si7 0.956198 0.824735 0.929365
O O1 0.359579 0.257040 0.285058
O O2 0.367441 0.197960 0.197421
O O3 0.171872 0.235902 0.144339
O O4 0.300550 0.000000 0.226669
O O5 0.355970 0.500000 0.060991
O O6 0.425810 0.272340 0.142784
O O7 0.456739 0.272874 0.068319
O O8 0.250000 0.250000 0.000000
O O9 0.545221 0.500000 0.638102
O O10 0.435295 0.328383 0.644818
O O11 0.459341 0.246280 0.569225
O O12 0.372604 0.500000 0.683417
O O13 0.227403 0.697234 0.577090
O O14 0.411389 0.781885 0.717440
O O15 0.750000 0.250000 0.500000
O O16 0.658834 0.000000 0.480539
O O17 0.535671 0.000000 0.811200
O O18 0.950338 0.000000 0.930084
O O19 0.000000 0.758376 0.000000
#
# Coordination Sequence:
#
# PCOD8086585 Si02
#       7
#     8   8   8   8   8   8   8
#     4   9  17  31  51  72  96 129 168 205 241 286
#     4  11  22  36  55  76 100 128 159 199 243 290
#     4   9  16  25  39  63  96 130 163 201 246 293
#     4   8  15  26  40  62  94 129 164 202 241 283
#     4   9  15  23  37  60  92 128 165 205 247 290
#     4  10  19  31  50  74 100 130 163 201 244 291
#     4   9  18  34  55  76  96 123 162 202 239 284
#
# _framework density 18.714286000000001
#
# number of rings (size 3 to 8) (size 9 to 14) (size 15 to 20)
#    0.000    2.714    0.000    3.429    0.000    6.857 
#    0.000    1.429    0.000    3.000    0.000    1.000 
#    0.000    8.000    0.000    0.000    0.000    0.000 
#
# Total GULP energy -347080.451559 kJ/mol
# GULP energy per Si atom -12395.730413 kJ/mol
# Density = 1.867169 g / cm^3
# Si number density = 18.714286 Si / 1000 Ang^3
#
#
#
# Elastic Constant Matrix: (Units=GPa)
#
#
# Indices 1 2 3 4 5 6 
#
# 1 50.1217 34.4497 50.8551 0.0000 6.9755 0.0000
# 2 34.4497 97.2044 69.5102 0.0000 1.9999 0.0000
# 3 50.8551 69.5102 189.5473 0.0000 15.5864 0.0000
# 4 0.0000 0.0000 0.0000 37.2999 0.0000 -1.9940
# 5 6.9755 1.9999 15.5864 0.0000 18.5722 0.0000
# 6 0.0000 0.0000 0.0000 -1.9940 0.0000 14.2615
#
#
#
# Elastic Compliance Matrix: (Units=1/GPa)
#
#
# Indices 1 2 3 4 5 6 
#
# 1 0.031024 -0.007175 -0.005154 0.000000 -0.006555 0.000000
# 2 -0.007175 0.015761 -0.004229 0.000000 0.004546 0.000000
# 3 -0.005154 -0.004229 0.008606 0.000000 -0.004832 0.000000
# 4 0.000000 0.000000 0.000000 0.027012 0.000000 0.003777
# 5 -0.006555 0.004546 -0.004832 0.000000 0.059871 0.000000
# 6 0.000000 0.000000 0.000000 0.003777 0.000000 0.070647
#
#
# Mechanical properties :
#
#
# Convention : Reuss Voigt Hill
#
# Bulk Modulus (GPa) = 44.88912 71.83371 58.36141
# Shear Modulus (GPa) = 19.72693 26.16394 22.94544
#
# Velocity S-wave (km/s) = 3.25023 3.74314 3.50536
# Velocity P-wave (km/s) = 6.17446 7.55971 6.90193
#
# Compressibility (1/GPa) = 0.02227711
#
# Stress axis : x y z
#
# Youngs Moduli (GPa) = 32.23307 63.44894 116.19253
#
# Poissons Ratio (x) = 0.45524 0.59880
# Poissons Ratio (y) = 0.23127 0.49133
# Poissons Ratio (z) = 0.16611 0.26830
#
# Static dielectric constant tensor:
#      x y z
#    x 2.986610 0.000000 0.122290 
#    y 0.000000 3.421240 0.000000 
#    z 0.122290 0.000000 4.989630 
# 
# 
# High freq. dielectric constant tensor:
#      x y z
#    x 1.666950 0.000000 0.003780 
#    y 0.000000 1.720860 0.000000 
#    z 0.003780 0.000000 1.753720 
# 
# From -- ./inp_files/377731.got.cif
#   From: 2010.06.25/outbox.cif.g09.slc.cpg/sg12_189_cif.got.tgz:377731.got - 2010.06.28 00:19:55.
