data_PCOD8086663
_publ_section_title
;
Structure prediction by ZEFSAII (Michael W. Deem and Ramdas Pophale) SiO2 
 PCOD8086663
Probable space group: C 2/M
;
_chemical_formula_sum "Si O2"
_cell_formula_units_Z 48
_cell_length_a 27.498390
_cell_length_b 8.819520
_cell_length_c 20.677118
_cell_angle_alpha 90.000000
_cell_angle_beta 147.721826
_cell_angle_gamma 90.000000
_cell_volume 2677.984988
_symmetry_space_group_name_H-M "C 2/M"
_symmetry_group_IT_number 12
_symmetry_cell_setting 'monoclinic'
loop_
_space_group_symop_operation_xyz
x,y,z
-x,y,-z
-x,-y,-z
x,-y,z
1/2+x,1/2+y,z
1/2-x,1/2+y,-z
1/2-x,1/2-y,-z
1/2+x,1/2-y,z
loop_
_atom_site_type_symbol
_atom_site_label
_atom_site_fract_x
_atom_site_fract_y
_atom_site_fract_z
Si Si1 0.802787 0.321699 0.998954
Si Si2 0.022462 0.170606 0.764738
Si Si3 0.477704 0.672087 0.382816
Si Si4 0.669259 0.174364 0.592526
Si Si5 0.802727 0.324419 0.234193
Si Si6 0.684804 0.320768 0.479320
O O1 0.789677 0.500000 0.988106
O O2 0.766748 0.263190 0.889796
O O3 0.750000 0.250000 0.000000
O O4 0.909912 0.279827 0.120105
O O5 0.056446 0.172156 0.729223
O O6 0.918719 0.230795 0.652623
O O7 0.028944 0.000000 0.800124
O O8 0.493209 0.500000 0.424064
O O9 0.569301 0.764551 0.493833
O O10 0.402723 0.753044 0.341902
O O11 0.727456 0.193214 0.724358
O O12 0.715194 0.264481 0.584720
O O13 0.662967 0.000000 0.564776
O O14 0.806198 0.500000 0.217332
O O15 0.692731 0.500000 0.487345
O O16 0.750000 0.250000 0.500000
#
# Coordination Sequence:
#
# PCOD8086663 Si02
#       6
#     8   8   8   8   8   8
#     4  12  23  34  52  76 108 149 188 226 264 315
#     4   9  19  35  53  78 109 142 181 221 265 319
#     4  10  19  31  50  75 107 145 181 221 267 318
#     4  10  21  35  52  77 108 141 180 223 271 324
#     4  11  22  34  50  73 107 149 185 221 265 318
#     4  10  21  38  62  86 109 137 174 224 278 328
#
# _framework density 17.923924
#
# number of rings (size 3 to 8) (size 9 to 14) (size 15 to 20)
#    0.000    1.667    1.667    5.000    0.000    8.000 
#    0.000    0.000    0.000    1.000    0.000    7.000 
#    0.000    0.000    0.000    0.000    0.000    0.000 
#
# Total GULP energy -297586.944504 kJ/mol
# GULP energy per Si atom -12399.456021 kJ/mol
# Density = 1.788313 g / cm^3
# Si number density = 17.923924 Si / 1000 Ang^3
#
#
#
# Elastic Constant Matrix: (Units=GPa)
#
#
# Indices 1 2 3 4 5 6 
#
# 1 117.1273 39.6629 46.3757 0.0000 -7.7309 0.0000
# 2 39.6629 159.6965 71.9641 0.0000 -8.3798 0.0000
# 3 46.3757 71.9641 99.4472 0.0000 -18.9702 0.0000
# 4 0.0000 0.0000 0.0000 29.7721 0.0000 -0.1463
# 5 -7.7309 -8.3798 -18.9702 0.0000 20.6354 0.0000
# 6 0.0000 0.0000 0.0000 -0.1463 0.0000 28.2438
#
#
#
# Elastic Compliance Matrix: (Units=1/GPa)
#
#
# Indices 1 2 3 4 5 6 
#
# 1 0.010514 -0.000571 -0.004587 0.000000 -0.000510 0.000000
# 2 -0.000571 0.009470 -0.007147 0.000000 -0.002939 0.000000
# 3 -0.004587 -0.007147 0.019991 0.000000 0.013757 0.000000
# 4 0.000000 0.000000 0.000000 0.033589 0.000000 0.000174
# 5 -0.000510 -0.002939 0.013757 0.000000 0.059723 0.000000
# 6 0.000000 0.000000 0.000000 0.000174 0.000000 0.035407
#
#
# Mechanical properties :
#
#
# Convention : Reuss Voigt Hill
#
# Bulk Modulus (GPa) = 65.08615 76.91961 71.00288
# Shear Modulus (GPa) = 25.19833 30.28150 27.73991
#
# Velocity S-wave (km/s) = 3.75353 4.11475 3.93828
# Velocity P-wave (km/s) = 7.42810 8.09830 7.77043
#
# Compressibility (1/GPa) = 0.01536425
#
# Stress axis : x y z
#
# Youngs Moduli (GPa) = 95.11512 105.59286 50.02238
#
# Poissons Ratio (x) = 0.06029 0.22945
# Poissons Ratio (y) = 0.05430 0.35753
# Poissons Ratio (z) = 0.43629 0.75472
#
# Static dielectric constant tensor:
#      x y z
#    x 3.213340 0.000000 -0.167050 
#    y 0.000000 3.454300 0.000000 
#    z -0.167050 0.000000 3.361250 
# 
# 
# High freq. dielectric constant tensor:
#      x y z
#    x 1.667240 0.000000 -0.018250 
#    y 0.000000 1.709970 0.000000 
#    z -0.018250 0.000000 1.687430 
# 
# From -- ./inp_files/329008.got.cif
#   From: 2010.06.25/outbox.cif.g09.slc.cpg/sg12_165_cif.got.tgz:329008.got - 2010.06.28 00:19:55.
