data_PCOD8086895
_publ_section_title
;
Structure prediction by ZEFSAII (Michael W. Deem and Ramdas Pophale) SiO2 
 PCOD8086895
Probable space group: C 2/M
;
_chemical_formula_sum "Si O2"
_cell_formula_units_Z 64
_cell_length_a 27.912611
_cell_length_b 9.381995
_cell_length_c 19.343627
_cell_angle_alpha 90.000000
_cell_angle_beta 132.951141
_cell_angle_gamma 90.000000
_cell_volume 3707.712835
_symmetry_space_group_name_H-M "C 2/M"
_symmetry_group_IT_number 12
_symmetry_cell_setting 'monoclinic'
loop_
_space_group_symop_operation_xyz
x,y,z
-x,y,-z
-x,-y,-z
x,-y,z
1/2+x,1/2+y,z
1/2-x,1/2+y,-z
1/2-x,1/2-y,-z
1/2+x,1/2-y,z
loop_
_atom_site_type_symbol
_atom_site_label
_atom_site_fract_x
_atom_site_fract_y
_atom_site_fract_z
Si Si1 0.881952 0.836523 0.058097
Si Si2 0.935323 0.663607 0.898669
Si Si3 0.325324 0.166712 0.281497
Si Si4 0.521404 0.662087 0.336283
Si Si5 0.322902 0.337523 0.857010
Si Si6 0.868712 0.838091 0.197576
Si Si7 0.011560 0.335974 0.196096
Si Si8 0.067255 0.833857 0.530400
O O1 0.847245 0.804604 0.097525
O O2 0.943815 0.735947 0.107730
O O3 0.907129 0.000000 0.083106
O O4 0.831157 0.805973 0.946910
O O5 0.928253 0.500000 0.914372
O O6 0.869932 0.742204 0.857235
O O7 0.939510 0.680430 0.820188
O O8 0.000000 0.727740 0.000000
O O9 0.251915 0.194524 0.236295
O O10 0.331399 0.230328 0.210722
O O11 0.373350 0.242741 0.381989
O O12 0.341697 0.000000 0.294074
O O13 0.532024 0.500000 0.322738
O O14 0.446052 0.688076 0.281639
O O15 0.543622 0.762598 0.294985
O O16 0.564532 0.696882 0.445928
O O17 0.341446 0.500000 0.859181
O O18 0.851047 0.000000 0.201205
O O19 0.997844 0.500000 0.200146
O O20 0.000000 0.784339 0.500000
O O21 0.079737 0.000000 0.558793
#
# Coordination Sequence:
#
# PCOD8086895 Si02
#       8
#     8   8   8   8   8   8   8   8
#     4   9  18  33  51  71 101 142 182 211 245 304
#     4  10  20  35  54  79 108 136 172 218 263 309
#     4  11  23  35  49  77 111 138 173 222 267 305
#     4   9  18  33  54  78 104 134 173 214 253 310
#     4  10  22  37  52  74 106 143 180 217 259 309
#     4   9  17  32  51  72 101 141 180 212 248 305
#     4  10  19  31  51  80 110 133 163 215 268 306
#     4  10  19  36  58  77 101 138 179 215 256 312
#
# _framework density 17.261315
#
# number of rings (size 3 to 8) (size 9 to 14) (size 15 to 20)
#    0.000    2.250    2.500    1.500    0.000    5.500 
#    0.000    0.000    0.000    0.750    0.000    0.000 
#    0.000    0.000    0.000    0.000    0.000    0.000 
#
# Total GULP energy -396814.436516 kJ/mol
# GULP energy per Si atom -12400.451141 kJ/mol
# Density = 1.722203 g / cm^3
# Si number density = 17.261315 Si / 1000 Ang^3
#
#
#
# Elastic Constant Matrix: (Units=GPa)
#
#
# Indices 1 2 3 4 5 6 
#
# 1 84.7871 58.4233 49.0856 0.0000 -1.9932 0.0000
# 2 58.4233 96.9949 54.4512 0.0000 -0.3689 0.0000
# 3 49.0856 54.4512 95.0325 0.0000 -0.6114 0.0000
# 4 0.0000 0.0000 0.0000 27.5058 0.0000 -3.0670
# 5 -1.9932 -0.3689 -0.6114 0.0000 20.4170 0.0000
# 6 0.0000 0.0000 0.0000 -3.0670 0.0000 32.4050
#
#
#
# Elastic Compliance Matrix: (Units=1/GPa)
#
#
# Indices 1 2 3 4 5 6 
#
# 1 0.022053 -0.010155 -0.005561 0.000000 0.001803 0.000000
# 2 -0.010155 0.019875 -0.006148 0.000000 -0.000816 0.000000
# 3 -0.005561 -0.006148 0.016916 0.000000 -0.000147 0.000000
# 4 0.000000 0.000000 0.000000 0.036744 0.000000 0.003478
# 5 0.001803 -0.000816 -0.000147 0.000000 0.049136 0.000000
# 6 0.000000 0.000000 0.000000 0.003478 0.000000 0.031189
#
#
# Mechanical properties :
#
#
# Convention : Reuss Voigt Hill
#
# Bulk Modulus (GPa) = 66.14809 66.74829 66.44819
# Shear Modulus (GPa) = 22.25408 23.72251 22.98829
#
# Velocity S-wave (km/s) = 3.59450 3.71120 3.65332
# Velocity P-wave (km/s) = 7.45869 7.55760 7.50830
#
# Compressibility (1/GPa) = 0.01511760
#
# Stress axis : x y z
#
# Youngs Moduli (GPa) = 45.34499 50.31559 59.11404
#
# Poissons Ratio (x) = 0.51095 0.32872
# Poissons Ratio (y) = 0.46047 0.36342
# Poissons Ratio (z) = 0.25215 0.30933
#
# Static dielectric constant tensor:
#      x y z
#    x 3.030810 0.000000 -0.215060 
#    y 0.000000 3.228420 0.000000 
#    z -0.215060 0.000000 3.217870 
# 
# 
# High freq. dielectric constant tensor:
#      x y z
#    x 1.647470 0.000000 -0.019560 
#    y 0.000000 1.669630 0.000000 
#    z -0.019560 0.000000 1.659620 
# 
# From -- ./inp_files/326909.got.cif
#   From: 2010.06.25/outbox.cif.g09.slc.cpg/sg12_164_cif.got.tgz:326909.got - 2010.06.28 00:19:55.
