data_PCOD8086221
_publ_section_title
;
Structure prediction by ZEFSAII (Michael W. Deem and Ramdas Pophale) SiO2 
 PCOD8086221
Probable space group: C 2/M
;
_chemical_formula_sum "Si O2"
_cell_formula_units_Z 64
_cell_length_a 14.173963
_cell_length_b 9.067406
_cell_length_c 28.355660
_cell_angle_alpha 90.000000
_cell_angle_beta 88.323253
_cell_angle_gamma 90.000000
_cell_volume 3642.739541
_symmetry_space_group_name_H-M "C 2/M"
_symmetry_group_IT_number 12
_symmetry_cell_setting 'monoclinic'
loop_
_space_group_symop_operation_xyz
x,y,z
-x,y,-z
-x,-y,-z
x,-y,z
1/2+x,1/2+y,z
1/2-x,1/2+y,-z
1/2-x,1/2-y,-z
1/2+x,1/2-y,z
loop_
_atom_site_type_symbol
_atom_site_label
_atom_site_fract_x
_atom_site_fract_y
_atom_site_fract_z
Si Si1 0.348889 0.326848 0.382160
Si Si2 0.644292 0.327465 0.125457
Si Si3 0.002777 0.827475 0.304108
Si Si4 0.016075 0.326983 0.552565
Si Si5 0.515825 0.674454 0.802685
Si Si6 0.137729 0.673018 0.369149
Si Si7 0.355058 0.176324 0.125779
Si Si8 0.507914 0.326165 0.945804
O O1 0.348910 0.500000 0.391576
O O2 0.410374 0.284326 0.335468
O O3 0.391344 0.250466 0.427850
O O4 0.243293 0.267086 0.375680
O O5 0.658356 0.500000 0.125523
O O6 0.583406 0.279406 0.171954
O O7 0.748556 0.258739 0.125535
O O8 0.589139 0.279667 0.078787
O O9 0.985964 0.773328 0.251247
O O10 0.095099 0.748404 0.323350
O O11 0.023049 0.000000 0.305525
O O12 0.035452 0.500000 0.552756
O O13 0.923971 0.284655 0.584254
O O14 0.000000 0.268235 0.500000
O O15 0.534005 0.500000 0.807615
O O16 0.599818 0.760587 0.827109
O O17 0.138177 0.500000 0.359782
O O18 0.406206 0.237546 0.078548
O O19 0.360618 0.000000 0.126136
O O20 0.527474 0.500000 0.939483
O O21 0.500000 0.278736 0.000000
#
# Coordination Sequence:
#
# PCOD8086221 Si02
#       8
#     8   8   8   8   8   8   8   8
#     4   9  18  32  48  69  96 123 153 192 238 280
#     4   8  16  31  48  67  94 124 152 187 231 274
#     4   9  18  32  50  70  92 121 157 193 227 273
#     4   9  18  32  48  67  92 123 159 195 232 280
#     4   9  18  34  51  67  93 127 158 188 227 278
#     4   9  18  32  48  67  95 125 151 190 240 281
#     4  10  19  31  48  71  97 122 152 194 236 270
#     4   9  18  34  53  70  93 128 162 189 227 281
#
# _framework density 17.569195000000001
#
# number of rings (size 3 to 8) (size 9 to 14) (size 15 to 20)
#    0.000    3.000    0.000    1.125    0.000    3.500 
#    0.000    5.000    0.000    0.000    0.000    0.000 
#    0.000    0.000    0.000    0.000    0.000    0.000 
#
# Total GULP energy -396777.840614 kJ/mol
# GULP energy per Si atom -12399.307519 kJ/mol
# Density = 1.752921 g / cm^3
# Si number density = 17.569195 Si / 1000 Ang^3
#
#
#
# Elastic Constant Matrix: (Units=GPa)
#
#
# Indices 1 2 3 4 5 6 
#
# 1 158.6890 36.3575 72.6578 0.0000 17.7572 0.0000
# 2 36.3575 33.6415 36.0835 0.0000 4.3263 0.0000
# 3 72.6578 36.0835 160.5549 0.0000 5.8266 0.0000
# 4 0.0000 0.0000 0.0000 26.7488 0.0000 4.8254
# 5 17.7572 4.3263 5.8266 0.0000 13.6657 0.0000
# 6 0.0000 0.0000 0.0000 4.8254 0.0000 24.6804
#
#
#
# Elastic Compliance Matrix: (Units=1/GPa)
#
#
# Indices 1 2 3 4 5 6 
#
# 1 0.010238 -0.006853 -0.002731 0.000000 -0.009969 0.000000
# 2 -0.006853 0.044820 -0.006886 0.000000 -0.002348 0.000000
# 3 -0.002731 -0.006886 0.008942 0.000000 0.001916 0.000000
# 4 0.000000 0.000000 0.000000 0.038752 0.000000 -0.007577
# 5 -0.009969 -0.002348 0.001916 0.000000 0.086056 0.000000
# 6 0.000000 0.000000 0.000000 -0.007577 0.000000 0.041999
#
#
# Mechanical properties :
#
#
# Convention : Reuss Voigt Hill
#
# Bulk Modulus (GPa) = 32.19681 71.45366 51.82523
# Shear Modulus (GPa) = 18.24150 26.87144 22.55647
#
# Velocity S-wave (km/s) = 3.22571 3.91508 3.58699
# Velocity P-wave (km/s) = 5.67795 7.82274 6.83500
#
# Compressibility (1/GPa) = 0.03105898
#
# Stress axis : x y z
#
# Youngs Moduli (GPa) = 97.67840 22.31168 111.82607
#
# Poissons Ratio (x) = 0.15290 0.30541
# Poissons Ratio (y) = 0.66938 0.77008
# Poissons Ratio (z) = 0.26677 0.15365
#
# Static dielectric constant tensor:
#      x y z
#    x 3.457390 0.000000 0.033670 
#    y 0.000000 3.055540 0.000000 
#    z 0.033670 0.000000 3.367940 
# 
# 
# High freq. dielectric constant tensor:
#      x y z
#    x 1.681970 0.000000 0.003140 
#    y 0.000000 1.661670 0.000000 
#    z 0.003140 0.000000 1.682890 
# 
# From -- ./inp_files/374809.got.cif
#   From: 2010.06.25/outbox.cif.g09.slc.cpg/sg12_188_cif.got.tgz:374809.got - 2010.06.28 00:19:55.
