data_PCOD8086639
_publ_section_title
;
Structure prediction by ZEFSAII (Michael W. Deem and Ramdas Pophale) SiO2 
 PCOD8086639
Probable space group: C 2/M
;
_chemical_formula_sum "Si O2"
_cell_formula_units_Z 56
_cell_length_a 19.458947
_cell_length_b 9.018138
_cell_length_c 23.180225
_cell_angle_alpha 90.000000
_cell_angle_beta 49.864469
_cell_angle_gamma 90.000000
_cell_volume 3109.880773
_symmetry_space_group_name_H-M "C 2/M"
_symmetry_group_IT_number 12
_symmetry_cell_setting 'monoclinic'
loop_
_space_group_symop_operation_xyz
x,y,z
-x,y,-z
-x,-y,-z
x,-y,z
1/2+x,1/2+y,z
1/2-x,1/2+y,-z
1/2-x,1/2-y,-z
1/2+x,1/2-y,z
loop_
_atom_site_type_symbol
_atom_site_label
_atom_site_fract_x
_atom_site_fract_y
_atom_site_fract_z
Si Si1 0.582672 0.667130 0.998722
Si Si2 0.984654 0.329041 0.442808
Si Si3 0.033030 0.673633 0.852144
Si Si4 0.345270 0.324177 0.439643
Si Si5 0.373633 0.832184 0.729208
Si Si6 0.307255 0.173404 0.150489
Si Si7 0.458911 0.827321 0.283946
O O1 0.611282 0.500000 0.997511
O O2 0.667257 0.748271 0.923606
O O3 0.500000 0.675263 0.000000
O O4 0.553854 0.746409 0.073555
O O5 0.952933 0.500000 0.454759
O O6 0.908221 0.224189 0.458472
O O7 0.000000 0.280817 0.500000
O O8 0.077491 0.306308 0.358277
O O9 0.014795 0.500000 0.866586
O O10 0.123926 0.719800 0.836130
O O11 0.042681 0.725422 0.781149
O O12 0.335641 0.500000 0.443948
O O13 0.250000 0.250000 0.500000
O O14 0.385662 0.269340 0.357156
O O15 0.291549 0.719682 0.776687
O O16 0.442275 0.798068 0.743986
O O17 0.337150 0.000000 0.753542
O O18 0.310245 0.000000 0.137602
O O19 0.433013 0.000000 0.304767
#
# Coordination Sequence:
#
# PCOD8086639 Si02
#       7
#     8   8   8   8   8   8   8
#     4   9  17  30  49  73 101 131 165 206 251 299
#     4   9  19  37  58  79 105 137 172 213 263 313
#     4   9  18  33  53  76 101 130 166 210 256 299
#     4  11  22  36  55  78 106 139 176 216 258 307
#     4   9  18  33  52  73 101 134 165 202 249 302
#     4  10  19  31  50  75 102 131 166 208 252 300
#     4   9  19  37  56  74 101 136 171 209 257 306
#
# _framework density 18.007121000000001
#
# number of rings (size 3 to 8) (size 9 to 14) (size 15 to 20)
#    0.000    2.571    0.000    3.000    0.000    6.571 
#    0.000    3.571    0.000    0.000    0.000    0.000 
#    0.000    0.000    0.000    0.000    0.000    0.000 
#
# Total GULP energy -347255.938011 kJ/mol
# GULP energy per Si atom -12401.997786 kJ/mol
# Density = 1.796614 g / cm^3
# Si number density = 18.007121 Si / 1000 Ang^3
#
#
#
# Elastic Constant Matrix: (Units=GPa)
#
#
# Indices 1 2 3 4 5 6 
#
# 1 72.3221 44.9214 78.0952 0.0000 8.5115 0.0001
# 2 44.9214 96.4717 69.8257 0.0001 3.2225 0.0003
# 3 78.0952 69.8257 146.8779 0.0000 12.4411 0.0000
# 4 0.0000 0.0001 0.0000 36.3444 0.0000 -5.2909
# 5 8.5115 3.2225 12.4411 0.0000 30.9687 0.0000
# 6 0.0001 0.0003 0.0000 -5.2909 0.0000 25.4425
#
#
#
# Elastic Compliance Matrix: (Units=1/GPa)
#
#
# Indices 1 2 3 4 5 6 
#
# 1 0.033702 -0.004259 -0.015681 0.000000 -0.002520 0.000000
# 2 -0.004259 0.016403 -0.005681 0.000000 0.001746 0.000000
# 3 -0.015681 -0.005681 0.018046 0.000000 -0.002349 0.000000
# 4 0.000000 0.000000 0.000000 0.028373 0.000000 0.005900
# 5 -0.002520 0.001746 -0.002349 0.000000 0.033745 0.000000
# 6 0.000000 0.000000 0.000000 0.005900 0.000000 0.040531
#
#
# Mechanical properties :
#
#
# Convention : Reuss Voigt Hill
#
# Bulk Modulus (GPa) = 59.14469 77.92847 68.53658
# Shear Modulus (GPa) = 21.96077 26.73976 24.35027
#
# Velocity S-wave (km/s) = 3.49601 3.85769 3.68129
# Velocity P-wave (km/s) = 7.01517 7.95065 7.49751
#
# Compressibility (1/GPa) = 0.01690769
#
# Stress axis : x y z
#
# Youngs Moduli (GPa) = 29.67191 60.96608 55.41434
#
# Poissons Ratio (x) = 0.25965 0.86896
# Poissons Ratio (y) = 0.12637 0.31482
# Poissons Ratio (z) = 0.46529 0.34636
#
# Static dielectric constant tensor:
#      x y z
#    x 3.185860 0.000000 0.114410 
#    y 0.000000 3.310690 0.000000 
#    z 0.114410 0.000000 3.449510 
# 
# 
# High freq. dielectric constant tensor:
#      x y z
#    x 1.676620 0.000000 0.002410 
#    y 0.000000 1.698410 0.000000 
#    z 0.002410 0.000000 1.706880 
# 
# From -- ./inp_files/345489.got.cif
#   From: 2010.06.25/outbox.cif.g09.slc.cpg/sg12_173_cif.got.tgz:345489.got - 2010.06.28 00:19:55.
