data_PCOD8086521
_publ_section_title
;
Structure prediction by ZEFSAII (Michael W. Deem and Ramdas Pophale) SiO2 
 PCOD8086521
Probable space group: C 2/M
;
_chemical_formula_sum "Si O2"
_cell_formula_units_Z 64
_cell_length_a 30.288929
_cell_length_b 8.796597
_cell_length_c 16.096296
_cell_angle_alpha 90.000000
_cell_angle_beta 132.886028
_cell_angle_gamma 90.000000
_cell_volume 3142.360562
_symmetry_space_group_name_H-M "C 2/M"
_symmetry_group_IT_number 12
_symmetry_cell_setting 'monoclinic'
loop_
_space_group_symop_operation_xyz
x,y,z
-x,y,-z
-x,-y,-z
x,-y,z
1/2+x,1/2+y,z
1/2-x,1/2+y,-z
1/2-x,1/2-y,-z
1/2+x,1/2-y,z
loop_
_atom_site_type_symbol
_atom_site_label
_atom_site_fract_x
_atom_site_fract_y
_atom_site_fract_z
Si Si1 0.695178 0.679273 0.207661
Si Si2 0.690183 0.166709 0.942358
Si Si3 0.681438 0.673257 0.664403
Si Si4 0.192138 0.679860 0.382884
Si Si5 0.895982 0.824774 0.049277
Si Si6 0.887508 0.174484 0.588874
Si Si7 0.600032 0.165468 0.685667
Si Si8 0.012933 0.680468 0.718149
O O1 0.701242 0.500000 0.231045
O O2 0.756684 0.733764 0.239789
O O3 0.687220 0.769089 0.282197
O O4 0.633886 0.717142 0.077863
O O5 0.655763 0.289167 0.952307
O O6 0.658484 0.138465 0.815124
O O7 0.698094 0.000000 0.996134
O O8 0.750000 0.250000 0.000000
O O9 0.693645 0.500000 0.705649
O O10 0.665561 0.687525 0.546826
O O11 0.621930 0.728662 0.638283
O O12 0.196688 0.500000 0.393380
O O13 0.250000 0.750000 0.500000
O O14 0.132611 0.736850 0.354406
O O15 0.954752 0.730107 0.153647
O O16 0.914437 0.000000 0.075967
O O17 0.947147 0.250369 0.628752
O O18 0.900715 0.000000 0.628503
O O19 0.547813 0.236605 0.678716
O O20 0.578936 0.000000 0.623353
O O21 0.011529 0.500000 0.716717
#
# Coordination Sequence:
#
# PCOD8086521 Si02
#       8
#     8   8   8   8   8   8   8   8
#     4  11  23  39  62  91 125 159 195 246 305 361
#     4  10  19  31  49  76 111 154 200 247 297 351
#     4  11  23  36  57  89 122 158 202 251 303 356
#     4  12  24  41  66  94 123 156 195 242 300 360
#     4  10  21  37  58  85 117 157 198 244 300 355
#     4  11  24  42  63  89 121 158 200 250 303 358
#     4   9  20  36  53  78 116 158 201 247 297 351
#     4  10  22  41  63  87 118 162 208 250 298 354
#
# _framework density 20.366855000000001
#
# number of rings (size 3 to 8) (size 9 to 14) (size 15 to 20)
#    0.000    1.500    1.250    4.875    0.000   10.000 
#    0.000    3.125    0.000    3.750    0.000    0.000 
#    0.000    0.000    0.000    0.000    0.000    0.000 
#
# Total GULP energy -396636.224426 kJ/mol
# GULP energy per Si atom -12394.882013 kJ/mol
# Density = 2.032050 g / cm^3
# Si number density = 20.366855 Si / 1000 Ang^3
#
#
#
# Elastic Constant Matrix: (Units=GPa)
#
#
# Indices 1 2 3 4 5 6 
#
# 1 90.7603 35.8731 11.3223 0.0000 -3.7732 0.0000
# 2 35.8731 115.1802 31.0049 0.0000 -4.2787 0.0000
# 3 11.3223 31.0049 46.6461 0.0000 -9.2771 0.0000
# 4 0.0000 0.0000 0.0000 30.7708 0.0000 -0.4961
# 5 -3.7732 -4.2787 -9.2771 0.0000 29.8440 0.0000
# 6 0.0000 0.0000 0.0000 -0.4961 0.0000 35.7760
#
#
#
# Elastic Compliance Matrix: (Units=1/GPa)
#
#
# Indices 1 2 3 4 5 6 
#
# 1 0.012601 -0.003796 -0.000348 0.000000 0.000941 0.000000
# 2 -0.003796 0.011732 -0.007075 0.000000 -0.000997 0.000000
# 3 -0.000348 -0.007075 0.027729 0.000000 0.007561 0.000000
# 4 0.000000 0.000000 0.000000 0.032506 0.000000 0.000451
# 5 0.000941 -0.000997 0.007561 0.000000 0.035834 0.000000
# 6 0.000000 0.000000 0.000000 0.000451 0.000000 0.027958
#
#
# Mechanical properties :
#
#
# Convention : Reuss Voigt Hill
#
# Bulk Modulus (GPa) = 33.75729 45.44301 39.60015
# Shear Modulus (GPa) = 27.67450 30.90392 29.28921
#
# Velocity S-wave (km/s) = 3.69019 3.89956 3.79632
# Velocity P-wave (km/s) = 5.89638 6.52963 6.22107
#
# Compressibility (1/GPa) = 0.02962323
#
# Stress axis : x y z
#
# Youngs Moduli (GPa) = 79.35927 85.23940 36.06343
#
# Poissons Ratio (x) = 0.32355 0.01257
# Poissons Ratio (y) = 0.30123 0.25514
# Poissons Ratio (z) = 0.02766 0.60305
#
# Static dielectric constant tensor:
#      x y z
#    x 3.106970 0.000000 -0.507000 
#    y 0.000000 3.751190 0.000000 
#    z -0.507000 0.000000 3.377280 
# 
# 
# High freq. dielectric constant tensor:
#      x y z
#    x 1.787200 0.000000 0.001630 
#    y 0.000000 1.806920 0.000000 
#    z 0.001630 0.000000 1.792730 
# 
# From -- ./inp_files/249914.got.cif
#   From: 2010.06.25/outbox.cif.g09.slc.cpg/sg12_125_cif.got.tgz:249914.got - 2010.06.28 00:19:55.
