data_PCOD8086603
_publ_section_title
;
Structure prediction by ZEFSAII (Michael W. Deem and Ramdas Pophale) SiO2 
 PCOD8086603
Probable space group: C 2/M
;
_chemical_formula_sum "Si O2"
_cell_formula_units_Z 48
_cell_length_a 23.521745
_cell_length_b 8.808001
_cell_length_c 14.769325
_cell_angle_alpha 90.000000
_cell_angle_beta 119.079072
_cell_angle_gamma 90.000000
_cell_volume 2674.200894
_symmetry_space_group_name_H-M "C 2/M"
_symmetry_group_IT_number 12
_symmetry_cell_setting 'monoclinic'
loop_
_space_group_symop_operation_xyz
x,y,z
-x,y,-z
-x,-y,-z
x,-y,z
1/2+x,1/2+y,z
1/2-x,1/2+y,-z
1/2-x,1/2-y,-z
1/2+x,1/2-y,z
loop_
_atom_site_type_symbol
_atom_site_label
_atom_site_fract_x
_atom_site_fract_y
_atom_site_fract_z
Si Si1 0.439352 0.178547 0.640936
Si Si2 0.429920 0.676775 0.250065
Si Si3 0.692521 0.325089 0.398228
Si Si4 0.902266 0.174320 0.434920
Si Si5 0.774497 0.672265 0.295997
Si Si6 0.295632 0.177265 0.109426
O O1 0.503995 0.248790 0.737582
O O2 0.375625 0.242752 0.640287
O O3 0.440416 0.222790 0.535971
O O4 0.440702 0.000000 0.653998
O O5 0.428523 0.500000 0.225490
O O6 0.429316 0.708250 0.356752
O O7 0.367517 0.753302 0.155826
O O8 0.686129 0.500000 0.423082
O O9 0.750000 0.250000 0.500000
O O10 0.708658 0.311424 0.303295
O O11 0.826170 0.213927 0.380690
O O12 0.912687 0.000000 0.470781
O O13 0.801928 0.500000 0.324342
O O14 0.763415 0.714038 0.182333
O O15 0.300877 0.000000 0.095322
O O16 0.250000 0.250000 0.000000
#
# Coordination Sequence:
#
# PCOD8086603 Si02
#       6
#     8   8   8   8   8   8
#     4  12  23  33  48  73 108 149 182 216 262 316
#     4  10  21  36  53  77 105 137 178 224 271 319
#     4  11  21  34  52  76 107 147 186 222 258 307
#     4  10  19  31  50  74 104 140 179 221 263 311
#     4   9  19  34  53  77 107 140 179 219 263 314
#     4  10  20  37  60  85 108 135 171 219 273 326
#
# _framework density 17.949287999999999
#
# number of rings (size 3 to 8) (size 9 to 14) (size 15 to 20)
#    0.000    1.667    1.667    4.000    0.000    5.333 
#    0.000    0.000    0.000    1.000    0.000    7.000 
#    0.000    0.000    0.000    0.000    0.000    0.000 
#
# Total GULP energy -297607.623957 kJ/mol
# GULP energy per Si atom -12400.317665 kJ/mol
# Density = 1.790843 g / cm^3
# Si number density = 17.949288 Si / 1000 Ang^3
#
#
#
# Elastic Constant Matrix: (Units=GPa)
#
#
# Indices 1 2 3 4 5 6 
#
# 1 102.6381 49.3981 61.7455 0.0000 32.1306 0.0000
# 2 49.3981 124.5170 59.7387 0.0000 22.3073 0.0000
# 3 61.7455 59.7387 108.3376 0.0000 18.0007 0.0000
# 4 0.0000 0.0000 0.0000 31.0380 0.0000 4.8322
# 5 32.1306 22.3073 18.0007 0.0000 20.9910 0.0000
# 6 0.0000 0.0000 0.0000 4.8322 0.0000 28.3136
#
#
#
# Elastic Compliance Matrix: (Units=1/GPa)
#
#
# Indices 1 2 3 4 5 6 
#
# 1 0.024467 -0.000090 -0.008966 0.000000 -0.029667 0.000000
# 2 -0.000090 0.012040 -0.005230 0.000000 -0.008172 0.000000
# 3 -0.008966 -0.005230 0.016350 0.000000 0.005260 0.000000
# 4 0.000000 0.000000 0.000000 0.033098 0.000000 -0.005649
# 5 -0.029667 -0.008172 0.005260 0.000000 0.097224 0.000000
# 6 0.000000 0.000000 0.000000 -0.005649 0.000000 0.036283
#
#
# Mechanical properties :
#
#
# Convention : Reuss Voigt Hill
#
# Bulk Modulus (GPa) = 41.17633 75.25081 58.21357
# Shear Modulus (GPa) = 19.52147 27.04255 23.28201
#
# Velocity S-wave (km/s) = 3.30144 3.88572 3.60543
# Velocity P-wave (km/s) = 6.12559 7.88333 7.05938
#
# Compressibility (1/GPa) = 0.02428580
#
# Stress axis : x y z
#
# Youngs Moduli (GPa) = 40.87095 83.05735 61.16237
#
# Poissons Ratio (x) = 0.00750 0.54836
# Poissons Ratio (y) = 0.00369 0.31986
# Poissons Ratio (z) = 0.36644 0.43436
#
# Static dielectric constant tensor:
#      x y z
#    x 3.484760 0.000000 0.065250 
#    y 0.000000 3.460240 0.000000 
#    z 0.065250 0.000000 3.100890 
# 
# 
# High freq. dielectric constant tensor:
#      x y z
#    x 1.696800 0.000000 0.012100 
#    y 0.000000 1.711470 0.000000 
#    z 0.012100 0.000000 1.660750 
# 
# From -- ./inp_files/280755.got.cif
#   From: 2010.06.25/outbox.cif.g09.slc.cpg/sg12_141_cif.got.tgz:280755.got - 2010.06.28 00:19:55.
