data_PCOD8086744
_publ_section_title
;
Structure prediction by ZEFSAII (Michael W. Deem and Ramdas Pophale) SiO2 
 PCOD8086744
Probable space group: C 2/M
;
_chemical_formula_sum "Si O2"
_cell_formula_units_Z 56
_cell_length_a 27.944007
_cell_length_b 9.079583
_cell_length_c 12.229389
_cell_angle_alpha 90.000000
_cell_angle_beta 58.092507
_cell_angle_gamma 90.000000
_cell_volume 2634.008631
_symmetry_space_group_name_H-M "C 2/M"
_symmetry_group_IT_number 12
_symmetry_cell_setting 'monoclinic'
loop_
_space_group_symop_operation_xyz
x,y,z
-x,y,-z
-x,-y,-z
x,-y,z
1/2+x,1/2+y,z
1/2-x,1/2+y,-z
1/2-x,1/2-y,-z
1/2+x,1/2-y,z
loop_
_atom_site_type_symbol
_atom_site_label
_atom_site_fract_x
_atom_site_fract_y
_atom_site_fract_z
Si Si1 0.873585 0.331089 0.593767
Si Si2 0.954232 0.326879 0.301026
Si Si3 0.758787 0.162254 0.784397
Si Si4 0.347200 0.674068 0.019440
Si Si5 0.575644 0.168443 0.239030
Si Si6 0.101658 0.826366 0.812676
Si Si7 0.295212 0.838599 0.381194
O O1 0.854508 0.500000 0.605020
O O2 0.904881 0.277328 0.445452
O O3 0.817961 0.238241 0.687261
O O4 0.917903 0.313197 0.638944
O O5 0.951312 0.500000 0.283746
O O6 0.952096 0.246452 0.183805
O O7 0.013299 0.279644 0.282808
O O8 0.716284 0.259869 0.909190
O O9 0.724456 0.137879 0.716621
O O10 0.769396 0.000000 0.824929
O O11 0.340180 0.500000 0.028086
O O12 0.385749 0.722826 0.077739
O O13 0.378450 0.728414 0.874008
O O14 0.586442 0.000000 0.189405
O O15 0.150442 0.763277 0.676418
O O16 0.096751 0.000000 0.809318
O O17 0.250000 0.750000 0.500000
O O18 0.307235 0.000000 0.419803
#
# Coordination Sequence:
#
# PCOD8086744 Si02
#       7
#     8   8   8   8   8   8   8
#     4  10  21  38  60  86 116 150 189 234 285 339
#     4  10  21  38  61  87 115 150 191 234 284 340
#     4  10  21  36  56  83 114 148 188 234 282 337
#     4  10  22  40  60  84 115 152 192 233 283 340
#     4  10  22  40  61  84 113 151 194 239 282 332
#     4  10  21  36  55  81 114 149 187 233 283 336
#     4  10  19  31  50  78 112 148 186 229 280 338
#
# _framework density 21.260370999999999
#
# number of rings (size 3 to 8) (size 9 to 14) (size 15 to 20)
#    0.000    2.000    0.000    3.000    0.000   10.286 
#    0.000    2.857    0.000    2.571    0.000    0.000 
#    0.000    0.000    0.000    0.000    0.000    0.000 
#
# Total GULP energy -347030.236264 kJ/mol
# GULP energy per Si atom -12393.937009 kJ/mol
# Density = 2.121198 g / cm^3
# Si number density = 21.260371 Si / 1000 Ang^3
#
#
#
# Elastic Constant Matrix: (Units=GPa)
#
#
# Indices 1 2 3 4 5 6 
#
# 1 65.3924 13.8046 -6.7403 0.0000 -7.9077 0.0000
# 2 13.8046 64.2820 15.6339 0.0000 -6.9271 0.0000
# 3 -6.7403 15.6339 57.9488 0.0000 -7.7411 0.0000
# 4 0.0000 0.0000 0.0000 29.1247 0.0000 -0.4794
# 5 -7.9077 -6.9271 -7.7411 0.0000 31.1452 0.0000
# 6 0.0000 0.0000 0.0000 -0.4794 0.0000 28.4153
#
#
#
# Elastic Compliance Matrix: (Units=1/GPa)
#
#
# Indices 1 2 3 4 5 6 
#
# 1 0.017057 -0.004088 0.003666 0.000000 0.004333 0.000000
# 2 -0.004088 0.017847 -0.005067 0.000000 0.001672 0.000000
# 3 0.003666 -0.005067 0.019677 0.000000 0.004694 0.000000
# 4 0.000000 0.000000 0.000000 0.034345 0.000000 0.000579
# 5 0.004333 0.001672 0.004694 0.000000 0.034746 0.000000
# 6 0.000000 0.000000 0.000000 0.000579 0.000000 0.035202
#
#
# Mechanical properties :
#
#
# Convention : Reuss Voigt Hill
#
# Bulk Modulus (GPa) = 22.93429 25.89106 24.41267
# Shear Modulus (GPa) = 27.11699 28.73203 27.92451
#
# Velocity S-wave (km/s) = 3.57525 3.68018 3.62809
# Velocity P-wave (km/s) = 5.27769 5.50116 5.39058
#
# Compressibility (1/GPa) = 0.04360284
#
# Stress axis : x y z
#
# Youngs Moduli (GPa) = 58.62718 56.03251 50.82058
#
# Poissons Ratio (x) = 0.22904 -0.18628
# Poissons Ratio (y) = 0.23964 0.25750
# Poissons Ratio (z) = -0.21490 0.28391
#
# Static dielectric constant tensor:
#      x y z
#    x 4.001680 0.000000 0.056440 
#    y 0.000000 3.903650 0.000000 
#    z 0.056440 0.000000 3.589000 
# 
# 
# High freq. dielectric constant tensor:
#      x y z
#    x 1.844790 0.000000 0.005950 
#    y 0.000000 1.830440 0.000000 
#    z 0.005950 0.000000 1.823860 
# 
# From -- ./inp_files/187190.got.cif
#   From: 2010.06.25/outbox.cif.g09.slc.cpg/sg12_94_cif.got.tgz:187190.got - 2010.06.28 00:19:55.
