data_PCOD8086828
_publ_section_title
;
Structure prediction by ZEFSAII (Michael W. Deem and Ramdas Pophale) SiO2 
 PCOD8086828
Probable space group: C 2/M
;
_chemical_formula_sum "Si O2"
_cell_formula_units_Z 48
_cell_length_a 22.391707
_cell_length_b 25.313317
_cell_length_c 7.238314
_cell_angle_alpha 90.000000
_cell_angle_beta 39.700442
_cell_angle_gamma 90.000000
_cell_volume 2620.720720
_symmetry_space_group_name_H-M "C 2/M"
_symmetry_group_IT_number 12
_symmetry_cell_setting 'monoclinic'
loop_
_space_group_symop_operation_xyz
x,y,z
-x,y,-z
-x,-y,-z
x,-y,z
1/2+x,1/2+y,z
1/2-x,1/2+y,-z
1/2-x,1/2-y,-z
1/2+x,1/2-y,z
loop_
_atom_site_type_symbol
_atom_site_label
_atom_site_fract_x
_atom_site_fract_y
_atom_site_fract_z
Si Si1 0.096679 0.322325 0.221696
Si Si2 0.106571 0.060395 0.190250
Si Si3 0.899837 0.868979 0.145499
Si Si4 0.795851 0.871875 0.747739
Si Si5 0.158600 0.241397 0.333730
Si Si6 0.098960 0.251544 0.860093
O O1 0.081544 0.276497 0.414194
O O2 0.000000 0.354269 0.500000
O O3 0.185721 0.359859 0.043242
O O4 0.113670 0.295297 0.981994
O O5 0.174652 0.080839 0.189698
O O6 0.000000 0.066538 0.500000
O O7 0.133567 0.000000 0.087858
O O8 0.123095 0.093376 0.968264
O O9 0.817160 0.885231 0.484372
O O10 0.893968 0.808650 0.084094
O O11 0.000000 0.881021 0.000000
O O12 0.863592 0.820967 0.624221
O O13 0.173366 0.259019 0.513565
O O14 0.250000 0.250000 0.000000
O O15 0.000000 0.260401 0.000000
#
# Coordination Sequence:
#
# PCOD8086828 Si02
#       6
#     8   8   8   8   8   8
#     4  11  21  34  54  80 115 153 188 223 258 312
#     4  11  23  38  59  81 105 136 176 231 285 334
#     4  10  20  35  56  80 112 146 178 219 270 327
#     4  10  22  36  54  82 110 145 184 221 274 323
#     4   9  19  32  50  77 109 148 186 218 257 309
#     4  10  19  31  51  77 112 152 186 215 257 310
#
# _framework density 18.315572
#
# number of rings (size 3 to 8) (size 9 to 14) (size 15 to 20)
#    0.000    1.833    3.333    1.000    0.000   11.000 
#    0.000    0.000    0.000    0.500    0.000    1.167 
#    0.000    0.000    0.000    0.000    0.000    0.000 
#
# Total GULP energy -297371.066933 kJ/mol
# GULP energy per Si atom -12390.461122 kJ/mol
# Density = 1.827388 g / cm^3
# Si number density = 18.315572 Si / 1000 Ang^3
#
#
#
# Elastic Constant Matrix: (Units=GPa)
#
#
# Indices 1 2 3 4 5 6 
#
# 1 69.6291 40.9403 31.7505 0.0000 0.4670 0.0000
# 2 40.9403 66.8936 34.2819 0.0000 6.6201 0.0000
# 3 31.7505 34.2819 111.0972 0.0000 2.1886 0.0000
# 4 0.0000 0.0000 0.0000 2.8092 0.0000 1.5308
# 5 0.4670 6.6201 2.1886 0.0000 36.1864 0.0000
# 6 0.0000 0.0000 0.0000 1.5308 0.0000 60.3165
#
#
#
# Elastic Compliance Matrix: (Units=1/GPa)
#
#
# Indices 1 2 3 4 5 6 
#
# 1 0.023257 -0.013099 -0.002649 0.000000 0.002257 0.000000
# 2 -0.013099 0.025449 -0.004026 0.000000 -0.004243 0.000000
# 3 -0.002649 -0.004026 0.010998 0.000000 0.000105 0.000000
# 4 0.000000 0.000000 0.000000 0.360964 0.000000 -0.009161
# 5 0.002257 -0.004243 0.000105 0.000000 0.028375 0.000000
# 6 0.000000 0.000000 0.000000 -0.009161 0.000000 0.016812
#
#
# Mechanical properties :
#
#
# Convention : Reuss Voigt Hill
#
# Bulk Modulus (GPa) = 49.61229 51.28503 50.44866
# Shear Modulus (GPa) = 9.76330 29.23891 19.50110
#
# Velocity S-wave (km/s) = 2.31131 3.99983 3.26656
# Velocity P-wave (km/s) = 5.85399 7.02802 6.46770
#
# Compressibility (1/GPa) = 0.02015630
#
# Stress axis : x y z
#
# Youngs Moduli (GPa) = 42.99844 39.29386 90.92308
#
# Poissons Ratio (x) = 0.51473 0.24084
# Poissons Ratio (y) = 0.56325 0.36603
# Poissons Ratio (z) = 0.11390 0.15819
#
# Static dielectric constant tensor:
#      x y z
#    x 4.731080 0.000000 0.591200 
#    y 0.000000 3.329170 0.000000 
#    z 0.591200 0.000000 3.921220 
# 
# 
# High freq. dielectric constant tensor:
#      x y z
#    x 1.703500 0.000000 0.009070 
#    y 0.000000 1.661480 0.000000 
#    z 0.009070 0.000000 1.734610 
# 
# From -- ./inp_files/21778.got.cif
#   From: 2010.06.25/outbox.cif.g09.slc.cpg/sg12_11_cif.got.tgz:21778.got - 2010.06.28 00:19:55.
