data_PCOD8086359
_publ_section_title
;
Structure prediction by ZEFSAII (Michael W. Deem and Ramdas Pophale) SiO2 
 PCOD8086359
Probable space group: C 2/M
;
_chemical_formula_sum "Si O2"
_cell_formula_units_Z 64
_cell_length_a 30.969872
_cell_length_b 9.242811
_cell_length_c 14.171581
_cell_angle_alpha 90.000000
_cell_angle_beta 63.157827
_cell_angle_gamma 90.000000
_cell_volume 3619.513045
_symmetry_space_group_name_H-M "C 2/M"
_symmetry_group_IT_number 12
_symmetry_cell_setting 'monoclinic'
loop_
_space_group_symop_operation_xyz
x,y,z
-x,y,-z
-x,-y,-z
x,-y,z
1/2+x,1/2+y,z
1/2-x,1/2+y,-z
1/2-x,1/2-y,-z
1/2+x,1/2-y,z
loop_
_atom_site_type_symbol
_atom_site_label
_atom_site_fract_x
_atom_site_fract_y
_atom_site_fract_z
Si Si1 0.270627 0.834770 0.391898
Si Si2 0.557095 0.166011 0.837699
Si Si3 0.830705 0.162855 0.579529
Si Si4 0.445326 0.834343 0.943052
Si Si5 0.767048 0.837147 0.070494
Si Si6 0.331541 0.831950 0.757103
Si Si7 0.859876 0.170649 0.339532
Si Si8 0.133301 0.169738 0.090795
O O1 0.250000 0.750000 0.500000
O O2 0.228054 0.830850 0.356544
O O3 0.319851 0.751743 0.312906
O O4 0.283270 0.000000 0.406498
O O5 0.501519 0.188305 0.864189
O O6 0.587623 0.273298 0.741951
O O7 0.572626 0.000000 0.805049
O O8 0.565270 0.208240 0.938518
O O9 0.852410 0.266473 0.639122
O O10 0.850889 0.212203 0.457757
O O11 0.848250 0.000000 0.582877
O O12 0.415997 0.731477 0.902322
O O13 0.430144 0.000000 0.940200
O O14 0.727485 0.811320 0.191763
O O15 0.764049 0.000000 0.038603
O O16 0.750000 0.750000 0.000000
O O17 0.824050 0.800355 0.030386
O O18 0.354296 0.748307 0.823154
O O19 0.346085 0.000000 0.749955
O O20 0.855229 0.000000 0.327329
O O21 0.126528 0.000000 0.117595
#
# Coordination Sequence:
#
# PCOD8086359 Si02
#       8
#     8   8   8   8   8   8   8   8
#     4   9  17  30  47  68  97 132 169 207 247 290
#     4   9  19  36  56  76 100 129 161 203 254 305
#     4   9  19  33  47  69 102 137 170 206 247 290
#     4   9  19  36  55  76 101 128 161 202 252 308
#     4   8  16  29  43  64  93 124 160 198 235 276
#     4  10  19  31  49  72 100 136 174 209 243 287
#     4  10  20  33  51  75 103 134 170 211 252 300
#     4  10  19  32  51  74 102 134 166 204 250 298
#
# _framework density 17.681937000000001
#
# number of rings (size 3 to 8) (size 9 to 14) (size 15 to 20)
#    0.000    2.750    0.000    3.000    0.000    6.000 
#    0.000    3.750    0.000    0.750    0.000    5.250 
#    0.000    0.000    0.000    0.000    0.000    0.000 
#
# Total GULP energy -396453.228844 kJ/mol
# GULP energy per Si atom -12389.163401 kJ/mol
# Density = 1.764169 g / cm^3
# Si number density = 17.681937 Si / 1000 Ang^3
#
#
#
# Elastic Constant Matrix: (Units=GPa)
#
#
# Indices 1 2 3 4 5 6 
#
# 1 82.0650 51.9429 40.0250 0.0000 -1.4551 0.0000
# 2 51.9429 110.0594 50.4104 0.0000 1.5148 0.0000
# 3 40.0250 50.4104 79.7678 0.0000 -4.5918 0.0000
# 4 0.0000 0.0000 0.0000 28.5929 0.0000 -0.4309
# 5 -1.4551 1.5148 -4.5918 0.0000 19.7512 0.0000
# 6 0.0000 0.0000 0.0000 -0.4309 0.0000 32.5349
#
#
#
# Elastic Compliance Matrix: (Units=1/GPa)
#
#
# Indices 1 2 3 4 5 6 
#
# 1 0.018911 -0.006481 -0.005356 0.000000 0.000645 0.000000
# 2 -0.006481 0.015174 -0.006519 0.000000 -0.003157 0.000000
# 3 -0.005356 -0.006519 0.019613 0.000000 0.004665 0.000000
# 4 0.000000 0.000000 0.000000 0.034981 0.000000 0.000463
# 5 0.000645 -0.003157 0.004665 0.000000 0.052004 0.000000
# 6 0.000000 0.000000 0.000000 0.000463 0.000000 0.030742
#
#
# Mechanical properties :
#
#
# Convention : Reuss Voigt Hill
#
# Bulk Modulus (GPa) = 58.87545 61.84987 60.36266
# Shear Modulus (GPa) = 23.38638 24.81007 24.09822
#
# Velocity S-wave (km/s) = 3.64072 3.74990 3.69572
# Velocity P-wave (km/s) = 7.14439 7.33513 7.24039
#
# Compressibility (1/GPa) = 0.01698501
#
# Stress axis : x y z
#
# Youngs Moduli (GPa) = 52.87844 65.90159 50.98767
#
# Poissons Ratio (x) = 0.42709 0.27311
# Poissons Ratio (y) = 0.34269 0.33241
# Poissons Ratio (z) = 0.28324 0.42964
#
# Static dielectric constant tensor:
#      x y z
#    x 3.540820 0.000000 -0.657460 
#    y 0.000000 3.320830 0.000000 
#    z -0.657460 0.000000 3.808240 
# 
# 
# High freq. dielectric constant tensor:
#      x y z
#    x 1.663300 0.000000 -0.005810 
#    y 0.000000 1.696380 0.000000 
#    z -0.005810 0.000000 1.664430 
# 
# From -- ./inp_files/249070.got.cif
#   From: 2010.06.25/outbox.cif.g09.slc.cpg/sg12_125_cif.got.tgz:249070.got - 2010.06.28 00:19:55.
