data_PCOD8086103
_publ_section_title
;
Structure prediction by ZEFSAII (Michael W. Deem and Ramdas Pophale) SiO2 
 PCOD8086103
Probable space group: C 2/M
;
_chemical_formula_sum "Si O2"
_cell_formula_units_Z 56
_cell_length_a 29.745713
_cell_length_b 9.462721
_cell_length_c 15.701293
_cell_angle_alpha 90.000000
_cell_angle_beta 134.664298
_cell_angle_gamma 90.000000
_cell_volume 3143.334253
_symmetry_space_group_name_H-M "C 2/M"
_symmetry_group_IT_number 12
_symmetry_cell_setting 'monoclinic'
loop_
_space_group_symop_operation_xyz
x,y,z
-x,y,-z
-x,-y,-z
x,-y,z
1/2+x,1/2+y,z
1/2-x,1/2+y,-z
1/2-x,1/2-y,-z
1/2+x,1/2-y,z
loop_
_atom_site_type_symbol
_atom_site_label
_atom_site_fract_x
_atom_site_fract_y
_atom_site_fract_z
Si Si1 0.665085 0.667135 0.293533
Si Si2 0.532712 0.332576 0.807423
Si Si3 0.155112 0.164731 0.876399
Si Si4 0.889689 0.831853 0.600034
Si Si5 0.790715 0.664977 0.372713
Si Si6 0.768390 0.662857 0.149227
Si Si7 0.560673 0.331745 0.029551
O O1 0.657499 0.500000 0.283360
O O2 0.641185 0.723828 0.352803
O O3 0.737027 0.711101 0.369382
O O4 0.621717 0.729433 0.159848
O O5 0.531088 0.500000 0.814295
O O6 0.583776 0.286694 0.804386
O O7 0.462361 0.280018 0.690693
O O8 0.555749 0.268037 0.928134
O O9 0.175920 0.248174 0.820321
O O10 0.157597 0.000000 0.857752
O O11 0.200805 0.200067 0.017226
O O12 0.852920 0.756749 0.473994
O O13 0.883825 0.000000 0.582622
O O14 0.807169 0.500000 0.403445
O O15 0.765313 0.700181 0.244645
O O16 0.785242 0.500000 0.157171
O O17 0.563911 0.500000 0.029578
O O18 0.500000 0.280121 0.000000
#
# Coordination Sequence:
#
# PCOD8086103 Si02
#       7
#     8   8   8   8   8   8   8
#     4   9  16  27  45  70  97 125 157 194 235 277
#     4   9  16  27  45  72 101 124 150 191 242 284
#     4   9  17  31  53  76  96 118 148 194 247 287
#     4  10  19  31  47  70  99 127 158 194 229 275
#     4  10  20  33  48  67  95 130 163 193 228 273
#     4   9  18  33  51  72  96 121 155 196 235 280
#     4   9  13  21  41  70  99 121 145 186 237 280
#
# _framework density 17.815479
#
# number of rings (size 3 to 8) (size 9 to 14) (size 15 to 20)
#    0.000    2.714    1.429    1.286    0.000    4.000 
#    0.000    1.429    0.000    4.286    0.000    4.000 
#    0.000    0.000    0.000    0.000    0.000    0.000 
#
# Total GULP energy -347102.929509 kJ/mol
# GULP energy per Si atom -12396.533197 kJ/mol
# Density = 1.777493 g / cm^3
# Si number density = 17.815479 Si / 1000 Ang^3
#
#
#
# Elastic Constant Matrix: (Units=GPa)
#
#
# Indices 1 2 3 4 5 6 
#
# 1 120.3011 31.9318 39.5394 0.0000 13.0475 0.0000
# 2 31.9318 26.1235 26.4841 0.0000 2.5069 0.0000
# 3 39.5394 26.4841 86.9226 0.0000 14.0593 0.0000
# 4 0.0000 0.0000 0.0000 22.0232 0.0000 -0.2864
# 5 13.0475 2.5069 14.0593 0.0000 24.6581 0.0000
# 6 0.0000 0.0000 0.0000 -0.2864 0.0000 19.9198
#
#
#
# Elastic Compliance Matrix: (Units=1/GPa)
#
#
# Indices 1 2 3 4 5 6 
#
# 1 0.012974 -0.014784 -0.000584 0.000000 -0.005029 0.000000
# 2 -0.014784 0.072672 -0.017061 0.000000 0.010162 0.000000
# 3 -0.000584 -0.017061 0.018328 0.000000 -0.008407 0.000000
# 4 0.000000 0.000000 0.000000 0.045415 0.000000 0.000653
# 5 -0.005029 0.010162 -0.008407 0.000000 0.046976 0.000000
# 6 0.000000 0.000000 0.000000 0.000653 0.000000 0.050211
#
#
# Mechanical properties :
#
#
# Convention : Reuss Voigt Hill
#
# Bulk Modulus (GPa) = 25.56450 47.69529 36.62990
# Shear Modulus (GPa) = 15.40966 22.34636 18.87801
#
# Velocity S-wave (km/s) = 2.94421 3.54548 3.25874
# Velocity P-wave (km/s) = 5.09299 6.60231 5.89615
#
# Compressibility (1/GPa) = 0.03911674
#
# Stress axis : x y z
#
# Youngs Moduli (GPa) = 77.07750 13.76042 54.56180
#
# Poissons Ratio (x) = 0.20344 0.03184
# Poissons Ratio (y) = 1.13954 0.93086
# Poissons Ratio (z) = 0.04498 0.23476
#
# Static dielectric constant tensor:
#      x y z
#    x 3.428330 0.000000 0.083110 
#    y 0.000000 2.798120 0.000000 
#    z 0.083110 0.000000 3.342360 
# 
# 
# High freq. dielectric constant tensor:
#      x y z
#    x 1.693920 0.000000 0.005340 
#    y 0.000000 1.633050 0.000000 
#    z 0.005340 0.000000 1.690070 
# 
# From -- ./inp_files/231948.got.cif
#   From: 2010.06.25/outbox.cif.g09.slc.cpg/sg12_116_cif.got.tgz:231948.got - 2010.06.28 00:19:55.
