data_PCOD8086778
_publ_section_title
;
Structure prediction by ZEFSAII (Michael W. Deem and Ramdas Pophale) SiO2 
 PCOD8086778
Probable space group: C 2/M
;
_chemical_formula_sum "Si O2"
_cell_formula_units_Z 64
_cell_length_a 26.812008
_cell_length_b 13.277350
_cell_length_c 16.701645
_cell_angle_alpha 90.000000
_cell_angle_beta 142.743918
_cell_angle_gamma 90.000000
_cell_volume 3599.373970
_symmetry_space_group_name_H-M "C 2/M"
_symmetry_group_IT_number 12
_symmetry_cell_setting 'monoclinic'
loop_
_space_group_symop_operation_xyz
x,y,z
-x,y,-z
-x,-y,-z
x,-y,z
1/2+x,1/2+y,z
1/2-x,1/2+y,-z
1/2-x,1/2-y,-z
1/2+x,1/2-y,z
loop_
_atom_site_type_symbol
_atom_site_label
_atom_site_fract_x
_atom_site_fract_y
_atom_site_fract_z
Si Si1 0.590419 0.218425 0.652016
Si Si2 0.778774 0.384677 0.290535
Si Si3 0.220151 0.885962 0.846000
Si Si4 0.975286 0.381445 0.108656
Si Si5 0.846126 0.309946 0.690592
Si Si6 0.878840 0.382786 0.142533
Si Si7 0.682298 0.808929 0.168327
Si Si8 0.241076 0.110162 0.420825
O O1 0.500000 0.240776 0.500000
O O2 0.638471 0.151448 0.648053
O O3 0.636862 0.321639 0.734353
O O4 0.586969 0.160433 0.731301
O O5 0.757334 0.500000 0.237307
O O6 0.704906 0.307429 0.173982
O O7 0.791339 0.376571 0.402052
O O8 0.262696 0.885351 0.813101
O O9 0.195043 0.000000 0.835450
O O10 0.288389 0.842449 0.997021
O O11 0.980456 0.500000 0.097462
O O12 0.948666 0.359638 0.165883
O O13 0.057748 0.325704 0.190381
O O14 0.912762 0.327220 0.969359
O O15 0.803487 0.335619 0.720746
O O16 0.829911 0.191646 0.653782
O O17 0.808067 0.382688 0.575924
O O18 0.866803 0.500000 0.138931
O O19 0.199071 0.000000 0.369319
#
# Coordination Sequence:
#
# PCOD8086778 Si02
#       8
#     8   8   8   8   8   8   8   8
#     4  11  22  33  53  81 106 132 169 219 262 303
#     4   9  19  35  52  72 101 133 166 202 251 307
#     4   9  19  37  56  73 102 141 174 207 254 312
#     4  10  20  32  51  77 104 130 163 211 256 291
#     4  10  19  31  51  75 101 131 168 207 248 298
#     4   9  19  35  54  76 102 135 171 210 259 308
#     4   9  18  33  52  77 100 127 166 211 249 293
#     4   9  19  34  50  70 100 137 168 200 248 304
#
# _framework density 17.780871000000001
#
# number of rings (size 3 to 8) (size 9 to 14) (size 15 to 20)
#    0.000    2.500    0.000    2.625    1.750    3.750 
#    0.000    0.625    0.000    3.750    0.000    0.000 
#    0.000    0.000    0.000    0.000    0.000    0.000 
#
# Total GULP energy -396574.560497 kJ/mol
# GULP energy per Si atom -12392.955016 kJ/mol
# Density = 1.774040 g / cm^3
# Si number density = 17.780871 Si / 1000 Ang^3
#
#
#
# Elastic Constant Matrix: (Units=GPa)
#
#
# Indices 1 2 3 4 5 6 
#
# 1 61.9572 27.8248 25.4941 0.0000 -2.5266 0.0000
# 2 27.8248 66.4488 18.3160 0.0000 1.3992 0.0000
# 3 25.4941 18.3160 74.8688 0.0000 -3.3132 0.0000
# 4 0.0000 0.0000 0.0000 21.5975 0.0000 -3.0067
# 5 -2.5266 1.3992 -3.3132 0.0000 29.6752 0.0000
# 6 0.0000 0.0000 0.0000 -3.0067 0.0000 21.5945
#
#
#
# Elastic Compliance Matrix: (Units=1/GPa)
#
#
# Indices 1 2 3 4 5 6 
#
# 1 0.021932 -0.007698 -0.005513 0.000000 0.001615 0.000000
# 2 -0.007698 0.018883 -0.002077 0.000000 -0.001778 0.000000
# 3 -0.005513 -0.002077 0.015804 0.000000 0.001393 0.000000
# 4 0.000000 0.000000 0.000000 0.047217 0.000000 0.006574
# 5 0.001615 -0.001778 0.001393 0.000000 0.034075 0.000000
# 6 0.000000 0.000000 0.000000 0.006574 0.000000 0.047223
#
#
# Mechanical properties :
#
#
# Convention : Reuss Voigt Hill
#
# Bulk Modulus (GPa) = 38.40002 38.50496 38.45249
# Shear Modulus (GPa) = 22.28255 23.34942 22.81598
#
# Velocity S-wave (km/s) = 3.54386 3.62771 3.58603
# Velocity P-wave (km/s) = 6.19584 6.26493 6.23048
#
# Compressibility (1/GPa) = 0.02604165
#
# Stress axis : x y z
#
# Youngs Moduli (GPa) = 45.59582 52.95903 63.27579
#
# Poissons Ratio (x) = 0.40768 0.34887
# Poissons Ratio (y) = 0.35100 0.13141
# Poissons Ratio (z) = 0.25139 0.10999
#
# Static dielectric constant tensor:
#      x y z
#    x 3.351250 0.000000 -0.213760 
#    y 0.000000 3.376630 0.000000 
#    z -0.213760 0.000000 3.351090 
# 
# 
# High freq. dielectric constant tensor:
#      x y z
#    x 1.689630 0.000000 -0.016280 
#    y 0.000000 1.687090 0.000000 
#    z -0.016280 0.000000 1.678520 
# 
# From -- ./inp_files/240725.got.cif
#   From: 2010.06.25/outbox.cif.g09.slc.cpg/sg12_121_cif.got.tgz:240725.got - 2010.06.28 00:19:55.
