data_PCOD8086703
_publ_section_title
;
Structure prediction by ZEFSAII (Michael W. Deem and Ramdas Pophale) SiO2 
 PCOD8086703
Probable space group: C 2/M
;
_chemical_formula_sum "Si O2"
_cell_formula_units_Z 48
_cell_length_a 20.740216
_cell_length_b 8.908828
_cell_length_c 23.405340
_cell_angle_alpha 90.000000
_cell_angle_beta 38.617973
_cell_angle_gamma 90.000000
_cell_volume 2699.107535
_symmetry_space_group_name_H-M "C 2/M"
_symmetry_group_IT_number 12
_symmetry_cell_setting 'monoclinic'
loop_
_space_group_symop_operation_xyz
x,y,z
-x,y,-z
-x,-y,-z
x,-y,z
1/2+x,1/2+y,z
1/2-x,1/2+y,-z
1/2-x,1/2-y,-z
1/2+x,1/2-y,z
loop_
_atom_site_type_symbol
_atom_site_label
_atom_site_fract_x
_atom_site_fract_y
_atom_site_fract_z
Si Si1 0.360838 0.677925 0.931358
Si Si2 0.646210 0.825859 0.552075
Si Si3 0.823537 0.825420 0.271578
Si Si4 0.399348 0.176477 0.540672
Si Si5 0.530677 0.173717 0.743708
Si Si6 0.494440 0.676046 0.067175
O O1 0.350410 0.500000 0.938007
O O2 0.431152 0.729005 0.829556
O O3 0.415119 0.735090 0.952843
O O4 0.250000 0.750000 0.000000
O O5 0.750000 0.750000 0.500000
O O6 0.612369 0.755960 0.514760
O O7 0.553371 0.799774 0.661154
O O8 0.672146 0.000000 0.527242
O O9 0.701957 0.788601 0.350605
O O10 0.868718 0.726208 0.291292
O O11 0.882092 0.785881 0.171862
O O12 0.842276 0.000000 0.274086
O O13 0.500000 0.251655 0.500000
O O14 0.417166 0.000000 0.523124
O O15 0.508506 0.000000 0.772483
O O16 0.510128 0.500000 0.049874
O O17 0.500000 0.751002 0.000000
#
# Coordination Sequence:
#
# PCOD8086703 Si02
#       6
#     8   8   8   8   8   8
#     4  10  20  35  55  77 104 134 163 205 255 300
#     4  10  19  31  51  76 100 129 169 211 248 294
#     4   9  16  29  51  72  95 132 168 205 252 297
#     4   9  17  30  47  72 101 129 165 209 254 294
#     4  10  19  31  50  77 102 131 169 207 248 298
#     4   8  15  29  49  75  97 122 165 209 246 288
#
# _framework density 17.783657000000002
#
# number of rings (size 3 to 8) (size 9 to 14) (size 15 to 20)
#    0.000    2.667    1.667    2.000    0.000    0.667 
#    3.000    0.000    0.000   14.500    0.000    0.000 
#    0.000    0.000    0.000    0.000    0.000    0.000 
#
# Total GULP energy -297482.744819 kJ/mol
# GULP energy per Si atom -12395.114367 kJ/mol
# Density = 1.774318 g / cm^3
# Si number density = 17.783657 Si / 1000 Ang^3
#
#
#
# Elastic Constant Matrix: (Units=GPa)
#
#
# Indices 1 2 3 4 5 6 
#
# 1 138.6349 26.5412 95.0241 -0.0004 -4.6235 0.0010
# 2 26.5412 42.3098 32.4815 -0.0008 -1.7429 0.0022
# 3 95.0241 32.4815 142.3681 0.0002 -2.1687 -0.0002
# 4 -0.0004 -0.0008 0.0002 24.1404 0.0000 -3.1195
# 5 -4.6235 -1.7429 -2.1687 0.0000 36.6874 -0.0002
# 6 0.0010 0.0022 -0.0002 -3.1195 -0.0002 19.2685
#
#
#
# Elastic Compliance Matrix: (Units=1/GPa)
#
#
# Indices 1 2 3 4 5 6 
#
# 1 0.013461 -0.001836 -0.008549 0.000000 0.001104 -0.000001
# 2 -0.001836 0.028939 -0.005365 0.000001 0.000826 -0.000003
# 3 -0.008549 -0.005365 0.013946 0.000000 -0.000508 0.000001
# 4 0.000000 0.000001 0.000000 0.042310 0.000000 0.006850
# 5 0.001104 0.000826 -0.000508 0.000000 0.027406 0.000000
# 6 -0.000001 -0.000003 0.000001 0.006850 0.000000 0.053007
#
#
# Mechanical properties :
#
#
# Convention : Reuss Voigt Hill
#
# Bulk Modulus (GPa) = 40.24483 70.15628 55.20056
# Shear Modulus (GPa) = 22.84660 27.30365 25.07512
#
# Velocity S-wave (km/s) = 3.58815 3.92257 3.75908
# Velocity P-wave (km/s) = 6.31236 7.74925 7.06742
#
# Compressibility (1/GPa) = 0.02484791
#
# Stress axis : x y z
#
# Youngs Moduli (GPa) = 74.28740 34.55509 71.70286
#
# Poissons Ratio (x) = 0.06343 0.61300
# Poissons Ratio (y) = 0.13636 0.38467
# Poissons Ratio (z) = 0.63509 0.18538
#
# Static dielectric constant tensor:
#      x y z
#    x 3.517460 0.000000 0.173240 
#    y 0.000000 3.052690 0.000000 
#    z 0.173240 0.000000 3.573770 
# 
# 
# High freq. dielectric constant tensor:
#      x y z
#    x 1.673380 0.000000 0.002530 
#    y 0.000000 1.656970 0.000000 
#    z 0.002530 0.000000 1.701110 
# 
# From -- ./inp_files/345389.got.cif
#   From: 2010.06.25/outbox.cif.g09.slc.cpg/sg12_173_cif.got.tgz:345389.got - 2010.06.28 00:19:55.
