data_PCOD8086305
_publ_section_title
;
Structure prediction by ZEFSAII (Michael W. Deem and Ramdas Pophale) SiO2 
 PCOD8086305
Probable space group: C 2/M
;
_chemical_formula_sum "Si O2"
_cell_formula_units_Z 64
_cell_length_a 18.625530
_cell_length_b 18.406756
_cell_length_c 21.779317
_cell_angle_alpha 90.000000
_cell_angle_beta 31.544952
_cell_angle_gamma 90.000000
_cell_volume 3906.346695
_symmetry_space_group_name_H-M "C 2/M"
_symmetry_group_IT_number 12
_symmetry_cell_setting 'monoclinic'
loop_
_space_group_symop_operation_xyz
x,y,z
-x,y,-z
-x,-y,-z
x,-y,z
1/2+x,1/2+y,z
1/2-x,1/2+y,-z
1/2-x,1/2-y,-z
1/2+x,1/2-y,z
loop_
_atom_site_type_symbol
_atom_site_label
_atom_site_fract_x
_atom_site_fract_y
_atom_site_fract_z
Si Si1 0.474538 0.222677 0.843982
Si Si2 0.594149 0.270352 0.876536
Si Si3 0.763579 0.157452 0.036234
Si Si4 0.515233 0.915892 0.558932
Si Si5 0.514310 0.419903 0.878155
Si Si6 0.672184 0.418825 0.637170
Si Si7 0.860888 0.702353 0.744826
Si Si8 0.396059 0.275668 0.370841
O O1 0.564213 0.217888 0.840269
O O2 0.375887 0.151798 0.903342
O O3 0.576158 0.233379 0.712900
O O4 0.371903 0.290490 0.923141
O O5 0.557221 0.355616 0.892885
O O6 0.754528 0.261078 0.774919
O O7 0.500000 0.240998 0.000000
O O8 0.722552 0.188760 0.132235
O O9 0.849997 0.083372 0.982053
O O10 0.500000 0.888163 0.500000
O O11 0.667865 0.901981 0.471412
O O12 0.413680 0.872829 0.677642
O O13 0.472516 0.000000 0.594041
O O14 0.543102 0.500000 0.885689
O O15 0.603770 0.408935 0.752675
O O16 0.648305 0.500000 0.628723
O O17 0.606216 0.362550 0.637291
O O18 0.986929 0.757395 0.664460
O O19 0.250000 0.250000 0.500000
#
# Coordination Sequence:
#
# PCOD8086305 Si02
#       8
#     8   8   8   8   8   8   8   8
#     4   9  18  32  49  66 101 128 163 211 261 289
#     4  11  19  31  45  72 104 137 165 203 248 304
#     4   9  17  32  47  68  96 134 164 214 253 283
#     4  10  21  34  47  68 107 146 169 202 252 302
#     4  10  19  31  49  70 102 142 175 199 235 299
#     4  10  19  34  51  69  96 136 170 206 260 305
#     4  11  21  30  50  75  98 134 180 210 254 302
#     4  11  20  34  53  74  94 131 176 224 251 297
#
# _framework density 16.383595
#
# number of rings (size 3 to 8) (size 9 to 14) (size 15 to 20)
#    0.000    1.875    6.250    0.750    0.000    2.250 
#    0.000    0.000    0.000    0.000    0.000    0.875 
#    0.000    6.500    0.000    0.000    0.000    0.000 
#
# Total GULP energy -396570.836141 kJ/mol
# GULP energy per Si atom -12392.838629 kJ/mol
# Density = 1.634630 g / cm^3
# Si number density = 16.383595 Si / 1000 Ang^3
#
#
#
# Elastic Constant Matrix: (Units=GPa)
#
#
# Indices 1 2 3 4 5 6 
#
# 1 108.0345 20.4293 34.8500 0.0026 -15.6254 -0.0009
# 2 20.4293 25.3488 9.1442 0.0040 -3.0526 -0.0014
# 3 34.8500 9.1442 97.7257 0.0105 -7.2501 -0.0050
# 4 0.0026 0.0040 0.0105 11.2966 -0.0037 3.5162
# 5 -15.6254 -3.0526 -7.2501 -0.0037 26.3779 0.0010
# 6 -0.0009 -0.0014 -0.0050 3.5162 0.0010 20.0484
#
#
#
# Elastic Compliance Matrix: (Units=1/GPa)
#
#
# Indices 1 2 3 4 5 6 
#
# 1 0.012736 -0.008379 -0.003338 0.000006 0.005657 -0.000002
# 2 -0.008379 0.046707 -0.001378 -0.000015 0.000063 0.000005
# 3 -0.003338 -0.001378 0.011631 -0.000011 0.001060 0.000004
# 4 0.000006 -0.000015 -0.000011 0.093634 0.000012 -0.016422
# 5 0.005657 0.000063 0.001060 0.000012 0.041560 -0.000004
# 6 -0.000002 0.000005 0.000004 -0.016422 -0.000004 0.052760
#
#
# Mechanical properties :
#
#
# Convention : Reuss Voigt Hill
#
# Bulk Modulus (GPa) = 22.27949 39.99513 31.13731
# Shear Modulus (GPa) = 16.65681 22.65693 19.65687
#
# Velocity S-wave (km/s) = 3.19200 3.72278 3.46756
# Velocity P-wave (km/s) = 5.21664 6.55312 5.92270
#
# Compressibility (1/GPa) = 0.04488433
#
# Stress axis : x y z
#
# Youngs Moduli (GPa) = 78.51941 21.41014 85.97980
#
# Poissons Ratio (x) = 0.17939 0.28700
# Poissons Ratio (y) = 0.65789 0.11846
# Poissons Ratio (z) = 0.26210 0.02950
#
# Static dielectric constant tensor:
#      x y z
#    x 3.310560 0.000000 -0.188220 
#    y 0.000000 3.038830 0.000010 
#    z -0.188220 0.000010 3.268660 
# 
# 
# High freq. dielectric constant tensor:
#      x y z
#    x 1.621870 0.000000 -0.006240 
#    y 0.000000 1.586520 0.000000 
#    z -0.006240 0.000000 1.651860 
# 
# From -- ./inp_files/317791.got.cif
#   From: 2010.06.25/outbox.cif.g09.slc.cpg/sg12_159_cif.got.tgz:317791.got - 2010.06.28 00:19:55.
