data_PCOD8086622
_publ_section_title
;
Structure prediction by ZEFSAII (Michael W. Deem and Ramdas Pophale) SiO2 
 PCOD8086622
Probable space group: C 2/M
;
_chemical_formula_sum "Si O2"
_cell_formula_units_Z 56
_cell_length_a 20.015564
_cell_length_b 9.153090
_cell_length_c 30.348331
_cell_angle_alpha 90.000000
_cell_angle_beta 144.911073
_cell_angle_gamma 90.000000
_cell_volume 3196.117529
_symmetry_space_group_name_H-M "C 2/M"
_symmetry_group_IT_number 12
_symmetry_cell_setting 'monoclinic'
loop_
_space_group_symop_operation_xyz
x,y,z
-x,y,-z
-x,-y,-z
x,-y,z
1/2+x,1/2+y,z
1/2-x,1/2+y,-z
1/2-x,1/2-y,-z
1/2+x,1/2-y,z
loop_
_atom_site_type_symbol
_atom_site_label
_atom_site_fract_x
_atom_site_fract_y
_atom_site_fract_z
Si Si1 0.502721 0.331341 0.051884
Si Si2 0.864434 0.331690 0.047496
Si Si3 0.394971 0.327896 0.670792
Si Si4 0.779612 0.830491 0.771623
Si Si5 0.974809 0.329233 0.338444
Si Si6 0.416448 0.830870 0.773332
Si Si7 0.688457 0.166027 0.504701
O O1 0.467072 0.500000 0.038140
O O2 0.407317 0.234409 0.024695
O O3 0.630595 0.301946 0.140300
O O4 0.500000 0.282144 0.000000
O O5 0.835130 0.500000 0.024120
O O6 0.960834 0.308297 0.136766
O O7 0.750000 0.250000 0.000000
O O8 0.419994 0.500000 0.688815
O O9 0.474484 0.264333 0.674476
O O10 0.428552 0.248696 0.733548
O O11 0.255980 0.295647 0.586728
O O12 0.654812 0.775255 0.721104
O O13 0.814068 0.739819 0.747007
O O14 0.775847 0.000000 0.755955
O O15 0.975899 0.500000 0.325482
O O16 0.050043 0.303763 0.424643
O O17 0.386694 0.000000 0.750070
O O18 0.750000 0.250000 0.500000
O O19 0.715222 0.000000 0.508493
#
# Coordination Sequence:
#
# PCOD8086622 Si02
#       7
#     8   8   8   8   8   8   8
#     4   9  18  33  52  74 101 131 162 199 243 291
#     4  10  21  36  54  75  99 129 164 202 244 290
#     4  10  19  31  50  75 100 129 167 207 247 292
#     4   9  18  33  52  72  97 131 166 200 243 293
#     4   9  17  31  51  74 100 130 166 207 249 294
#     4  10  21  36  52  71  99 133 165 200 245 293
#     4   8  15  28  46  69  97 128 162 203 248 290
#
# _framework density 17.521259000000001
#
# number of rings (size 3 to 8) (size 9 to 14) (size 15 to 20)
#    0.000    2.714    0.000    1.286    0.000    4.286 
#    0.000    3.571    0.000    4.286    0.000    0.000 
#    0.000    0.000    0.000    0.000    0.000    0.000 
#
# Total GULP energy -347017.586403 kJ/mol
# GULP energy per Si atom -12393.485229 kJ/mol
# Density = 1.748138 g / cm^3
# Si number density = 17.521259 Si / 1000 Ang^3
#
#
#
# Elastic Constant Matrix: (Units=GPa)
#
#
# Indices 1 2 3 4 5 6 
#
# 1 122.3556 69.2990 73.5029 0.0000 7.2874 0.0000
# 2 69.2990 95.0228 54.0613 0.0000 -0.7396 0.0001
# 3 73.5029 54.0613 80.6320 0.0000 7.3403 0.0000
# 4 0.0000 0.0000 0.0000 23.6862 0.0000 -1.2919
# 5 7.2874 -0.7396 7.3403 0.0000 28.6590 0.0000
# 6 0.0000 0.0001 0.0000 -1.2919 0.0000 32.3689
#
#
#
# Elastic Compliance Matrix: (Units=1/GPa)
#
#
# Indices 1 2 3 4 5 6 
#
# 1 0.020703 -0.007234 -0.013849 0.000000 -0.001904 0.000000
# 2 -0.007234 0.019879 -0.007114 0.000000 0.004175 0.000000
# 3 -0.013849 -0.007114 0.030196 0.000000 -0.004396 0.000000
# 4 0.000000 0.000000 0.000000 0.042311 0.000000 0.001689
# 5 -0.001904 0.004175 -0.004396 0.000000 0.036611 0.000000
# 6 0.000000 0.000000 0.000000 0.001689 0.000000 0.030961
#
#
# Mechanical properties :
#
#
# Convention : Reuss Voigt Hill
#
# Bulk Modulus (GPa) = 69.51867 76.85964 73.18915
# Shear Modulus (GPa) = 20.67389 23.68599 22.17994
#
# Velocity S-wave (km/s) = 3.43874 3.68073 3.56179
# Velocity P-wave (km/s) = 7.45181 7.87562 7.66665
#
# Compressibility (1/GPa) = 0.01438463
#
# Stress axis : x y z
#
# Youngs Moduli (GPa) = 48.30195 50.30309 33.11658
#
# Poissons Ratio (x) = 0.36391 0.45863
# Poissons Ratio (y) = 0.34943 0.23559
# Poissons Ratio (z) = 0.66893 0.35785
#
# Static dielectric constant tensor:
#      x y z
#    x 3.099290 0.000000 0.113870 
#    y 0.000000 3.333790 0.000000 
#    z 0.113870 0.000000 3.769550 
# 
# 
# High freq. dielectric constant tensor:
#      x y z
#    x 1.656200 0.000000 0.002880 
#    y 0.000000 1.684140 0.000000 
#    z 0.002880 0.000000 1.688220 
# 
# From -- ./inp_files/339101.got.cif
#   From: 2010.06.25/outbox.cif.g09.slc.cpg/sg12_170_cif.got.tgz:339101.got - 2010.06.28 00:19:55.
