data_PCOD8086540
_publ_section_title
;
Structure prediction by ZEFSAII (Michael W. Deem and Ramdas Pophale) SiO2 
 PCOD8086540
Probable space group: C 2/M
;
_chemical_formula_sum "Si O2"
_cell_formula_units_Z 64
_cell_length_a 14.655665
_cell_length_b 17.624777
_cell_length_c 14.046105
_cell_angle_alpha 90.000000
_cell_angle_beta 91.135799
_cell_angle_gamma 90.000000
_cell_volume 3627.435785
_symmetry_space_group_name_H-M "C 2/M"
_symmetry_group_IT_number 12
_symmetry_cell_setting 'monoclinic'
loop_
_space_group_symop_operation_xyz
x,y,z
-x,y,-z
-x,-y,-z
x,-y,z
1/2+x,1/2+y,z
1/2-x,1/2+y,-z
1/2-x,1/2-y,-z
1/2+x,1/2-y,z
loop_
_atom_site_type_symbol
_atom_site_label
_atom_site_fract_x
_atom_site_fract_y
_atom_site_fract_z
Si Si1 0.928420 0.269221 0.667374
Si Si2 0.577848 0.414355 0.868737
Si Si3 0.627828 0.412623 0.082887
Si Si4 0.665734 0.304605 0.507527
Si Si5 0.231156 0.411174 0.610372
Si Si6 0.777541 0.808988 0.774134
Si Si7 0.524399 0.084100 0.608392
Si Si8 0.385143 0.291463 0.275800
O O1 0.913411 0.227045 0.564796
O O2 0.842095 0.258901 0.735722
O O3 0.951629 0.358432 0.653970
O O4 0.010634 0.233007 0.727573
O O5 0.602274 0.500000 0.843608
O O6 0.469083 0.403043 0.867366
O O7 0.626654 0.365654 0.788572
O O8 0.619591 0.393085 0.971775
O O9 0.662701 0.500000 0.097388
O O10 0.695535 0.347600 0.125234
O O11 0.750000 0.250000 0.500000
O O12 0.708142 0.385945 0.478856
O O13 0.635117 0.310123 0.615002
O O14 0.227919 0.500000 0.611414
O O15 0.284258 0.379504 0.702307
O O16 0.126666 0.379841 0.612029
O O17 0.676570 0.774003 0.773344
O O18 0.500000 0.072094 0.500000
O O19 0.520071 0.000000 0.658021
#
# Coordination Sequence:
#
# PCOD8086540 Si02
#       8
#     8   8   8   8   8   8   8   8
#     4  11  20  35  52  75 112 145 183 224 264 312
#     4   9  20  37  59  83 108 138 175 221 278 335
#     4   9  18  38  61  81 107 137 172 225 283 328
#     4  11  20  34  51  74 108 154 183 215 268 313
#     4  10  20  33  49  76 106 137 184 227 260 312
#     4  11  21  33  57  81 104 140 179 222 272 320
#     4  10  19  31  50  71 100 144 189 224 255 300
#     4  12  21  34  55  82 109 142 184 220 267 327
#
# _framework density 17.643317
#
# number of rings (size 3 to 8) (size 9 to 14) (size 15 to 20)
#    0.000    1.625    5.000    3.000    0.000    1.000 
#    0.000    0.625    0.000    2.250    0.000    0.000 
#    0.000    3.000    0.000    0.000    0.000    0.000 
#
# Total GULP energy -396590.019982 kJ/mol
# GULP energy per Si atom -12393.438124 kJ/mol
# Density = 1.760316 g / cm^3
# Si number density = 17.643317 Si / 1000 Ang^3
#
#
#
# Elastic Constant Matrix: (Units=GPa)
#
#
# Indices 1 2 3 4 5 6 
#
# 1 71.3901 34.4496 25.8615 0.0000 17.4374 0.0000
# 2 34.4496 89.2161 44.5092 0.0000 6.9058 0.0000
# 3 25.8615 44.5092 77.4183 0.0000 9.0809 0.0000
# 4 0.0000 0.0000 0.0000 46.0431 0.0000 -9.3442
# 5 17.4374 6.9058 9.0809 0.0000 22.8268 0.0000
# 6 0.0000 0.0000 0.0000 -9.3442 0.0000 35.1388
#
#
#
# Elastic Compliance Matrix: (Units=1/GPa)
#
#
# Indices 1 2 3 4 5 6 
#
# 1 0.020900 -0.006078 -0.001920 0.000000 -0.013363 0.000000
# 2 -0.006078 0.017517 -0.008353 0.000000 0.002667 0.000000
# 3 -0.001920 -0.008353 0.018768 0.000000 -0.003473 0.000000
# 4 0.000000 0.000000 0.000000 0.022958 0.000000 0.006105
# 5 -0.013363 0.002667 -0.003473 0.000000 0.054591 0.000000
# 6 0.000000 0.000000 0.000000 0.006105 0.000000 0.030082
#
#
# Mechanical properties :
#
#
# Convention : Reuss Voigt Hill
#
# Bulk Modulus (GPa) = 40.84546 49.74055 45.29301
# Shear Modulus (GPa) = 24.30993 29.68203 26.99598
#
# Velocity S-wave (km/s) = 3.71597 4.10608 3.91589
# Velocity P-wave (km/s) = 6.45075 7.12274 6.79506
#
# Compressibility (1/GPa) = 0.02448253
#
# Stress axis : x y z
#
# Youngs Moduli (GPa) = 47.84700 57.08901 53.28297
#
# Poissons Ratio (x) = 0.34699 0.10229
# Poissons Ratio (y) = 0.29082 0.44507
# Poissons Ratio (z) = 0.09186 0.47686
#
# Static dielectric constant tensor:
#      x y z
#    x 3.352210 0.000000 0.195600 
#    y 0.000000 3.445170 0.000000 
#    z 0.195600 0.000000 2.417660 
# 
# 
# High freq. dielectric constant tensor:
#      x y z
#    x 1.680060 0.000000 0.020490 
#    y 0.000000 1.682930 0.000000 
#    z 0.020490 0.000000 1.661940 
# 
# From -- ./inp_files/215939.got.cif
#   From: 2010.06.25/outbox.cif.g09.slc.cpg/sg12_108_cif.got.tgz:215939.got - 2010.06.28 00:19:55.
