data_PCOD8086450
_publ_section_title
;
Structure prediction by ZEFSAII (Michael W. Deem and Ramdas Pophale) SiO2 
 PCOD8086450
Probable space group: C 2/M
;
_chemical_formula_sum "Si O2"
_cell_formula_units_Z 40
_cell_length_a 19.578133
_cell_length_b 9.163619
_cell_length_c 15.492956
_cell_angle_alpha 90.000000
_cell_angle_beta 126.039125
_cell_angle_gamma 90.000000
_cell_volume 2247.577163
_symmetry_space_group_name_H-M "C 2/M"
_symmetry_group_IT_number 12
_symmetry_cell_setting 'monoclinic'
loop_
_space_group_symop_operation_xyz
x,y,z
-x,y,-z
-x,-y,-z
x,-y,z
1/2+x,1/2+y,z
1/2-x,1/2+y,-z
1/2-x,1/2-y,-z
1/2+x,1/2-y,z
loop_
_atom_site_type_symbol
_atom_site_label
_atom_site_fract_x
_atom_site_fract_y
_atom_site_fract_z
Si Si1 0.808368 0.334053 0.979721
Si Si2 0.781668 0.330944 0.392896
Si Si3 0.132156 0.668542 0.363082
Si Si4 0.559539 0.170390 0.792377
Si Si5 0.182081 0.828389 0.750596
O O1 0.785347 0.500000 0.979235
O O2 0.904988 0.303985 0.082410
O O3 0.750000 0.250000 0.000000
O O4 0.777859 0.296149 0.859429
O O5 0.770108 0.500000 0.362126
O O6 0.842998 0.305763 0.519359
O O7 0.689926 0.263499 0.342888
O O8 0.826303 0.250540 0.346822
O O9 0.143359 0.500000 0.345001
O O10 0.036763 0.723056 0.279255
O O11 0.611267 0.264646 0.761782
O O12 0.565873 0.000000 0.770891
O O13 0.165763 0.000000 0.726112
#
# Coordination Sequence:
#
# PCOD8086450 Si02
#       5
#     8   8   8   8   8
#     4   8  15  28  47  70  95 124 155 190 234 280
#     4  10  20  34  51  70  95 128 162 196 238 285
#     4   9  19  35  53  71  93 124 161 200 241 284
#     4   9  17  32  53  74  96 123 158 199 240 280
#     4  10  19  31  49  74 101 127 158 194 233 281
#
# _framework density 17.796942999999999
#
# number of rings (size 3 to 8) (size 9 to 14) (size 15 to 20)
#    0.000    2.800    0.000    1.200    0.000    3.200 
#    0.000    5.000    0.000    6.000    0.000    0.000 
#    0.000    0.000    0.000    0.000    0.000    0.000 
#
# Total GULP energy -247797.870632 kJ/mol
# GULP energy per Si atom -12389.893532 kJ/mol
# Density = 1.775644 g / cm^3
# Si number density = 17.796943 Si / 1000 Ang^3
#
#
#
# Elastic Constant Matrix: (Units=GPa)
#
#
# Indices 1 2 3 4 5 6 
#
# 1 44.3074 19.5466 20.2939 0.0000 22.2240 0.0000
# 2 19.5466 62.3201 17.7274 0.0000 6.4145 0.0000
# 3 20.2939 17.7274 56.2869 0.0000 26.6486 0.0000
# 4 0.0000 0.0000 0.0000 23.1633 0.0000 -1.8336
# 5 22.2240 6.4145 26.6486 0.0000 30.2159 0.0000
# 6 0.0000 0.0000 0.0000 -1.8336 0.0000 30.0719
#
#
#
# Elastic Compliance Matrix: (Units=1/GPa)
#
#
# Indices 1 2 3 4 5 6 
#
# 1 0.041341 -0.010661 0.003050 0.000000 -0.030834 0.000000
# 2 -0.010661 0.020444 -0.007301 0.000000 0.009940 0.000000
# 3 0.003050 -0.007301 0.033126 0.000000 -0.029909 0.000000
# 4 0.000000 0.000000 0.000000 0.043381 0.000000 0.002645
# 5 -0.030834 0.009940 -0.029909 0.000000 0.080041 0.000000
# 6 0.000000 0.000000 0.000000 0.002645 0.000000 0.033415
#
#
# Mechanical properties :
#
#
# Convention : Reuss Voigt Hill
#
# Bulk Modulus (GPa) = 15.36386 30.89446 23.12916
# Shear Modulus (GPa) = 16.48713 23.71333 20.10023
#
# Velocity S-wave (km/s) = 3.04699 3.65422 3.36433
# Velocity P-wave (km/s) = 4.58590 5.93309 5.30245
#
# Compressibility (1/GPa) = 0.06508781
#
# Stress axis : x y z
#
# Youngs Moduli (GPa) = 24.18886 48.91510 30.18788
#
# Poissons Ratio (x) = 0.52146 -0.09208
# Poissons Ratio (y) = 0.25787 0.22041
# Poissons Ratio (z) = -0.07378 0.35714
#
# Static dielectric constant tensor:
#      x y z
#    x 2.962420 0.000000 0.209270 
#    y 0.000000 3.310910 0.000000 
#    z 0.209270 0.000000 3.962390 
# 
# 
# High freq. dielectric constant tensor:
#      x y z
#    x 1.654680 0.000000 0.008020 
#    y 0.000000 1.695410 0.000000 
#    z 0.008020 0.000000 1.703630 
# 
# From -- ./inp_files/211445.got.cif
#   From: 2010.06.25/outbox.cif.g09.slc.cpg/sg12_106_cif.got.tgz:211445.got - 2010.06.28 00:19:55.
