data_PCOD8086460
_publ_section_title
;
Structure prediction by ZEFSAII (Michael W. Deem and Ramdas Pophale) SiO2 
 PCOD8086460
Probable space group: C 2/M
;
_chemical_formula_sum "Si O2"
_cell_formula_units_Z 36
_cell_length_a 4.972915
_cell_length_b 25.469485
_cell_length_c 14.486349
_cell_angle_alpha 90.000000
_cell_angle_beta 64.975307
_cell_angle_gamma 90.000000
_cell_volume 1662.564593
_symmetry_space_group_name_H-M "C 2/M"
_symmetry_group_IT_number 12
_symmetry_cell_setting 'monoclinic'
loop_
_space_group_symop_operation_xyz
x,y,z
-x,y,-z
-x,-y,-z
x,-y,z
1/2+x,1/2+y,z
1/2-x,1/2+y,-z
1/2-x,1/2-y,-z
1/2+x,1/2-y,z
loop_
_atom_site_type_symbol
_atom_site_label
_atom_site_fract_x
_atom_site_fract_y
_atom_site_fract_z
Si Si1 0.237051 0.060494 0.242579
Si Si2 0.659874 0.000000 0.574909
Si Si3 0.874958 0.059697 0.111835
Si Si4 0.879674 0.281133 0.621238
Si Si5 0.359304 0.103128 0.619871
O O1 0.567137 0.086967 0.191593
O O2 0.124013 0.061836 0.153515
O O3 0.992753 0.091764 0.338404
O O4 0.232900 0.000000 0.283098
O O5 0.500000 0.000000 0.500000
O O6 0.539118 0.945874 0.644994
O O7 0.000000 0.000000 0.500000
O O8 0.781163 0.000000 0.101053
O O9 0.000000 0.086557 0.000000
O O10 0.547941 0.258727 0.664593
O O11 0.896440 0.339957 0.662129
O O12 0.000000 0.281052 0.500000
O O13 0.500000 0.107385 0.500000
#
# Coordination Sequence:
#
# PCOD8086460 Si02
#       5
#     8   4   8   8   8
#     4  10  19  31  49  74 102 136 172 205 253 312
#     4  10  22  34  48  70 101 144 175 198 246 300
#     4   9  18  32  49  69  98 134 172 214 255 300
#     4   9  19  34  52  70  94 134 181 222 257 288
#     4  10  21  36  52  76 111 144 176 213 252 310
#
# _framework density 21.653293000000001
#
# number of rings (size 3 to 8) (size 9 to 14) (size 15 to 20)
#    0.000    2.444    1.111    0.667    0.000   14.222 
#    0.000    0.000    0.000    0.000    0.000    0.000 
#    0.000   17.778    0.000    0.000    0.000    0.000 
#
# Total GULP energy -223094.993373 kJ/mol
# GULP energy per Si atom -12394.166298 kJ/mol
# Density = 2.160401 g / cm^3
# Si number density = 21.653293 Si / 1000 Ang^3
#
#
#
# Elastic Constant Matrix: (Units=GPa)
#
#
# Indices 1 2 3 4 5 6 
#
# 1 106.7007 55.0273 19.6133 0.0000 -23.3301 0.0000
# 2 55.0273 155.9126 24.2984 0.0000 -5.1163 0.0000
# 3 19.6133 24.2984 111.9174 0.0000 -16.7325 0.0000
# 4 0.0000 0.0000 0.0000 2.9347 0.0000 0.2268
# 5 -23.3301 -5.1163 -16.7325 0.0000 35.2527 0.0000
# 6 0.0000 0.0000 0.0000 0.2268 0.0000 26.4353
#
#
#
# Elastic Compliance Matrix: (Units=1/GPa)
#
#
# Indices 1 2 3 4 5 6 
#
# 1 0.013503 -0.004470 -0.000169 0.000000 0.008207 0.000000
# 2 -0.004470 0.008121 -0.001341 0.000000 -0.002416 0.000000
# 3 -0.000169 -0.001341 0.009914 0.000000 0.004399 0.000000
# 4 0.000000 0.000000 0.000000 0.340975 0.000000 -0.002926
# 5 0.008207 -0.002416 0.004399 0.000000 0.035536 0.000000
# 6 0.000000 0.000000 0.000000 -0.002926 0.000000 0.037853
#
#
# Mechanical properties :
#
#
# Convention : Reuss Voigt Hill
#
# Bulk Modulus (GPa) = 51.07815 63.60096 57.33956
# Shear Modulus (GPa) = 10.76687 31.29732 21.03209
#
# Velocity S-wave (km/s) = 2.23231 3.80594 3.11997
# Velocity P-wave (km/s) = 5.50314 6.98211 6.28627
#
# Compressibility (1/GPa) = 0.01957784
#
# Stress axis : x y z
#
# Youngs Moduli (GPa) = 74.05870 123.13462 100.87153
#
# Poissons Ratio (x) = 0.55041 0.01703
# Poissons Ratio (y) = 0.33104 0.13528
# Poissons Ratio (z) = 0.01250 0.16513
#
# Static dielectric constant tensor:
#      x y z
#    x 4.246690 0.000000 -0.047450 
#    y 0.000000 4.732850 0.000000 
#    z -0.047450 0.000000 3.989940 
# 
# 
# High freq. dielectric constant tensor:
#      x y z
#    x 1.882280 0.000000 -0.001050 
#    y 0.000000 1.800910 0.000000 
#    z -0.001050 0.000000 1.835840 
# 
# From -- ./inp_files/191441.got.cif
#   From: 2010.06.25/outbox.cif.g09.slc.cpg/sg12_96_cif.got.tgz:191441.got - 2010.06.28 00:19:55.
