data_PCOD8086605
_publ_section_title
;
Structure prediction by ZEFSAII (Michael W. Deem and Ramdas Pophale) SiO2 
 PCOD8086605
Probable space group: C 2/M
;
_chemical_formula_sum "Si O2"
_cell_formula_units_Z 64
_cell_length_a 28.031050
_cell_length_b 9.470136
_cell_length_c 18.067780
_cell_angle_alpha 90.000000
_cell_angle_beta 46.448311
_cell_angle_gamma 90.000000
_cell_volume 3476.085470
_symmetry_space_group_name_H-M "C 2/M"
_symmetry_group_IT_number 12
_symmetry_cell_setting 'monoclinic'
loop_
_space_group_symop_operation_xyz
x,y,z
-x,y,-z
-x,-y,-z
x,-y,z
1/2+x,1/2+y,z
1/2-x,1/2+y,-z
1/2-x,1/2-y,-z
1/2+x,1/2-y,z
loop_
_atom_site_type_symbol
_atom_site_label
_atom_site_fract_x
_atom_site_fract_y
_atom_site_fract_z
Si Si1 0.618664 0.665503 0.738244
Si Si2 0.996697 0.342261 0.848328
Si Si3 0.639562 0.662964 0.544867
Si Si4 0.124727 0.333018 0.218973
Si Si5 0.229482 0.836631 0.191075
Si Si6 0.765943 0.337177 0.320672
Si Si7 0.020495 0.655491 0.649085
Si Si8 0.855335 0.332238 0.967705
O O1 0.614852 0.500000 0.759431
O O2 0.547716 0.734673 0.831894
O O3 0.639895 0.696796 0.631396
O O4 0.671331 0.738105 0.735278
O O5 0.005135 0.500000 0.873608
O O6 0.009555 0.350420 0.747876
O O7 0.922274 0.282668 0.938248
O O8 0.627770 0.500000 0.540905
O O9 0.709122 0.712900 0.437756
O O10 0.580359 0.741172 0.565353
O O11 0.136329 0.500000 0.213745
O O12 0.165675 0.251913 0.237203
O O13 0.147518 0.276980 0.113684
O O14 0.047979 0.294783 0.314918
O O15 0.239888 0.815452 0.266352
O O16 0.218090 0.000000 0.183062
O O17 0.292573 0.775279 0.079514
O O18 0.785908 0.500000 0.313984
O O19 0.039540 0.500000 0.599446
O O20 0.857866 0.500000 0.963630
#
# Coordination Sequence:
#
# PCOD8086605 Si02
#       8
#     8   8   8   8   8   8   8   8
#     4  10  19  31  50  74  95 118 155 199 238 280
#     4   8  14  28  50  72  95 121 150 190 236 278
#     4   9  18  32  50  72  95 120 155 198 238 276
#     4   9  17  31  51  74  99 124 153 193 238 279
#     4  10  20  33  49  70  96 127 163 196 227 274
#     4  10  21  35  48  66  96 130 160 192 233 280
#     4   8  15  28  48  73  96 120 152 190 234 282
#     4   8  15  30  52  75  96 122 158 194 229 276
#
# _framework density 18.411515000000001
#
# number of rings (size 3 to 8) (size 9 to 14) (size 15 to 20)
#    0.000    3.000    0.000    2.625    0.000    2.000 
#    0.000    3.750    0.000    7.500    0.000    0.000 
#    0.000    0.000    0.000    0.000    0.000    0.000 
#
# Total GULP energy -396721.217864 kJ/mol
# GULP energy per Si atom -12397.538058 kJ/mol
# Density = 1.836961 g / cm^3
# Si number density = 18.411515 Si / 1000 Ang^3
#
#
#
# Elastic Constant Matrix: (Units=GPa)
#
#
# Indices 1 2 3 4 5 6 
#
# 1 97.4443 55.8585 26.6736 0.0007 -29.1532 0.0018
# 2 55.8585 71.3778 20.4614 -0.0144 -17.2614 0.0103
# 3 26.6736 20.4614 20.9372 0.0006 -11.2237 0.0006
# 4 0.0007 -0.0144 0.0006 19.0791 0.0015 -7.8739
# 5 -29.1532 -17.2614 -11.2237 0.0015 27.3463 -0.0012
# 6 0.0018 0.0103 0.0006 -7.8739 -0.0012 34.1878
#
#
#
# Elastic Compliance Matrix: (Units=1/GPa)
#
#
# Indices 1 2 3 4 5 6 
#
# 1 0.024949 -0.012800 -0.011986 -0.000011 0.013599 0.000001
# 2 -0.012800 0.026759 -0.010391 0.000020 -0.001020 -0.000003
# 3 -0.011986 -0.010391 0.080541 -0.000011 0.013720 0.000000
# 4 -0.000011 0.000020 -0.000011 0.057919 -0.000006 0.013339
# 5 0.013599 -0.001020 0.013720 -0.000006 0.056052 0.000000
# 6 0.000001 -0.000003 0.000000 0.013339 0.000000 0.032322
#
#
# Mechanical properties :
#
#
# Convention : Reuss Voigt Hill
#
# Bulk Modulus (GPa) = 16.15610 43.97180 30.06395
# Shear Modulus (GPa) = 13.53085 21.90703 17.71894
#
# Velocity S-wave (km/s) = 2.71387 3.45317 3.10560
# Velocity P-wave (km/s) = 4.31441 6.31140 5.40592
#
# Compressibility (1/GPa) = 0.06189614
#
# Stress axis : x y z
#
# Youngs Moduli (GPa) = 40.08195 37.37080 12.41611
#
# Poissons Ratio (x) = 0.47834 0.14881
# Poissons Ratio (y) = 0.51305 0.12901
# Poissons Ratio (z) = 0.48041 0.38830
#
# Static dielectric constant tensor:
#      x y z
#    x 3.327760 0.000000 -0.311060 
#    y 0.000000 3.290690 0.000000 
#    z -0.311060 0.000000 3.444220 
# 
# 
# High freq. dielectric constant tensor:
#      x y z
#    x 1.709360 0.000000 -0.023270 
#    y 0.000000 1.695780 0.000000 
#    z -0.023270 0.000000 1.699050 
# 
# From -- ./inp_files/326852.got.cif
#   From: 2010.06.25/outbox.cif.g09.slc.cpg/sg12_164_cif.got.tgz:326852.got - 2010.06.28 00:19:55.
