data_PCOD8086279
_publ_section_title
;
Structure prediction by ZEFSAII (Michael W. Deem and Ramdas Pophale) SiO2 
 PCOD8086279
Probable space group: C 2/M
;
_chemical_formula_sum "Si O2"
_cell_formula_units_Z 48
_cell_length_a 27.179616
_cell_length_b 8.710359
_cell_length_c 11.779530
_cell_angle_alpha 90.000000
_cell_angle_beta 71.498143
_cell_angle_gamma 90.000000
_cell_volume 2644.595216
_symmetry_space_group_name_H-M "C 2/M"
_symmetry_group_IT_number 12
_symmetry_cell_setting 'monoclinic'
loop_
_space_group_symop_operation_xyz
x,y,z
-x,y,-z
-x,-y,-z
x,-y,z
1/2+x,1/2+y,z
1/2-x,1/2+y,-z
1/2-x,1/2-y,-z
1/2+x,1/2-y,z
loop_
_atom_site_type_symbol
_atom_site_label
_atom_site_fract_x
_atom_site_fract_y
_atom_site_fract_z
Si Si1 0.924370 0.325439 0.265136
Si Si2 0.608665 0.323040 0.248558
Si Si3 0.946336 0.824058 0.486046
Si Si4 0.040559 0.323767 0.121044
Si Si5 0.193315 0.681611 0.036513
Si Si6 0.379173 0.679162 0.093513
O O1 0.905677 0.500000 0.281909
O O2 0.928096 0.268763 0.390566
O O3 0.882112 0.230035 0.223360
O O4 0.979026 0.309681 0.160419
O O5 0.609794 0.500000 0.208565
O O6 0.600689 0.308711 0.389322
O O7 0.559401 0.239092 0.228515
O O8 0.661597 0.243200 0.168910
O O9 0.000000 0.758725 0.500000
O O10 0.955661 0.000000 0.443082
O O11 0.058691 0.500000 0.092091
O O12 0.066010 0.221004 0.004446
O O13 0.196112 0.500000 0.040336
O O14 0.166505 0.732364 0.938607
O O15 0.250000 0.750000 0.000000
O O16 0.367826 0.500000 0.094771
#
# Coordination Sequence:
#
# PCOD8086279 Si02
#       6
#     8   8   8   8   8   8
#     4  11  22  33  49  74 109 149 186 223 266 317
#     4  10  19  33  54  80 110 143 184 225 268 316
#     4  10  20  34  52  76 110 151 190 225 260 311
#     4  10  19  31  48  73 107 144 182 223 267 316
#     4  11  22  39  62  85 109 135 174 224 278 328
#     4  11  22  35  53  77 106 140 180 223 274 326
#
# _framework density 18.150224999999999
#
# number of rings (size 3 to 8) (size 9 to 14) (size 15 to 20)
#    0.000    1.500    1.667    7.000    0.000    5.667 
#    0.000    0.000    0.000    1.000    0.000    0.000 
#    0.000    0.000    0.000    0.000    0.000    0.000 
#
# Total GULP energy -297608.292207 kJ/mol
# GULP energy per Si atom -12400.345509 kJ/mol
# Density = 1.810891 g / cm^3
# Si number density = 18.150225 Si / 1000 Ang^3
#
#
#
# Elastic Constant Matrix: (Units=GPa)
#
#
# Indices 1 2 3 4 5 6 
#
# 1 89.7831 44.6061 49.3861 0.0000 2.2237 0.0000
# 2 44.6061 111.2580 33.0320 0.0000 -4.5882 0.0000
# 3 49.3861 33.0320 82.4453 0.0000 14.9135 0.0000
# 4 0.0000 0.0000 0.0000 29.1119 0.0000 1.8106
# 5 2.2237 -4.5882 14.9135 0.0000 21.4410 0.0000
# 6 0.0000 0.0000 0.0000 1.8106 0.0000 28.4594
#
#
#
# Elastic Compliance Matrix: (Units=1/GPa)
#
#
# Indices 1 2 3 4 5 6 
#
# 1 0.018871 -0.004312 -0.010359 0.000000 0.004325 0.000000
# 2 -0.004312 0.011847 -0.003092 0.000000 0.005133 0.000000
# 3 -0.010359 -0.003092 0.022305 0.000000 -0.015102 0.000000
# 4 0.000000 0.000000 0.000000 0.034487 0.000000 -0.002194
# 5 0.004325 0.005133 -0.015102 0.000000 0.057794 0.000000
# 6 0.000000 0.000000 0.000000 -0.002194 0.000000 0.035277
#
#
# Mechanical properties :
#
#
# Convention : Reuss Voigt Hill
#
# Bulk Modulus (GPa) = 57.15259 59.72608 58.43934
# Shear Modulus (GPa) = 22.52879 26.23326 24.38103
#
# Velocity S-wave (km/s) = 3.52695 3.80589 3.66907
# Velocity P-wave (km/s) = 6.93850 7.23125 7.08639
#
# Compressibility (1/GPa) = 0.01749702
#
# Stress axis : x y z
#
# Youngs Moduli (GPa) = 52.99097 84.41275 44.83314
#
# Poissons Ratio (x) = 0.36399 0.46442
# Poissons Ratio (y) = 0.22850 0.13862
# Poissons Ratio (z) = 0.54893 0.26099
#
# Static dielectric constant tensor:
#      x y z
#    x 3.159930 0.000000 0.107940 
#    y 0.000000 3.519460 0.000000 
#    z 0.107940 0.000000 3.296050 
# 
# 
# High freq. dielectric constant tensor:
#      x y z
#    x 1.675310 0.000000 0.016320 
#    y 0.000000 1.719440 0.000000 
#    z 0.016320 0.000000 1.697300 
# 
# From -- ./inp_files/185746.got.cif
#   From: 2010.06.25/outbox.cif.g09.slc.cpg/sg12_93_cif.got.tgz:185746.got - 2010.06.28 00:19:55.
