data_PCOD8086035
_publ_section_title
;
Structure prediction by ZEFSAII (Michael W. Deem and Ramdas Pophale) SiO2 
 PCOD8086035
Probable space group: C 2/M
;
_chemical_formula_sum "Si O2"
_cell_formula_units_Z 56
_cell_length_a 31.241350
_cell_length_b 9.445474
_cell_length_c 11.858084
_cell_angle_alpha 90.000000
_cell_angle_beta 62.842763
_cell_angle_gamma 90.000000
_cell_volume 3113.433709
_symmetry_space_group_name_H-M "C 2/M"
_symmetry_group_IT_number 12
_symmetry_cell_setting 'monoclinic'
loop_
_space_group_symop_operation_xyz
x,y,z
-x,y,-z
-x,-y,-z
x,-y,z
1/2+x,1/2+y,z
1/2-x,1/2+y,-z
1/2-x,1/2-y,-z
1/2+x,1/2-y,z
loop_
_atom_site_type_symbol
_atom_site_label
_atom_site_fract_x
_atom_site_fract_y
_atom_site_fract_z
Si Si1 0.130601 0.837188 0.951134
Si Si2 0.706495 0.662700 0.682466
Si Si3 0.478009 0.164725 0.300568
Si Si4 0.897828 0.334686 0.567511
Si Si5 0.587436 0.831360 0.200692
Si Si6 0.452477 0.335861 0.122146
Si Si7 0.814594 0.665903 0.507073
O O1 0.182814 0.807365 0.833248
O O2 0.092359 0.797496 0.901453
O O3 0.124741 0.000000 0.996182
O O4 0.123498 0.738407 0.067862
O O5 0.697873 0.500000 0.657798
O O6 0.762845 0.697913 0.625215
O O7 0.680946 0.757000 0.618150
O O8 0.450172 0.195284 0.450786
O O9 0.532737 0.218719 0.243890
O O10 0.448663 0.246829 0.240440
O O11 0.476495 0.000000 0.271886
O O12 0.888273 0.500000 0.588132
O O13 0.897268 0.272794 0.694717
O O14 0.854797 0.270267 0.543240
O O15 0.591532 0.000000 0.187457
O O16 0.454011 0.500000 0.153252
O O17 0.500000 0.287952 0.000000
O O18 0.822576 0.500000 0.475281
#
# Coordination Sequence:
#
# PCOD8086035 Si02
#       7
#     8   8   8   8   8   8   8
#     4  10  20  34  49  68  99 132 159 191 238 287
#     4   9  18  32  52  76  99 124 153 193 243 287
#     4  10  19  31  50  73  95 123 161 202 239 278
#     4   9  18  33  51  71  96 126 159 198 242 281
#     4  10  20  33  49  69  96 129 164 198 232 278
#     4  10  19  31  47  67  96 129 156 189 236 285
#     4   9  17  32  54  76  97 122 156 196 238 286
#
# _framework density 17.986573
#
# number of rings (size 3 to 8) (size 9 to 14) (size 15 to 20)
#    0.000    2.429    1.429    1.286    0.000    3.143 
#    0.000    2.143    0.000    1.714    0.000    0.000 
#    0.000    0.000    0.000    0.000    0.000    0.000 
#
# Total GULP energy -347205.479665 kJ/mol
# GULP energy per Si atom -12400.195702 kJ/mol
# Density = 1.794563 g / cm^3
# Si number density = 17.986573 Si / 1000 Ang^3
#
#
#
# Elastic Constant Matrix: (Units=GPa)
#
#
# Indices 1 2 3 4 5 6 
#
# 1 62.6411 20.6203 38.4534 0.0000 2.5063 0.0000
# 2 20.6203 37.7887 39.6357 0.0000 6.3979 0.0000
# 3 38.4534 39.6357 121.4677 0.0000 5.4361 0.0000
# 4 0.0000 0.0000 0.0000 22.9027 0.0000 -1.2824
# 5 2.5063 6.3979 5.4361 0.0000 28.3222 0.0000
# 6 0.0000 0.0000 0.0000 -1.2824 0.0000 17.6224
#
#
#
# Elastic Compliance Matrix: (Units=1/GPa)
#
#
# Indices 1 2 3 4 5 6 
#
# 1 0.020909 -0.006893 -0.004394 0.000000 0.000550 0.000000
# 2 -0.006893 0.043777 -0.011789 0.000000 -0.007016 0.000000
# 3 -0.004394 -0.011789 0.013449 0.000000 0.000470 0.000000
# 4 0.000000 0.000000 0.000000 0.043842 0.000000 0.003190
# 5 0.000550 -0.007016 0.000470 0.000000 0.036754 0.000000
# 6 0.000000 0.000000 0.000000 0.003190 0.000000 0.056978
#
#
# Mechanical properties :
#
#
# Convention : Reuss Voigt Hill
#
# Bulk Modulus (GPa) = 31.26691 46.59073 38.92882
# Shear Modulus (GPa) = 18.34711 21.98197 20.16454
#
# Velocity S-wave (km/s) = 3.19728 3.49969 3.35190
# Velocity P-wave (km/s) = 5.57237 6.50306 6.05562
#
# Compressibility (1/GPa) = 0.03198269
#
# Stress axis : x y z
#
# Youngs Moduli (GPa) = 47.82703 22.84302 74.35270
#
# Poissons Ratio (x) = 0.15746 0.32674
# Poissons Ratio (y) = 0.32969 0.87651
# Poissons Ratio (z) = 0.21017 0.26929
#
# Static dielectric constant tensor:
#      x y z
#    x 3.444220 0.000000 -0.066460 
#    y 0.000000 3.097910 0.000000 
#    z -0.066460 0.000000 3.395810 
# 
# 
# High freq. dielectric constant tensor:
#      x y z
#    x 1.691530 0.000000 -0.008910 
#    y 0.000000 1.673300 0.000000 
#    z -0.008910 0.000000 1.700280 
# 
# From -- ./inp_files/186429.got.cif
#   From: 2010.06.25/outbox.cif.g09.slc.cpg/sg12_94_cif.got.tgz:186429.got - 2010.06.28 00:19:55.
