data_PCOD8086255
_publ_section_title
;
Structure prediction by ZEFSAII (Michael W. Deem and Ramdas Pophale) SiO2 
 PCOD8086255
Probable space group: C 2/M
;
_chemical_formula_sum "Si O2"
_cell_formula_units_Z 64
_cell_length_a 30.354740
_cell_length_b 9.146686
_cell_length_c 22.471534
_cell_angle_alpha 90.000000
_cell_angle_beta 31.705535
_cell_angle_gamma 90.000000
_cell_volume 3278.990978
_symmetry_space_group_name_H-M "C 2/M"
_symmetry_group_IT_number 12
_symmetry_cell_setting 'monoclinic'
loop_
_space_group_symop_operation_xyz
x,y,z
-x,y,-z
-x,-y,-z
x,-y,z
1/2+x,1/2+y,z
1/2-x,1/2+y,-z
1/2-x,1/2-y,-z
1/2+x,1/2-y,z
loop_
_atom_site_type_symbol
_atom_site_label
_atom_site_fract_x
_atom_site_fract_y
_atom_site_fract_z
Si Si1 0.861333 0.672338 0.024522
Si Si2 0.990151 0.831480 0.325530
Si Si3 0.399904 0.838846 0.704782
Si Si4 0.271496 0.339287 0.032055
Si Si5 0.305611 0.671456 0.717237
Si Si6 0.991005 0.829479 0.188191
Si Si7 0.694209 0.668596 0.419245
Si Si8 0.798641 0.827973 0.391333
O O1 0.870416 0.500000 0.010873
O O2 0.953669 0.743710 0.925786
O O3 0.839230 0.739837 0.986257
O O4 0.789282 0.719031 0.154418
O O5 0.011984 0.784505 0.232844
O O6 0.891621 0.805274 0.447097
O O7 0.040079 0.739597 0.317154
O O8 0.012927 0.000000 0.310687
O O9 0.309579 0.860386 0.835873
O O10 0.382433 0.747219 0.664595
O O11 0.437090 0.000000 0.646787
O O12 0.309546 0.500000 0.973056
O O13 0.250000 0.250000 0.000000
O O14 0.316430 0.500000 0.716070
O O15 0.317101 0.716924 0.635967
O O16 0.895845 0.787919 0.283535
O O17 0.007476 0.000000 0.160098
O O18 0.722677 0.500000 0.390262
O O19 0.765380 0.769189 0.366427
O O20 0.750000 0.750000 0.500000
O O21 0.783201 0.000000 0.414484
#
# Coordination Sequence:
#
# PCOD8086255 Si02
#       8
#     8   8   8   8   8   8   8   8
#     4  10  20  34  54  81 108 144 188 231 279 329
#     4  10  20  35  55  80 112 147 187 229 280 338
#     4  10  21  34  50  77 112 147 188 232 278 328
#     4  10  19  31  48  72 104 145 187 231 279 331
#     4   9  20  39  60  79 109 152 195 232 275 331
#     4  10  21  37  57  84 116 148 182 226 281 342
#     4  10  21  40  62  84 110 147 191 235 281 335
#     4  11  22  39  62  89 117 146 183 227 283 340
#
# _framework density 19.5182
#
# number of rings (size 3 to 8) (size 9 to 14) (size 15 to 20)
#    0.000    2.000    1.250    2.250    0.000    7.000 
#    0.000    3.125    0.000    3.750    0.000    0.000 
#    0.000    0.000    0.000    0.000    0.000    0.000 
#
# Total GULP energy -396625.994832 kJ/mol
# GULP energy per Si atom -12394.562339 kJ/mol
# Density = 1.947378 g / cm^3
# Si number density = 19.518200 Si / 1000 Ang^3
#
#
#
# Elastic Constant Matrix: (Units=GPa)
#
#
# Indices 1 2 3 4 5 6 
#
# 1 81.3296 28.7653 1.2184 -0.0081 -8.1063 0.0062
# 2 28.7653 67.7088 18.0257 -0.0104 -10.4468 0.0061
# 3 1.2184 18.0257 43.7506 -0.0203 -4.6260 0.0106
# 4 -0.0081 -0.0104 -0.0203 28.9608 0.0077 -5.1216
# 5 -8.1063 -10.4468 -4.6260 0.0077 29.2404 -0.0026
# 6 0.0062 0.0061 0.0106 -5.1216 -0.0026 35.1491
#
#
#
# Elastic Compliance Matrix: (Units=1/GPa)
#
#
# Indices 1 2 3 4 5 6 
#
# 1 0.014821 -0.006646 0.002552 0.000003 0.002138 -0.000002
# 2 -0.006646 0.020298 -0.007735 -0.000001 0.004186 0.000000
# 3 0.002552 -0.007735 0.026193 0.000015 0.002088 -0.000005
# 4 0.000003 -0.000001 0.000015 0.035443 -0.000006 0.005164
# 5 0.002138 0.004186 0.002088 -0.000006 0.036618 0.000000
# 6 -0.000002 0.000000 -0.000005 0.005164 0.000000 0.029203
#
#
# Mechanical properties :
#
#
# Convention : Reuss Voigt Hill
#
# Bulk Modulus (GPa) = 26.55828 32.08974 29.32401
# Shear Modulus (GPa) = 25.15270 28.32202 26.73736
#
# Velocity S-wave (km/s) = 3.59371 3.81341 3.70519
# Velocity P-wave (km/s) = 5.55483 5.98883 5.77591
#
# Compressibility (1/GPa) = 0.03765304
#
# Stress axis : x y z
#
# Youngs Moduli (GPa) = 67.47126 49.26674 38.17743
#
# Poissons Ratio (x) = 0.32742 -0.09741
# Poissons Ratio (y) = 0.44841 0.29531
# Poissons Ratio (z) = -0.17215 0.38109
#
# Static dielectric constant tensor:
#      x y z
#    x 3.489640 -0.000010 -0.107070 
#    y -0.000010 3.665510 0.000040 
#    z -0.107070 0.000040 3.636850 
# 
# 
# High freq. dielectric constant tensor:
#      x y z
#    x 1.747980 0.000000 -0.006880 
#    y 0.000000 1.762240 0.000000 
#    z -0.006880 0.000000 1.764950 
# 
# From -- ./inp_files/353394.got.cif
#   From: 2010.06.25/outbox.cif.g09.slc.cpg/sg12_177_cif.got.tgz:353394.got - 2010.06.28 00:19:55.
