data_PCOD8086966
_publ_section_title
;
Structure prediction by ZEFSAII (Michael W. Deem and Ramdas Pophale) SiO2 
 PCOD8086966
Probable space group: C 2/M
;
_chemical_formula_sum "Si O2"
_cell_formula_units_Z 48
_cell_length_a 29.919465
_cell_length_b 14.302074
_cell_length_c 13.048854
_cell_angle_alpha 90.000000
_cell_angle_beta 153.837573
_cell_angle_gamma 90.000000
_cell_volume 2461.968064
_symmetry_space_group_name_H-M "C 2/M"
_symmetry_group_IT_number 12
_symmetry_cell_setting 'monoclinic'
loop_
_space_group_symop_operation_xyz
x,y,z
-x,y,-z
-x,-y,-z
x,-y,z
1/2+x,1/2+y,z
1/2-x,1/2+y,-z
1/2-x,1/2-y,-z
1/2+x,1/2-y,z
loop_
_atom_site_type_symbol
_atom_site_label
_atom_site_fract_x
_atom_site_fract_y
_atom_site_fract_z
Si Si1 0.274386 0.284353 0.663689
Si Si2 0.898830 0.105759 0.228334
Si Si3 0.396690 0.786227 0.092156
Si Si4 0.538716 0.601091 0.965555
Si Si5 0.597408 0.743530 0.436005
Si Si6 0.229914 0.893117 0.845130
O O1 0.250000 0.250000 0.500000
O O2 0.338179 0.207638 0.861854
O O3 0.340941 0.377539 0.789810
O O4 0.169891 0.303793 0.510821
O O5 0.799709 0.113767 0.096688
O O6 0.000000 0.130275 0.500000
O O7 0.907171 0.000000 0.201213
O O8 0.885386 0.178440 0.108255
O O9 0.346143 0.859370 0.067609
O O10 0.516930 0.811277 0.329566
O O11 0.522039 0.500000 0.879745
O O12 0.500000 0.599449 0.000000
O O13 0.475924 0.678428 0.779234
O O14 0.658950 0.678341 0.638856
O O15 0.216723 0.000000 0.778818
#
# Coordination Sequence:
#
# PCOD8086966 Si02
#       6
#     8   8   8   8   8   8
#     4  10  20  35  51  76 110 144 178 222 274 322
#     4  10  19  34  58  85 112 142 179 228 279 325
#     4  10  21  33  55  83 110 144 186 226 273 327
#     4  10  19  31  52  79 103 133 178 231 272 313
#     4  10  19  34  54  79 107 147 179 225 271 326
#     4  10  20  35  56  82 111 145 181 222 271 330
#
# _framework density 19.496597000000001
#
# number of rings (size 3 to 8) (size 9 to 14) (size 15 to 20)
#    0.000    2.000    3.333    1.000    0.000    2.667 
#    0.000    0.833    0.000    1.500    0.000    4.667 
#    0.000    0.000    0.000    0.000    0.000    0.000 
#
# Total GULP energy -297394.694601 kJ/mol
# GULP energy per Si atom -12391.445608 kJ/mol
# Density = 1.945222 g / cm^3
# Si number density = 19.496597 Si / 1000 Ang^3
#
#
#
# Elastic Constant Matrix: (Units=GPa)
#
#
# Indices 1 2 3 4 5 6 
#
# 1 117.0365 27.5987 43.2059 0.0000 38.0511 0.0000
# 2 27.5987 39.3215 20.9445 0.0000 11.6911 0.0000
# 3 43.2059 20.9445 75.6557 0.0000 25.3350 0.0000
# 4 0.0000 0.0000 0.0000 20.3561 0.0000 12.9978
# 5 38.0511 11.6911 25.3350 0.0000 51.1249 0.0000
# 6 0.0000 0.0000 0.0000 12.9978 0.0000 21.9252
#
#
#
# Elastic Compliance Matrix: (Units=1/GPa)
#
#
# Indices 1 2 3 4 5 6 
#
# 1 0.013484 -0.005331 -0.003923 0.000000 -0.006873 0.000000
# 2 -0.005331 0.032401 -0.005723 0.000000 -0.000606 0.000000
# 3 -0.003923 -0.005723 0.018736 0.000000 -0.005056 0.000000
# 4 0.000000 0.000000 0.000000 0.079047 0.000000 -0.046861
# 5 -0.006873 -0.000606 -0.005056 0.000000 0.027319 0.000000
# 6 0.000000 0.000000 0.000000 -0.046861 0.000000 0.073390
#
#
# Mechanical properties :
#
#
# Convention : Reuss Voigt Hill
#
# Bulk Modulus (GPa) = 28.84569 46.16799 37.50684
# Shear Modulus (GPa) = 17.48939 28.03221 22.76080
#
# Velocity S-wave (km/s) = 2.99833 3.79595 3.42047
# Velocity P-wave (km/s) = 5.17822 6.55315 5.90583
#
# Compressibility (1/GPa) = 0.03466722
#
# Stress axis : x y z
#
# Youngs Moduli (GPa) = 74.16013 30.86286 53.37420
#
# Poissons Ratio (x) = 0.16453 0.20941
# Poissons Ratio (y) = 0.39536 0.30544
# Poissons Ratio (z) = 0.29096 0.17662
#
# Static dielectric constant tensor:
#      x y z
#    x 3.705210 0.000000 0.245430 
#    y 0.000000 3.573120 0.000000 
#    z 0.245430 0.000000 3.614580 
# 
# 
# High freq. dielectric constant tensor:
#      x y z
#    x 1.785980 0.000000 0.014700 
#    y 0.000000 1.718190 0.000000 
#    z 0.014700 0.000000 1.750400 
# 
# From -- ./inp_files/131150.got.cif
#   From: 2010.06.25/outbox.cif.g09.slc.cpg/sg12_66_cif.got.tgz:131150.got - 2010.06.28 00:19:55.
