data_PCOD8086559
_publ_section_title
;
Structure prediction by ZEFSAII (Michael W. Deem and Ramdas Pophale) SiO2 
 PCOD8086559
Probable space group: C 2/M
;
_chemical_formula_sum "Si O2"
_cell_formula_units_Z 56
_cell_length_a 19.571348
_cell_length_b 8.938742
_cell_length_c 20.353143
_cell_angle_alpha 90.000000
_cell_angle_beta 61.154026
_cell_angle_gamma 90.000000
_cell_volume 3118.839235
_symmetry_space_group_name_H-M "C 2/M"
_symmetry_group_IT_number 12
_symmetry_cell_setting 'monoclinic'
loop_
_space_group_symop_operation_xyz
x,y,z
-x,y,-z
-x,-y,-z
x,-y,z
1/2+x,1/2+y,z
1/2-x,1/2+y,-z
1/2-x,1/2-y,-z
1/2+x,1/2-y,z
loop_
_atom_site_type_symbol
_atom_site_label
_atom_site_fract_x
_atom_site_fract_y
_atom_site_fract_z
Si Si1 0.638019 0.675327 0.581992
Si Si2 0.757483 0.322848 0.124901
Si Si3 0.276710 0.323351 0.586693
Si Si4 0.319913 0.324281 0.707154
Si Si5 0.471050 0.676890 0.709737
Si Si6 0.576333 0.176794 0.001752
Si Si7 0.107036 0.322992 0.135749
O O1 0.649480 0.500000 0.586637
O O2 0.658550 0.722122 0.497657
O O3 0.693206 0.758294 0.607320
O O4 0.551073 0.726950 0.638996
O O5 0.749720 0.500000 0.116862
O O6 0.743077 0.280565 0.207936
O O7 0.692408 0.246356 0.109103
O O8 0.843457 0.261866 0.067649
O O9 0.268202 0.500000 0.595079
O O10 0.299956 0.251117 0.646071
O O11 0.322336 0.500000 0.696080
O O12 0.404543 0.267848 0.690547
O O13 0.466400 0.500000 0.724715
O O14 0.458428 0.759377 0.784730
O O15 0.576564 0.223163 0.077854
O O16 0.575040 0.000000 0.994031
O O17 0.500000 0.244833 0.000000
O O18 0.113929 0.500000 0.140212
#
# Coordination Sequence:
#
# PCOD8086559 Si02
#       7
#     8   8   8   8   8   8   8
#     4   9  18  31  47  68  95 126 155 187 232 280
#     4   9  17  32  52  70  94 126 154 186 232 282
#     4   9  17  30  48  70  95 122 155 192 228 273
#     4   8  15  28  48  71  90 117 157 193 225 265
#     4   9  18  33  50  68  93 124 157 192 232 276
#     4   9  18  31  48  72  98 123 155 193 230 271
#     4  10  19  31  50  73  94 120 156 195 232 273
#
# _framework density 17.955397000000001
#
# number of rings (size 3 to 8) (size 9 to 14) (size 15 to 20)
#    0.000    3.000    0.000    1.714    0.000    2.286 
#    0.000    9.286    0.000    3.857    0.000    8.000 
#    0.000    0.000    0.000    0.000    0.000    0.000 
#
# Total GULP energy -347094.185934 kJ/mol
# GULP energy per Si atom -12396.220926 kJ/mol
# Density = 1.791453 g / cm^3
# Si number density = 17.955397 Si / 1000 Ang^3
#
#
#
# Elastic Constant Matrix: (Units=GPa)
#
#
# Indices 1 2 3 4 5 6 
#
# 1 124.1368 32.3070 96.3832 0.0000 10.9924 -0.0003
# 2 32.3070 25.4822 31.6972 0.0000 1.4240 -0.0013
# 3 96.3832 31.6972 139.0834 0.0000 10.9904 0.0000
# 4 0.0000 0.0000 0.0000 21.7403 0.0000 0.3487
# 5 10.9924 1.4240 10.9904 0.0000 36.1642 -0.0001
# 6 -0.0003 -0.0013 0.0000 0.3487 -0.0001 23.5403
#
#
#
# Elastic Compliance Matrix: (Units=1/GPa)
#
#
# Indices 1 2 3 4 5 6 
#
# 1 0.019594 -0.011229 -0.010844 0.000000 -0.002218 0.000000
# 2 -0.011229 0.061304 -0.006423 0.000000 0.002951 0.000003
# 3 -0.010844 -0.006423 0.016279 0.000000 -0.001398 0.000000
# 4 0.000000 0.000000 0.000000 0.046008 0.000000 -0.000681
# 5 -0.002218 0.002951 -0.001398 0.000000 0.028635 0.000000
# 6 0.000000 0.000003 0.000000 -0.000681 0.000000 0.042490
#
#
# Mechanical properties :
#
#
# Convention : Reuss Voigt Hill
#
# Bulk Modulus (GPa) = 24.88481 67.71970 46.30226
# Shear Modulus (GPa) = 17.56251 24.84332 21.20292
#
# Velocity S-wave (km/s) = 3.13088 3.72373 3.44010
# Velocity P-wave (km/s) = 5.19223 7.50237 6.45154
#
# Compressibility (1/GPa) = 0.04018515
#
# Stress axis : x y z
#
# Youngs Moduli (GPa) = 51.03577 16.31217 61.42876
#
# Poissons Ratio (x) = 0.18317 0.66614
# Poissons Ratio (y) = 0.57308 0.39454
# Poissons Ratio (z) = 0.55344 0.10477
#
# Static dielectric constant tensor:
#      x y z
#    x 3.522700 0.000000 0.049190 
#    y 0.000000 3.004530 0.000000 
#    z 0.049190 0.000000 3.643940 
# 
# 
# High freq. dielectric constant tensor:
#      x y z
#    x 1.693790 0.000000 0.000250 
#    y 0.000000 1.661060 0.000000 
#    z 0.000250 0.000000 1.707660 
# 
# From -- ./inp_files/319009.got.cif
#   From: 2010.06.25/outbox.cif.g09.slc.cpg/sg12_160_cif.got.tgz:319009.got - 2010.06.28 00:19:55.
