data_PCOD8086738
_publ_section_title
;
Structure prediction by ZEFSAII (Michael W. Deem and Ramdas Pophale) SiO2 
 PCOD8086738
Probable space group: C 2/M
;
_chemical_formula_sum "Si O2"
_cell_formula_units_Z 64
_cell_length_a 23.974781
_cell_length_b 9.099909
_cell_length_c 16.760299
_cell_angle_alpha 90.000000
_cell_angle_beta 86.373263
_cell_angle_gamma 90.000000
_cell_volume 3649.243429
_symmetry_space_group_name_H-M "C 2/M"
_symmetry_group_IT_number 12
_symmetry_cell_setting 'monoclinic'
loop_
_space_group_symop_operation_xyz
x,y,z
-x,y,-z
-x,-y,-z
x,-y,z
1/2+x,1/2+y,z
1/2-x,1/2+y,-z
1/2-x,1/2-y,-z
1/2+x,1/2-y,z
loop_
_atom_site_type_symbol
_atom_site_label
_atom_site_fract_x
_atom_site_fract_y
_atom_site_fract_z
Si Si1 0.419255 0.673639 0.064227
Si Si2 0.149298 0.670688 0.550755
Si Si3 0.559961 0.325862 0.279649
Si Si4 0.718120 0.330429 0.674481
Si Si5 0.550044 0.167689 0.672639
Si Si6 0.540409 0.673434 0.105670
Si Si7 0.846190 0.331455 0.631527
Si Si8 0.359847 0.171847 0.202666
O O1 0.411298 0.500000 0.077299
O O2 0.478133 0.731677 0.093965
O O3 0.370009 0.758927 0.114514
O O4 0.417630 0.717355 0.970322
O O5 0.166209 0.500000 0.557881
O O6 0.194839 0.763998 0.594480
O O7 0.087245 0.697241 0.590854
O O8 0.150247 0.723762 0.459760
O O9 0.560259 0.500000 0.282251
O O10 0.503650 0.271271 0.327519
O O11 0.562097 0.265074 0.188261
O O12 0.614045 0.267751 0.319053
O O13 0.700196 0.500000 0.680270
O O14 0.784320 0.311242 0.670639
O O15 0.694420 0.246230 0.753609
O O16 0.586715 0.205941 0.746931
O O17 0.529384 0.000000 0.677413
O O18 0.535978 0.500000 0.108970
O O19 0.865928 0.500000 0.634947
O O20 0.348016 0.000000 0.195901
#
# Coordination Sequence:
#
# PCOD8086738 Si02
#       8
#     8   8   8   8   8   8   8   8
#     4   9  15  29  52  75 103 134 167 205 249 303
#     4   9  19  36  56  76 101 130 165 213 262 302
#     4  11  21  33  51  74 103 137 173 209 244 296
#     4  10  20  34  55  78  99 129 171 214 255 300
#     4   9  18  32  49  71 101 136 165 198 252 306
#     4   8  16  29  48  75 104 135 166 204 252 297
#     4  10  22  38  53  72 100 137 173 207 256 308
#     4  10  19  31  50  78 108 134 164 207 258 301
#
# _framework density 17.537882
#
# number of rings (size 3 to 8) (size 9 to 14) (size 15 to 20)
#    0.000    2.500    1.250    3.000    0.000    4.000 
#    0.000    5.000    0.000    0.750    0.000    0.000 
#    0.000    0.000    0.000    0.000    0.000    0.000 
#
# Total GULP energy -396791.572188 kJ/mol
# GULP energy per Si atom -12399.736631 kJ/mol
# Density = 1.749796 g / cm^3
# Si number density = 17.537882 Si / 1000 Ang^3
#
#
#
# Elastic Constant Matrix: (Units=GPa)
#
#
# Indices 1 2 3 4 5 6 
#
# 1 71.1343 39.1897 30.1498 0.0000 -8.1446 0.0000
# 2 39.1897 73.8230 31.6173 0.0000 -7.7870 0.0000
# 3 30.1498 31.6173 77.7586 0.0000 -26.3696 0.0000
# 4 0.0000 0.0000 0.0000 26.1363 0.0000 -1.2441
# 5 -8.1446 -7.7870 -26.3696 0.0000 19.3609 0.0000
# 6 0.0000 0.0000 0.0000 -1.2441 0.0000 27.3779
#
#
#
# Elastic Compliance Matrix: (Units=1/GPa)
#
#
# Indices 1 2 3 4 5 6 
#
# 1 0.021058 -0.009224 -0.004958 0.000000 -0.001605 0.000000
# 2 -0.009224 0.020669 -0.006178 0.000000 -0.003981 0.000000
# 3 -0.004958 -0.006178 0.029259 0.000000 0.035281 0.000000
# 4 0.000000 0.000000 0.000000 0.038344 0.000000 0.001742
# 5 -0.001605 -0.003981 0.035281 0.000000 0.097426 0.000000
# 6 0.000000 0.000000 0.000000 0.001742 0.000000 0.036605
#
#
# Mechanical properties :
#
#
# Convention : Reuss Voigt Hill
#
# Bulk Modulus (GPa) = 33.04187 47.18106 40.11147
# Shear Modulus (GPa) = 16.99701 22.69229 19.84465
#
# Velocity S-wave (km/s) = 3.11651 3.60099 3.36747
# Velocity P-wave (km/s) = 5.64193 6.65209 6.16772
#
# Compressibility (1/GPa) = 0.03026463
#
# Stress axis : x y z
#
# Youngs Moduli (GPa) = 47.48865 48.38268 34.17734
#
# Poissons Ratio (x) = 0.44630 0.16947
# Poissons Ratio (y) = 0.43805 0.21113
# Poissons Ratio (z) = 0.23547 0.29889
#
# Static dielectric constant tensor:
#      x y z
#    x 2.991680 0.000000 -0.112030 
#    y 0.000000 3.153570 0.000000 
#    z -0.112030 0.000000 3.510910 
# 
# 
# High freq. dielectric constant tensor:
#      x y z
#    x 1.651480 0.000000 -0.018550 
#    y 0.000000 1.671220 0.000000 
#    z -0.018550 0.000000 1.684510 
# 
# From -- ./inp_files/287504.got.cif
#   From: 2010.06.25/outbox.cif.g09.slc.cpg/sg12_144_cif.got.tgz:287504.got - 2010.06.28 00:19:55.
