data_PCOD8086321
_publ_section_title
;
Structure prediction by ZEFSAII (Michael W. Deem and Ramdas Pophale) SiO2 
 PCOD8086321
Probable space group: C 2/M
;
_chemical_formula_sum "Si O2"
_cell_formula_units_Z 48
_cell_length_a 24.080695
_cell_length_b 8.801287
_cell_length_c 14.247026
_cell_angle_alpha 90.000000
_cell_angle_beta 69.130213
_cell_angle_gamma 90.000000
_cell_volume 2821.426502
_symmetry_space_group_name_H-M "C 2/M"
_symmetry_group_IT_number 12
_symmetry_cell_setting 'monoclinic'
loop_
_space_group_symop_operation_xyz
x,y,z
-x,y,-z
-x,-y,-z
x,-y,z
1/2+x,1/2+y,z
1/2-x,1/2+y,-z
1/2-x,1/2-y,-z
1/2+x,1/2-y,z
loop_
_atom_site_type_symbol
_atom_site_label
_atom_site_fract_x
_atom_site_fract_y
_atom_site_fract_z
Si Si1 0.439307 0.168028 0.479425
Si Si2 0.168921 0.677018 0.984556
Si Si3 0.281094 0.176821 0.841889
Si Si4 0.516515 0.179692 0.266763
Si Si5 0.380081 0.322451 0.674820
Si Si6 0.456503 0.675284 0.939890
O O1 0.500000 0.161942 0.500000
O O2 0.457406 0.220629 0.363252
O O3 0.393666 0.282915 0.557332
O O4 0.410358 0.000000 0.494895
O O5 0.175139 0.500000 0.959067
O O6 0.213375 0.766752 0.889114
O O7 0.184520 0.714128 0.082604
O O8 0.102673 0.730658 0.003482
O O9 0.313471 0.269160 0.739263
O O10 0.281766 0.000000 0.817027
O O11 0.575908 0.233204 0.283071
O O12 0.509719 0.262990 0.172046
O O13 0.522521 0.000000 0.247925
O O14 0.387779 0.500000 0.686443
O O15 0.439639 0.500000 0.935030
O O16 0.500000 0.699813 0.000000
#
# Coordination Sequence:
#
# PCOD8086321 Si02
#       6
#     8   8   8   8   8   8
#     4   8  16  29  44  64  94 127 161 197 240 292
#     4  10  20  33  50  71  96 129 166 203 245 291
#     4  10  19  31  49  71 100 132 161 199 246 294
#     4  10  19  32  48  67  94 130 166 204 245 287
#     4  11  19  27  45  72 101 130 161 196 241 296
#     4  11  23  36  51  72  99 132 168 206 246 288
#
# _framework density 17.01267
#
# number of rings (size 3 to 8) (size 9 to 14) (size 15 to 20)
#    0.000    2.000    1.667    4.500    0.000    6.333 
#    0.000    0.000    0.000    0.000    0.000    1.167 
#    0.000    0.000    0.000    0.000    0.000    0.000 
#
# Total GULP energy -297602.167700 kJ/mol
# GULP energy per Si atom -12400.090321 kJ/mol
# Density = 1.697395 g / cm^3
# Si number density = 17.012670 Si / 1000 Ang^3
#
#
#
# Elastic Constant Matrix: (Units=GPa)
#
#
# Indices 1 2 3 4 5 6 
#
# 1 46.1419 19.8470 32.6390 0.0000 -9.4715 0.0000
# 2 19.8470 57.2430 30.6748 0.0000 -5.0425 0.0000
# 3 32.6390 30.6748 111.3945 0.0000 -18.3981 0.0000
# 4 0.0000 0.0000 0.0000 31.6516 0.0000 -6.3246
# 5 -9.4715 -5.0425 -18.3981 0.0000 22.7893 0.0000
# 6 0.0000 0.0000 0.0000 -6.3246 0.0000 21.9801
#
#
#
# Elastic Compliance Matrix: (Units=1/GPa)
#
#
# Indices 1 2 3 4 5 6 
#
# 1 0.030015 -0.006683 -0.005929 0.000000 0.006210 0.000000
# 2 -0.006683 0.021981 -0.004327 0.000000 -0.001407 0.000000
# 3 -0.005929 -0.004327 0.013086 0.000000 0.007143 0.000000
# 4 0.000000 0.000000 0.000000 0.033521 0.000000 0.009645
# 5 0.006210 -0.001407 0.007143 0.000000 0.051916 0.000000
# 6 0.000000 0.000000 0.000000 0.009645 0.000000 0.048271
#
#
# Mechanical properties :
#
#
# Convention : Reuss Voigt Hill
#
# Bulk Modulus (GPa) = 32.04670 42.34452 37.19561
# Shear Modulus (GPa) = 20.57026 24.05878 22.31452
#
# Velocity S-wave (km/s) = 3.48100 3.76462 3.62559
# Velocity P-wave (km/s) = 5.91898 6.62122 6.27992
#
# Compressibility (1/GPa) = 0.03120446
#
# Stress axis : x y z
#
# Youngs Moduli (GPa) = 33.31658 45.49319 76.41998
#
# Poissons Ratio (x) = 0.30401 0.45308
# Poissons Ratio (y) = 0.22264 0.33070
# Poissons Ratio (z) = 0.19753 0.19687
#
# Static dielectric constant tensor:
#      x y z
#    x 2.738030 0.000000 -0.277500 
#    y 0.000000 3.267990 0.000000 
#    z -0.277500 0.000000 3.593630 
# 
# 
# High freq. dielectric constant tensor:
#      x y z
#    x 1.600280 0.000000 -0.031960 
#    y 0.000000 1.671120 0.000000 
#    z -0.031960 0.000000 1.662150 
# 
# From -- ./inp_files/236619.got.cif
#   From: 2010.06.25/outbox.cif.g09.slc.cpg/sg12_119_cif.got.tgz:236619.got - 2010.06.28 00:19:55.
