data_PCOD8086602
_publ_section_title
;
Structure prediction by ZEFSAII (Michael W. Deem and Ramdas Pophale) SiO2 
 PCOD8086602
Probable space group: C 2/M
;
_chemical_formula_sum "Si O2"
_cell_formula_units_Z 48
_cell_length_a 32.707504
_cell_length_b 8.827417
_cell_length_c 10.149104
_cell_angle_alpha 90.000000
_cell_angle_beta 65.111510
_cell_angle_gamma 90.000000
_cell_volume 2658.138448
_symmetry_space_group_name_H-M "C 2/M"
_symmetry_group_IT_number 12
_symmetry_cell_setting 'monoclinic'
loop_
_space_group_symop_operation_xyz
x,y,z
-x,y,-z
-x,-y,-z
x,-y,z
1/2+x,1/2+y,z
1/2-x,1/2+y,-z
1/2-x,1/2-y,-z
1/2+x,1/2-y,z
loop_
_atom_site_type_symbol
_atom_site_label
_atom_site_fract_x
_atom_site_fract_y
_atom_site_fract_z
Si Si1 0.110190 0.679018 0.571492
Si Si2 0.798958 0.167881 0.578174
Si Si3 0.477877 0.325571 0.388763
Si Si4 0.386407 0.679407 0.149016
Si Si5 0.712311 0.332548 0.718471
Si Si6 0.030732 0.322460 0.082508
O O1 0.104421 0.500000 0.573868
O O2 0.158825 0.724490 0.446577
O O3 0.103176 0.733331 0.730305
O O4 0.072375 0.758378 0.533560
O O5 0.753268 0.226505 0.710943
O O6 0.790905 0.165081 0.434218
O O7 0.809335 0.000000 0.617652
O O8 0.500000 0.307593 0.500000
O O9 0.476260 0.500000 0.345262
O O10 0.506591 0.228503 0.247484
O O11 0.388963 0.500000 0.172763
O O12 0.336450 0.723543 0.162609
O O13 0.422232 0.731923 0.991827
O O14 0.722953 0.500000 0.757539
O O15 0.040867 0.500000 0.074443
O O16 0.000000 0.279200 0.000000
#
# Coordination Sequence:
#
# PCOD8086602 Si02
#       6
#     8   8   8   8   8   8
#     4  11  20  31  49  73 102 136 173 215 262 311
#     4   9  16  26  42  65  96 134 170 207 255 308
#     4  11  24  40  57  77 103 138 179 221 264 312
#     4  10  19  31  50  74 103 138 174 215 259 307
#     4   8  15  26  40  65  98 131 167 208 256 303
#     4  11  22  35  54  81 107 138 176 216 264 315
#
# _framework density 18.057749999999999
#
# number of rings (size 3 to 8) (size 9 to 14) (size 15 to 20)
#    0.000    2.000    1.667    4.500    0.000    6.667 
#    0.000    0.000    0.000    0.000    0.000    1.167 
#    0.000    0.000    0.000    0.000    0.000    0.000 
#
# Total GULP energy -297581.143315 kJ/mol
# GULP energy per Si atom -12399.214305 kJ/mol
# Density = 1.801665 g / cm^3
# Si number density = 18.057750 Si / 1000 Ang^3
#
#
#
# Elastic Constant Matrix: (Units=GPa)
#
#
# Indices 1 2 3 4 5 6 
#
# 1 104.1738 40.6427 39.7652 0.0000 -31.4001 0.0000
# 2 40.6427 83.7321 21.9297 0.0000 -8.6332 0.0000
# 3 39.7652 21.9297 49.4955 0.0000 -17.1814 0.0000
# 4 0.0000 0.0000 0.0000 21.4738 0.0000 -11.2346
# 5 -31.4001 -8.6332 -17.1814 0.0000 29.6895 0.0000
# 6 0.0000 0.0000 0.0000 -11.2346 0.0000 30.3936
#
#
#
# Elastic Compliance Matrix: (Units=1/GPa)
#
#
# Indices 1 2 3 4 5 6 
#
# 1 0.019058 -0.005737 -0.007949 0.000000 0.013888 0.000000
# 2 -0.005737 0.015246 -0.003395 0.000000 -0.003599 0.000000
# 3 -0.007949 -0.003395 0.031076 0.000000 0.008590 0.000000
# 4 0.000000 0.000000 0.000000 0.057733 0.000000 0.021340
# 5 0.013888 -0.003599 0.008590 0.000000 0.052294 0.000000
# 6 0.000000 0.000000 0.000000 0.021340 0.000000 0.040790
#
#
# Mechanical properties :
#
#
# Convention : Reuss Voigt Hill
#
# Bulk Modulus (GPa) = 32.03246 49.11965 40.57606
# Shear Modulus (GPa) = 19.17453 25.31565 22.24509
#
# Velocity S-wave (km/s) = 3.26213 3.74829 3.51363
# Velocity P-wave (km/s) = 5.65386 6.78184 6.24338
#
# Compressibility (1/GPa) = 0.03121833
#
# Stress axis : x y z
#
# Youngs Moduli (GPa) = 52.47245 65.59298 32.17936
#
# Poissons Ratio (x) = 0.37629 0.25578
# Poissons Ratio (y) = 0.30102 0.10925
# Poissons Ratio (z) = 0.41708 0.22269
#
# Static dielectric constant tensor:
#      x y z
#    x 3.554920 0.000000 -0.425000 
#    y 0.000000 3.514310 0.000000 
#    z -0.425000 0.000000 3.006740 
# 
# 
# High freq. dielectric constant tensor:
#      x y z
#    x 1.697660 0.000000 -0.044180 
#    y 0.000000 1.714930 0.000000 
#    z -0.044180 0.000000 1.649940 
# 
# From -- ./inp_files/185736.got.cif
#   From: 2010.06.25/outbox.cif.g09.slc.cpg/sg12_93_cif.got.tgz:185736.got - 2010.06.28 00:19:55.
