data_PCOD8086530
_publ_section_title
;
Structure prediction by ZEFSAII (Michael W. Deem and Ramdas Pophale) SiO2 
 PCOD8086530
Probable space group: C 2/M
;
_chemical_formula_sum "Si O2"
_cell_formula_units_Z 56
_cell_length_a 24.633532
_cell_length_b 17.571494
_cell_length_c 17.089695
_cell_angle_alpha 90.000000
_cell_angle_beta 23.275659
_cell_angle_gamma 90.000000
_cell_volume 2923.058311
_symmetry_space_group_name_H-M "C 2/M"
_symmetry_group_IT_number 12
_symmetry_cell_setting 'monoclinic'
loop_
_space_group_symop_operation_xyz
x,y,z
-x,y,-z
-x,-y,-z
x,-y,z
1/2+x,1/2+y,z
1/2-x,1/2+y,-z
1/2-x,1/2-y,-z
1/2+x,1/2-y,z
loop_
_atom_site_type_symbol
_atom_site_label
_atom_site_fract_x
_atom_site_fract_y
_atom_site_fract_z
Si Si1 0.777314 0.728147 0.159055
Si Si2 0.651768 0.584275 0.092118
Si Si3 0.092624 0.662721 0.307734
Si Si4 0.125956 0.089531 0.773578
Si Si5 0.150371 0.914597 0.277309
Si Si6 0.535295 0.693298 0.753697
Si Si7 0.348302 0.202577 0.525016
O O1 0.672777 0.763381 0.233533
O O2 0.765588 0.637229 0.165931
O O3 0.737738 0.748921 0.299256
O O4 0.932306 0.753663 0.938885
O O5 0.602945 0.500000 0.131638
O O6 0.669713 0.590643 0.159927
O O7 0.541418 0.645484 0.211262
O O8 0.799662 0.598082 0.857451
O O9 0.000000 0.628333 0.500000
O O10 0.001686 0.685329 0.352924
O O11 0.267356 0.123024 0.621317
O O12 0.104161 0.133716 0.721210
O O13 0.145161 0.000000 0.731830
O O14 0.000000 0.103344 0.000000
O O15 0.000000 0.884545 0.500000
O O16 0.172079 0.000000 0.280128
O O17 0.643576 0.748399 0.566023
#
# Coordination Sequence:
#
# PCOD8086530 Si02
#       7
#     8   8   8   8   8   8   8
#     4  10  19  35  56  84 117 147 184 225 280 335
#     4  10  20  33  52  83 119 150 182 224 278 334
#     4   9  19  33  53  84 115 147 182 223 281 335
#     4  11  24  43  61  82 112 145 190 244 296 335
#     4  10  19  31  49  77 114 152 182 217 269 331
#     4  11  21  37  60  84 110 148 193 234 277 332
#     4  11  21  37  61  86 110 149 192 232 279 337
#
# _framework density 19.158017000000001
#
# number of rings (size 3 to 8) (size 9 to 14) (size 15 to 20)
#    0.000    1.714    1.429    4.714    0.000    3.143 
#    0.000    1.429    0.000    0.000    0.000    2.000 
#    0.000    0.000    0.000    0.000    0.000    0.000 
#
# Total GULP energy -347234.988878 kJ/mol
# GULP energy per Si atom -12401.249603 kJ/mol
# Density = 1.911441 g / cm^3
# Si number density = 19.158017 Si / 1000 Ang^3
#
#
#
# Elastic Constant Matrix: (Units=GPa)
#
#
# Indices 1 2 3 4 5 6 
#
# 1 72.0711 33.8546 24.2704 -0.0006 2.9047 0.0004
# 2 33.8546 109.9808 43.2671 -0.0007 4.8437 0.0004
# 3 24.2704 43.2671 84.5495 -0.0012 12.7105 0.0008
# 4 -0.0006 -0.0007 -0.0012 32.1730 0.0002 1.7719
# 5 2.9047 4.8437 12.7105 0.0002 21.7367 -0.0003
# 6 0.0004 0.0004 0.0008 1.7719 -0.0003 33.3340
#
#
#
# Elastic Compliance Matrix: (Units=1/GPa)
#
#
# Indices 1 2 3 4 5 6 
#
# 1 0.016703 -0.004071 -0.002755 0.000000 0.000286 0.000000
# 2 -0.004071 0.012394 -0.005307 0.000000 0.000885 0.000000
# 3 -0.002755 -0.005307 0.016556 0.000001 -0.008131 0.000000
# 4 0.000000 0.000000 0.000001 0.031173 -0.000001 -0.001657
# 5 0.000286 0.000885 -0.008131 -0.000001 0.050524 0.000001
# 6 0.000000 0.000000 0.000000 -0.001657 0.000001 0.030088
#
#
# Mechanical properties :
#
#
# Convention : Reuss Voigt Hill
#
# Bulk Modulus (GPa) = 46.75292 52.15396 49.45344
# Shear Modulus (GPa) = 26.47830 28.46269 27.47049
#
# Velocity S-wave (km/s) = 3.72169 3.85863 3.79078
# Velocity P-wave (km/s) = 6.55170 6.86544 6.71040
#
# Compressibility (1/GPa) = 0.02138904
#
# Stress axis : x y z
#
# Youngs Moduli (GPa) = 59.86791 80.68133 60.39965
#
# Poissons Ratio (x) = 0.32842 0.16638
# Poissons Ratio (y) = 0.24370 0.32056
# Poissons Ratio (z) = 0.16492 0.42820
#
# Static dielectric constant tensor:
#      x y z
#    x 3.408990 0.000000 0.162390 
#    y 0.000000 3.593130 0.000000 
#    z 0.162390 0.000000 3.612760 
# 
# 
# High freq. dielectric constant tensor:
#      x y z
#    x 1.733240 0.000000 0.017120 
#    y 0.000000 1.745190 0.000000 
#    z 0.017120 0.000000 1.746870 
# 
# From -- ./inp_files/145471.got.cif
#   From: 2010.06.25/outbox.cif.g09.slc.cpg/sg12_73_cif.got.tgz:145471.got - 2010.06.28 00:19:55.
