data_PCOD8086181
_publ_section_title
;
Structure prediction by ZEFSAII (Michael W. Deem and Ramdas Pophale) SiO2 
 PCOD8086181
Probable space group: C 2/M
;
_chemical_formula_sum "Si O2"
_cell_formula_units_Z 64
_cell_length_a 18.872945
_cell_length_b 8.851532
_cell_length_c 21.346742
_cell_angle_alpha 90.000000
_cell_angle_beta 91.066538
_cell_angle_gamma 90.000000
_cell_volume 3565.451002
_symmetry_space_group_name_H-M "C 2/M"
_symmetry_group_IT_number 12
_symmetry_cell_setting 'monoclinic'
loop_
_space_group_symop_operation_xyz
x,y,z
-x,y,-z
-x,-y,-z
x,-y,z
1/2+x,1/2+y,z
1/2-x,1/2+y,-z
1/2-x,1/2-y,-z
1/2+x,1/2-y,z
loop_
_atom_site_type_symbol
_atom_site_label
_atom_site_fract_x
_atom_site_fract_y
_atom_site_fract_z
Si Si1 0.279296 0.673825 0.635337
Si Si2 0.512951 0.677680 0.366152
Si Si3 0.172563 0.320585 0.009422
Si Si4 0.410777 0.680449 0.877276
Si Si5 0.876558 0.674265 0.400220
Si Si6 0.549804 0.332223 0.940749
Si Si7 0.114230 0.823267 0.260711
Si Si8 0.880783 0.677527 0.542989
O O1 0.297507 0.500000 0.619614
O O2 0.196294 0.702899 0.637272
O O3 0.311601 0.716666 0.703804
O O4 0.312024 0.773202 0.580627
O O5 0.521101 0.500000 0.370844
O O6 0.431809 0.726494 0.362323
O O7 0.551406 0.739645 0.304149
O O8 0.548270 0.747929 0.428673
O O9 0.179604 0.500000 0.010898
O O10 0.140454 0.261188 0.074003
O O11 0.250000 0.250000 0.000000
O O12 0.118142 0.274984 0.952172
O O13 0.400904 0.500000 0.885087
O O14 0.494679 0.723696 0.886127
O O15 0.388120 0.746009 0.808915
O O16 0.899483 0.500000 0.398563
O O17 0.870412 0.730860 0.471494
O O18 0.579185 0.500000 0.926265
O O19 0.500000 0.337399 0.000000
O O20 0.103762 0.000000 0.251785
O O21 0.889518 0.500000 0.547555
#
# Coordination Sequence:
#
# PCOD8086181 Si02
#       8
#     8   8   8   8   8   8   8   8
#     4   9  18  33  51  71  98 130 164 201 244 296
#     4  10  20  33  50  71  95 126 164 204 245 293
#     4  11  21  33  51  77 108 135 162 198 240 283
#     4   9  17  33  56  76  99 132 165 198 239 287
#     4  10  20  32  47  70  99 128 158 202 256 299
#     4   8  15  29  50  75 101 130 161 193 234 280
#     4   8  16  33  54  72  93 128 168 200 237 288
#     4  10  19  31  48  70  96 126 162 203 251 302
#
# _framework density 17.950043999999998
#
# number of rings (size 3 to 8) (size 9 to 14) (size 15 to 20)
#    0.000    2.625    0.000    4.125    0.000    5.250 
#    0.000    4.375    0.000    3.000    0.000    0.000 
#    0.000    0.000    0.000    0.000    0.000    0.000 
#
# Total GULP energy -396650.685455 kJ/mol
# GULP energy per Si atom -12395.333920 kJ/mol
# Density = 1.790919 g / cm^3
# Si number density = 17.950044 Si / 1000 Ang^3
#
#
#
# Elastic Constant Matrix: (Units=GPa)
#
#
# Indices 1 2 3 4 5 6 
#
# 1 138.2153 52.2500 63.3915 0.0000 11.7720 0.0000
# 2 52.2500 69.8896 35.1193 0.0000 0.9049 0.0000
# 3 63.3915 35.1193 115.7576 0.0000 16.8133 0.0000
# 4 0.0000 0.0000 0.0000 17.5251 0.0000 -1.4121
# 5 11.7720 0.9049 16.8133 0.0000 17.3075 0.0000
# 6 0.0000 0.0000 0.0000 -1.4121 0.0000 31.5898
#
#
#
# Elastic Compliance Matrix: (Units=1/GPa)
#
#
# Indices 1 2 3 4 5 6 
#
# 1 0.011984 -0.006966 -0.003863 0.000000 -0.004034 0.000000
# 2 -0.006966 0.021275 -0.003687 0.000000 0.007207 0.000000
# 3 -0.003863 -0.003687 0.013347 0.000000 -0.010145 0.000000
# 4 0.000000 0.000000 0.000000 0.057267 0.000000 0.002560
# 5 -0.004034 0.007207 -0.010145 0.000000 0.070000 0.000000
# 6 0.000000 0.000000 0.000000 0.002560 0.000000 0.031770
#
#
# Mechanical properties :
#
#
# Convention : Reuss Voigt Hill
#
# Bulk Modulus (GPa) = 56.90348 69.48713 63.19530
# Shear Modulus (GPa) = 20.78714 24.82458 22.80586
#
# Velocity S-wave (km/s) = 3.40671 3.72288 3.56830
# Velocity P-wave (km/s) = 6.87343 7.56804 7.22908
#
# Compressibility (1/GPa) = 0.01757362
#
# Stress axis : x y z
#
# Youngs Moduli (GPa) = 83.44581 47.00320 74.92592
#
# Poissons Ratio (x) = 0.32741 0.28947
# Poissons Ratio (y) = 0.58125 0.27624
# Poissons Ratio (z) = 0.32239 0.17329
#
# Static dielectric constant tensor:
#      x y z
#    x 3.469940 0.000000 0.280240 
#    y 0.000000 3.188900 0.000000 
#    z 0.280240 0.000000 3.496510 
# 
# 
# High freq. dielectric constant tensor:
#      x y z
#    x 1.698300 0.000000 0.015060 
#    y 0.000000 1.680700 0.000000 
#    z 0.015060 0.000000 1.678060 
# 
# From -- ./inp_files/341984.got.cif
#   From: 2010.06.25/outbox.cif.g09.slc.cpg/sg12_171_cif.got.tgz:341984.got - 2010.06.28 00:19:55.
