data_PCOD8086345
_publ_section_title
;
Structure prediction by ZEFSAII (Michael W. Deem and Ramdas Pophale) SiO2 
 PCOD8086345
Probable space group: C 2/M
;
_chemical_formula_sum "Si O2"
_cell_formula_units_Z 48
_cell_length_a 18.460003
_cell_length_b 8.934090
_cell_length_c 16.469414
_cell_angle_alpha 90.000000
_cell_angle_beta 73.661103
_cell_angle_gamma 90.000000
_cell_volume 2606.495942
_symmetry_space_group_name_H-M "C 2/M"
_symmetry_group_IT_number 12
_symmetry_cell_setting 'monoclinic'
loop_
_space_group_symop_operation_xyz
x,y,z
-x,y,-z
-x,-y,-z
x,-y,z
1/2+x,1/2+y,z
1/2-x,1/2+y,-z
1/2-x,1/2-y,-z
1/2+x,1/2-y,z
loop_
_atom_site_type_symbol
_atom_site_label
_atom_site_fract_x
_atom_site_fract_y
_atom_site_fract_z
Si Si1 0.261623 0.826629 0.766315
Si Si2 0.521956 0.176454 0.082999
Si Si3 0.356123 0.171095 0.402897
Si Si4 0.402189 0.676497 0.236812
Si Si5 0.310995 0.822229 0.922969
Si Si6 0.203338 0.672654 0.416668
O O1 0.177915 0.762647 0.772854
O O2 0.296986 0.756003 0.836584
O O3 0.318118 0.799135 0.671503
O O4 0.251466 0.000000 0.787305
O O5 0.469099 0.254182 0.164738
O O6 0.606841 0.229463 0.073719
O O7 0.512162 0.000000 0.095490
O O8 0.500000 0.230687 0.000000
O O9 0.409685 0.272126 0.329035
O O10 0.268830 0.210206 0.415950
O O11 0.366629 0.197092 0.497911
O O12 0.372120 0.000000 0.374403
O O13 0.408306 0.500000 0.231240
O O14 0.303581 0.000000 0.929483
O O15 0.250000 0.750000 0.000000
O O16 0.233058 0.500000 0.415527
#
# Coordination Sequence:
#
# PCOD8086345 Si02
#       6
#     8   8   8   8   8   8
#     4   8  15  29  48  70  94 122 158 195 230 270
#     4  10  21  35  50  71  98 124 153 193 239 283
#     4   9  15  24  42  68  97 125 154 193 237 276
#     4  10  19  31  49  71  96 126 160 196 231 276
#     4  10  20  34  52  71  94 123 154 192 234 279
#     4   8  14  25  42  66  95 125 158 194 231 275
#
# _framework density 18.415528999999999
#
# number of rings (size 3 to 8) (size 9 to 14) (size 15 to 20)
#    0.000    2.833    0.000    3.000    0.000    1.667 
#    0.000    3.333    0.000    1.000    0.000    7.000 
#    0.000    0.000    0.000    0.000    0.000    0.000 
#
# Total GULP energy -297335.102572 kJ/mol
# GULP energy per Si atom -12388.962607 kJ/mol
# Density = 1.837361 g / cm^3
# Si number density = 18.415529 Si / 1000 Ang^3
#
#
#
# Elastic Constant Matrix: (Units=GPa)
#
#
# Indices 1 2 3 4 5 6 
#
# 1 92.4199 24.2050 79.0269 0.0000 4.5351 0.0000
# 2 24.2050 25.1581 37.1917 0.0000 -4.0014 0.0000
# 3 79.0269 37.1917 207.7100 0.0000 6.2091 0.0000
# 4 0.0000 0.0000 0.0000 31.8127 0.0000 -4.8343
# 5 4.5351 -4.0014 6.2091 0.0000 26.6165 0.0000
# 6 0.0000 0.0000 0.0000 -4.8343 0.0000 12.2651
#
#
#
# Elastic Compliance Matrix: (Units=1/GPa)
#
#
# Indices 1 2 3 4 5 6 
#
# 1 0.017887 -0.010701 -0.004783 0.000000 -0.003540 0.000000
# 2 -0.010701 0.063513 -0.007695 0.000000 0.013167 0.000000
# 3 -0.004783 -0.007695 0.008079 0.000000 -0.002226 0.000000
# 4 0.000000 0.000000 0.000000 0.033437 0.000000 0.013179
# 5 -0.003540 0.013167 -0.002226 0.000000 0.040673 0.000000
# 6 0.000000 0.000000 0.000000 0.013179 0.000000 0.086727
#
#
# Mechanical properties :
#
#
# Convention : Reuss Voigt Hill
#
# Bulk Modulus (GPa) = 23.19060 67.34837 45.26948
# Shear Modulus (GPa) = 16.07476 26.46315 21.26896
#
# Velocity S-wave (km/s) = 2.95768 3.79489 3.40214
# Velocity P-wave (km/s) = 4.92789 7.47345 6.32995
#
# Compressibility (1/GPa) = 0.04312091
#
# Stress axis : x y z
#
# Youngs Moduli (GPa) = 55.90732 15.74470 123.78247
#
# Poissons Ratio (x) = 0.16848 0.59211
# Poissons Ratio (y) = 0.59825 0.95247
# Poissons Ratio (z) = 0.26743 0.12115
#
# Static dielectric constant tensor:
#      x y z
#    x 3.207570 0.000000 0.322130 
#    y 0.000000 3.212920 0.000000 
#    z 0.322130 0.000000 3.944120 
# 
# 
# High freq. dielectric constant tensor:
#      x y z
#    x 1.660650 0.000000 0.012810 
#    y 0.000000 1.698230 0.000000 
#    z 0.012810 0.000000 1.746050 
# 
# From -- ./inp_files/274074.got.cif
#   From: 2010.06.25/outbox.cif.g09.slc.cpg/sg12_138_cif.got.tgz:274074.got - 2010.06.28 00:19:55.
