data_PCOD8086689
_publ_section_title
;
Structure prediction by ZEFSAII (Michael W. Deem and Ramdas Pophale) SiO2 
 PCOD8086689
Probable space group: C 2/M
;
_chemical_formula_sum "Si O2"
_cell_formula_units_Z 52
_cell_length_a 5.255121
_cell_length_b 16.479170
_cell_length_c 28.567630
_cell_angle_alpha 90.000000
_cell_angle_beta 106.310550
_cell_angle_gamma 90.000000
_cell_volume 2374.389781
_symmetry_space_group_name_H-M "C 2/M"
_symmetry_group_IT_number 12
_symmetry_cell_setting 'monoclinic'
loop_
_space_group_symop_operation_xyz
x,y,z
-x,y,-z
-x,-y,-z
x,-y,z
1/2+x,1/2+y,z
1/2-x,1/2+y,-z
1/2-x,1/2-y,-z
1/2+x,1/2-y,z
loop_
_atom_site_type_symbol
_atom_site_label
_atom_site_fract_x
_atom_site_fract_y
_atom_site_fract_z
Si Si1 0.697124 0.096504 0.651441
Si Si2 0.563035 0.596566 0.872917
Si Si3 0.526946 0.095671 0.185198
Si Si4 0.218064 0.158320 0.979087
Si Si5 0.217223 0.403031 0.294449
Si Si6 0.733845 0.092455 0.549837
Si Si7 0.000000 0.196222 0.500000
O O1 0.472195 0.131946 0.674212
O O2 0.642979 0.127198 0.595462
O O3 0.984955 0.128770 0.682286
O O4 0.690878 0.000000 0.653433
O O5 0.581583 0.500000 0.884771
O O6 0.270869 0.623002 0.841686
O O7 0.628937 0.651657 0.921044
O O8 0.769830 0.624799 0.844116
O O9 0.613612 0.132274 0.239668
O O10 0.541283 0.000000 0.189554
O O11 0.500000 0.113165 0.000000
O O12 0.250000 0.250000 0.000000
O O13 0.000000 0.113185 0.000000
O O14 0.209317 0.500000 0.294235
O O15 0.500000 0.105677 0.500000
O O16 0.004347 0.136694 0.545664
O O17 0.818523 0.000000 0.559858
O O18 0.750000 0.250000 0.500000
#
# Coordination Sequence:
#
# PCOD8086689 Si02
#       7
#     8   8   8   8   8   8   4
#     4   9  18  29  48  77 111 147 184 225 283 343
#     4  10  19  31  50  76 105 142 178 214 266 324
#     4   9  17  29  47  73 110 143 174 219 273 328
#     4  10  21  36  52  72 105 134 175 214 255 308
#     4   9  16  28  45  72 111 146 173 221 281 334
#     4  10  22  39  61  88 123 161 202 254 306 361
#     4  12  25  42  59  82 120 152 210 250 297 360
#
# _framework density 21.900362999999999
#
# number of rings (size 3 to 8) (size 9 to 14) (size 15 to 20)
#    0.000    2.308    0.769    2.077    2.154    4.308 
#    0.000    0.000    0.000    0.000    0.000    0.000 
#   92.308    0.000    0.000    0.000    0.000    0.000 
#
# Total GULP energy -322156.464814 kJ/mol
# GULP energy per Si atom -12390.633262 kJ/mol
# Density = 2.185052 g / cm^3
# Si number density = 21.900363 Si / 1000 Ang^3
#
#
#
# Elastic Constant Matrix: (Units=GPa)
#
#
# Indices 1 2 3 4 5 6 
#
# 1 190.0004 11.3446 71.7311 0.0000 -23.5318 0.0000
# 2 11.3446 33.7312 17.4681 0.0000 -8.5055 0.0000
# 3 71.7311 17.4681 187.6361 0.0000 -18.4750 0.0000
# 4 0.0000 0.0000 0.0000 9.7150 0.0000 -9.2711
# 5 -23.5318 -8.5055 -18.4750 0.0000 45.5196 0.0000
# 6 0.0000 0.0000 0.0000 -9.2711 0.0000 15.9538
#
#
#
# Elastic Compliance Matrix: (Units=1/GPa)
#
#
# Indices 1 2 3 4 5 6 
#
# 1 0.006401 -0.000435 -0.002176 0.000000 0.002345 0.000000
# 2 -0.000435 0.032234 -0.002358 0.000000 0.004841 0.000000
# 3 -0.002176 -0.002358 0.006486 0.000000 0.001067 0.000000
# 4 0.000000 0.000000 0.000000 0.231091 0.000000 0.134292
# 5 0.002345 0.004841 0.001067 0.000000 0.024518 0.000000
# 6 0.000000 0.000000 0.000000 0.134292 0.000000 0.140721
#
#
# Mechanical properties :
#
#
# Convention : Reuss Voigt Hill
#
# Bulk Modulus (GPa) = 28.42201 68.05060 48.23631
# Shear Modulus (GPa) = 10.79643 34.95927 22.87785
#
# Velocity S-wave (km/s) = 2.22272 3.99969 3.23559
# Velocity P-wave (km/s) = 4.42644 7.24364 6.00265
#
# Compressibility (1/GPa) = 0.03518400
#
# Stress axis : x y z
#
# Youngs Moduli (GPa) = 156.22857 31.02293 154.18388
#
# Poissons Ratio (x) = 0.01349 0.33545
# Poissons Ratio (y) = 0.06794 0.36356
# Poissons Ratio (z) = 0.33990 0.07315
#
# Static dielectric constant tensor:
#      x y z
#    x 4.189140 0.000000 -0.136390 
#    y 0.000000 3.562670 0.000000 
#    z -0.136390 0.000000 4.536700 
# 
# 
# High freq. dielectric constant tensor:
#      x y z
#    x 1.884480 0.000000 -0.012570 
#    y 0.000000 1.803750 0.000000 
#    z -0.012570 0.000000 1.867200 
# 
# From -- ./inp_files/331210.got.cif
#   From: 2010.06.25/outbox.cif.g09.slc.cpg/sg12_166_cif.got.tgz:331210.got - 2010.06.28 00:19:55.
