data_PCOD8086999
_publ_section_title
;
Structure prediction by ZEFSAII (Michael W. Deem and Ramdas Pophale) SiO2 
 PCOD8086999
Probable space group: C 2/M
;
_chemical_formula_sum "Si O2"
_cell_formula_units_Z 64
_cell_length_a 17.807831
_cell_length_b 13.427444
_cell_length_c 18.704487
_cell_angle_alpha 90.000000
_cell_angle_beta 49.261574
_cell_angle_gamma 90.000000
_cell_volume 3388.797723
_symmetry_space_group_name_H-M "C 2/M"
_symmetry_group_IT_number 12
_symmetry_cell_setting 'monoclinic'
loop_
_space_group_symop_operation_xyz
x,y,z
-x,y,-z
-x,-y,-z
x,-y,z
1/2+x,1/2+y,z
1/2-x,1/2+y,-z
1/2-x,1/2-y,-z
1/2+x,1/2-y,z
loop_
_atom_site_type_symbol
_atom_site_label
_atom_site_fract_x
_atom_site_fract_y
_atom_site_fract_z
Si Si1 0.608224 0.384785 0.911737
Si Si2 0.769664 0.385413 0.138669
Si Si3 0.130683 0.222455 0.643419
Si Si4 0.607542 0.889340 0.415630
Si Si5 0.275983 0.260056 0.263206
Si Si6 0.339171 0.729203 0.996230
Si Si7 0.808396 0.391285 0.481792
Si Si8 0.063151 0.116809 0.184571
O O1 0.606196 0.500000 0.898900
O O2 0.642426 0.336203 0.817187
O O3 0.500000 0.342656 0.000000
O O4 0.683096 0.356081 0.930290
O O5 0.801134 0.500000 0.124940
O O6 0.770706 0.338955 0.217770
O O7 0.659956 0.372960 0.173878
O O8 0.851469 0.330826 0.035962
O O9 0.187351 0.260603 0.679483
O O10 0.111708 0.324275 0.611015
O O11 0.198465 0.155310 0.549093
O O12 0.030791 0.160215 0.715697
O O13 0.500000 0.843810 0.500000
O O14 0.668013 0.813399 0.327667
O O15 0.665957 0.901735 0.451967
O O16 0.597682 0.000000 0.385661
O O17 0.428511 0.686270 0.891973
O O18 0.250000 0.750000 0.000000
O O19 0.806622 0.500000 0.446475
O O20 0.046967 0.000000 0.173670
#
# Coordination Sequence:
#
# PCOD8086999 Si02
#       8
#     8   8   8   8   8   8   8   8
#     4  10  19  31  52  81 108 131 165 217 268 310
#     4   9  20  36  53  74 105 143 175 210 255 308
#     4  10  20  33  54  79 103 137 174 219 263 308
#     4   9  18  32  52  75 101 135 169 209 260 309
#     4  10  20  33  51  77 104 137 172 211 258 313
#     4   9  18  33  51  74 104 137 169 207 257 310
#     4   9  19  35  51  73 105 138 173 212 261 313
#     4  10  19  33  56  80 102 131 174 222 265 306
#
# _framework density 18.885753999999999
#
# number of rings (size 3 to 8) (size 9 to 14) (size 15 to 20)
#    0.000    2.500    0.000    1.875    1.750    3.500 
#    0.000    0.625    0.000   13.875    0.000    0.000 
#    0.000    0.000    0.000    0.000    0.000    0.000 
#
# Total GULP energy -396452.825189 kJ/mol
# GULP energy per Si atom -12389.150787 kJ/mol
# Density = 1.884277 g / cm^3
# Si number density = 18.885754 Si / 1000 Ang^3
#
#
#
# Elastic Constant Matrix: (Units=GPa)
#
#
# Indices 1 2 3 4 5 6 
#
# 1 29.9880 26.5256 13.8256 0.0000 -2.2666 0.0000
# 2 26.5256 144.8629 66.5682 0.0000 -9.0360 0.0000
# 3 13.8256 66.5682 92.3204 0.0000 -11.7155 0.0000
# 4 0.0000 0.0000 0.0000 21.7592 0.0000 3.2624
# 5 -2.2666 -9.0360 -11.7155 0.0000 30.7686 0.0000
# 6 0.0000 0.0000 0.0000 3.2624 0.0000 15.7472
#
#
#
# Elastic Compliance Matrix: (Units=1/GPa)
#
#
# Indices 1 2 3 4 5 6 
#
# 1 0.039870 -0.006811 -0.000988 0.000000 0.000560 0.000000
# 2 -0.006811 0.011489 -0.007250 0.000000 0.000112 0.000000
# 3 -0.000988 -0.007250 0.016737 0.000000 0.004171 0.000000
# 4 0.000000 0.000000 0.000000 0.047431 0.000000 -0.009826
# 5 0.000560 0.000112 0.004171 0.000000 0.034163 0.000000
# 6 0.000000 0.000000 0.000000 -0.009826 0.000000 0.065539
#
#
# Mechanical properties :
#
#
# Convention : Reuss Voigt Hill
#
# Bulk Modulus (GPa) = 26.31847 53.44557 39.88202
# Shear Modulus (GPa) = 19.38043 24.33844 21.85944
#
# Velocity S-wave (km/s) = 3.20690 3.59377 3.40583
# Velocity P-wave (km/s) = 5.26100 6.75138 6.05224
#
# Compressibility (1/GPa) = 0.03799613
#
# Stress axis : x y z
#
# Youngs Moduli (GPa) = 25.08177 87.04173 59.74919
#
# Poissons Ratio (x) = 0.59287 0.05905
# Poissons Ratio (y) = 0.17084 0.43317
# Poissons Ratio (z) = 0.02479 0.63104
#
# Static dielectric constant tensor:
#      x y z
#    x 3.315320 0.000000 -0.003930 
#    y 0.000000 3.725480 0.000000 
#    z -0.003930 0.000000 3.593800 
# 
# 
# High freq. dielectric constant tensor:
#      x y z
#    x 1.718760 0.000000 0.005320 
#    y 0.000000 1.731780 0.000000 
#    z 0.005320 0.000000 1.734410 
# 
# From -- ./inp_files/283271.got.cif
#   From: 2010.06.25/outbox.cif.g09.slc.cpg/sg12_142_cif.got.tgz:283271.got - 2010.06.28 00:19:55.
