data_PCOD8086178
_publ_section_title
;
Structure prediction by ZEFSAII (Michael W. Deem and Ramdas Pophale) SiO2 
 PCOD8086178
Probable space group: C 2/M
;
_chemical_formula_sum "Si O2"
_cell_formula_units_Z 56
_cell_length_a 27.279640
_cell_length_b 9.048301
_cell_length_c 14.438001
_cell_angle_alpha 90.000000
_cell_angle_beta 75.873452
_cell_angle_gamma 90.000000
_cell_volume 3456.022609
_symmetry_space_group_name_H-M "C 2/M"
_symmetry_group_IT_number 12
_symmetry_cell_setting 'monoclinic'
loop_
_space_group_symop_operation_xyz
x,y,z
-x,y,-z
-x,-y,-z
x,-y,z
1/2+x,1/2+y,z
1/2-x,1/2+y,-z
1/2-x,1/2-y,-z
1/2+x,1/2-y,z
loop_
_atom_site_type_symbol
_atom_site_label
_atom_site_fract_x
_atom_site_fract_y
_atom_site_fract_z
Si Si1 0.941560 0.670091 0.219084
Si Si2 0.115719 0.328532 0.210633
Si Si3 0.802634 0.330611 0.973592
Si Si4 0.040663 0.175520 0.109115
Si Si5 0.429985 0.328085 0.611065
Si Si6 0.955484 0.171867 0.394841
Si Si7 0.608415 0.170157 0.939580
O O1 0.957753 0.500000 0.222487
O O2 0.928565 0.735278 0.325965
O O3 0.893197 0.684559 0.171650
O O4 0.985332 0.762062 0.150438
O O5 0.100372 0.500000 0.213421
O O6 0.075374 0.228950 0.176640
O O7 0.113102 0.269332 0.317580
O O8 0.170455 0.304020 0.138434
O O9 0.790039 0.500000 0.995278
O O10 0.838599 0.273192 0.041186
O O11 0.750000 0.250000 0.000000
O O12 0.038390 0.000000 0.108108
O O13 0.062355 0.234993 0.002262
O O14 0.418488 0.500000 0.631469
O O15 0.485340 0.287736 0.625423
O O16 0.427634 0.288311 0.503530
O O17 0.949447 0.000000 0.374613
O O18 0.600590 0.000000 0.974964
#
# Coordination Sequence:
#
# PCOD8086178 Si02
#       7
#     8   8   8   8   8   8   8
#     4  11  20  30  45  65  92 128 161 189 228 272
#     4  10  19  31  48  70  96 124 156 194 234 278
#     4   9  19  35  52  71  94 118 148 191 238 282
#     4  11  20  29  43  65  93 125 161 194 224 267
#     4   9  17  30  46  66  94 128 160 195 234 268
#     4   9  18  30  44  65  96 128 161 198 229 263
#     4   9  20  35  47  64  93 123 153 191 233 279
#
# _framework density 16.203596999999998
#
# number of rings (size 3 to 8) (size 9 to 14) (size 15 to 20)
#    0.000    2.286    1.429    4.286    0.000    6.286 
#    0.000    1.429    0.000    0.000    0.000    1.000 
#    0.000    0.000    0.000    0.000    0.000    0.000 
#
# Total GULP energy -347073.266257 kJ/mol
# GULP energy per Si atom -12395.473795 kJ/mol
# Density = 1.616672 g / cm^3
# Si number density = 16.203597 Si / 1000 Ang^3
#
#
#
# Elastic Constant Matrix: (Units=GPa)
#
#
# Indices 1 2 3 4 5 6 
#
# 1 61.0894 34.4995 48.1282 0.0000 2.5310 0.0000
# 2 34.4995 88.3694 53.0098 0.0000 4.4458 0.0000
# 3 48.1282 53.0098 119.6423 0.0000 13.3237 0.0000
# 4 0.0000 0.0000 0.0000 32.2284 0.0000 -1.1663
# 5 2.5310 4.4458 13.3237 0.0000 18.4584 0.0000
# 6 0.0000 0.0000 0.0000 -1.1663 0.0000 20.7586
#
#
#
# Elastic Compliance Matrix: (Units=1/GPa)
#
#
# Indices 1 2 3 4 5 6 
#
# 1 0.025857 -0.005164 -0.008544 0.000000 0.003865 0.000000
# 2 -0.005164 0.016474 -0.005283 0.000000 0.000554 0.000000
# 3 -0.008544 -0.005283 0.015076 0.000000 -0.008438 0.000000
# 4 0.000000 0.000000 0.000000 0.031092 0.000000 0.001747
# 5 0.003865 0.000554 -0.008438 0.000000 0.059603 0.000000
# 6 0.000000 0.000000 0.000000 0.001747 0.000000 0.048271
#
#
# Mechanical properties :
#
#
# Convention : Reuss Voigt Hill
#
# Bulk Modulus (GPa) = 51.48296 60.04178 55.76237
# Shear Modulus (GPa) = 20.76167 23.18664 21.97415
#
# Velocity S-wave (km/s) = 3.58341 3.78690 3.68656
# Velocity P-wave (km/s) = 6.99733 7.50039 7.25322
#
# Compressibility (1/GPa) = 0.01942390
#
# Stress axis : x y z
#
# Youngs Moduli (GPa) = 38.67485 60.70342 66.33181
#
# Poissons Ratio (x) = 0.31346 0.56673
# Poissons Ratio (y) = 0.19971 0.35046
# Poissons Ratio (z) = 0.33043 0.32072
#
# Static dielectric constant tensor:
#      x y z
#    x 2.753190 0.000000 0.150550 
#    y 0.000000 3.078760 0.000000 
#    z 0.150550 0.000000 3.255020 
# 
# 
# High freq. dielectric constant tensor:
#      x y z
#    x 1.574260 0.000000 0.015830 
#    y 0.000000 1.630370 0.000000 
#    z 0.015830 0.000000 1.626380 
# 
# From -- ./inp_files/242995.got.cif
#   From: 2010.06.25/outbox.cif.g09.slc.cpg/sg12_122_cif.got.tgz:242995.got - 2010.06.28 00:19:55.
