data_PCOD8086832
_publ_section_title
;
Structure prediction by ZEFSAII (Michael W. Deem and Ramdas Pophale) SiO2 
 PCOD8086832
Probable space group: C 2/M
;
_chemical_formula_sum "Si O2"
_cell_formula_units_Z 40
_cell_length_a 14.406545
_cell_length_b 14.050547
_cell_length_c 17.629715
_cell_angle_alpha 90.000000
_cell_angle_beta 144.507688
_cell_angle_gamma 90.000000
_cell_volume 2071.909070
_symmetry_space_group_name_H-M "C 2/M"
_symmetry_group_IT_number 12
_symmetry_cell_setting 'monoclinic'
loop_
_space_group_symop_operation_xyz
x,y,z
-x,y,-z
-x,-y,-z
x,-y,z
1/2+x,1/2+y,z
1/2-x,1/2+y,-z
1/2-x,1/2-y,-z
1/2+x,1/2-y,z
loop_
_atom_site_type_symbol
_atom_site_label
_atom_site_fract_x
_atom_site_fract_y
_atom_site_fract_z
Si Si1 0.600390 0.605318 0.490747
Si Si2 0.823520 0.892267 0.910128
Si Si3 0.162664 0.790825 0.765388
Si Si4 0.269131 0.108360 0.982674
Si Si5 0.367256 0.111982 0.774161
O O1 0.500000 0.596221 0.500000
O O2 0.607334 0.500000 0.456356
O O3 0.517694 0.682681 0.380570
O O4 0.776003 0.640608 0.634803
O O5 0.692993 0.822834 0.784208
O O6 0.824880 0.880396 0.001523
O O7 0.776851 0.000000 0.855768
O O8 0.000000 0.865039 0.000000
O O9 0.294478 0.838932 0.799727
O O10 0.182757 0.825930 0.864443
O O11 0.450738 0.143714 0.114764
O O12 0.266564 0.000000 0.951874
O O13 0.348118 0.000000 0.774446
#
# Coordination Sequence:
#
# PCOD8086832 Si02
#       5
#     8   8   8   8   8
#     4   8  15  28  47  75 110 135 147 178 246 315
#     4  10  22  37  49  65  96 137 175 210 245 278
#     4  11  18  29  52  79 101 127 163 200 241 295
#     4  10  19  31  51  78 102 125 161 206 247 291
#     4   9  17  30  51  81 110 128 146 189 256 311
#
# _framework density 19.305866999999999
#
# number of rings (size 3 to 8) (size 9 to 14) (size 15 to 20)
#    0.000    2.400    0.000    5.400    0.000    1.600 
#    0.000    1.000    0.000    7.800    0.000   11.200 
#    0.000    0.000    0.000    0.000    0.000    0.000 
#
# Total GULP energy -247935.985679 kJ/mol
# GULP energy per Si atom -12396.799284 kJ/mol
# Density = 1.926193 g / cm^3
# Si number density = 19.305867 Si / 1000 Ang^3
#
#
#
# Elastic Constant Matrix: (Units=GPa)
#
#
# Indices 1 2 3 4 5 6 
#
# 1 67.8898 7.0557 22.6112 -0.0008 -8.3655 -0.0004
# 2 7.0557 93.9984 48.6922 -0.0006 -12.5917 -0.0005
# 3 22.6112 48.6922 117.4944 -0.0009 -5.2582 -0.0006
# 4 -0.0008 -0.0006 -0.0009 24.2464 -0.0008 1.3984
# 5 -8.3655 -12.5917 -5.2582 -0.0008 5.4977 -0.0005
# 6 -0.0004 -0.0005 -0.0006 1.3984 -0.0005 6.4771
#
#
#
# Elastic Compliance Matrix: (Units=1/GPa)
#
#
# Indices 1 2 3 4 5 6 
#
# 1 0.020869 0.006614 -0.004866 0.000002 0.042250 0.000004
# 2 0.006614 0.020888 -0.007666 0.000002 0.050573 0.000005
# 3 -0.004866 -0.007666 0.012022 0.000000 -0.013464 -0.000001
# 4 0.000002 0.000002 0.000000 0.041763 0.000013 -0.009016
# 5 0.042250 0.050573 -0.013464 0.000013 0.349138 0.000030
# 6 0.000004 0.000005 -0.000001 -0.009016 0.000030 0.156338
#
#
# Mechanical properties :
#
#
# Convention : Reuss Voigt Hill
#
# Bulk Modulus (GPa) = 23.84226 48.45565 36.14895
# Shear Modulus (GPa) = 7.97659 20.64579 14.31119
#
# Velocity S-wave (km/s) = 2.03486 3.27372 2.72561
# Velocity P-wave (km/s) = 4.23054 6.28037 5.35446
#
# Compressibility (1/GPa) = 0.04194234
#
# Stress axis : x y z
#
# Youngs Moduli (GPa) = 47.91734 47.87544 83.18174
#
# Poissons Ratio (x) = -0.31665 0.40479
# Poissons Ratio (y) = -0.31693 0.63766
# Poissons Ratio (z) = 0.23318 0.36700
#
# Static dielectric constant tensor:
#      x y z
#    x 3.366820 0.000000 0.211550 
#    y 0.000000 3.653870 0.000000 
#    z 0.211550 0.000000 3.965520 
# 
# 
# High freq. dielectric constant tensor:
#      x y z
#    x 1.732650 0.000000 0.003460 
#    y 0.000000 1.748690 0.000000 
#    z 0.003460 0.000000 1.740450 
# 
# From -- ./inp_files/59088.got.cif
#   From: 2010.06.25/outbox.cif.g09.slc.cpg/sg12_30_cif.got.tgz:59088.got - 2010.06.28 00:19:55.
