data_PCOD8086493
_publ_section_title
;
Structure prediction by ZEFSAII (Michael W. Deem and Ramdas Pophale) SiO2 
 PCOD8086493
Probable space group: C 2/M
;
_chemical_formula_sum "Si O2"
_cell_formula_units_Z 48
_cell_length_a 25.119242
_cell_length_b 9.203565
_cell_length_c 19.690213
_cell_angle_alpha 90.000000
_cell_angle_beta 32.999754
_cell_angle_gamma 90.000000
_cell_volume 2479.242004
_symmetry_space_group_name_H-M "C 2/M"
_symmetry_group_IT_number 12
_symmetry_cell_setting 'monoclinic'
loop_
_space_group_symop_operation_xyz
x,y,z
-x,y,-z
-x,-y,-z
x,-y,z
1/2+x,1/2+y,z
1/2-x,1/2+y,-z
1/2-x,1/2-y,-z
1/2+x,1/2-y,z
loop_
_atom_site_type_symbol
_atom_site_label
_atom_site_fract_x
_atom_site_fract_y
_atom_site_fract_z
Si Si1 0.578075 0.171518 0.008850
Si Si2 0.865922 0.328582 0.200903
Si Si3 0.029301 0.334775 0.320886
Si Si4 0.336874 0.166805 0.943408
Si Si5 0.392852 0.661462 0.644129
Si Si6 0.321128 0.170840 0.596581
O O1 0.465673 0.226852 0.129592
O O2 0.638991 0.234066 0.007977
O O3 0.572235 0.000000 0.021996
O O4 0.630326 0.214642 0.882949
O O5 0.850543 0.500000 0.226646
O O6 0.775417 0.244011 0.332777
O O7 0.040313 0.500000 0.335724
O O8 0.063095 0.319018 0.207148
O O9 0.101414 0.234281 0.288091
O O10 0.915553 0.288407 0.449736
O O11 0.304250 0.000000 0.984175
O O12 0.250000 0.250000 0.000000
O O13 0.500000 0.647674 0.500000
O O14 0.345171 0.500000 0.701372
O O15 0.329585 0.762044 0.662759
O O16 0.306082 0.000000 0.618560
#
# Coordination Sequence:
#
# PCOD8086493 Si02
#       6
#     8   8   8   8   8   8
#     4   8  17  35  56  76 102 134 173 217 262 305
#     4   9  17  33  57  80 100 131 174 220 261 304
#     4   9  19  34  49  70 106 142 171 205 259 319
#     4  10  21  37  55  76 103 140 177 212 256 311
#     4   9  17  29  47  71  99 132 172 214 250 293
#     4  10  19  31  49  75 106 138 168 209 263 314
#
# _framework density 19.360755999999999
#
# number of rings (size 3 to 8) (size 9 to 14) (size 15 to 20)
#    0.000    2.833    0.000    2.000    2.333    3.333 
#    0.000    3.333    0.000    0.000    0.000    0.000 
#    0.000    0.000    0.000    0.000    0.000    0.000 
#
# Total GULP energy -297481.844229 kJ/mol
# GULP energy per Si atom -12395.076843 kJ/mol
# Density = 1.931669 g / cm^3
# Si number density = 19.360756 Si / 1000 Ang^3
#
#
#
# Elastic Constant Matrix: (Units=GPa)
#
#
# Indices 1 2 3 4 5 6 
#
# 1 113.1583 29.0067 39.5258 0.0012 -8.7093 -0.0005
# 2 29.0067 68.5965 29.9651 0.0029 -9.5638 -0.0033
# 3 39.5258 29.9651 80.9116 0.0013 -19.5448 -0.0016
# 4 0.0012 0.0029 0.0013 24.7063 -0.0010 -7.0200
# 5 -8.7093 -9.5638 -19.5448 -0.0010 29.8343 0.0009
# 6 -0.0005 -0.0033 -0.0016 -7.0200 0.0009 23.6490
#
#
#
# Elastic Compliance Matrix: (Units=1/GPa)
#
#
# Indices 1 2 3 4 5 6 
#
# 1 0.011089 -0.002797 -0.004533 0.000000 -0.000629 0.000000
# 2 -0.002797 0.018162 -0.004931 -0.000001 0.001775 0.000002
# 3 -0.004533 -0.004931 0.018650 0.000000 0.009313 0.000000
# 4 0.000000 -0.000001 0.000000 0.044204 0.000001 0.013121
# 5 -0.000629 0.001775 0.009313 0.000001 0.040005 0.000000
# 6 0.000000 0.000002 0.000000 0.013121 0.000000 0.046180
#
#
# Mechanical properties :
#
#
# Convention : Reuss Voigt Hill
#
# Bulk Modulus (GPa) = 42.77418 51.07352 46.92385
# Shear Modulus (GPa) = 23.74106 26.58251 25.16179
#
# Velocity S-wave (km/s) = 3.50558 3.70943 3.60895
# Velocity P-wave (km/s) = 6.20698 6.69206 6.45408
#
# Compressibility (1/GPa) = 0.02337859
#
# Stress axis : x y z
#
# Youngs Moduli (GPa) = 90.17846 55.05939 53.61990
#
# Poissons Ratio (x) = 0.15398 0.24308
# Poissons Ratio (y) = 0.25219 0.26442
# Poissons Ratio (z) = 0.40882 0.27152
#
# Static dielectric constant tensor:
#      x y z
#    x 3.683160 0.000000 -0.054810 
#    y 0.000000 3.394560 0.000000 
#    z -0.054810 0.000000 3.603910 
# 
# 
# High freq. dielectric constant tensor:
#      x y z
#    x 1.734050 0.000000 -0.014390 
#    y 0.000000 1.731190 0.000000 
#    z -0.014390 0.000000 1.758510 
# 
# From -- ./inp_files/327179.got.cif
#   From: 2010.06.25/outbox.cif.g09.slc.cpg/sg12_164_cif.got.tgz:327179.got - 2010.06.28 00:19:55.
