data_PCOD8086766
_publ_section_title
;
Structure prediction by ZEFSAII (Michael W. Deem and Ramdas Pophale) SiO2 
 PCOD8086766
Probable space group: C 2/M
;
_chemical_formula_sum "Si O2"
_cell_formula_units_Z 56
_cell_length_a 22.289216
_cell_length_b 18.282913
_cell_length_c 23.105416
_cell_angle_alpha 90.000000
_cell_angle_beta 17.379057
_cell_angle_gamma 90.000000
_cell_volume 2812.402861
_symmetry_space_group_name_H-M "C 2/M"
_symmetry_group_IT_number 12
_symmetry_cell_setting 'monoclinic'
loop_
_space_group_symop_operation_xyz
x,y,z
-x,y,-z
-x,-y,-z
x,-y,z
1/2+x,1/2+y,z
1/2-x,1/2+y,-z
1/2-x,1/2-y,-z
1/2+x,1/2-y,z
loop_
_atom_site_type_symbol
_atom_site_label
_atom_site_fract_x
_atom_site_fract_y
_atom_site_fract_z
Si Si1 0.409759 0.081080 0.816661
Si Si2 0.038181 0.180869 0.184675
Si Si3 0.959899 0.805746 0.684512
Si Si4 0.350643 0.207044 0.585441
Si Si5 0.687418 0.084294 0.459092
Si Si6 0.489121 0.209370 0.893143
Si Si7 0.220884 0.417653 0.629389
O O1 0.480214 0.093574 0.685641
O O2 0.612272 0.084863 0.667684
O O3 0.313069 0.000000 0.912123
O O4 0.252754 0.141515 0.981088
O O5 0.014114 0.211718 0.271588
O O6 0.031816 0.251840 0.150023
O O7 0.869491 0.122293 0.324972
O O8 0.082411 0.745754 0.535936
O O9 0.053846 0.885447 0.584622
O O10 0.727847 0.802766 0.878309
O O11 0.500000 0.222899 0.500000
O O12 0.340671 0.121234 0.578533
O O13 0.129767 0.239196 0.804539
O O14 0.742311 0.000000 0.398510
O O15 0.591338 0.129982 0.793715
O O16 0.238888 0.500000 0.636902
#
# Coordination Sequence:
#
# PCOD8086766 Si02
#       7
#     8   8   8   8   8   8   8
#     4  10  19  31  50  82 125 155 177 216 274 347
#     4  11  20  32  54  86 119 148 185 226 285 354
#     4  11  21  35  57  81 113 150 185 232 292 341
#     4  10  24  41  58  81 111 151 206 252 273 315
#     4  10  21  36  57  85 121 158 187 226 284 341
#     4  10  22  36  58  82 110 147 186 238 289 345
#     4  10  21  33  50  83 119 145 174 216 274 349
#
# _framework density 19.911798999999998
#
# number of rings (size 3 to 8) (size 9 to 14) (size 15 to 20)
#    0.000    1.714    2.857    1.714    2.000    3.714 
#    0.000    0.000    0.000    6.857    0.000   16.000 
#    0.000    0.000    0.000    0.000    0.000    0.000 
#
# Total GULP energy -347164.967402 kJ/mol
# GULP energy per Si atom -12398.748836 kJ/mol
# Density = 1.986648 g / cm^3
# Si number density = 19.911799 Si / 1000 Ang^3
#
#
#
# Elastic Constant Matrix: (Units=GPa)
#
#
# Indices 1 2 3 4 5 6 
#
# 1 68.3552 29.3499 19.6006 0.0321 -18.1623 -0.0106
# 2 29.3499 107.5385 32.3682 0.0947 -1.6819 -0.0061
# 3 19.6006 32.3682 97.6754 0.2114 -18.3473 -0.0092
# 4 0.0321 0.0947 0.2114 27.6220 -0.0425 -3.7455
# 5 -18.1623 -1.6819 -18.3473 -0.0425 18.5025 0.0065
# 6 -0.0106 -0.0061 -0.0092 -3.7455 0.0065 13.1256
#
#
#
# Elastic Compliance Matrix: (Units=1/GPa)
#
#
# Indices 1 2 3 4 5 6 
#
# 1 0.023356 -0.006622 0.002090 0.000018 0.024397 0.000011
# 2 -0.006622 0.012346 -0.004636 -0.000015 -0.009975 -0.000002
# 3 0.002090 -0.004636 0.014330 -0.000074 0.015841 -0.000019
# 4 0.000018 -0.000015 -0.000074 0.037661 0.000026 0.010747
# 5 0.024397 -0.009975 0.015841 0.000026 0.092797 -0.000012
# 6 0.000011 -0.000002 -0.000019 0.010747 -0.000012 0.079254
#
#
# Mechanical properties :
#
#
# Convention : Reuss Voigt Hill
#
# Bulk Modulus (GPa) = 31.54905 48.46738 40.00821
# Shear Modulus (GPa) = 17.32234 24.66669 20.99451
#
# Velocity S-wave (km/s) = 2.95270 3.52347 3.25064
# Velocity P-wave (km/s) = 5.24436 6.39899 5.85023
#
# Compressibility (1/GPa) = 0.03169668
#
# Stress axis : x y z
#
# Youngs Moduli (GPa) = 42.81573 80.99976 69.78128
#
# Poissons Ratio (x) = 0.53638 -0.14587
# Poissons Ratio (y) = 0.28353 0.32351
# Poissons Ratio (z) = -0.08950 0.37552
#
# Static dielectric constant tensor:
#      x y z
#    x 3.208060 -0.000280 -0.227390 
#    y -0.000280 3.787070 0.000740 
#    z -0.227390 0.000740 3.779740 
# 
# 
# High freq. dielectric constant tensor:
#      x y z
#    x 1.730270 -0.000030 -0.017590 
#    y -0.000030 1.787330 0.000070 
#    z -0.017590 0.000070 1.782720 
# 
# From -- ./inp_files/322668.got.cif
#   From: 2010.06.25/outbox.cif.g09.slc.cpg/sg12_162_cif.got.tgz:322668.got - 2010.06.28 00:19:55.
