data_PCOD8086391
_publ_section_title
;
Structure prediction by ZEFSAII (Michael W. Deem and Ramdas Pophale) SiO2 
 PCOD8086391
Probable space group: C 2/M
;
_chemical_formula_sum "Si O2"
_cell_formula_units_Z 56
_cell_length_a 19.450430
_cell_length_b 9.096497
_cell_length_c 32.643137
_cell_angle_alpha 90.000000
_cell_angle_beta 148.424707
_cell_angle_gamma 90.000000
_cell_volume 3024.198692
_symmetry_space_group_name_H-M "C 2/M"
_symmetry_group_IT_number 12
_symmetry_cell_setting 'monoclinic'
loop_
_space_group_symop_operation_xyz
x,y,z
-x,y,-z
-x,-y,-z
x,-y,z
1/2+x,1/2+y,z
1/2-x,1/2+y,-z
1/2-x,1/2-y,-z
1/2+x,1/2-y,z
loop_
_atom_site_type_symbol
_atom_site_label
_atom_site_fract_x
_atom_site_fract_y
_atom_site_fract_z
Si Si1 0.405031 0.328152 0.221030
Si Si2 0.632421 0.834809 0.186221
Si Si3 0.153822 0.326999 0.482378
Si Si4 0.060715 0.836118 0.669232
Si Si5 0.899550 0.673376 0.740992
Si Si6 0.147132 0.829275 0.561752
Si Si7 0.612031 0.176011 0.087074
O O1 0.412131 0.500000 0.214890
O O2 0.463405 0.293855 0.295565
O O3 0.488887 0.243699 0.230121
O O4 0.253897 0.272252 0.142501
O O5 0.788321 0.834834 0.265037
O O6 0.585501 0.760005 0.205069
O O7 0.583739 0.759847 0.118814
O O8 0.578236 0.000000 0.159312
O O9 0.171005 0.500000 0.489298
O O10 0.250000 0.250000 0.500000
O O11 0.188813 0.271522 0.545147
O O12 0.007134 0.280931 0.395009
O O13 0.003686 0.000000 0.632064
O O14 0.922457 0.500000 0.752640
O O15 0.751816 0.707476 0.650473
O O16 0.000000 0.785699 0.500000
O O17 0.153202 0.000000 0.552094
O O18 0.612280 0.000000 0.089905
O O19 0.500000 0.236756 0.000000
#
# Coordination Sequence:
#
# PCOD8086391 Si02
#       7
#     8   8   8   8   8   8   8
#     4   9  18  31  50  75 100 128 162 205 250 289
#     4   8  15  29  50  73  95 125 164 199 236 287
#     4  12  24  35  49  71  99 130 168 214 260 303
#     4   9  17  33  53  69  90 124 168 212 250 291
#     4  10  19  31  49  72  99 131 164 200 244 298
#     4  10  21  37  55  73  97 133 174 215 260 305
#     4   8  14  28  52  78 100 125 162 203 238 280
#
# _framework density 18.517301
#
# number of rings (size 3 to 8) (size 9 to 14) (size 15 to 20)
#    0.000    2.571    0.000    4.714    0.000    6.000 
#    0.000    2.857    0.000    1.286    0.000    0.000 
#    0.000    0.000    0.000    0.000    0.000    0.000 
#
# Total GULP energy -347026.047525 kJ/mol
# GULP energy per Si atom -12393.787412 kJ/mol
# Density = 1.847515 g / cm^3
# Si number density = 18.517301 Si / 1000 Ang^3
#
#
#
# Elastic Constant Matrix: (Units=GPa)
#
#
# Indices 1 2 3 4 5 6 
#
# 1 138.3790 34.4158 49.0209 0.0001 -23.6423 0.0001
# 2 34.4158 53.3950 27.0106 0.0001 -8.9621 0.0004
# 3 49.0209 27.0106 100.9779 0.0000 -17.4263 0.0002
# 4 0.0001 0.0001 0.0000 12.3220 0.0000 -1.1895
# 5 -23.6423 -8.9621 -17.4263 0.0000 26.9707 0.0000
# 6 0.0001 0.0004 0.0002 -1.1895 0.0000 27.4593
#
#
#
# Elastic Compliance Matrix: (Units=1/GPa)
#
#
# Indices 1 2 3 4 5 6 
#
# 1 0.010271 -0.004203 -0.002869 0.000000 0.005753 0.000000
# 2 -0.004203 0.023747 -0.004036 0.000000 0.001599 0.000000
# 3 -0.002869 -0.004036 0.013180 0.000000 0.004660 0.000000
# 4 0.000000 0.000000 0.000000 0.081497 0.000000 0.003530
# 5 0.005753 0.001599 0.004660 0.000000 0.045662 0.000000
# 6 0.000000 0.000000 0.000000 0.003530 0.000000 0.036570
#
#
# Mechanical properties :
#
#
# Convention : Reuss Voigt Hill
#
# Bulk Modulus (GPa) = 40.02870 57.07185 48.55027
# Shear Modulus (GPa) = 20.70638 25.50406 23.10522
#
# Velocity S-wave (km/s) = 3.34760 3.71524 3.53620
# Velocity P-wave (km/s) = 6.05027 7.02081 6.55353
#
# Compressibility (1/GPa) = 0.02498208
#
# Stress axis : x y z
#
# Youngs Moduli (GPa) = 97.35922 42.10973 75.87465
#
# Poissons Ratio (x) = 0.17700 0.21769
# Poissons Ratio (y) = 0.40923 0.30621
# Poissons Ratio (z) = 0.27933 0.16994
#
# Static dielectric constant tensor:
#      x y z
#    x 4.694760 0.000000 -1.521360 
#    y 0.000000 3.177630 -0.000010 
#    z -1.521360 -0.000010 5.102050 
# 
# 
# High freq. dielectric constant tensor:
#      x y z
#    x 1.728150 0.000000 -0.010930 
#    y 0.000000 1.675820 0.000000 
#    z -0.010930 0.000000 1.713490 
# 
# From -- ./inp_files/377776.got.cif
#   From: 2010.06.25/outbox.cif.g09.slc.cpg/sg12_189_cif.got.tgz:377776.got - 2010.06.28 00:19:55.
