data_PCOD8086360
_publ_section_title
;
Structure prediction by ZEFSAII (Michael W. Deem and Ramdas Pophale) SiO2 
 PCOD8086360
Probable space group: C 2/M
;
_chemical_formula_sum "Si O2"
_cell_formula_units_Z 56
_cell_length_a 18.864207
_cell_length_b 8.738922
_cell_length_c 23.146734
_cell_angle_alpha 90.000000
_cell_angle_beta 127.922091
_cell_angle_gamma 90.000000
_cell_volume 3010.086775
_symmetry_space_group_name_H-M "C 2/M"
_symmetry_group_IT_number 12
_symmetry_cell_setting 'monoclinic'
loop_
_space_group_symop_operation_xyz
x,y,z
-x,y,-z
-x,-y,-z
x,-y,z
1/2+x,1/2+y,z
1/2-x,1/2+y,-z
1/2-x,1/2-y,-z
1/2+x,1/2-y,z
loop_
_atom_site_type_symbol
_atom_site_label
_atom_site_fract_x
_atom_site_fract_y
_atom_site_fract_z
Si Si1 0.419886 0.320571 0.627093
Si Si2 0.547252 0.325405 0.787990
Si Si3 0.396467 0.173809 0.780883
Si Si4 0.738896 0.175867 0.379706
Si Si5 0.158100 0.679243 0.933772
Si Si6 0.079157 0.678562 0.496079
Si Si7 0.998874 0.322987 0.062358
O O1 0.397554 0.500000 0.621473
O O2 0.514787 0.282063 0.706804
O O3 0.336828 0.227032 0.612519
O O4 0.433777 0.275464 0.568133
O O5 0.577630 0.500000 0.807128
O O6 0.458876 0.298034 0.781937
O O7 0.631024 0.227224 0.854504
O O8 0.296740 0.192834 0.704623
O O9 0.406051 0.200404 0.855241
O O10 0.431604 0.000000 0.784955
O O11 0.826053 0.280812 0.427363
O O12 0.763565 0.000000 0.405866
O O13 0.167741 0.500000 0.940777
O O14 0.081466 0.743691 0.938622
O O15 0.250000 0.750000 0.000000
O O16 0.076593 0.500000 0.479753
O O17 0.000000 0.724824 0.500000
O O18 0.978102 0.500000 0.041755
O O19 0.000000 0.240651 0.000000
#
# Coordination Sequence:
#
# PCOD8086360 Si02
#       7
#     8   8   8   8   8   8   8
#     4  10  20  35  57  81 102 128 168 214 256 304
#     4   9  17  30  50  75 100 127 163 207 250 293
#     4   8  15  28  48  74  99 127 162 202 250 295
#     4  10  19  33  55  79 103 131 169 214 254 301
#     4  10  19  31  49  72 101 135 169 207 250 297
#     4  11  24  39  53  72 103 139 170 205 255 310
#     4   8  14  27  48  72  97 126 162 202 242 286
#
# _framework density 18.604115
#
# number of rings (size 3 to 8) (size 9 to 14) (size 15 to 20)
#    0.000    2.571    0.000    3.429    0.000    3.429 
#    0.000    1.429    0.000   14.143    0.000    0.000 
#    0.000    0.000    0.000    0.000    0.000    0.000 
#
# Total GULP energy -346941.395054 kJ/mol
# GULP energy per Si atom -12390.764109 kJ/mol
# Density = 1.856177 g / cm^3
# Si number density = 18.604115 Si / 1000 Ang^3
#
#
#
# Elastic Constant Matrix: (Units=GPa)
#
#
# Indices 1 2 3 4 5 6 
#
# 1 62.0642 17.9821 53.0680 0.0000 -2.3637 0.0000
# 2 17.9821 48.3938 33.0529 0.0000 2.7524 0.0000
# 3 53.0680 33.0529 170.1185 0.0000 -3.9680 0.0000
# 4 0.0000 0.0000 0.0000 29.6928 0.0000 5.1968
# 5 -2.3637 2.7524 -3.9680 0.0000 27.5615 0.0000
# 6 0.0000 0.0000 0.0000 5.1968 0.0000 18.4263
#
#
#
# Elastic Compliance Matrix: (Units=1/GPa)
#
#
# Indices 1 2 3 4 5 6 
#
# 1 0.022731 -0.004279 -0.006225 0.000000 0.001481 0.000000
# 2 -0.004279 0.024890 -0.003580 0.000000 -0.003368 0.000000
# 3 -0.006225 -0.003580 0.008540 0.000000 0.001053 0.000000
# 4 0.000000 0.000000 0.000000 0.035427 0.000000 -0.009991
# 5 0.001481 -0.003368 0.001053 0.000000 0.036897 0.000000
# 6 0.000000 0.000000 0.000000 -0.009991 0.000000 0.057088
#
#
# Mechanical properties :
#
#
# Convention : Reuss Voigt Hill
#
# Bulk Modulus (GPa) = 35.72169 54.30918 45.01543
# Shear Modulus (GPa) = 22.41419 26.90104 24.65762
#
# Velocity S-wave (km/s) = 3.47479 3.80672 3.64453
# Velocity P-wave (km/s) = 5.94487 6.96971 6.47759
#
# Compressibility (1/GPa) = 0.02799419
#
# Stress axis : x y z
#
# Youngs Moduli (GPa) = 43.99239 40.17633 117.09300
#
# Poissons Ratio (x) = 0.17191 0.72891
# Poissons Ratio (y) = 0.18824 0.41916
# Poissons Ratio (z) = 0.27385 0.14382
#
# Static dielectric constant tensor:
#      x y z
#    x 3.106100 0.000000 -0.140680 
#    y 0.000000 3.349640 0.000000 
#    z -0.140680 0.000000 3.961840 
# 
# 
# High freq. dielectric constant tensor:
#      x y z
#    x 1.666740 0.000000 -0.004870 
#    y 0.000000 1.717770 0.000000 
#    z -0.004870 0.000000 1.752410 
# 
# From -- ./inp_files/342606.got.cif
#   From: 2010.06.25/outbox.cif.g09.slc.cpg/sg12_172_cif.got.tgz:342606.got - 2010.06.28 00:19:55.
