data_PCOD8087450
_publ_section_title
;
Structure prediction by ZEFSAII (Michael W. Deem and Ramdas Pophale) SiO2 
 PCOD8087450
Probable space group: C 2/M
;
_chemical_formula_sum "Si O2"
_cell_formula_units_Z 56
_cell_length_a 22.345052
_cell_length_b 9.237347
_cell_length_c 28.983648
_cell_angle_alpha 90.000000
_cell_angle_beta 150.168279
_cell_angle_gamma 90.000000
_cell_volume 2976.013338
_symmetry_space_group_name_H-M "C 2/M"
_symmetry_group_IT_number 12
_symmetry_cell_setting 'monoclinic'
loop_
_space_group_symop_operation_xyz
x,y,z
-x,y,-z
-x,-y,-z
x,-y,z
1/2+x,1/2+y,z
1/2-x,1/2+y,-z
1/2-x,1/2-y,-z
1/2+x,1/2-y,z
loop_
_atom_site_type_symbol
_atom_site_label
_atom_site_fract_x
_atom_site_fract_y
_atom_site_fract_z
Si Si1 0.834020 0.829792 0.020120
Si Si2 0.291822 0.830038 0.256539
Si Si3 0.745340 0.670581 0.389966
Si Si4 0.603730 0.670895 0.205421
Si Si5 0.951209 0.832658 0.668715
Si Si6 0.467388 0.670376 0.573787
Si Si7 0.313810 0.833075 0.166930
O O1 0.968831 0.765357 0.114307
O O2 0.829297 0.000000 0.027657
O O3 0.750000 0.750000 0.000000
O O4 0.790359 0.795887 0.939010
O O5 0.174798 0.781173 0.206966
O O6 0.404390 0.741153 0.351714
O O7 0.267319 0.789476 0.186806
O O8 0.319015 0.000000 0.281201
O O9 0.773254 0.500000 0.406304
O O10 0.674221 0.726358 0.297524
O O11 0.667357 0.712035 0.382683
O O12 0.869705 0.757665 0.474974
O O13 0.592801 0.500000 0.199981
O O14 0.930451 0.792610 0.601587
O O15 0.065721 0.751131 0.766268
O O16 0.980170 0.000000 0.695011
O O17 0.473755 0.500000 0.568656
O O18 0.349280 0.000000 0.189281
#
# Coordination Sequence:
#
# PCOD8087450 Si02
#       7
#     8   8   8   8   8   8   8
#     4  10  20  35  54  79 106 132 163 201 246 297
#     4   9  18  35  54  73  98 131 169 207 244 290
#     4  10  19  32  50  72  97 132 172 207 245 294
#     4   9  19  34  53  74  99 132 170 206 243 292
#     4   9  18  32  51  74 102 133 165 201 249 303
#     4  10  20  33  50  74 101 131 165 207 254 298
#     4   9  18  31  52  78 102 129 164 206 249 289
#
# _framework density 18.817119999999999
#
# number of rings (size 3 to 8) (size 9 to 14) (size 15 to 20)
#    0.000    2.571    0.000    1.714    0.000    4.000 
#    0.000    7.857    0.000    0.000    0.000    5.000 
#    0.000    0.000    0.000    0.000    0.000    0.000 
#
# Total GULP energy -347239.894683 kJ/mol
# GULP energy per Si atom -12401.424810 kJ/mol
# Density = 1.877429 g / cm^3
# Si number density = 18.817120 Si / 1000 Ang^3
#
#
#
# Elastic Constant Matrix: (Units=GPa)
#
#
# Indices 1 2 3 4 5 6 
#
# 1 97.6831 33.1584 71.1882 0.0004 14.4489 -0.0001
# 2 33.1584 46.8885 52.1756 -0.0008 4.3649 -0.0007
# 3 71.1882 52.1756 170.9272 -0.0021 5.8064 -0.0004
# 4 0.0004 -0.0008 -0.0021 26.8191 -0.0003 2.7833
# 5 14.4489 4.3649 5.8064 -0.0003 26.4982 0.0000
# 6 -0.0001 -0.0007 -0.0004 2.7833 0.0000 21.5168
#
#
#
# Elastic Compliance Matrix: (Units=1/GPa)
#
#
# Indices 1 2 3 4 5 6 
#
# 1 0.016916 -0.005643 -0.005079 -0.000001 -0.007182 0.000000
# 2 -0.005643 0.034449 -0.008138 0.000000 -0.000815 0.000001
# 3 -0.005079 -0.008138 0.010388 0.000001 0.001834 0.000000
# 4 -0.000001 0.000000 0.000001 0.037794 0.000001 -0.004889
# 5 -0.007182 -0.000815 0.001834 0.000001 0.041387 0.000000
# 6 0.000000 0.000001 0.000000 -0.004889 0.000000 0.047108
#
#
# Mechanical properties :
#
#
# Convention : Reuss Voigt Hill
#
# Bulk Modulus (GPa) = 41.60797 69.83812 55.72305
# Shear Modulus (GPa) = 21.38846 25.56527 23.47686
#
# Velocity S-wave (km/s) = 3.37508 3.68994 3.53602
# Velocity P-wave (km/s) = 6.11130 7.43969 6.80797
#
# Compressibility (1/GPa) = 0.02403386
#
# Stress axis : x y z
#
# Youngs Moduli (GPa) = 59.11493 29.02868 96.26945
#
# Poissons Ratio (x) = 0.16380 0.48895
# Poissons Ratio (y) = 0.33356 0.78342
# Poissons Ratio (z) = 0.30024 0.23623
#
# Static dielectric constant tensor:
#      x y z
#    x 3.577870 0.000000 -0.038280 
#    y 0.000000 3.235470 0.000000 
#    z -0.038280 0.000000 3.564700 
# 
# 
# High freq. dielectric constant tensor:
#      x y z
#    x 1.733140 0.000000 -0.002240 
#    y 0.000000 1.707810 0.000000 
#    z -0.002240 0.000000 1.735530 
# 
# From -- ./inp_files/380720.got.cif
#   From: 2010.06.25/outbox.cif.g09.slc.cpg/sg12_191_cif.got.tgz:380720.got - 2010.06.28 00:19:55.
