data_PCOD8087445
_publ_section_title
;
Structure prediction by ZEFSAII (Michael W. Deem and Ramdas Pophale) SiO2 
 PCOD8087445
Probable space group: C 2/M
;
_chemical_formula_sum "Si O2"
_cell_formula_units_Z 56
_cell_length_a 23.040503
_cell_length_b 8.964774
_cell_length_c 14.894313
_cell_angle_alpha 90.000000
_cell_angle_beta 90.647074
_cell_angle_gamma 90.000000
_cell_volume 3076.267386
_symmetry_space_group_name_H-M "C 2/M"
_symmetry_group_IT_number 12
_symmetry_cell_setting 'monoclinic'
loop_
_space_group_symop_operation_xyz
x,y,z
-x,y,-z
-x,-y,-z
x,-y,z
1/2+x,1/2+y,z
1/2-x,1/2+y,-z
1/2-x,1/2-y,-z
1/2+x,1/2-y,z
loop_
_atom_site_type_symbol
_atom_site_label
_atom_site_fract_x
_atom_site_fract_y
_atom_site_fract_z
Si Si1 0.295508 0.672634 0.305906
Si Si2 0.835731 0.323796 0.659131
Si Si3 0.884961 0.667161 0.198285
Si Si4 0.520986 0.324934 0.904062
Si Si5 0.873482 0.824051 0.476481
Si Si6 0.032840 0.669548 0.628867
Si Si7 0.940283 0.175913 0.737865
O O1 0.304025 0.500000 0.285721
O O2 0.228620 0.718332 0.310563
O O3 0.323646 0.757924 0.221828
O O4 0.326466 0.715613 0.399555
O O5 0.843563 0.500000 0.646430
O O6 0.848248 0.240511 0.567017
O O7 0.878670 0.260435 0.736461
O O8 0.872801 0.500000 0.166175
O O9 0.924943 0.674410 0.285968
O O10 0.917254 0.751123 0.117743
O O11 0.531651 0.500000 0.905370
O O12 0.472128 0.280888 0.830701
O O13 0.500000 0.265265 0.000000
O O14 0.934947 0.745049 0.455074
O O15 0.883839 0.000000 0.485416
O O16 0.015262 0.500000 0.604334
O O17 0.975880 0.764994 0.652012
O O18 0.931462 0.000000 0.727756
#
# Coordination Sequence:
#
# PCOD8087445 Si02
#       7
#     8   8   8   8   8   8   8
#     4   9  19  34  51  70  97 134 172 207 242 285
#     4  11  22  34  48  69  99 135 170 205 247 289
#     4   9  17  29  50  78 103 127 158 200 245 287
#     4   9  18  34  57  81 103 127 155 192 242 299
#     4  10  19  32  50  72  96 127 171 215 249 282
#     4   9  17  31  49  70  98 130 163 202 248 294
#     4  10  20  34  51  73 100 129 162 199 244 297
#
# _framework density 18.203879000000001
#
# number of rings (size 3 to 8) (size 9 to 14) (size 15 to 20)
#    0.000    2.429    0.000    2.571    0.000    6.571 
#    0.000    2.857    0.000    0.857    0.000    0.000 
#    0.000    0.000    0.000    0.000    0.000    0.000 
#
# Total GULP energy -347242.650008 kJ/mol
# GULP energy per Si atom -12401.523215 kJ/mol
# Density = 1.816245 g / cm^3
# Si number density = 18.203879 Si / 1000 Ang^3
#
#
#
# Elastic Constant Matrix: (Units=GPa)
#
#
# Indices 1 2 3 4 5 6 
#
# 1 82.3629 33.2317 50.1947 0.0000 -16.4595 0.0000
# 2 33.2317 79.2423 44.3236 0.0000 -12.4921 0.0000
# 3 50.1947 44.3236 103.6059 0.0000 -26.4055 0.0000
# 4 0.0000 0.0000 0.0000 23.0403 0.0000 -5.3913
# 5 -16.4595 -12.4921 -26.4055 0.0000 23.5707 0.0000
# 6 0.0000 0.0000 0.0000 -5.3913 0.0000 31.7637
#
#
#
# Elastic Compliance Matrix: (Units=1/GPa)
#
#
# Indices 1 2 3 4 5 6 
#
# 1 0.018165 -0.003470 -0.006371 0.000000 0.003709 0.000000
# 2 -0.003470 0.017275 -0.005590 0.000000 0.000471 0.000000
# 3 -0.006371 -0.005590 0.018532 0.000000 0.013350 0.000000
# 4 0.000000 0.000000 0.000000 0.045197 0.000000 0.007671
# 5 0.003709 0.000471 0.013350 0.000000 0.060220 0.000000
# 6 0.000000 0.000000 0.000000 0.007671 0.000000 0.032785
#
#
# Mechanical properties :
#
#
# Convention : Reuss Voigt Hill
#
# Bulk Modulus (GPa) = 43.26712 57.85678 50.56195
# Shear Modulus (GPa) = 21.66949 24.83903 23.25426
#
# Velocity S-wave (km/s) = 3.45393 3.69791 3.57800
# Velocity P-wave (km/s) = 6.30284 7.07703 6.70113
#
# Compressibility (1/GPa) = 0.02311224
#
# Stress axis : x y z
#
# Youngs Moduli (GPa) = 55.05028 57.88616 53.96009
#
# Poissons Ratio (x) = 0.20084 0.34378
# Poissons Ratio (y) = 0.19100 0.30161
# Poissons Ratio (z) = 0.35073 0.32356
#
# Static dielectric constant tensor:
#      x y z
#    x 3.508490 0.000000 -0.136960 
#    y 0.000000 3.454920 0.000000 
#    z -0.136960 0.000000 3.197300 
# 
# 
# High freq. dielectric constant tensor:
#      x y z
#    x 1.701750 0.000000 -0.016020 
#    y 0.000000 1.715950 0.000000 
#    z -0.016020 0.000000 1.679190 
# 
# From -- ./inp_files/287031.got.cif
#   From: 2010.06.25/outbox.cif.g09.slc.cpg/sg12_144_cif.got.tgz:287031.got - 2010.06.28 00:19:55.
