data_PCOD8087522
_publ_section_title
;
Structure prediction by ZEFSAII (Michael W. Deem and Ramdas Pophale) SiO2 
 PCOD8087522
Probable space group: C 2/M
;
_chemical_formula_sum "Si O2"
_cell_formula_units_Z 56
_cell_length_a 12.022956
_cell_length_b 18.035634
_cell_length_c 18.697657
_cell_angle_alpha 90.000000
_cell_angle_beta 48.230475
_cell_angle_gamma 90.000000
_cell_volume 3023.917582
_symmetry_space_group_name_H-M "C 2/M"
_symmetry_group_IT_number 12
_symmetry_cell_setting 'monoclinic'
loop_
_space_group_symop_operation_xyz
x,y,z
-x,y,-z
-x,-y,-z
x,-y,z
1/2+x,1/2+y,z
1/2-x,1/2+y,-z
1/2-x,1/2-y,-z
1/2+x,1/2-y,z
loop_
_atom_site_type_symbol
_atom_site_label
_atom_site_fract_x
_atom_site_fract_y
_atom_site_fract_z
Si Si1 0.410694 0.583318 0.755527
Si Si2 0.399030 0.645583 0.215029
Si Si3 0.635753 0.180031 0.890508
Si Si4 0.385066 0.417420 0.985222
Si Si5 0.103280 0.687820 0.745013
Si Si6 0.786090 0.337696 0.831544
Si Si7 0.870960 0.914164 0.610623
O O1 0.355418 0.500000 0.786981
O O2 0.568954 0.594642 0.729115
O O3 0.283070 0.633486 0.846803
O O4 0.434215 0.603752 0.662431
O O5 0.551716 0.638293 0.102337
O O6 0.359387 0.725802 0.263411
O O7 0.261762 0.619401 0.221976
O O8 0.579582 0.157432 0.835446
O O9 0.678119 0.266226 0.879256
O O10 0.500000 0.159280 0.000000
O O11 0.354634 0.500000 0.966115
O O12 0.500000 0.423923 0.000000
O O13 0.236629 0.384149 0.085574
O O14 0.233855 0.640586 0.651587
O O15 0.959972 0.680968 0.755101
O O16 0.000000 0.894889 0.500000
O O17 0.819638 0.000000 0.625536
#
# Coordination Sequence:
#
# PCOD8087522 Si02
#       7
#     8   8   8   8   8   8   8
#     4  10  20  35  56  79 106 144 187 226 274 326
#     4  10  19  33  51  75 115 144 182 226 270 317
#     4  10  20  32  49  77 111 150 188 226 269 311
#     4   9  18  30  44  69 106 154 195 213 246 308
#     4  10  20  33  56  80 108 141 182 223 274 326
#     4  10  19  32  50  75 110 153 186 225 263 314
#     4   9  20  41  64  83 105 136 177 224 276 333
#
# _framework density 18.519023000000001
#
# number of rings (size 3 to 8) (size 9 to 14) (size 15 to 20)
#    0.000    2.286    1.429    2.571    2.000    2.571 
#    0.000    0.714    0.000    0.000    0.000    3.000 
#    0.000    0.000    0.000    0.000    0.000    0.000 
#
# Total GULP energy -346950.276590 kJ/mol
# GULP energy per Si atom -12391.081307 kJ/mol
# Density = 1.847687 g / cm^3
# Si number density = 18.519023 Si / 1000 Ang^3
#
#
#
# Elastic Constant Matrix: (Units=GPa)
#
#
# Indices 1 2 3 4 5 6 
#
# 1 105.5782 18.0169 34.8449 0.0003 2.0566 -0.0003
# 2 18.0169 80.7764 39.8129 0.0003 -7.7637 -0.0002
# 3 34.8449 39.8129 95.4201 0.0004 -6.6063 -0.0004
# 4 0.0003 0.0003 0.0004 27.8380 -0.0005 -2.4244
# 5 2.0566 -7.7637 -6.6063 -0.0005 15.9998 0.0004
# 6 -0.0003 -0.0002 -0.0004 -2.4244 0.0004 22.4542
#
#
#
# Elastic Compliance Matrix: (Units=1/GPa)
#
#
# Indices 1 2 3 4 5 6 
#
# 1 0.010967 -0.000862 -0.003883 0.000000 -0.003431 0.000000
# 2 -0.000862 0.016055 -0.006008 0.000000 0.005420 0.000000
# 3 -0.003883 -0.006008 0.014656 0.000000 0.003635 0.000000
# 4 0.000000 0.000000 0.000000 0.036263 0.000001 0.003915
# 5 -0.003431 0.005420 0.003635 0.000001 0.067073 -0.000001
# 6 0.000000 0.000000 0.000000 0.003915 -0.000001 0.044958
#
#
# Mechanical properties :
#
#
# Convention : Reuss Voigt Hill
#
# Bulk Modulus (GPa) = 49.57533 51.90268 50.73900
# Shear Modulus (GPa) = 22.91450 25.86506 24.38978
#
# Velocity S-wave (km/s) = 3.52141 3.74127 3.63300
# Velocity P-wave (km/s) = 6.58497 6.83742 6.71238
#
# Compressibility (1/GPa) = 0.02017132
#
# Stress axis : x y z
#
# Youngs Moduli (GPa) = 91.18210 62.28762 68.22943
#
# Poissons Ratio (x) = 0.05371 0.26491
# Poissons Ratio (y) = 0.07862 0.40995
# Poissons Ratio (z) = 0.35403 0.37425
#
# Static dielectric constant tensor:
#      x y z
#    x 3.549180 0.000000 0.233280 
#    y 0.000000 3.467420 0.000000 
#    z 0.233280 0.000000 3.114990 
# 
# 
# High freq. dielectric constant tensor:
#      x y z
#    x 1.722620 0.000000 0.018650 
#    y 0.000000 1.715190 0.000000 
#    z 0.018650 0.000000 1.672880 
# 
# From -- ./inp_files/264222.got.cif
#   From: 2010.06.25/outbox.cif.g09.slc.cpg/sg12_133_cif.got.tgz:264222.got - 2010.06.28 00:19:55.
