data_PCOD8087864
_publ_section_title
;
Structure prediction by ZEFSAII (Michael W. Deem and Ramdas Pophale) SiO2 
 PCOD8087864
Probable space group: C 2/M
;
_chemical_formula_sum "Si O2"
_cell_formula_units_Z 56
_cell_length_a 23.635540
_cell_length_b 9.403725
_cell_length_c 14.868256
_cell_angle_alpha 90.000000
_cell_angle_beta 120.535984
_cell_angle_gamma 90.000000
_cell_volume 2846.328938
_symmetry_space_group_name_H-M "C 2/M"
_symmetry_group_IT_number 12
_symmetry_cell_setting 'monoclinic'
loop_
_space_group_symop_operation_xyz
x,y,z
-x,y,-z
-x,-y,-z
x,-y,z
1/2+x,1/2+y,z
1/2-x,1/2+y,-z
1/2-x,1/2-y,-z
1/2+x,1/2-y,z
loop_
_atom_site_type_symbol
_atom_site_label
_atom_site_fract_x
_atom_site_fract_y
_atom_site_fract_z
Si Si1 0.312060 0.164595 0.328512
Si Si2 0.200209 0.657069 0.013411
Si Si3 0.813529 0.666807 0.796839
Si Si4 0.066224 0.162333 0.501616
Si Si5 0.998141 0.838838 0.732113
Si Si6 0.462071 0.167269 0.878711
Si Si7 0.887806 0.655348 0.217606
O O1 0.244130 0.244722 0.299325
O O2 0.373693 0.233848 0.428670
O O3 0.325104 0.181879 0.231977
O O4 0.305550 0.000000 0.352262
O O5 0.230793 0.500000 0.046902
O O6 0.132900 0.654277 0.903252
O O7 0.250000 0.750000 0.000000
O O8 0.184099 0.717309 0.098059
O O9 0.798754 0.500000 0.773550
O O10 0.885003 0.705944 0.817022
O O11 0.059913 0.170611 0.387841
O O12 0.000000 0.212645 0.500000
O O13 0.082354 0.000000 0.543764
O O14 0.989287 0.744826 0.813155
O O15 0.060706 0.781130 0.726730
O O16 0.010652 0.000000 0.773018
O O17 0.473548 0.000000 0.876078
O O18 0.500000 0.218607 0.000000
O O19 0.918499 0.500000 0.266563
#
# Coordination Sequence:
#
# PCOD8087864 Si02
#       7
#     8   8   8   8   8   8   8
#     4  11  22  35  57  88 120 153 194 247 296 347
#     4  10  19  32  51  79 114 150 189 231 284 350
#     4  10  21  37  59  83 116 162 199 237 297 361
#     4  10  21  39  60  85 122 160 196 243 301 364
#     4  11  23  38  61  90 117 153 200 251 299 346
#     4  10  22  43  67  88 118 161 203 244 294 356
#     4  10  20  34  53  82 120 156 191 237 294 355
#
# _framework density 19.674465999999999
#
# number of rings (size 3 to 8) (size 9 to 14) (size 15 to 20)
#    0.000    1.714    2.857    1.714    0.000    5.714 
#    0.000    2.143    0.000    0.000    0.000    0.000 
#    0.000    0.000    0.000    0.000    0.000    0.000 
#
# Total GULP energy -347099.344824 kJ/mol
# GULP energy per Si atom -12396.405172 kJ/mol
# Density = 1.962969 g / cm^3
# Si number density = 19.674466 Si / 1000 Ang^3
#
#
#
# Elastic Constant Matrix: (Units=GPa)
#
#
# Indices 1 2 3 4 5 6 
#
# 1 83.1346 49.7491 25.2296 0.0000 17.1346 0.0000
# 2 49.7491 88.6892 39.5726 0.0000 14.8762 0.0000
# 3 25.2296 39.5726 79.4624 0.0000 8.9489 0.0000
# 4 0.0000 0.0000 0.0000 31.5027 0.0000 0.9192
# 5 17.1346 14.8762 8.9489 0.0000 33.7409 0.0000
# 6 0.0000 0.0000 0.0000 0.9192 0.0000 28.0385
#
#
#
# Elastic Compliance Matrix: (Units=1/GPa)
#
#
# Indices 1 2 3 4 5 6 
#
# 1 0.018988 -0.009437 -0.000734 0.000000 -0.005287 0.000000
# 2 -0.009437 0.019919 -0.006673 0.000000 -0.002220 0.000000
# 3 -0.000734 -0.006673 0.016253 0.000000 -0.000996 0.000000
# 4 0.000000 0.000000 0.000000 0.031774 0.000000 -0.001042
# 5 -0.005287 -0.002220 -0.000996 0.000000 0.033566 0.000000
# 6 0.000000 0.000000 0.000000 -0.001042 0.000000 0.035699
#
#
# Mechanical properties :
#
#
# Convention : Reuss Voigt Hill
#
# Bulk Modulus (GPa) = 46.57228 53.37656 49.97442
# Shear Modulus (GPa) = 25.37497 27.77210 26.57354
#
# Velocity S-wave (km/s) = 3.59519 3.76118 3.67912
# Velocity P-wave (km/s) = 6.39974 6.78607 6.59573
#
# Compressibility (1/GPa) = 0.02147200
#
# Stress axis : x y z
#
# Youngs Moduli (GPa) = 52.66374 50.20365 61.52681
#
# Poissons Ratio (x) = 0.47377 0.04515
# Poissons Ratio (y) = 0.49699 0.41059
# Poissons Ratio (z) = 0.03864 0.33503
#
# Static dielectric constant tensor:
#      x y z
#    x 3.498870 0.000000 0.019760 
#    y 0.000000 3.566100 0.000000 
#    z 0.019760 0.000000 3.641220 
# 
# 
# High freq. dielectric constant tensor:
#      x y z
#    x 1.751140 0.000000 0.004140 
#    y 0.000000 1.766580 0.000000 
#    z 0.004140 0.000000 1.764880 
# 
# From -- ./inp_files/238900.got.cif
#   From: 2010.06.25/outbox.cif.g09.slc.cpg/sg12_120_cif.got.tgz:238900.got - 2010.06.28 00:19:55.
