data_PCOD8087043
_publ_section_title
;
Structure prediction by ZEFSAII (Michael W. Deem and Ramdas Pophale) SiO2 
 PCOD8087043
Probable space group: C 2/M
;
_chemical_formula_sum "Si O2"
_cell_formula_units_Z 56
_cell_length_a 26.050185
_cell_length_b 9.104839
_cell_length_c 13.116812
_cell_angle_alpha 90.000000
_cell_angle_beta 113.404124
_cell_angle_gamma 90.000000
_cell_volume 2855.120420
_symmetry_space_group_name_H-M "C 2/M"
_symmetry_group_IT_number 12
_symmetry_cell_setting 'monoclinic'
loop_
_space_group_symop_operation_xyz
x,y,z
-x,y,-z
-x,-y,-z
x,-y,z
1/2+x,1/2+y,z
1/2-x,1/2+y,-z
1/2-x,1/2-y,-z
1/2+x,1/2-y,z
loop_
_atom_site_type_symbol
_atom_site_label
_atom_site_fract_x
_atom_site_fract_y
_atom_site_fract_z
Si Si1 0.799395 0.327766 0.099229
Si Si2 0.683085 0.831298 0.306819
Si Si3 0.129225 0.829880 0.445733
Si Si4 0.019360 0.833337 0.252835
Si Si5 0.418628 0.172303 0.101234
Si Si6 0.302254 0.334112 0.310067
Si Si7 0.906246 0.169154 0.886003
O O1 0.788635 0.500000 0.085920
O O2 0.857802 0.283893 0.094032
O O3 0.801063 0.279621 0.217558
O O4 0.750000 0.250000 0.000000
O O5 0.669508 0.766068 0.406537
O O6 0.748695 0.814276 0.339771
O O7 0.651487 0.745915 0.191688
O O8 0.663800 0.000000 0.288303
O O9 0.064149 0.788539 0.375606
O O10 0.144116 0.801691 0.575674
O O11 0.138722 0.000000 0.422293
O O12 0.048419 0.813130 0.166513
O O13 0.965576 0.727774 0.218330
O O14 0.998888 0.000000 0.252024
O O15 0.424782 0.000000 0.090285
O O16 0.430506 0.253689 0.004872
O O17 0.304639 0.500000 0.267985
O O18 0.893807 0.000000 0.900839
#
# Coordination Sequence:
#
# PCOD8087043 Si02
#       7
#     8   8   8   8   8   8   8
#     4  11  25  42  59  81 108 140 180 224 269 321
#     4  10  19  31  52  84 116 144 178 220 269 322
#     4   9  19  36  56  81 113 145 180 221 264 317
#     4   9  19  35  55  80 109 142 180 218 262 321
#     4  11  23  37  54  79 109 140 179 226 274 321
#     4  10  21  37  57  81 110 145 184 225 267 315
#     4  10  20  34  54  81 112 145 181 220 266 323
#
# _framework density 19.613883999999999
#
# number of rings (size 3 to 8) (size 9 to 14) (size 15 to 20)
#    0.000    2.000    0.000    4.286    0.000   12.000 
#    0.000    0.714    0.000    4.286    0.000    0.000 
#    0.000    0.000    0.000    0.000    0.000    0.000 
#
# Total GULP energy -347286.823771 kJ/mol
# GULP energy per Si atom -12403.100849 kJ/mol
# Density = 1.956924 g / cm^3
# Si number density = 19.613884 Si / 1000 Ang^3
#
#
#
# Elastic Constant Matrix: (Units=GPa)
#
#
# Indices 1 2 3 4 5 6 
#
# 1 86.1320 57.6140 51.3383 0.0000 25.9619 0.0000
# 2 57.6140 100.7549 49.9143 0.0000 13.4985 0.0000
# 3 51.3383 49.9143 120.1650 0.0000 23.6963 0.0000
# 4 0.0000 0.0000 0.0000 30.5873 0.0000 2.6684
# 5 25.9619 13.4985 23.6963 0.0000 27.5692 0.0000
# 6 0.0000 0.0000 0.0000 2.6684 0.0000 32.3698
#
#
#
# Elastic Compliance Matrix: (Units=1/GPa)
#
#
# Indices 1 2 3 4 5 6 
#
# 1 0.025710 -0.010927 -0.003282 0.000000 -0.016040 0.000000
# 2 -0.010927 0.017232 -0.003438 0.000000 0.004807 0.000000
# 3 -0.003282 -0.003438 0.012295 0.000000 -0.005793 0.000000
# 4 0.000000 0.000000 0.000000 0.032930 0.000000 -0.002715
# 5 -0.016040 0.004807 -0.005793 0.000000 0.054003 0.000000
# 6 0.000000 0.000000 0.000000 -0.002715 0.000000 0.031117
#
#
# Mechanical properties :
#
#
# Convention : Reuss Voigt Hill
#
# Bulk Modulus (GPa) = 50.14152 69.42056 59.78104
# Shear Modulus (GPa) = 23.23116 27.98429 25.60772
#
# Velocity S-wave (km/s) = 3.44528 3.78134 3.61722
# Velocity P-wave (km/s) = 6.43789 7.38479 6.92754
#
# Compressibility (1/GPa) = 0.01994355
#
# Stress axis : x y z
#
# Youngs Moduli (GPa) = 38.89506 58.03098 81.33657
#
# Poissons Ratio (x) = 0.63408 0.26698
# Poissons Ratio (y) = 0.42499 0.27961
# Poissons Ratio (z) = 0.12767 0.19949
#
# Static dielectric constant tensor:
#      x y z
#    x 3.486330 0.000000 0.281160 
#    y 0.000000 3.655050 0.000000 
#    z 0.281160 0.000000 3.622180 
# 
# 
# High freq. dielectric constant tensor:
#      x y z
#    x 1.752430 0.000000 0.022690 
#    y 0.000000 1.768870 0.000000 
#    z 0.022690 0.000000 1.765430 
# 
# From -- ./inp_files/180994.got.cif
#   From: 2010.06.25/outbox.cif.g09.slc.cpg/sg12_91_cif.got.tgz:180994.got - 2010.06.28 00:19:55.
