data_PCOD8087225
_publ_section_title
;
Structure prediction by ZEFSAII (Michael W. Deem and Ramdas Pophale) SiO2 
 PCOD8087225
Probable space group: C 2/M
;
_chemical_formula_sum "Si O2"
_cell_formula_units_Z 64
_cell_length_a 27.331339
_cell_length_b 9.169584
_cell_length_c 21.914236
_cell_angle_alpha 90.000000
_cell_angle_beta 48.119988
_cell_angle_gamma 90.000000
_cell_volume 4089.098046
_symmetry_space_group_name_H-M "C 2/M"
_symmetry_group_IT_number 12
_symmetry_cell_setting 'monoclinic'
loop_
_space_group_symop_operation_xyz
x,y,z
-x,y,-z
-x,-y,-z
x,-y,z
1/2+x,1/2+y,z
1/2-x,1/2+y,-z
1/2-x,1/2-y,-z
1/2+x,1/2-y,z
loop_
_atom_site_type_symbol
_atom_site_label
_atom_site_fract_x
_atom_site_fract_y
_atom_site_fract_z
Si Si1 0.354079 0.332247 0.647689
Si Si2 0.485582 0.335393 0.109513
Si Si3 0.794437 0.672018 0.218725
Si Si4 0.680198 0.826396 0.559962
Si Si5 0.905385 0.830902 0.469024
Si Si6 0.026424 0.335464 0.409785
Si Si7 0.896464 0.835149 0.064659
Si Si8 0.619802 0.170612 0.739155
O O1 0.361915 0.500000 0.661095
O O2 0.280497 0.273707 0.719407
O O3 0.371015 0.314697 0.562777
O O4 0.401349 0.235725 0.650936
O O5 0.490334 0.500000 0.129783
O O6 0.440636 0.326791 0.087650
O O7 0.452477 0.239513 0.190151
O O8 0.558968 0.279574 0.029733
O O9 0.797821 0.500000 0.211298
O O10 0.831906 0.736836 0.128418
O O11 0.828004 0.726336 0.253718
O O12 0.750000 0.750000 0.500000
O O13 0.636633 0.764004 0.542217
O O14 0.645840 0.782425 0.651765
O O15 0.688427 0.000000 0.546508
O O16 0.978591 0.763861 0.408607
O O17 0.908760 0.000000 0.446140
O O18 0.029800 0.500000 0.380621
O O19 0.000000 0.337378 0.500000
O O20 0.873328 0.000000 0.071789
O O21 0.610378 0.000000 0.752304
#
# Coordination Sequence:
#
# PCOD8087225 Si02
#       8
#     8   8   8   8   8   8   8   8
#     4   9  17  29  44  62  86 114 142 174 214 257
#     4   8  14  25  40  56  77 106 139 173 208 248
#     4   9  16  26  40  59  84 113 143 172 206 251
#     4  11  22  34  46  62  86 115 148 184 217 249
#     4  10  19  32  48  63  83 113 146 180 217 253
#     4   9  17  29  45  65  85 106 138 177 215 257
#     4   8  14  24  37  56  81 107 135 169 209 249
#     4   9  18  30  42  58  82 112 146 181 212 244
#
# _framework density 15.651373
#
# number of rings (size 3 to 8) (size 9 to 14) (size 15 to 20)
#    0.000    2.875    0.000    2.625    0.000    6.000 
#    0.000    5.000    0.000    0.000    0.000    0.000 
#    0.000    1.000    0.000    3.250    0.000    4.750 
#
# Total GULP energy -396655.057837 kJ/mol
# GULP energy per Si atom -12395.470557 kJ/mol
# Density = 1.561575 g / cm^3
# Si number density = 15.651373 Si / 1000 Ang^3
#
#
#
# Elastic Constant Matrix: (Units=GPa)
#
#
# Indices 1 2 3 4 5 6 
#
# 1 75.0315 35.7113 39.2733 -0.0018 -18.5237 -0.0003
# 2 35.7113 65.2448 44.2582 -0.0074 -10.4360 0.0011
# 3 39.2733 44.2582 96.5890 -0.0096 -22.3253 0.0058
# 4 -0.0018 -0.0074 -0.0096 26.8571 0.0039 -5.1365
# 5 -18.5237 -10.4360 -22.3253 0.0039 21.1134 -0.0023
# 6 -0.0003 0.0011 0.0058 -5.1365 -0.0023 24.7404
#
#
#
# Elastic Compliance Matrix: (Units=1/GPa)
#
#
# Indices 1 2 3 4 5 6 
#
# 1 0.021466 -0.008400 -0.001967 -0.000003 0.012602 0.000002
# 2 -0.008400 0.025527 -0.009355 0.000004 -0.004643 0.000001
# 3 -0.001967 -0.009355 0.018491 0.000002 0.013203 -0.000002
# 4 -0.000003 0.000004 0.000002 0.038774 -0.000005 0.008050
# 5 0.012602 -0.004643 0.013203 -0.000005 0.070085 0.000003
# 6 0.000002 0.000001 -0.000002 0.008050 0.000003 0.042091
#
#
# Mechanical properties :
#
#
# Convention : Reuss Voigt Hill
#
# Bulk Modulus (GPa) = 38.39916 52.81676 45.60796
# Shear Modulus (GPa) = 18.89949 22.38367 20.64158
#
# Velocity S-wave (km/s) = 3.47872 3.78582 3.63552
# Velocity P-wave (km/s) = 6.38143 7.27523 6.84294
#
# Compressibility (1/GPa) = 0.02604224
#
# Stress axis : x y z
#
# Youngs Moduli (GPa) = 46.58531 39.17347 54.08027
#
# Poissons Ratio (x) = 0.32904 0.10635
# Poissons Ratio (y) = 0.39130 0.50592
# Poissons Ratio (z) = 0.09161 0.36647
#
# Static dielectric constant tensor:
#      x y z
#    x 2.887020 -0.000070 -0.257930 
#    y -0.000070 3.180510 0.000020 
#    z -0.257930 0.000020 3.180530 
# 
# 
# High freq. dielectric constant tensor:
#      x y z
#    x 1.565660 0.000000 -0.025570 
#    y 0.000000 1.606620 0.000000 
#    z -0.025570 0.000000 1.588600 
# 
# From -- ./inp_files/326826.got.cif
#   From: 2010.06.25/outbox.cif.g09.slc.cpg/sg12_164_cif.got.tgz:326826.got - 2010.06.28 00:19:55.
