data_PCOD8087232
_publ_section_title
;
Structure prediction by ZEFSAII (Michael W. Deem and Ramdas Pophale) SiO2 
 PCOD8087232
Probable space group: C 2/M
;
_chemical_formula_sum "Si O2"
_cell_formula_units_Z 40
_cell_length_a 14.597951
_cell_length_b 33.057455
_cell_length_c 4.957048
_cell_angle_alpha 90.000000
_cell_angle_beta 107.144059
_cell_angle_gamma 90.000000
_cell_volume 2285.837815
_symmetry_space_group_name_H-M "C 2/M"
_symmetry_group_IT_number 12
_symmetry_cell_setting 'monoclinic'
loop_
_space_group_symop_operation_xyz
x,y,z
-x,y,-z
-x,-y,-z
x,-y,z
1/2+x,1/2+y,z
1/2-x,1/2+y,-z
1/2-x,1/2-y,-z
1/2+x,1/2-y,z
loop_
_atom_site_type_symbol
_atom_site_label
_atom_site_fract_x
_atom_site_fract_y
_atom_site_fract_z
Si Si1 0.391119 0.200500 0.422855
Si Si2 0.433918 0.543694 0.191300
Si Si3 0.885961 0.123666 0.371292
Si Si4 0.297787 0.663439 0.798198
Si Si5 0.108420 0.753847 0.080592
O O1 0.500000 0.184060 0.500000
O O2 0.318447 0.163046 0.303338
O O3 0.373804 0.215905 0.709648
O O4 0.370179 0.237894 0.201668
O O5 0.500000 0.535238 0.500000
O O6 0.383575 0.500000 0.076151
O O7 0.361067 0.579336 0.220158
O O8 0.500000 0.558805 0.000000
O O9 0.837748 0.130540 0.620326
O O10 0.000000 0.129100 0.500000
O O11 0.841354 0.155994 0.130483
O O12 0.325802 0.709617 0.758229
O O13 0.000000 0.770002 0.000000
#
# Coordination Sequence:
#
# PCOD8087232 Si02
#       5
#     8   8   8   8   8
#     4  10  21  35  49  65  89 124 168 204 235 280
#     4   9  17  31  49  68  96 132 158 178 216 278
#     4  11  21  32  47  73 101 124 152 188 232 283
#     4  12  21  32  49  70  96 124 156 199 245 277
#     4  10  19  32  48  66  90 124 159 196 242 288
#
# _framework density 17.499054000000001
#
# number of rings (size 3 to 8) (size 9 to 14) (size 15 to 20)
#    0.000    1.600    0.000    7.800    0.000    1.600 
#    0.000    0.000    0.000    0.000    0.000    0.000 
#    0.000    4.800    0.000    0.000    0.000    0.000 
#
# Total GULP energy -247880.346319 kJ/mol
# GULP energy per Si atom -12394.017316 kJ/mol
# Density = 1.745923 g / cm^3
# Si number density = 17.499054 Si / 1000 Ang^3
#
#
#
# Elastic Constant Matrix: (Units=GPa)
#
#
# Indices 1 2 3 4 5 6 
#
# 1 74.8480 38.7639 28.3908 0.0000 10.4764 0.0000
# 2 38.7639 64.3702 11.5335 0.0000 7.4121 0.0000
# 3 28.3908 11.5335 81.5777 0.0000 -1.6519 0.0000
# 4 0.0000 0.0000 0.0000 12.9369 0.0000 -4.0703
# 5 10.4764 7.4121 -1.6519 0.0000 28.5729 0.0000
# 6 0.0000 0.0000 0.0000 -4.0703 0.0000 14.5948
#
#
#
# Elastic Compliance Matrix: (Units=1/GPa)
#
#
# Indices 1 2 3 4 5 6 
#
# 1 0.022708 -0.011894 -0.006335 0.000000 -0.005607 0.000000
# 2 -0.011894 0.022707 0.000899 0.000000 -0.001477 0.000000
# 3 -0.006335 0.000899 0.014395 0.000000 0.002922 0.000000
# 4 0.000000 0.000000 0.000000 0.084733 0.000000 0.023631
# 5 -0.005607 -0.001477 0.002922 0.000000 0.037606 0.000000
# 6 0.000000 0.000000 0.000000 0.023631 0.000000 0.075108
#
#
# Mechanical properties :
#
#
# Convention : Reuss Voigt Hill
#
# Bulk Modulus (GPa) = 39.76108 42.01915 40.89012
# Shear Modulus (GPa) = 16.64998 20.69475 18.67236
#
# Velocity S-wave (km/s) = 3.08795 3.44266 3.27012
# Velocity P-wave (km/s) = 5.95694 6.31402 6.13808
#
# Compressibility (1/GPa) = 0.02515022
#
# Stress axis : x y z
#
# Youngs Moduli (GPa) = 44.03714 44.03962 69.46884
#
# Poissons Ratio (x) = 0.52382 0.44007
# Poissons Ratio (y) = 0.52379 -0.06247
# Poissons Ratio (z) = 0.27897 -0.03960
#
# Static dielectric constant tensor:
#      x y z
#    x 3.224540 0.000000 -0.017780 
#    y 0.000000 3.379320 0.000000 
#    z -0.017780 0.000000 3.361160 
# 
# 
# High freq. dielectric constant tensor:
#      x y z
#    x 1.648250 0.000000 -0.016730 
#    y 0.000000 1.646830 0.000000 
#    z -0.016730 0.000000 1.699010 
# 
# From -- ./inp_files/12606.got.cif
#   From: 2010.06.25/outbox.cif.g09.slc.cpg/sg12_7_cif.got.tgz:12606.got - 2010.06.28 00:19:55.
