data_PCOD8087093
_publ_section_title
;
Structure prediction by ZEFSAII (Michael W. Deem and Ramdas Pophale) SiO2 
 PCOD8087093
Probable space group: C 2/M
;
_chemical_formula_sum "Si O2"
_cell_formula_units_Z 64
_cell_length_a 20.678049
_cell_length_b 8.811589
_cell_length_c 24.293103
_cell_angle_alpha 90.000000
_cell_angle_beta 127.941993
_cell_angle_gamma 90.000000
_cell_volume 3490.776869
_symmetry_space_group_name_H-M "C 2/M"
_symmetry_group_IT_number 12
_symmetry_cell_setting 'monoclinic'
loop_
_space_group_symop_operation_xyz
x,y,z
-x,y,-z
-x,-y,-z
x,-y,z
1/2+x,1/2+y,z
1/2-x,1/2+y,-z
1/2-x,1/2-y,-z
1/2+x,1/2-y,z
loop_
_atom_site_type_symbol
_atom_site_label
_atom_site_fract_x
_atom_site_fract_y
_atom_site_fract_z
Si Si1 0.709147 0.176984 0.281694
Si Si2 0.734113 0.178224 0.077306
Si Si3 0.869673 0.675437 0.571129
Si Si4 0.756163 0.325057 0.414868
Si Si5 0.979426 0.678596 0.798441
Si Si6 0.034082 0.678241 0.708297
Si Si7 0.285073 0.179827 0.214790
Si Si8 0.875462 0.178078 0.067317
O O1 0.760490 0.224407 0.362443
O O2 0.614669 0.220590 0.240899
O O3 0.741696 0.269764 0.247414
O O4 0.721546 0.000000 0.277385
O O5 0.735217 0.255126 0.137275
O O6 0.816407 0.222945 0.087254
O O7 0.725258 0.000000 0.080174
O O8 0.654968 0.239917 0.003785
O O9 0.855099 0.500000 0.581070
O O10 0.840101 0.703126 0.493147
O O11 0.820277 0.779921 0.587314
O O12 0.965764 0.718797 0.626361
O O13 0.746875 0.500000 0.393106
O O14 0.994894 0.500000 0.811632
O O15 0.004784 0.742591 0.751843
O O16 0.033392 0.763746 0.872378
O O17 0.043668 0.500000 0.719068
O O18 0.121936 0.746915 0.737114
O O19 0.284718 0.000000 0.211014
O O20 0.875482 0.000000 0.056581
#
# Coordination Sequence:
#
# PCOD8087093 Si02
#       8
#     8   8   8   8   8   8   8   8
#     4  11  23  39  57  77 112 153 185 220 274 338
#     4  10  20  35  55  81 114 149 182 216 270 333
#     4   9  17  33  55  81 111 144 182 226 276 329
#     4  10  19  31  53  83 112 142 183 230 275 321
#     4  10  19  35  58  81 107 144 186 225 269 327
#     4   9  17  33  57  82 107 141 184 226 272 325
#     4  11  22  37  58  82 111 143 183 231 275 323
#     4  10  20  33  55  86 115 141 178 231 274 312
#
# _framework density 18.334028
#
# number of rings (size 3 to 8) (size 9 to 14) (size 15 to 20)
#    0.000    2.000    2.500    1.875    0.000    2.500 
#    0.000    2.500    0.000    7.500    0.000    0.000 
#    0.000    0.000    0.000    0.000    0.000    0.000 
#
# Total GULP energy -396860.266259 kJ/mol
# GULP energy per Si atom -12401.883321 kJ/mol
# Density = 1.829230 g / cm^3
# Si number density = 18.334028 Si / 1000 Ang^3
#
#
#
# Elastic Constant Matrix: (Units=GPa)
#
#
# Indices 1 2 3 4 5 6 
#
# 1 79.1475 27.9252 54.9074 0.0000 -1.6179 0.0000
# 2 27.9252 56.4779 45.1670 0.0000 2.5688 0.0000
# 3 54.9074 45.1670 150.8450 0.0000 0.8511 0.0000
# 4 0.0000 0.0000 0.0000 33.1406 0.0000 -3.2832
# 5 -1.6179 2.5688 0.8511 0.0000 24.4578 0.0000
# 6 0.0000 0.0000 0.0000 -3.2832 0.0000 26.0016
#
#
#
# Elastic Compliance Matrix: (Units=1/GPa)
#
#
# Indices 1 2 3 4 5 6 
#
# 1 0.017913 -0.004890 -0.005067 0.000000 0.001875 0.000000
# 2 -0.004890 0.024735 -0.005611 0.000000 -0.002726 0.000000
# 3 -0.005067 -0.005611 0.010154 0.000000 -0.000099 0.000000
# 4 0.000000 0.000000 0.000000 0.030557 0.000000 0.003858
# 5 0.001875 -0.002726 -0.000099 0.000000 0.041301 0.000000
# 6 0.000000 0.000000 0.000000 0.003858 0.000000 0.038946
#
#
# Mechanical properties :
#
#
# Convention : Reuss Voigt Hill
#
# Bulk Modulus (GPa) = 46.15365 60.27439 53.21402
# Shear Modulus (GPa) = 24.75678 27.28473 26.02075
#
# Velocity S-wave (km/s) = 3.67865 3.86191 3.77139
# Velocity P-wave (km/s) = 6.57813 7.26862 6.93198
#
# Compressibility (1/GPa) = 0.02166676
#
# Stress axis : x y z
#
# Youngs Moduli (GPa) = 55.82418 40.42804 98.48148
#
# Poissons Ratio (x) = 0.19771 0.49897
# Poissons Ratio (y) = 0.27301 0.55257
# Poissons Ratio (z) = 0.28284 0.22684
#
# Static dielectric constant tensor:
#      x y z
#    x 3.199600 0.000000 0.106770 
#    y 0.000000 3.280740 0.000000 
#    z 0.106770 0.000000 3.593290 
# 
# 
# High freq. dielectric constant tensor:
#      x y z
#    x 1.680170 0.000000 0.006250 
#    y 0.000000 1.707400 0.000000 
#    z 0.006250 0.000000 1.727410 
# 
# From -- ./inp_files/346240.got.cif
#   From: 2010.06.25/outbox.cif.g09.slc.cpg/sg12_174_cif.got.tgz:346240.got - 2010.06.28 00:19:55.
