data_PCOD8087131
_publ_section_title
;
Structure prediction by ZEFSAII (Michael W. Deem and Ramdas Pophale) SiO2 
 PCOD8087131
Probable space group: C 2/M
;
_chemical_formula_sum "Si O2"
_cell_formula_units_Z 40
_cell_length_a 18.108914
_cell_length_b 7.838622
_cell_length_c 17.080764
_cell_angle_alpha 90.000000
_cell_angle_beta 122.752271
_cell_angle_gamma 90.000000
_cell_volume 2039.128006
_symmetry_space_group_name_H-M "C 2/M"
_symmetry_group_IT_number 12
_symmetry_cell_setting 'monoclinic'
loop_
_space_group_symop_operation_xyz
x,y,z
-x,y,-z
-x,-y,-z
x,-y,z
1/2+x,1/2+y,z
1/2-x,1/2+y,-z
1/2-x,1/2-y,-z
1/2+x,1/2-y,z
loop_
_atom_site_type_symbol
_atom_site_label
_atom_site_fract_x
_atom_site_fract_y
_atom_site_fract_z
Si Si1 0.546229 0.000000 0.903638
Si Si2 0.794359 0.306702 0.419617
Si Si3 0.363670 0.000000 0.879207
Si Si4 0.299719 0.313410 0.253976
Si Si5 0.883626 0.194868 0.614868
Si Si6 0.061988 0.795374 0.792723
O O1 0.569656 0.177066 0.873541
O O2 0.443253 0.000000 0.864222
O O3 0.604735 0.000000 0.014256
O O4 0.793627 0.500000 0.447794
O O5 0.811876 0.301849 0.337329
O O6 0.871627 0.217040 0.514195
O O7 0.700057 0.220780 0.387839
O O8 0.303136 0.831338 0.829545
O O9 0.338420 0.500000 0.298213
O O10 0.355345 0.241598 0.213484
O O11 0.975424 0.271163 0.697162
O O12 0.888035 0.000000 0.641303
O O13 0.062657 0.000000 0.813633
#
# Coordination Sequence:
#
# PCOD8087131 Si02
#       6
#     4   8   4   8   8   8
#     4  11  22  40  70  87 115 157 201 252 297 356
#     4  10  19  31  54  83 114 153 201 238 287 351
#     4   9  22  42  62  91 113 155 203 242 309 354
#     4   9  20  38  55  78 121 152 185 242 298 346
#     4   9  19  34  52  80 114 158 196 239 292 346
#     4  10  22  39  59  89 121 155 197 243 302 355
#
# _framework density 19.616229000000001
#
# number of rings (size 3 to 8) (size 9 to 14) (size 15 to 20)
#    0.600    1.800    0.000    1.800    2.800    2.400 
#    0.000    7.000    0.000    0.000    0.000    0.000 
#    0.000    0.000    0.000    0.000    0.000    0.000 
#
# Total GULP energy -247822.863509 kJ/mol
# GULP energy per Si atom -12391.143175 kJ/mol
# Density = 1.957158 g / cm^3
# Si number density = 19.616229 Si / 1000 Ang^3
#
#
#
# Elastic Constant Matrix: (Units=GPa)
#
#
# Indices 1 2 3 4 5 6 
#
# 1 98.2939 24.2845 36.2803 0.0000 -23.5552 0.0000
# 2 24.2845 52.9320 23.6110 0.0000 -11.8458 0.0000
# 3 36.2803 23.6110 86.3054 0.0000 -21.1518 0.0000
# 4 0.0000 0.0000 0.0000 20.6559 0.0000 -3.3082
# 5 -23.5552 -11.8458 -21.1518 0.0000 26.4860 0.0000
# 6 0.0000 0.0000 0.0000 -3.3082 0.0000 19.7445
#
#
#
# Elastic Compliance Matrix: (Units=1/GPa)
#
#
# Indices 1 2 3 4 5 6 
#
# 1 0.014158 -0.003224 -0.002906 0.000000 0.008829 0.000000
# 2 -0.003224 0.023081 -0.003894 0.000000 0.004346 0.000000
# 3 -0.002906 -0.003894 0.015932 0.000000 0.008397 0.000000
# 4 0.000000 0.000000 0.000000 0.049747 0.000000 0.008335
# 5 0.008829 0.004346 0.008397 0.000000 0.054258 0.000000
# 6 0.000000 0.000000 0.000000 0.008335 0.000000 0.052044
#
#
# Mechanical properties :
#
#
# Convention : Reuss Voigt Hill
#
# Bulk Modulus (GPa) = 30.19003 45.09809 37.64406
# Shear Modulus (GPa) = 20.80665 23.60097 22.20381
#
# Velocity S-wave (km/s) = 3.26035 3.47239 3.36804
# Velocity P-wave (km/s) = 5.44030 6.25434 5.86147
#
# Compressibility (1/GPa) = 0.03312352
#
# Stress axis : x y z
#
# Youngs Moduli (GPa) = 70.62917 43.32623 62.76818
#
# Poissons Ratio (x) = 0.13966 0.18241
# Poissons Ratio (y) = 0.22767 0.24442
# Poissons Ratio (z) = 0.20525 0.16872
#
# Static dielectric constant tensor:
#      x y z
#    x 3.682890 0.000000 0.143940 
#    y 0.000000 3.280570 0.000000 
#    z 0.143940 0.000000 3.394960 
# 
# 
# High freq. dielectric constant tensor:
#      x y z
#    x 1.764600 0.000000 0.000700 
#    y 0.000000 1.744370 0.000000 
#    z 0.000700 0.000000 1.756390 
# 
# From -- ./inp_files/221250.got.cif
#   From: 2010.06.25/outbox.cif.g09.slc.cpg/sg12_111_cif.got.tgz:221250.got - 2010.06.28 00:19:55.
