data_PCOD8087594
_publ_section_title
;
Structure prediction by ZEFSAII (Michael W. Deem and Ramdas Pophale) SiO2 
 PCOD8087594
Probable space group: C 2/M
;
_chemical_formula_sum "Si O2"
_cell_formula_units_Z 56
_cell_length_a 19.270985
_cell_length_b 9.307651
_cell_length_c 16.862666
_cell_angle_alpha 90.000000
_cell_angle_beta 84.386120
_cell_angle_gamma 90.000000
_cell_volume 3010.109106
_symmetry_space_group_name_H-M "C 2/M"
_symmetry_group_IT_number 12
_symmetry_cell_setting 'monoclinic'
loop_
_space_group_symop_operation_xyz
x,y,z
-x,y,-z
-x,-y,-z
x,-y,z
1/2+x,1/2+y,z
1/2-x,1/2+y,-z
1/2-x,1/2-y,-z
1/2+x,1/2-y,z
loop_
_atom_site_type_symbol
_atom_site_label
_atom_site_fract_x
_atom_site_fract_y
_atom_site_fract_z
Si Si1 0.178476 0.332941 0.500411
Si Si2 0.468811 0.667281 0.250562
Si Si3 0.315885 0.165675 0.678448
Si Si4 0.049417 0.833408 0.567428
Si Si5 0.817100 0.169890 0.225383
Si Si6 0.232601 0.667140 0.080941
Si Si7 0.403584 0.832133 0.810834
O O1 0.187907 0.500000 0.522012
O O2 0.250000 0.250000 0.500000
O O3 0.155006 0.312863 0.412226
O O4 0.119484 0.260732 0.560161
O O5 0.472850 0.500000 0.229926
O O6 0.484764 0.693759 0.342565
O O7 0.393411 0.734107 0.234994
O O8 0.524321 0.746460 0.187472
O O9 0.237593 0.228460 0.701437
O O10 0.371213 0.232202 0.732992
O O11 0.309792 0.000000 0.704223
O O12 0.000000 0.784519 0.500000
O O13 0.070273 0.000000 0.554746
O O14 0.786637 0.216843 0.143291
O O15 0.824322 0.000000 0.230629
O O16 0.242387 0.500000 0.063390
O O17 0.152220 0.699972 0.113611
O O18 0.250000 0.750000 0.000000
O O19 0.421664 0.000000 0.804412
#
# Coordination Sequence:
#
# PCOD8087594 Si02
#       7
#     8   8   8   8   8   8   8
#     4  11  21  32  49  72  98 131 172 217 262 304
#     4  10  19  32  51  73 100 134 168 203 244 292
#     4   8  15  30  50  68  90 126 169 207 243 290
#     4  10  21  35  50  72 104 138 172 215 262 301
#     4   8  15  30  51  72  95 128 167 200 236 287
#     4   9  18  34  56  78  99 125 158 198 241 289
#     4   9  18  33  53  75  98 126 161 200 242 290
#
# _framework density 18.603975999999999
#
# number of rings (size 3 to 8) (size 9 to 14) (size 15 to 20)
#    0.000    2.714    0.000    3.857    0.000    3.714 
#    0.000    2.143    0.000    8.571    0.000    0.000 
#    0.000    0.000    0.000    0.000    0.000    0.000 
#
# Total GULP energy -347010.011756 kJ/mol
# GULP energy per Si atom -12393.214706 kJ/mol
# Density = 1.856163 g / cm^3
# Si number density = 18.603976 Si / 1000 Ang^3
#
#
#
# Elastic Constant Matrix: (Units=GPa)
#
#
# Indices 1 2 3 4 5 6 
#
# 1 113.1000 34.7543 27.7299 0.0000 -16.1351 0.0000
# 2 34.7543 54.4036 28.3799 0.0000 -12.9133 0.0000
# 3 27.7299 28.3799 66.7639 0.0000 -12.1398 0.0000
# 4 0.0000 0.0000 0.0000 26.4131 0.0000 -6.2830
# 5 -16.1351 -12.9133 -12.1398 0.0000 24.8744 0.0000
# 6 0.0000 0.0000 0.0000 -6.2830 0.0000 31.4687
#
#
#
# Elastic Compliance Matrix: (Units=1/GPa)
#
#
# Indices 1 2 3 4 5 6 
#
# 1 0.011509 -0.005560 -0.001738 0.000000 0.003731 0.000000
# 2 -0.005560 0.027882 -0.008304 0.000000 0.006816 0.000000
# 3 -0.001738 -0.008304 0.020017 0.000000 0.004331 0.000000
# 4 0.000000 0.000000 0.000000 0.039748 0.000000 0.007936
# 5 0.003731 0.006816 0.004331 0.000000 0.048274 0.000000
# 6 0.000000 0.000000 0.000000 0.007936 0.000000 0.033362
#
#
# Mechanical properties :
#
#
# Convention : Reuss Voigt Hill
#
# Bulk Modulus (GPa) = 35.45484 46.22175 40.83829
# Shear Modulus (GPa) = 22.58390 26.11149 24.34769
#
# Velocity S-wave (km/s) = 3.48793 3.75045 3.62157
# Velocity P-wave (km/s) = 5.94305 6.60708 6.28385
#
# Compressibility (1/GPa) = 0.02820489
#
# Stress axis : x y z
#
# Youngs Moduli (GPa) = 86.89184 35.86515 49.95662
#
# Poissons Ratio (x) = 0.19940 0.08684
# Poissons Ratio (y) = 0.48309 0.41482
# Poissons Ratio (z) = 0.15105 0.29781
#
# Static dielectric constant tensor:
#      x y z
#    x 3.592140 0.000000 -0.021970 
#    y 0.000000 3.087390 0.000000 
#    z -0.021970 0.000000 3.447200 
# 
# 
# High freq. dielectric constant tensor:
#      x y z
#    x 1.730080 0.000000 -0.006350 
#    y 0.000000 1.689440 0.000000 
#    z -0.006350 0.000000 1.709520 
# 
# From -- ./inp_files/280173.got.cif
#   From: 2010.06.25/outbox.cif.g09.slc.cpg/sg12_141_cif.got.tgz:280173.got - 2010.06.28 00:19:55.
