data_PCOD8087478
_publ_section_title
;
Structure prediction by ZEFSAII (Michael W. Deem and Ramdas Pophale) SiO2 
 PCOD8087478
Probable space group: C 2/M
;
_chemical_formula_sum "Si O2"
_cell_formula_units_Z 48
_cell_length_a 32.661871
_cell_length_b 9.040468
_cell_length_c 9.134853
_cell_angle_alpha 90.000000
_cell_angle_beta 87.153167
_cell_angle_gamma 90.000000
_cell_volume 2693.997761
_symmetry_space_group_name_H-M "C 2/M"
_symmetry_group_IT_number 12
_symmetry_cell_setting 'monoclinic'
loop_
_space_group_symop_operation_xyz
x,y,z
-x,y,-z
-x,-y,-z
x,-y,z
1/2+x,1/2+y,z
1/2-x,1/2+y,-z
1/2-x,1/2-y,-z
1/2+x,1/2-y,z
loop_
_atom_site_type_symbol
_atom_site_label
_atom_site_fract_x
_atom_site_fract_y
_atom_site_fract_z
Si Si1 0.210062 0.824713 0.571349
Si Si2 0.167722 0.666827 0.827907
Si Si3 0.954602 0.325657 0.055594
Si Si4 0.629515 0.327709 0.408908
Si Si5 0.413976 0.837110 0.347318
Si Si6 0.120847 0.176059 0.079060
O O1 0.250000 0.750000 0.500000
O O2 0.202384 0.757674 0.734139
O O3 0.172848 0.780933 0.470472
O O4 0.215810 0.000000 0.582829
O O5 0.183336 0.500000 0.857593
O O6 0.127077 0.662312 0.739800
O O7 0.157794 0.751152 0.980473
O O8 0.945349 0.500000 0.035746
O O9 0.949448 0.282598 0.228873
O O10 0.923555 0.232514 0.962403
O O11 0.000000 0.281704 0.000000
O O12 0.623272 0.500000 0.415397
O O13 0.591372 0.264256 0.509467
O O14 0.627575 0.270087 0.243890
O O15 0.424346 0.000000 0.404580
O O16 0.123052 0.000000 0.060702
#
# Coordination Sequence:
#
# PCOD8087478 Si02
#       6
#     8   8   8   8   8   8
#     4  10  19  33  52  74  99 128 162 201 243 286
#     4   9  17  31  50  72  96 126 163 199 237 285
#     4   9  18  33  51  72  98 127 161 201 242 285
#     4   9  19  33  49  70  98 128 158 196 240 287
#     4   8  15  28  48  70  91 121 161 197 232 281
#     4  10  19  32  50  73  98 126 161 198 239 287
#
# _framework density 17.817388000000001
#
# number of rings (size 3 to 8) (size 9 to 14) (size 15 to 20)
#    0.000    2.833    0.000    2.500    0.000    6.333 
#    0.000    1.667    0.000    5.000    0.000    0.000 
#    0.000    0.000    0.000    0.000    0.000    0.000 
#
# Total GULP energy -297518.004710 kJ/mol
# GULP energy per Si atom -12396.583530 kJ/mol
# Density = 1.777683 g / cm^3
# Si number density = 17.817388 Si / 1000 Ang^3
#
#
#
# Elastic Constant Matrix: (Units=GPa)
#
#
# Indices 1 2 3 4 5 6 
#
# 1 83.1716 41.2855 62.8071 0.0000 -35.5461 0.0000
# 2 41.2855 77.9502 63.6953 0.0000 -14.4286 0.0000
# 3 62.8071 63.6953 163.9591 0.0000 -32.9691 0.0000
# 4 0.0000 0.0000 0.0000 31.6183 0.0000 -8.8084
# 5 -35.5461 -14.4286 -32.9691 0.0000 33.0203 0.0000
# 6 0.0000 0.0000 0.0000 -8.8084 0.0000 21.1904
#
#
#
# Elastic Compliance Matrix: (Units=1/GPa)
#
#
# Indices 1 2 3 4 5 6 
#
# 1 0.028818 -0.008399 -0.002848 0.000000 0.024509 0.000000
# 2 -0.008399 0.021278 -0.006253 0.000000 -0.005987 0.000000
# 3 -0.002848 -0.006253 0.010577 0.000000 0.004762 0.000000
# 4 0.000000 0.000000 0.000000 0.035769 0.000000 0.014869
# 5 0.024509 -0.005987 0.004762 0.000000 0.058807 0.000000
# 6 0.000000 0.000000 0.000000 0.014869 0.000000 0.053372
#
#
# Mechanical properties :
#
#
# Convention : Reuss Voigt Hill
#
# Bulk Modulus (GPa) = 38.95150 73.40630 56.17890
# Shear Modulus (GPa) = 19.82723 27.65197 23.73960
#
# Velocity S-wave (km/s) = 3.33949 3.94377 3.65414
# Velocity P-wave (km/s) = 6.06453 7.87569 7.02869
#
# Compressibility (1/GPa) = 0.02567295
#
# Stress axis : x y z
#
# Youngs Moduli (GPa) = 34.70071 46.99605 94.54768
#
# Poissons Ratio (x) = 0.39474 0.26926
# Poissons Ratio (y) = 0.29147 0.59117
# Poissons Ratio (z) = 0.09882 0.29385
#
# Static dielectric constant tensor:
#      x y z
#    x 3.144950 0.000000 -0.306320 
#    y 0.000000 3.399020 0.000000 
#    z -0.306320 0.000000 3.665740 
# 
# 
# High freq. dielectric constant tensor:
#      x y z
#    x 1.660900 0.000000 -0.030240 
#    y 0.000000 1.694840 0.000000 
#    z -0.030240 0.000000 1.692440 
# 
# From -- ./inp_files/108618.got.cif
#   From: 2010.06.25/outbox.cif.g09.slc.cpg/sg12_55_cif.got.tgz:108618.got - 2010.06.28 00:19:55.
