data_PCOD8087173
_publ_section_title
;
Structure prediction by ZEFSAII (Michael W. Deem and Ramdas Pophale) SiO2 
 PCOD8087173
Probable space group: C 2/M
;
_chemical_formula_sum "Si O2"
_cell_formula_units_Z 48
_cell_length_a 24.115369
_cell_length_b 14.254309
_cell_length_c 19.597876
_cell_angle_alpha 90.000000
_cell_angle_beta 21.196342
_cell_angle_gamma 90.000000
_cell_volume 2435.765780
_symmetry_space_group_name_H-M "C 2/M"
_symmetry_group_IT_number 12
_symmetry_cell_setting 'monoclinic'
loop_
_space_group_symop_operation_xyz
x,y,z
-x,y,-z
-x,-y,-z
x,-y,z
1/2+x,1/2+y,z
1/2-x,1/2+y,-z
1/2-x,1/2-y,-z
1/2+x,1/2-y,z
loop_
_atom_site_type_symbol
_atom_site_label
_atom_site_fract_x
_atom_site_fract_y
_atom_site_fract_z
Si Si1 0.596595 0.230686 0.635516
Si Si2 0.099573 0.700800 0.481936
Si Si3 0.518045 0.602622 0.400682
Si Si4 0.298446 0.110855 0.762090
Si Si5 0.384547 0.394624 0.900602
Si Si6 0.829580 0.605468 0.975011
O O1 0.750000 0.250000 0.500000
O O2 0.632686 0.175460 0.523124
O O3 0.514929 0.330759 0.716991
O O4 0.478389 0.169662 0.816382
O O5 0.228143 0.659897 0.281831
O O6 0.098976 0.814362 0.483805
O O7 0.942627 0.656682 0.634745
O O8 0.500000 0.585016 0.500000
O O9 0.485949 0.500000 0.401268
O O10 0.691373 0.635641 0.183832
O O11 0.327011 0.000000 0.719949
O O12 0.151167 0.129613 0.979252
O O13 0.446326 0.500000 0.823545
O O14 0.227857 0.382133 0.037187
O O15 0.881501 0.500000 0.930870
#
# Coordination Sequence:
#
# PCOD8087173 Si02
#       6
#     8   8   8   8   8   8
#     4  12  25  37  55  86 124 162 193 234 297 367
#     4  11  19  33  54  84 119 148 182 240 293 349
#     4  10  19  31  55  89 112 137 186 249 302 339
#     4  10  20  34  60  90 113 144 195 253 298 336
#     4  10  20  38  62  86 112 150 201 254 296 345
#     4  10  20  36  60  85 113 151 198 249 297 346
#
# _framework density 19.706327999999999
#
# number of rings (size 3 to 8) (size 9 to 14) (size 15 to 20)
#    0.000    1.500    5.000    2.500    0.000    1.333 
#    0.000    0.833    0.000    2.000    0.000    3.500 
#    0.000    0.000    0.000    0.000    0.000    0.000 
#
# Total GULP energy -297366.770486 kJ/mol
# GULP energy per Si atom -12390.282104 kJ/mol
# Density = 1.966148 g / cm^3
# Si number density = 19.706328 Si / 1000 Ang^3
#
#
#
# Elastic Constant Matrix: (Units=GPa)
#
#
# Indices 1 2 3 4 5 6 
#
# 1 97.7965 22.1459 45.8789 -0.0066 28.0577 0.0023
# 2 22.1459 106.5843 31.8608 -0.0159 5.0641 0.0072
# 3 45.8789 31.8608 67.5390 -0.0268 17.9431 0.0116
# 4 -0.0066 -0.0159 -0.0268 5.8025 0.0094 15.0385
# 5 28.0577 5.0641 17.9431 0.0094 41.8310 -0.0035
# 6 0.0023 0.0072 0.0116 15.0385 -0.0035 18.7982
#
#
#
# Elastic Compliance Matrix: (Units=1/GPa)
#
#
# Indices 1 2 3 4 5 6 
#
# 1 0.016724 -0.000359 -0.009280 0.000018 -0.007193 -0.000012
# 2 -0.000359 0.010968 -0.005238 -0.000005 0.001160 0.000003
# 3 -0.009280 -0.005238 0.024557 -0.000119 -0.003675 0.000082
# 4 0.000018 -0.000005 -0.000119 -0.160559 0.000086 0.128446
# 5 -0.007193 0.001160 -0.003675 0.000086 0.030167 -0.000061
# 6 -0.000012 0.000003 0.000082 0.128446 -0.000061 -0.049560
#
#
# Mechanical properties :
#
#
# Convention : Reuss Voigt Hill
#
# Bulk Modulus (GPa) = 44.45513 52.41011 48.43262
# Shear Modulus (GPa) = -55.27852 24.75530 -15.26161
#
# Velocity S-wave (km/s) = -5.30208 3.54815 -2.78592
# Velocity P-wave (km/s) = 3.85680 6.59084 3.77917
#
# Compressibility (1/GPa) = 0.02249459
#
# Stress axis : x y z
#
# Youngs Moduli (GPa) = 59.79483 91.17819 40.72085
#
# Poissons Ratio (x) = 0.03274 0.37789
# Poissons Ratio (y) = 0.02147 0.21330
# Poissons Ratio (z) = 0.55490 0.47760
#
# Static dielectric constant tensor:
#      x y z
#    x 3.617010 0.000000 0.632870 
#    y 0.000000 3.988370 0.000020 
#    z 0.632870 0.000020 3.373420 
# 
# 
# High freq. dielectric constant tensor:
#      x y z
#    x 1.743380 0.000000 0.058880 
#    y 0.000000 1.789700 0.000000 
#    z 0.058880 0.000000 1.731430 
# 
# From -- ./inp_files/111480.got.cif
#   From: 2010.06.25/outbox.cif.g09.slc.cpg/sg12_56_cif.got.tgz:111480.got - 2010.06.28 00:19:55.
