data_PCOD8087146
_publ_section_title
;
Structure prediction by ZEFSAII (Michael W. Deem and Ramdas Pophale) SiO2 
 PCOD8087146
Probable space group: C 2/M
;
_chemical_formula_sum "Si O2"
_cell_formula_units_Z 56
_cell_length_a 20.502353
_cell_length_b 8.818485
_cell_length_c 30.043046
_cell_angle_alpha 90.000000
_cell_angle_beta 146.546386
_cell_angle_gamma 90.000000
_cell_volume 2994.328681
_symmetry_space_group_name_H-M "C 2/M"
_symmetry_group_IT_number 12
_symmetry_cell_setting 'monoclinic'
loop_
_space_group_symop_operation_xyz
x,y,z
-x,y,-z
-x,-y,-z
x,-y,z
1/2+x,1/2+y,z
1/2-x,1/2+y,-z
1/2-x,1/2-y,-z
1/2+x,1/2-y,z
loop_
_atom_site_type_symbol
_atom_site_label
_atom_site_fract_x
_atom_site_fract_y
_atom_site_fract_z
Si Si1 0.679539 0.678466 0.235502
Si Si2 0.303815 0.678011 0.654635
Si Si3 0.692918 0.175234 0.899385
Si Si4 0.419172 0.324075 0.080102
Si Si5 0.918468 0.679798 0.330639
Si Si6 0.433259 0.678694 0.506822
Si Si7 0.546650 0.323764 0.743414
O O1 0.692108 0.500000 0.245364
O O2 0.688785 0.741669 0.290920
O O3 0.552446 0.722558 0.141742
O O4 0.786364 0.743419 0.266400
O O5 0.274693 0.500000 0.636386
O O6 0.202385 0.769565 0.571516
O O7 0.427355 0.715219 0.701649
O O8 0.616480 0.223197 0.898322
O O9 0.658414 0.270714 0.836393
O O10 0.668411 0.000000 0.875385
O O11 0.831839 0.205151 0.988855
O O12 0.413789 0.500000 0.092314
O O13 0.921931 0.500000 0.333638
O O14 0.957454 0.735320 0.304856
O O15 0.008930 0.741091 0.418309
O O16 0.500000 0.731555 0.500000
O O17 0.441139 0.500000 0.517913
O O18 0.559968 0.500000 0.740895
#
# Coordination Sequence:
#
# PCOD8087146 Si02
#       7
#     8   8   8   8   8   8   8
#     4   9  17  34  59  85 109 144 192 234 275 326
#     4  10  20  37  62  84 107 148 194 232 273 329
#     4  10  19  31  54  86 117 148 187 233 281 333
#     4   9  17  33  56  84 115 148 189 235 279 326
#     4  11  23  39  61  84 112 148 190 234 279 337
#     4  11  23  38  58  87 119 146 180 231 286 334
#     4  11  23  40  59  81 117 154 186 230 286 338
#
# _framework density 18.702020999999998
#
# number of rings (size 3 to 8) (size 9 to 14) (size 15 to 20)
#    0.000    1.857    2.857    1.714    0.000    2.857 
#    0.000    2.143    0.000    4.286    0.000    0.000 
#    0.000    0.000    0.000    0.000    0.000    0.000 
#
# Total GULP energy -347237.583403 kJ/mol
# GULP energy per Si atom -12401.342264 kJ/mol
# Density = 1.865945 g / cm^3
# Si number density = 18.702021 Si / 1000 Ang^3
#
#
#
# Elastic Constant Matrix: (Units=GPa)
#
#
# Indices 1 2 3 4 5 6 
#
# 1 72.0362 31.5972 39.2282 0.0000 -5.8387 0.0004
# 2 31.5972 50.5556 49.0799 0.0001 2.3939 0.0004
# 3 39.2282 49.0799 128.9780 0.0000 0.9070 0.0001
# 4 0.0000 0.0001 0.0000 29.9862 0.0000 -5.0107
# 5 -5.8387 2.3939 0.9070 0.0000 30.6133 -0.0002
# 6 0.0004 0.0004 0.0001 -5.0107 -0.0002 24.4316
#
#
#
# Elastic Compliance Matrix: (Units=1/GPa)
#
#
# Indices 1 2 3 4 5 6 
#
# 1 0.020123 -0.010827 -0.002034 0.000000 0.004745 0.000000
# 2 -0.010827 0.037330 -0.010879 0.000000 -0.004662 0.000000
# 3 -0.002034 -0.010879 0.012511 0.000000 0.000092 0.000000
# 4 0.000000 0.000000 0.000000 0.034532 0.000000 0.007082
# 5 0.004745 -0.004662 0.000092 0.000000 0.033932 0.000000
# 6 0.000000 0.000000 0.000000 0.007082 0.000000 0.042383
#
#
# Mechanical properties :
#
#
# Convention : Reuss Voigt Hill
#
# Bulk Modulus (GPa) = 44.47711 54.59783 49.53747
# Shear Modulus (GPa) = 21.20568 25.78385 23.49477
#
# Velocity S-wave (km/s) = 3.37095 3.71707 3.54823
# Velocity P-wave (km/s) = 6.24377 6.90500 6.58270
#
# Compressibility (1/GPa) = 0.02248348
#
# Stress axis : x y z
#
# Youngs Moduli (GPa) = 49.69410 26.78843 79.93004
#
# Poissons Ratio (x) = 0.29005 0.16255
# Poissons Ratio (y) = 0.53806 0.86957
# Poissons Ratio (z) = 0.10106 0.29143
#
# Static dielectric constant tensor:
#      x y z
#    x 3.415000 0.000000 0.137310 
#    y 0.000000 3.345960 0.000000 
#    z 0.137310 0.000000 3.701580 
# 
# 
# High freq. dielectric constant tensor:
#      x y z
#    x 1.709160 0.000000 0.008670 
#    y 0.000000 1.718850 0.000000 
#    z 0.008670 0.000000 1.741600 
# 
# From -- ./inp_files/320194.got.cif
#   From: 2010.06.25/outbox.cif.g09.slc.cpg/sg12_161_cif.got.tgz:320194.got - 2010.06.28 00:19:55.
