data_PCOD8087920
_publ_section_title
;
Structure prediction by ZEFSAII (Michael W. Deem and Ramdas Pophale) SiO2 
 PCOD8087920
Probable space group: C 2/M
;
_chemical_formula_sum "Si O2"
_cell_formula_units_Z 64
_cell_length_a 24.828752
_cell_length_b 8.891053
_cell_length_c 18.491272
_cell_angle_alpha 90.000000
_cell_angle_beta 62.838546
_cell_angle_gamma 90.000000
_cell_volume 3631.867780
_symmetry_space_group_name_H-M "C 2/M"
_symmetry_group_IT_number 12
_symmetry_cell_setting 'monoclinic'
loop_
_space_group_symop_operation_xyz
x,y,z
-x,y,-z
-x,-y,-z
x,-y,z
1/2+x,1/2+y,z
1/2-x,1/2+y,-z
1/2-x,1/2-y,-z
1/2+x,1/2-y,z
loop_
_atom_site_type_symbol
_atom_site_label
_atom_site_fract_x
_atom_site_fract_y
_atom_site_fract_z
Si Si1 0.779686 0.830734 0.547958
Si Si2 0.759231 0.820982 0.719863
Si Si3 0.946955 0.822219 0.983688
Si Si4 0.413654 0.671545 0.502526
Si Si5 0.991189 0.821498 0.675710
Si Si6 0.974296 0.821727 0.188691
Si Si7 0.383723 0.822147 0.668176
Si Si8 0.362991 0.321777 0.156646
O O1 0.750000 0.750000 0.500000
O O2 0.758045 0.762105 0.637721
O O3 0.851673 0.817222 0.495891
O O4 0.757057 0.000000 0.557830
O O5 0.817709 0.748928 0.722316
O O6 0.698712 0.767872 0.795601
O O7 0.766256 0.000000 0.718904
O O8 0.884158 0.775530 0.061498
O O9 0.950119 0.000000 0.984085
O O10 0.000000 0.754159 0.000000
O O11 0.963773 0.767707 0.891828
O O12 0.424441 0.500000 0.522193
O O13 0.466013 0.726591 0.416917
O O14 0.412261 0.775640 0.573638
O O15 0.926991 0.739940 0.704929
O O16 0.021359 0.761568 0.731956
O O17 0.981680 0.000000 0.684184
O O18 0.912937 0.767518 0.185491
O O19 0.972233 0.000000 0.190285
O O20 0.378751 0.000000 0.675805
O O21 0.351438 0.500000 0.170562
#
# Coordination Sequence:
#
# PCOD8087920 Si02
#       8
#     8   8   8   8   8   8   8   8
#     4   9  19  32  46  66  96 130 160 196 240 285
#     4  10  21  36  51  70  97 130 166 203 246 298
#     4   7  11  23  44  74 106 131 158 195 235 280
#     4   9  19  34  50  70  97 130 167 202 243 294
#     4  10  19  32  52  74  99 133 166 202 244 294
#     4   8  15  27  48  78 107 134 162 192 239 296
#     4  11  22  36  52  70  93 126 170 216 253 287
#     4   9  16  28  52  80 104 130 164 202 235 283
#
# _framework density 17.621786
#
# number of rings (size 3 to 8) (size 9 to 14) (size 15 to 20)
#    0.000    2.875    0.000    4.125    1.750    4.500 
#    0.000    0.625    0.000    4.875    0.000    0.000 
#    0.000    0.000    0.000    0.000    0.000    0.000 
#
# Total GULP energy -396478.184629 kJ/mol
# GULP energy per Si atom -12389.943270 kJ/mol
# Density = 1.758168 g / cm^3
# Si number density = 17.621786 Si / 1000 Ang^3
#
#
#
# Elastic Constant Matrix: (Units=GPa)
#
#
# Indices 1 2 3 4 5 6 
#
# 1 81.1254 25.5305 47.6141 0.0001 -12.7536 0.0001
# 2 25.5305 49.2881 26.1479 0.0002 -5.9689 0.0009
# 3 47.6141 26.1479 96.3305 -0.0001 -22.4741 -0.0002
# 4 0.0001 0.0002 -0.0001 17.3561 0.0000 -5.8521
# 5 -12.7536 -5.9689 -22.4741 0.0000 23.1141 0.0001
# 6 0.0001 0.0009 -0.0002 -5.8521 0.0001 25.1487
#
#
#
# Elastic Compliance Matrix: (Units=1/GPa)
#
#
# Indices 1 2 3 4 5 6 
#
# 1 0.018634 -0.005573 -0.007288 0.000000 0.001756 0.000000
# 2 -0.005573 0.025369 -0.004295 -0.000001 -0.000700 -0.000001
# 3 -0.007288 -0.004295 0.018045 0.000000 0.012416 0.000000
# 4 0.000000 -0.000001 0.000000 0.062522 0.000000 0.014549
# 5 0.001756 -0.000700 0.012416 0.000000 0.056124 0.000000
# 6 0.000000 -0.000001 0.000000 0.014549 0.000000 0.043149
#
#
# Mechanical properties :
#
#
# Convention : Reuss Voigt Hill
#
# Bulk Modulus (GPa) = 36.05249 47.25876 41.65562
# Shear Modulus (GPa) = 18.69851 21.62056 20.15954
#
# Velocity S-wave (km/s) = 3.26099 3.50655 3.38599
# Velocity P-wave (km/s) = 5.88916 6.57807 6.24313
#
# Compressibility (1/GPa) = 0.02773734
#
# Stress axis : x y z
#
# Youngs Moduli (GPa) = 53.66539 39.41761 55.41550
#
# Poissons Ratio (x) = 0.21968 0.40386
# Poissons Ratio (y) = 0.29909 0.23800
# Poissons Ratio (z) = 0.39110 0.16929
#
# Static dielectric constant tensor:
#      x y z
#    x 3.274170 0.000000 -0.034110 
#    y 0.000000 2.952500 0.000000 
#    z -0.034110 0.000000 3.827840 
# 
# 
# High freq. dielectric constant tensor:
#      x y z
#    x 1.668560 0.000000 -0.008930 
#    y 0.000000 1.650570 0.000000 
#    z -0.008930 0.000000 1.681680 
# 
# From -- ./inp_files/323615.got.cif
#   From: 2010.06.25/outbox.cif.g09.slc.cpg/sg12_162_cif.got.tgz:323615.got - 2010.06.28 00:19:55.
