data_PCOD8087706
_publ_section_title
;
Structure prediction by ZEFSAII (Michael W. Deem and Ramdas Pophale) SiO2 
 PCOD8087706
Probable space group: C 2/M
;
_chemical_formula_sum "Si O2"
_cell_formula_units_Z 56
_cell_length_a 20.224513
_cell_length_b 9.165812
_cell_length_c 16.229660
_cell_angle_alpha 90.000000
_cell_angle_beta 101.948997
_cell_angle_gamma 90.000000
_cell_volume 2943.369785
_symmetry_space_group_name_H-M "C 2/M"
_symmetry_group_IT_number 12
_symmetry_cell_setting 'monoclinic'
loop_
_space_group_symop_operation_xyz
x,y,z
-x,y,-z
-x,-y,-z
x,-y,z
1/2+x,1/2+y,z
1/2-x,1/2+y,-z
1/2-x,1/2-y,-z
1/2+x,1/2-y,z
loop_
_atom_site_type_symbol
_atom_site_label
_atom_site_fract_x
_atom_site_fract_y
_atom_site_fract_z
Si Si1 0.594552 0.327895 0.308878
Si Si2 0.503845 0.827385 0.406391
Si Si3 0.274755 0.670224 0.751307
Si Si4 0.883946 0.670129 0.095472
Si Si5 0.033782 0.335708 0.147751
Si Si6 0.667368 0.832822 0.084399
Si Si7 0.373456 0.828170 0.275142
O O1 0.590902 0.500000 0.321379
O O2 0.570830 0.248113 0.386108
O O3 0.670742 0.276103 0.302662
O O4 0.544172 0.279037 0.223867
O O5 0.500000 0.780494 0.500000
O O6 0.435726 0.765773 0.344552
O O7 0.511440 0.000000 0.398611
O O8 0.284801 0.500000 0.768876
O O9 0.284294 0.741695 0.843663
O O10 0.198865 0.707402 0.700319
O O11 0.868104 0.500000 0.095917
O O12 0.871334 0.740747 0.182337
O O13 0.961440 0.698217 0.088923
O O14 0.834607 0.731830 0.010087
O O15 0.034299 0.500000 0.186008
O O16 0.090031 0.319609 0.093252
O O17 0.691916 0.000000 0.093358
O O18 0.384459 0.000000 0.270833
#
# Coordination Sequence:
#
# PCOD8087706 Si02
#       7
#     8   8   8   8   8   8   8
#     4  10  19  32  51  75 103 134 165 197 246 302
#     4  10  20  36  60  84  99 119 161 211 252 294
#     4   9  19  34  50  69 101 143 173 194 237 302
#     4   9  15  25  46  72  97 129 172 214 251 286
#     4   9  15  27  47  70  98 131 172 212 247 287
#     4   9  17  27  44  72 101 131 171 216 249 280
#     4   9  17  32  53  74  98 131 169 206 246 298
#
# _framework density 19.025811000000001
#
# number of rings (size 3 to 8) (size 9 to 14) (size 15 to 20)
#    0.000    2.714    1.429    0.857    0.000    3.143 
#    0.000    2.143    0.000    3.429    0.000    0.000 
#    0.000    0.000    0.000    0.000    0.000    0.000 
#
# Total GULP energy -346957.506912 kJ/mol
# GULP energy per Si atom -12391.339533 kJ/mol
# Density = 1.898251 g / cm^3
# Si number density = 19.025811 Si / 1000 Ang^3
#
#
#
# Elastic Constant Matrix: (Units=GPa)
#
#
# Indices 1 2 3 4 5 6 
#
# 1 92.4276 18.9719 52.3038 0.0000 3.0335 0.0000
# 2 18.9719 29.2303 22.5005 0.0000 -2.7207 0.0000
# 3 52.3038 22.5005 109.0742 0.0000 -10.6284 0.0000
# 4 0.0000 0.0000 0.0000 16.5950 0.0000 -2.0936
# 5 3.0335 -2.7207 -10.6284 0.0000 16.2307 0.0000
# 6 0.0000 0.0000 0.0000 -2.0936 0.0000 18.3471
#
#
#
# Elastic Compliance Matrix: (Units=1/GPa)
#
#
# Indices 1 2 3 4 5 6 
#
# 1 0.016644 -0.005734 -0.007686 0.000000 -0.009105 0.000000
# 2 -0.005734 0.042675 -0.005610 0.000000 0.004551 0.000000
# 3 -0.007686 -0.005610 0.015017 0.000000 0.010330 0.000000
# 4 0.000000 0.000000 0.000000 0.061139 0.000000 0.006977
# 5 -0.009105 0.004551 0.010330 0.000000 0.070840 0.000000
# 6 0.000000 0.000000 0.000000 0.006977 0.000000 0.055301
#
#
# Mechanical properties :
#
#
# Convention : Reuss Voigt Hill
#
# Bulk Modulus (GPa) = 27.56591 46.47605 37.02098
# Shear Modulus (GPa) = 16.03751 19.36497 17.70124
#
# Velocity S-wave (km/s) = 2.90648 3.19380 3.05352
# Velocity P-wave (km/s) = 5.07776 6.17101 5.65089
#
# Compressibility (1/GPa) = 0.03627669
#
# Stress axis : x y z
#
# Youngs Moduli (GPa) = 60.08038 23.43299 66.58941
#
# Poissons Ratio (x) = 0.13437 0.51179
# Poissons Ratio (y) = 0.34452 0.37357
# Poissons Ratio (z) = 0.46176 0.13146
#
# Static dielectric constant tensor:
#      x y z
#    x 3.656220 0.000000 -0.096750 
#    y 0.000000 3.121670 0.000000 
#    z -0.096750 0.000000 3.491100 
# 
# 
# High freq. dielectric constant tensor:
#      x y z
#    x 1.747780 0.000000 -0.008050 
#    y 0.000000 1.696150 0.000000 
#    z -0.008050 0.000000 1.722450 
# 
# From -- ./inp_files/280363.got.cif
#   From: 2010.06.25/outbox.cif.g09.slc.cpg/sg12_141_cif.got.tgz:280363.got - 2010.06.28 00:19:55.
