data_PCOD8087876
_publ_section_title
;
Structure prediction by ZEFSAII (Michael W. Deem and Ramdas Pophale) SiO2 
 PCOD8087876
Probable space group: C 2/M
;
_chemical_formula_sum "Si O2"
_cell_formula_units_Z 56
_cell_length_a 22.051818
_cell_length_b 14.277387
_cell_length_c 8.453652
_cell_angle_alpha 90.000000
_cell_angle_beta 121.207763
_cell_angle_gamma 90.000000
_cell_volume 2276.422949
_symmetry_space_group_name_H-M "C 2/M"
_symmetry_group_IT_number 12
_symmetry_cell_setting 'monoclinic'
loop_
_space_group_symop_operation_xyz
x,y,z
-x,y,-z
-x,-y,-z
x,-y,z
1/2+x,1/2+y,z
1/2-x,1/2+y,-z
1/2-x,1/2-y,-z
1/2+x,1/2-y,z
loop_
_atom_site_type_symbol
_atom_site_label
_atom_site_fract_x
_atom_site_fract_y
_atom_site_fract_z
Si Si1 0.850482 0.894987 0.249977
Si Si2 0.295037 0.274531 0.712325
Si Si3 0.187859 0.395542 0.051251
Si Si4 0.472416 0.290779 0.282770
Si Si5 0.399114 0.609045 0.661137
Si Si6 0.473902 0.899068 0.639660
Si Si7 0.173929 0.607095 0.688615
O O1 0.768620 0.890022 0.099315
O O2 0.891191 0.826562 0.180801
O O3 0.860004 0.862549 0.444676
O O4 0.881617 0.000000 0.272895
O O5 0.250000 0.250000 0.500000
O O6 0.328049 0.181449 0.837505
O O7 0.361919 0.338280 0.756427
O O8 0.241987 0.327771 0.757840
O O9 0.172092 0.500000 0.099520
O O10 0.144422 0.378661 0.829387
O O11 0.500000 0.290073 0.500000
O O12 0.518447 0.361875 0.239040
O O13 0.481720 0.185958 0.220086
O O14 0.393084 0.500000 0.688332
O O15 0.500000 0.917279 0.500000
O O16 0.390617 0.868277 0.517929
O O17 0.482498 0.000000 0.742300
O O18 0.197830 0.500000 0.695037
#
# Coordination Sequence:
#
# PCOD8087876 Si02
#       7
#     8   8   8   8   8   8   8
#     4   9  17  32  56  86 114 148 190 241 294 346
#     4  12  22  34  56  85 122 156 196 235 302 355
#     4  10  22  39  58  86 123 157 198 244 294 356
#     4   9  17  30  53  82 113 144 194 241 290 335
#     4  10  19  32  51  81 116 149 193 243 288 342
#     4   9  18  32  52  80 112 144 190 248 291 329
#     4  10  22  39  58  85 118 157 199 247 300 350
#
# _framework density 24.599997999999999
#
# number of rings (size 3 to 8) (size 9 to 14) (size 15 to 20)
#    0.000    2.143    1.429    2.143    4.000    2.286 
#    0.000    0.714    0.000    1.714    3.714    4.000 
#    0.000   46.571    0.000    0.000    0.000    0.000 
#
# Total GULP energy -347106.261970 kJ/mol
# GULP energy per Si atom -12396.652213 kJ/mol
# Density = 2.454401 g / cm^3
# Si number density = 24.599998 Si / 1000 Ang^3
#
#
#
# Elastic Constant Matrix: (Units=GPa)
#
#
# Indices 1 2 3 4 5 6 
#
# 1 90.0149 57.0472 2.5097 0.0000 -7.5639 0.0000
# 2 57.0472 176.6282 29.2918 0.0000 -18.0770 0.0000
# 3 2.5097 29.2918 33.4757 0.0000 -8.8154 0.0000
# 4 0.0000 0.0000 0.0000 8.7544 0.0000 -7.2772
# 5 -7.5639 -18.0770 -8.8154 0.0000 22.7703 0.0000
# 6 0.0000 0.0000 0.0000 -7.2772 0.0000 42.3098
#
#
#
# Elastic Compliance Matrix: (Units=1/GPa)
#
#
# Indices 1 2 3 4 5 6 
#
# 1 0.014409 -0.005077 0.003965 0.000000 0.002291 0.000000
# 2 -0.005077 0.008650 -0.006485 0.000000 0.002670 0.000000
# 3 0.003965 -0.006485 0.038128 0.000000 0.010930 0.000000
# 4 0.000000 0.000000 0.000000 0.133284 0.000000 0.022925
# 5 0.002291 0.002670 0.010930 0.000000 0.051029 0.000000
# 6 0.000000 0.000000 0.000000 0.022925 0.000000 0.027578
#
#
# Mechanical properties :
#
#
# Convention : Reuss Voigt Hill
#
# Bulk Modulus (GPa) = 21.74217 53.09070 37.41643
# Shear Modulus (GPa) = 16.46887 28.85158 22.66022
#
# Velocity S-wave (km/s) = 2.59021 3.42837 3.03833
# Velocity P-wave (km/s) = 4.21937 6.10738 5.24896
#
# Compressibility (1/GPa) = 0.04599357
#
# Stress axis : x y z
#
# Youngs Moduli (GPa) = 69.40252 115.60578 26.22736
#
# Poissons Ratio (x) = 0.58691 -0.10400
# Poissons Ratio (y) = 0.35235 0.17009
# Poissons Ratio (z) = -0.27521 0.74973
#
# Static dielectric constant tensor:
#      x y z
#    x 4.402260 0.000000 0.227560 
#    y 0.000000 4.924750 0.000000 
#    z 0.227560 0.000000 3.976430 
# 
# 
# High freq. dielectric constant tensor:
#      x y z
#    x 1.967240 0.000000 0.019930 
#    y 0.000000 2.001360 0.000000 
#    z 0.019930 0.000000 1.930150 
# 
# From -- ./inp_files/96999.got.cif
#   From: 2010.06.25/outbox.cif.g09.slc.cpg/sg12_49_cif.got.tgz:96999.got - 2010.06.28 00:19:55.
