data_PCOD8087526
_publ_section_title
;
Structure prediction by ZEFSAII (Michael W. Deem and Ramdas Pophale) SiO2 
 PCOD8087526
Probable space group: C 2/M
;
_chemical_formula_sum "Si O2"
_cell_formula_units_Z 56
_cell_length_a 19.165134
_cell_length_b 8.906813
_cell_length_c 31.464881
_cell_angle_alpha 90.000000
_cell_angle_beta 34.484410
_cell_angle_gamma 90.000000
_cell_volume 3040.999342
_symmetry_space_group_name_H-M "C 2/M"
_symmetry_group_IT_number 12
_symmetry_cell_setting 'monoclinic'
loop_
_space_group_symop_operation_xyz
x,y,z
-x,y,-z
-x,-y,-z
x,-y,z
1/2+x,1/2+y,z
1/2-x,1/2+y,-z
1/2-x,1/2-y,-z
1/2+x,1/2-y,z
loop_
_atom_site_type_symbol
_atom_site_label
_atom_site_fract_x
_atom_site_fract_y
_atom_site_fract_z
Si Si1 0.310160 0.177105 0.100380
Si Si2 0.099950 0.174291 0.415325
Si Si3 0.020297 0.677416 0.057921
Si Si4 0.636793 0.824711 0.310908
Si Si5 0.558132 0.321741 0.265126
Si Si6 0.879170 0.674910 0.293467
Si Si7 0.917649 0.175352 0.187623
O O1 0.405791 0.238163 0.087414
O O2 0.173996 0.238355 0.178864
O O3 0.312805 0.000000 0.103215
O O4 0.354506 0.221389 0.030494
O O5 0.075860 0.272558 0.385584
O O6 0.233963 0.208401 0.367383
O O7 0.000000 0.224294 0.500000
O O8 0.086671 0.000000 0.409692
O O9 0.012046 0.500000 0.070374
O O10 0.018145 0.763390 0.103790
O O11 0.571102 0.733569 0.306652
O O12 0.781629 0.785380 0.238671
O O13 0.613104 0.000000 0.316189
O O14 0.549118 0.500000 0.269428
O O15 0.435012 0.252569 0.307112
O O16 0.908816 0.500000 0.279562
O O17 0.941690 0.744303 0.220221
O O18 0.936939 0.000000 0.185044
#
# Coordination Sequence:
#
# PCOD8087526 Si02
#       7
#     8   8   8   8   8   8   8
#     4   8  16  28  48  74 101 135 175 220 263 306
#     4   9  19  38  62  84 105 133 171 212 255 307
#     4   9  15  29  50  73  99 133 179 222 265 306
#     4  10  20  33  53  81 110 139 173 212 255 307
#     4  11  20  34  54  78 108 141 177 215 259 309
#     4  10  21  36  55  78 106 138 170 211 263 313
#     4  10  19  32  50  76 105 136 177 221 260 307
#
# _framework density 18.414999999999999
#
# number of rings (size 3 to 8) (size 9 to 14) (size 15 to 20)
#    0.000    2.429    1.429    2.571    0.000    2.000 
#    0.000    4.286    0.000    0.000    0.000    0.000 
#    0.000    0.000    0.000    0.000    0.000    0.000 
#
# Total GULP energy -347211.307879 kJ/mol
# GULP energy per Si atom -12400.403853 kJ/mol
# Density = 1.837309 g / cm^3
# Si number density = 18.415000 Si / 1000 Ang^3
#
#
#
# Elastic Constant Matrix: (Units=GPa)
#
#
# Indices 1 2 3 4 5 6 
#
# 1 106.5310 50.4386 41.9893 0.0036 11.0251 0.0284
# 2 50.4386 79.7779 38.2066 0.0208 8.9090 0.0056
# 3 41.9893 38.2066 112.1384 -0.0027 17.1730 0.0088
# 4 0.0036 0.0208 -0.0027 22.0696 -0.0002 3.7937
# 5 11.0251 8.9090 17.1730 -0.0002 20.3831 0.0045
# 6 0.0284 0.0056 0.0088 3.7937 0.0045 30.7393
#
#
#
# Elastic Compliance Matrix: (Units=1/GPa)
#
#
# Indices 1 2 3 4 5 6 
#
# 1 0.014132 -0.007540 -0.002361 0.000006 -0.002359 -0.000011
# 2 -0.007540 0.019122 -0.003486 -0.000018 -0.001342 0.000007
# 3 -0.002361 -0.003486 0.012125 0.000005 -0.007415 0.000000
# 4 0.000006 -0.000018 0.000005 0.046293 0.000002 -0.005713
# 5 -0.002359 -0.001342 -0.007415 0.000002 0.057170 -0.000004
# 6 -0.000011 0.000007 0.000000 -0.005713 -0.000004 0.033237
#
#
# Mechanical properties :
#
#
# Convention : Reuss Voigt Hill
#
# Bulk Modulus (GPa) = 53.75468 62.19069 57.97268
# Shear Modulus (GPa) = 23.24996 25.82591 24.53794
#
# Velocity S-wave (km/s) = 3.55710 3.74898 3.65430
# Velocity P-wave (km/s) = 6.79152 7.25154 7.02530
#
# Compressibility (1/GPa) = 0.01860303
#
# Stress axis : x y z
#
# Youngs Moduli (GPa) = 70.76193 52.29715 82.47534
#
# Poissons Ratio (x) = 0.39435 0.19474
# Poissons Ratio (y) = 0.53358 0.28750
# Poissons Ratio (z) = 0.16708 0.18230
#
# Static dielectric constant tensor:
#      x y z
#    x 3.230680 -0.000010 0.043920 
#    y -0.000010 3.224420 0.000000 
#    z 0.043920 0.000000 3.465110 
# 
# 
# High freq. dielectric constant tensor:
#      x y z
#    x 1.699890 0.000000 0.014420 
#    y 0.000000 1.706730 0.000000 
#    z 0.014420 0.000000 1.706640 
# 
# From -- ./inp_files/275190.got.cif
#   From: 2010.06.25/outbox.cif.g09.slc.cpg/sg12_138_cif.got.tgz:275190.got - 2010.06.28 00:19:55.
