data_PCOD8087116
_publ_section_title
;
Structure prediction by ZEFSAII (Michael W. Deem and Ramdas Pophale) SiO2 
 PCOD8087116
Probable space group: C 2/M
;
_chemical_formula_sum "Si O2"
_cell_formula_units_Z 56
_cell_length_a 14.654502
_cell_length_b 17.743081
_cell_length_c 14.178007
_cell_angle_alpha 90.000000
_cell_angle_beta 51.334207
_cell_angle_gamma 90.000000
_cell_volume 2878.439246
_symmetry_space_group_name_H-M "C 2/M"
_symmetry_group_IT_number 12
_symmetry_cell_setting 'monoclinic'
loop_
_space_group_symop_operation_xyz
x,y,z
-x,y,-z
-x,-y,-z
x,-y,z
1/2+x,1/2+y,z
1/2-x,1/2+y,-z
1/2-x,1/2-y,-z
1/2+x,1/2-y,z
loop_
_atom_site_type_symbol
_atom_site_label
_atom_site_fract_x
_atom_site_fract_y
_atom_site_fract_z
Si Si1 0.194249 0.177045 0.165251
Si Si2 0.983124 0.716323 0.784424
Si Si3 0.759642 0.416247 0.442257
Si Si4 0.081641 0.588467 0.037946
Si Si5 0.585014 0.170978 0.526731
Si Si6 0.275042 0.225169 0.307047
Si Si7 0.501349 0.414836 0.394305
O O1 0.135615 0.234165 0.126166
O O2 0.251475 0.226830 0.211234
O O3 0.086814 0.128875 0.271841
O O4 0.288518 0.120781 0.060989
O O5 0.969964 0.633743 0.839781
O O6 0.005793 0.709849 0.657785
O O7 0.094956 0.758702 0.759079
O O8 0.786667 0.500000 0.386701
O O9 0.844422 0.398753 0.475132
O O10 0.779589 0.360959 0.341419
O O11 0.627758 0.410915 0.566378
O O12 0.088517 0.500000 0.058302
O O13 0.000000 0.602964 0.000000
O O14 0.500000 0.140754 0.500000
O O15 0.677438 0.231299 0.428754
O O16 0.500000 0.377793 0.500000
O O17 0.548113 0.500000 0.373223
#
# Coordination Sequence:
#
# PCOD8087116 Si02
#       7
#     8   8   8   8   8   8   8
#     4  12  21  37  64  87 122 157 204 246 303 358
#     4  11  23  39  62  91 121 160 203 247 299 358
#     4  10  21  34  52  83 123 158 199 242 293 355
#     4  11  25  44  63  89 122 159 203 254 306 356
#     4  11  22  38  60  91 124 162 199 239 303 363
#     4  11  21  36  60  90 123 157 198 248 302 355
#     4  10  19  31  53  88 122 158 197 244 307 365
#
# _framework density 19.454986999999999
#
# number of rings (size 3 to 8) (size 9 to 14) (size 15 to 20)
#    0.000    1.143    4.286    4.286    0.000    3.143 
#    0.000    0.000    0.000    0.000    0.000    1.000 
#    0.000    0.000    0.000    0.000    0.000    0.000 
#
# Total GULP energy -347169.583855 kJ/mol
# GULP energy per Si atom -12398.913709 kJ/mol
# Density = 1.941071 g / cm^3
# Si number density = 19.454987 Si / 1000 Ang^3
#
#
#
# Elastic Constant Matrix: (Units=GPa)
#
#
# Indices 1 2 3 4 5 6 
#
# 1 137.3169 43.5004 23.9631 0.0000 -13.4681 0.0000
# 2 43.5004 82.8910 22.7440 0.0000 -7.5601 0.0000
# 3 23.9631 22.7440 62.8494 0.0000 -11.7546 0.0000
# 4 0.0000 0.0000 0.0000 29.3652 0.0000 -1.5128
# 5 -13.4681 -7.5601 -11.7546 0.0000 27.0844 0.0000
# 6 0.0000 0.0000 0.0000 -1.5128 0.0000 28.0283
#
#
#
# Elastic Compliance Matrix: (Units=1/GPa)
#
#
# Indices 1 2 3 4 5 6 
#
# 1 0.009116 -0.004131 -0.001468 0.000000 0.002743 0.000000
# 2 -0.004131 0.015345 -0.003876 0.000000 0.000547 0.000000
# 3 -0.001468 -0.003876 0.019083 0.000000 0.006470 0.000000
# 4 0.000000 0.000000 0.000000 0.034149 0.000000 0.001843
# 5 0.002743 0.000547 0.006470 0.000000 0.041246 0.000000
# 6 0.000000 0.000000 0.000000 0.001843 0.000000 0.035778
#
#
# Mechanical properties :
#
#
# Convention : Reuss Voigt Hill
#
# Bulk Modulus (GPa) = 40.65780 51.49692 46.07736
# Shear Modulus (GPa) = 27.49270 29.75221 28.62246
#
# Velocity S-wave (km/s) = 3.76326 3.91485 3.83980
# Velocity P-wave (km/s) = 6.31083 6.85288 6.58743
#
# Compressibility (1/GPa) = 0.02459553
#
# Stress axis : x y z
#
# Youngs Moduli (GPa) = 109.69311 65.16603 52.40152
#
# Poissons Ratio (x) = 0.26922 0.07692
# Poissons Ratio (y) = 0.45317 0.20310
# Poissons Ratio (z) = 0.16101 0.25257
#
# Static dielectric constant tensor:
#      x y z
#    x 3.911280 0.000000 -0.248730 
#    y 0.000000 3.486740 0.000000 
#    z -0.248730 0.000000 3.438130 
# 
# 
# High freq. dielectric constant tensor:
#      x y z
#    x 1.770600 0.000000 -0.024170 
#    y 0.000000 1.742730 0.000000 
#    z -0.024170 0.000000 1.746050 
# 
# From -- ./inp_files/145477.got.cif
#   From: 2010.06.25/outbox.cif.g09.slc.cpg/sg12_73_cif.got.tgz:145477.got - 2010.06.28 00:19:55.
