data_PCOD8087692
_publ_section_title
;
Structure prediction by ZEFSAII (Michael W. Deem and Ramdas Pophale) SiO2 
 PCOD8087692
Probable space group: C 2/M
;
_chemical_formula_sum "Si O2"
_cell_formula_units_Z 64
_cell_length_a 23.511361
_cell_length_b 8.760349
_cell_length_c 16.954795
_cell_angle_alpha 90.000000
_cell_angle_beta 85.247859
_cell_angle_gamma 90.000000
_cell_volume 3480.136045
_symmetry_space_group_name_H-M "C 2/M"
_symmetry_group_IT_number 12
_symmetry_cell_setting 'monoclinic'
loop_
_space_group_symop_operation_xyz
x,y,z
-x,y,-z
-x,-y,-z
x,-y,z
1/2+x,1/2+y,z
1/2-x,1/2+y,-z
1/2-x,1/2-y,-z
1/2+x,1/2-y,z
loop_
_atom_site_type_symbol
_atom_site_label
_atom_site_fract_x
_atom_site_fract_y
_atom_site_fract_z
Si Si1 0.549525 0.680623 0.742300
Si Si2 0.564899 0.819600 0.285889
Si Si3 0.689818 0.178940 0.232081
Si Si4 0.777789 0.668698 0.321011
Si Si5 0.638402 0.171522 0.836031
Si Si6 0.438349 0.676050 0.544920
Si Si7 0.119399 0.318036 0.592079
Si Si8 0.732660 0.681235 0.919323
O O1 0.555385 0.500000 0.734651
O O2 0.483651 0.729936 0.756613
O O3 0.581217 0.738689 0.817563
O O4 0.574196 0.755230 0.660264
O O5 0.624872 0.763282 0.241778
O O6 0.564158 0.778025 0.377501
O O7 0.555910 0.000000 0.277461
O O8 0.723155 0.227997 0.308057
O O9 0.721295 0.241819 0.150285
O O10 0.691354 0.000000 0.231184
O O11 0.754185 0.500000 0.340504
O O12 0.820452 0.667875 0.242967
O O13 0.815612 0.727067 0.390629
O O14 0.669589 0.258944 0.903988
O O15 0.622501 0.000000 0.864875
O O16 0.500000 0.695831 0.500000
O O17 0.425435 0.500000 0.566649
O O18 0.390852 0.740013 0.490670
O O19 0.111869 0.500000 0.588745
O O20 0.731461 0.500000 0.924021
O O21 0.750000 0.750000 0.000000
#
# Coordination Sequence:
#
# PCOD8087692 Si02
#       8
#     8   8   8   8   8   8   8   8
#     4  11  20  31  49  76 105 136 174 218 263 306
#     4  11  22  36  53  73 101 140 179 215 260 312
#     4   9  20  36  54  77 105 137 174 211 252 307
#     4   8  16  30  50  74  99 129 169 213 258 306
#     4   9  17  31  51  78 107 137 173 213 255 303
#     4  11  22  34  49  74 103 132 175 225 270 310
#     4  10  19  32  51  74  99 133 175 220 266 312
#     4  10  19  34  57  86 114 139 169 210 256 305
#
# _framework density 18.390086
#
# number of rings (size 3 to 8) (size 9 to 14) (size 15 to 20)
#    0.000    2.125    1.250    3.750    0.000    5.500 
#    0.000    0.625    0.000    0.750    0.000    5.250 
#    0.000    0.000    0.000    0.000    0.000    0.000 
#
# Total GULP energy -396757.661697 kJ/mol
# GULP energy per Si atom -12398.676928 kJ/mol
# Density = 1.834823 g / cm^3
# Si number density = 18.390086 Si / 1000 Ang^3
#
#
#
# Elastic Constant Matrix: (Units=GPa)
#
#
# Indices 1 2 3 4 5 6 
#
# 1 120.5624 31.0696 47.3425 0.0000 24.9211 0.0000
# 2 31.0696 59.7489 21.3565 0.0000 6.9016 0.0000
# 3 47.3425 21.3565 72.5437 0.0000 28.4896 0.0000
# 4 0.0000 0.0000 0.0000 24.8478 0.0000 10.5551
# 5 24.9211 6.9016 28.4896 0.0000 31.4256 0.0000
# 6 0.0000 0.0000 0.0000 10.5551 0.0000 31.2436
#
#
#
# Elastic Compliance Matrix: (Units=1/GPa)
#
#
# Indices 1 2 3 4 5 6 
#
# 1 0.012212 -0.004028 -0.005168 0.000000 -0.004115 0.000000
# 2 -0.004028 0.020072 -0.004354 0.000000 0.002733 0.000000
# 3 -0.005168 -0.004354 0.025551 0.000000 -0.018110 0.000000
# 4 0.000000 0.000000 0.000000 0.046988 0.000000 -0.015874
# 5 -0.004115 0.002733 -0.018110 0.000000 0.050902 0.000000
# 6 0.000000 0.000000 0.000000 -0.015874 0.000000 0.037369
#
#
# Mechanical properties :
#
#
# Convention : Reuss Voigt Hill
#
# Bulk Modulus (GPa) = 32.53522 50.26581 41.40051
# Shear Modulus (GPa) = 21.69765 27.70916 24.70341
#
# Velocity S-wave (km/s) = 3.43863 3.88589 3.66908
# Velocity P-wave (km/s) = 5.78755 6.89391 6.36481
#
# Compressibility (1/GPa) = 0.03073592
#
# Stress axis : x y z
#
# Youngs Moduli (GPa) = 81.88346 49.82135 39.13689
#
# Poissons Ratio (x) = 0.20068 0.20227
# Poissons Ratio (y) = 0.32982 0.17039
# Poissons Ratio (z) = 0.42319 0.21691
#
# Static dielectric constant tensor:
#      x y z
#    x 3.852960 0.000000 0.123570 
#    y 0.000000 3.473700 0.000000 
#    z 0.123570 0.000000 3.356500 
# 
# 
# High freq. dielectric constant tensor:
#      x y z
#    x 1.713320 0.000000 0.031240 
#    y 0.000000 1.722820 0.000000 
#    z 0.031240 0.000000 1.679340 
# 
# From -- ./inp_files/281223.got.cif
#   From: 2010.06.25/outbox.cif.g09.slc.cpg/sg12_141_cif.got.tgz:281223.got - 2010.06.28 00:19:55.
