data_PCOD8087307
_publ_section_title
;
Structure prediction by ZEFSAII (Michael W. Deem and Ramdas Pophale) SiO2 
 PCOD8087307
Probable space group: C 2/M
;
_chemical_formula_sum "Si O2"
_cell_formula_units_Z 64
_cell_length_a 31.035604
_cell_length_b 8.964443
_cell_length_c 14.204318
_cell_angle_alpha 90.000000
_cell_angle_beta 89.031185
_cell_angle_gamma 90.000000
_cell_volume 3951.316427
_symmetry_space_group_name_H-M "C 2/M"
_symmetry_group_IT_number 12
_symmetry_cell_setting 'monoclinic'
loop_
_space_group_symop_operation_xyz
x,y,z
-x,y,-z
-x,-y,-z
x,-y,z
1/2+x,1/2+y,z
1/2-x,1/2+y,-z
1/2-x,1/2-y,-z
1/2+x,1/2-y,z
loop_
_atom_site_type_symbol
_atom_site_label
_atom_site_fract_x
_atom_site_fract_y
_atom_site_fract_z
Si Si1 0.800098 0.172271 0.396541
Si Si2 0.300294 0.172247 0.587132
Si Si3 0.826443 0.325048 0.212601
Si Si4 0.914827 0.323824 0.890634
Si Si5 0.914393 0.326978 0.105950
Si Si6 0.750842 0.177755 0.101276
Si Si7 0.332150 0.176579 0.784484
Si Si8 0.000709 0.832006 0.888086
O O1 0.749368 0.197753 0.383302
O O2 0.814262 0.225534 0.499531
O O3 0.825674 0.271917 0.320490
O O4 0.812707 0.000000 0.383328
O O5 0.328986 0.223323 0.675106
O O6 0.308052 0.000000 0.560053
O O7 0.815686 0.500000 0.205366
O O8 0.873335 0.288464 0.170235
O O9 0.792824 0.229981 0.154605
O O10 0.918685 0.500000 0.880620
O O11 0.875908 0.259395 0.828382
O O12 0.959032 0.253729 0.849834
O O13 0.905466 0.276199 0.998763
O O14 0.925971 0.500000 0.107369
O O15 0.955143 0.242142 0.149712
O O16 0.708895 0.238489 0.157401
O O17 0.751284 0.000000 0.093047
O O18 0.750000 0.250000 0.000000
O O19 0.331493 0.000000 0.793273
O O20 0.999074 0.000000 0.850675
O O21 0.000000 0.822469 0.000000
#
# Coordination Sequence:
#
# PCOD8087307 Si02
#       8
#     8   8   8   8   8   8   8   8
#     4  10  19  32  49  70  94 123 158 202 247 287
#     4   9  17  32  50  68  91 123 161 202 241 282
#     4  11  21  33  49  71  96 127 164 201 239 284
#     4   9  16  29  49  68  91 125 160 194 231 276
#     4   9  18  31  47  68  94 126 164 196 229 280
#     4  11  21  34  47  66  97 133 168 199 232 277
#     4   9  17  31  49  68  93 126 163 197 233 279
#     4   9  17  29  45  67  94 121 153 196 241 278
#
# _framework density 16.197133000000001
#
# number of rings (size 3 to 8) (size 9 to 14) (size 15 to 20)
#    0.000    2.375    1.250    2.250    0.000    5.000 
#    0.000    4.375    0.000    0.000    0.000    0.875 
#    0.000    7.000    0.000    0.000    0.000    0.000 
#
# Total GULP energy -396817.698124 kJ/mol
# GULP energy per Si atom -12400.553066 kJ/mol
# Density = 1.616027 g / cm^3
# Si number density = 16.197133 Si / 1000 Ang^3
#
#
#
# Elastic Constant Matrix: (Units=GPa)
#
#
# Indices 1 2 3 4 5 6 
#
# 1 113.9897 45.1157 53.9964 0.0000 0.9426 0.0000
# 2 45.1157 60.3744 34.1968 0.0000 -0.8310 0.0000
# 3 53.9964 34.1968 91.7531 0.0000 2.6277 0.0000
# 4 0.0000 0.0000 0.0000 24.7748 0.0000 -0.5719
# 5 0.9426 -0.8310 2.6277 0.0000 10.9568 0.0000
# 6 0.0000 0.0000 0.0000 -0.5719 0.0000 24.2166
#
#
#
# Elastic Compliance Matrix: (Units=1/GPa)
#
#
# Indices 1 2 3 4 5 6 
#
# 1 0.014474 -0.007612 -0.005668 0.000000 -0.000463 0.000000
# 2 -0.007612 0.025133 -0.004995 0.000000 0.003759 0.000000
# 3 -0.005668 -0.004995 0.016204 0.000000 -0.003777 0.000000
# 4 0.000000 0.000000 0.000000 0.040386 0.000000 0.000954
# 5 -0.000463 0.003759 -0.003777 0.000000 0.092499 0.000000
# 6 0.000000 0.000000 0.000000 0.000954 0.000000 0.041316
#
#
# Mechanical properties :
#
#
# Convention : Reuss Voigt Hill
#
# Bulk Modulus (GPa) = 51.91774 59.19278 55.55526
# Shear Modulus (GPa) = 18.31627 20.84352 19.57990
#
# Velocity S-wave (km/s) = 3.36644 3.59118 3.48062
# Velocity P-wave (km/s) = 6.87268 7.33621 7.10823
#
# Compressibility (1/GPa) = 0.01926124
#
# Stress axis : x y z
#
# Youngs Moduli (GPa) = 69.08914 39.78899 61.71320
#
# Poissons Ratio (x) = 0.30288 0.34976
# Poissons Ratio (y) = 0.52592 0.30825
# Poissons Ratio (z) = 0.39157 0.19874
#
# Static dielectric constant tensor:
#      x y z
#    x 3.096580 0.000000 -0.021710 
#    y 0.000000 3.056490 0.000000 
#    z -0.021710 0.000000 2.551560 
# 
# 
# High freq. dielectric constant tensor:
#      x y z
#    x 1.612280 0.000000 0.002230 
#    y 0.000000 1.620630 0.000000 
#    z 0.002230 0.000000 1.604900 
# 
# From -- ./inp_files/248338.got.cif
#   From: 2010.06.25/outbox.cif.g09.slc.cpg/sg12_125_cif.got.tgz:248338.got - 2010.06.28 00:19:55.
