data_PCOD8087380
_publ_section_title
;
Structure prediction by ZEFSAII (Michael W. Deem and Ramdas Pophale) SiO2 
 PCOD8087380
Probable space group: C 2/M
;
_chemical_formula_sum "Si O2"
_cell_formula_units_Z 44
_cell_length_a 25.969957
_cell_length_b 7.584767
_cell_length_c 17.061017
_cell_angle_alpha 90.000000
_cell_angle_beta 128.159299
_cell_angle_gamma 90.000000
_cell_volume 2642.435845
_symmetry_space_group_name_H-M "C 2/M"
_symmetry_group_IT_number 12
_symmetry_cell_setting 'monoclinic'
loop_
_space_group_symop_operation_xyz
x,y,z
-x,y,-z
-x,-y,-z
x,-y,z
1/2+x,1/2+y,z
1/2-x,1/2+y,-z
1/2-x,1/2-y,-z
1/2+x,1/2-y,z
loop_
_atom_site_type_symbol
_atom_site_label
_atom_site_fract_x
_atom_site_fract_y
_atom_site_fract_z
Si Si1 0.711706 0.298942 0.203074
Si Si2 0.093367 0.500000 0.931790
Si Si3 0.357197 0.302439 0.625864
Si Si4 0.275159 0.796816 0.414683
Si Si5 0.889694 0.500000 0.875037
Si Si6 0.551663 0.000000 0.234274
Si Si7 0.803096 0.797618 0.985878
O O1 0.687904 0.500000 0.193172
O O2 0.773702 0.260961 0.319188
O O3 0.652553 0.176208 0.173485
O O4 0.731143 0.263985 0.131072
O O5 0.133759 0.674148 0.945538
O O6 0.025756 0.500000 0.820223
O O7 0.076207 0.500000 0.008016
O O8 0.378704 0.500000 0.669613
O O9 0.334806 0.304173 0.512974
O O10 0.295311 0.233917 0.618130
O O11 0.417926 0.173971 0.697801
O O12 0.285324 0.000000 0.444723
O O13 0.941278 0.500000 0.853229
O O14 0.825952 0.000000 0.016006
O O15 0.750000 0.750000 0.000000
#
# Coordination Sequence:
#
# PCOD8087380 Si02
#       7
#     8   4   8   8   4   4   8
#     4   9  18  29  48  76 104 129 165 211 255 298
#     4  10  23  36  52  77 102 135 175 206 254 313
#     4  10  20  29  45  68 101 140 177 208 241 286
#     4   9  16  29  45  70 100 135 174 209 246 286
#     4  10  19  32  50  70 102 143 173 203 241 297
#     4  12  21  34  48  71 108 148 173 201 245 299
#     4  10  19  36  57  79 101 123 162 219 265 303
#
# _framework density 16.651302000000001
#
# number of rings (size 3 to 8) (size 9 to 14) (size 15 to 20)
#    0.000    2.182    3.636    0.273    2.545    0.727 
#    0.000    0.000    0.000    5.455    0.000    2.545 
#    0.000    2.909    0.000    0.000    0.000    0.000 
#
# Total GULP energy -272685.578044 kJ/mol
# GULP energy per Si atom -12394.799002 kJ/mol
# Density = 1.661340 g / cm^3
# Si number density = 16.651302 Si / 1000 Ang^3
#
#
#
# Elastic Constant Matrix: (Units=GPa)
#
#
# Indices 1 2 3 4 5 6 
#
# 1 70.7051 37.5672 55.8259 0.0000 -0.5069 0.0000
# 2 37.5672 103.2965 49.8112 0.0000 7.7855 0.0000
# 3 55.8259 49.8112 110.0654 0.0000 6.5972 0.0000
# 4 0.0000 0.0000 0.0000 22.6511 0.0000 0.7151
# 5 -0.5069 7.7855 6.5972 0.0000 20.4461 0.0000
# 6 0.0000 0.0000 0.0000 0.7151 0.0000 15.2600
#
#
#
# Elastic Compliance Matrix: (Units=1/GPa)
#
#
# Indices 1 2 3 4 5 6 
#
# 1 0.025347 -0.004211 -0.011303 0.000000 0.005879 0.000000
# 2 -0.004211 0.013262 -0.003627 0.000000 -0.003984 0.000000
# 3 -0.011303 -0.003627 0.016717 0.000000 -0.004293 0.000000
# 4 0.000000 0.000000 0.000000 0.044213 0.000000 -0.002072
# 5 0.005879 -0.003984 -0.004293 0.000000 0.051957 0.000000
# 6 0.000000 0.000000 0.000000 -0.002072 0.000000 0.065628
#
#
# Mechanical properties :
#
#
# Convention : Reuss Voigt Hill
#
# Bulk Modulus (GPa) = 58.67137 63.38617 61.02877
# Shear Modulus (GPa) = 19.15069 21.06229 20.10649
#
# Velocity S-wave (km/s) = 3.39499 3.56041 3.47868
# Velocity P-wave (km/s) = 7.11897 7.41966 7.27087
#
# Compressibility (1/GPa) = 0.01704409
#
# Stress axis : x y z
#
# Youngs Moduli (GPa) = 39.45230 75.40557 59.81871
#
# Poissons Ratio (x) = 0.31753 0.67612
# Poissons Ratio (y) = 0.16613 0.21697
# Poissons Ratio (z) = 0.44592 0.27350
#
# Static dielectric constant tensor:
#      x y z
#    x 2.687270 0.000000 -0.278360 
#    y 0.000000 3.322340 0.000000 
#    z -0.278360 0.000000 3.307130 
# 
# 
# High freq. dielectric constant tensor:
#      x y z
#    x 1.578580 0.000000 -0.023080 
#    y 0.000000 1.660860 0.000000 
#    z -0.023080 0.000000 1.646440 
# 
# From -- ./inp_files/237199.got.cif
#   From: 2010.06.25/outbox.cif.g09.slc.cpg/sg12_119_cif.got.tgz:237199.got - 2010.06.28 00:19:55.
