data_PCOD8087630
_publ_section_title
;
Structure prediction by ZEFSAII (Michael W. Deem and Ramdas Pophale) SiO2 
 PCOD8087630
Probable space group: C 2/M
;
_chemical_formula_sum "Si O2"
_cell_formula_units_Z 64
_cell_length_a 23.177931
_cell_length_b 8.874145
_cell_length_c 19.915705
_cell_angle_alpha 90.000000
_cell_angle_beta 120.656582
_cell_angle_gamma 90.000000
_cell_volume 3523.838143
_symmetry_space_group_name_H-M "C 2/M"
_symmetry_group_IT_number 12
_symmetry_cell_setting 'monoclinic'
loop_
_space_group_symop_operation_xyz
x,y,z
-x,y,-z
-x,-y,-z
x,-y,z
1/2+x,1/2+y,z
1/2-x,1/2+y,-z
1/2-x,1/2-y,-z
1/2+x,1/2-y,z
loop_
_atom_site_type_symbol
_atom_site_label
_atom_site_fract_x
_atom_site_fract_y
_atom_site_fract_z
Si Si1 0.554778 0.328603 0.225798
Si Si2 0.315321 0.165312 0.678485
Si Si3 0.830789 0.178467 0.405596
Si Si4 0.945998 0.678870 0.915423
Si Si5 0.036390 0.825691 0.703425
Si Si6 0.333605 0.822078 0.262253
Si Si7 0.455215 0.176597 0.537586
Si Si8 0.299429 0.833131 0.827747
O O1 0.565043 0.500000 0.210578
O O2 0.623873 0.276386 0.303254
O O3 0.537228 0.236822 0.148769
O O4 0.493777 0.306907 0.240501
O O5 0.242786 0.219125 0.607256
O O6 0.305473 0.155859 0.751913
O O7 0.333699 0.000000 0.660817
O O8 0.843659 0.265789 0.343962
O O9 0.885141 0.233934 0.491554
O O10 0.836574 0.000000 0.395572
O O11 0.949209 0.500000 0.913450
O O12 0.871532 0.728619 0.896615
O O13 0.000000 0.744316 0.000000
O O14 0.110961 0.758015 0.751036
O O15 0.992498 0.730360 0.625855
O O16 0.037803 0.000000 0.681851
O O17 0.260760 0.779249 0.188516
O O18 0.343445 0.000000 0.266011
O O19 0.500000 0.217393 0.500000
O O20 0.440469 0.000000 0.533526
O O21 0.283985 0.000000 0.847876
#
# Coordination Sequence:
#
# PCOD8087630 Si02
#       8
#     8   8   8   8   8   8   8   8
#     4  10  21  35  53  79 106 135 172 211 254 305
#     4   8  16  31  51  73  98 133 172 209 254 307
#     4  10  19  32  51  73  99 133 171 213 263 310
#     4   9  18  34  58  85 110 138 169 201 246 304
#     4  11  23  37  52  71 101 141 177 210 259 315
#     4  11  20  30  48  75 102 132 174 218 257 297
#     4  11  22  34  50  76 102 128 174 225 265 303
#     4   8  15  29  49  75 105 134 166 205 249 298
#
# _framework density 18.162015
#
# number of rings (size 3 to 8) (size 9 to 14) (size 15 to 20)
#    0.000    2.250    1.250    4.125    0.000    7.750 
#    0.000    0.625    0.000    0.750    0.000    0.000 
#    0.000    0.000    0.000    0.000    0.000    0.000 
#
# Total GULP energy -396721.555132 kJ/mol
# GULP energy per Si atom -12397.548598 kJ/mol
# Density = 1.812068 g / cm^3
# Si number density = 18.162015 Si / 1000 Ang^3
#
#
#
# Elastic Constant Matrix: (Units=GPa)
#
#
# Indices 1 2 3 4 5 6 
#
# 1 95.1679 39.1911 40.1902 0.0000 22.1592 0.0000
# 2 39.1911 64.6589 21.6276 0.0000 6.3872 0.0000
# 3 40.1902 21.6276 80.3716 0.0000 25.3850 0.0000
# 4 0.0000 0.0000 0.0000 19.9765 0.0000 2.5219
# 5 22.1592 6.3872 25.3850 0.0000 28.7746 0.0000
# 6 0.0000 0.0000 0.0000 2.5219 0.0000 26.5968
#
#
#
# Elastic Compliance Matrix: (Units=1/GPa)
#
#
# Indices 1 2 3 4 5 6 
#
# 1 0.017584 -0.008542 -0.003904 0.000000 -0.008201 0.000000
# 2 -0.008542 0.021148 -0.002792 0.000000 0.004347 0.000000
# 3 -0.003904 -0.002792 0.019408 0.000000 -0.013496 0.000000
# 4 0.000000 0.000000 0.000000 0.050665 0.000000 -0.004804
# 5 -0.008201 0.004347 -0.013496 0.000000 0.052009 0.000000
# 6 0.000000 0.000000 0.000000 -0.004804 0.000000 0.038054
#
#
# Mechanical properties :
#
#
# Convention : Reuss Voigt Hill
#
# Bulk Modulus (GPa) = 36.14900 49.13515 42.64207
# Shear Modulus (GPa) = 20.95856 24.34888 22.65372
#
# Velocity S-wave (km/s) = 3.40071 3.66546 3.53556
# Velocity P-wave (km/s) = 5.94698 6.71019 6.34008
#
# Compressibility (1/GPa) = 0.02766328
#
# Stress axis : x y z
#
# Youngs Moduli (GPa) = 56.87145 47.28642 51.52393
#
# Poissons Ratio (x) = 0.40391 0.20115
# Poissons Ratio (y) = 0.48578 0.14388
# Poissons Ratio (z) = 0.22203 0.13204
#
# Static dielectric constant tensor:
#      x y z
#    x 3.563760 0.000000 0.527650 
#    y 0.000000 3.388870 0.000000 
#    z 0.527650 0.000000 3.337650 
# 
# 
# High freq. dielectric constant tensor:
#      x y z
#    x 1.699560 0.000000 0.033260 
#    y 0.000000 1.709340 0.000000 
#    z 0.033260 0.000000 1.671420 
# 
# From -- ./inp_files/320126.got.cif
#   From: 2010.06.25/outbox.cif.g09.slc.cpg/sg12_161_cif.got.tgz:320126.got - 2010.06.28 00:19:55.
