data_PCOD8087914
_publ_section_title
;
Structure prediction by ZEFSAII (Michael W. Deem and Ramdas Pophale) SiO2 
 PCOD8087914
Probable space group: C 2/M
;
_chemical_formula_sum "Si O2"
_cell_formula_units_Z 64
_cell_length_a 31.184808
_cell_length_b 8.989396
_cell_length_c 14.529310
_cell_angle_alpha 90.000000
_cell_angle_beta 62.042185
_cell_angle_gamma 90.000000
_cell_volume 3597.686947
_symmetry_space_group_name_H-M "C 2/M"
_symmetry_group_IT_number 12
_symmetry_cell_setting 'monoclinic'
loop_
_space_group_symop_operation_xyz
x,y,z
-x,y,-z
-x,-y,-z
x,-y,z
1/2+x,1/2+y,z
1/2-x,1/2+y,-z
1/2-x,1/2-y,-z
1/2+x,1/2-y,z
loop_
_atom_site_type_symbol
_atom_site_label
_atom_site_fract_x
_atom_site_fract_y
_atom_site_fract_z
Si Si1 0.966529 0.331418 0.391432
Si Si2 0.110800 0.174699 0.411626
Si Si3 0.196056 0.325681 0.650296
Si Si4 0.613861 0.174198 0.870360
Si Si5 0.074047 0.824130 0.081104
Si Si6 0.026117 0.328742 0.825126
Si Si7 0.806009 0.174278 0.535166
Si Si8 0.078956 0.327324 0.267335
O O1 0.952622 0.500000 0.433667
O O2 0.936836 0.216951 0.482760
O O3 0.953945 0.301648 0.297558
O O4 0.023200 0.302704 0.352361
O O5 0.158697 0.225706 0.418565
O O6 0.112650 0.259293 0.312746
O O7 0.109967 0.000000 0.393727
O O8 0.190925 0.500000 0.639257
O O9 0.162680 0.275220 0.768880
O O10 0.177152 0.250549 0.576036
O O11 0.251281 0.277771 0.616899
O O12 0.568009 0.214865 0.853213
O O13 0.614644 0.000000 0.893103
O O14 0.611558 0.268044 0.966112
O O15 0.090802 0.755470 0.160745
O O16 0.020177 0.772528 0.107025
O O17 0.075619 0.000000 0.086896
O O18 0.009384 0.500000 0.852787
O O19 0.809946 0.000000 0.514732
O O20 0.090886 0.500000 0.241812
#
# Coordination Sequence:
#
# PCOD8087914 Si02
#       8
#     8   8   8   8   8   8   8   8
#     4   9  18  32  49  71  99 132 169 204 237 281
#     4  11  21  31  48  75 104 131 160 200 250 296
#     4   9  18  34  55  76 100 133 168 198 235 289
#     4  10  19  32  52  74  97 131 172 206 238 284
#     4  11  22  34  49  71 100 131 163 204 252 295
#     4   9  18  32  49  71 101 134 168 204 238 281
#     4   9  19  34  51  76 108 133 156 197 249 292
#     4  10  21  37  53  68  93 131 172 209 241 283
#
# _framework density 17.789207000000001
#
# number of rings (size 3 to 8) (size 9 to 14) (size 15 to 20)
#    0.000    2.250    0.000    4.125    0.000    8.500 
#    0.000    0.000    0.000    0.750    0.000    0.000 
#    0.000    0.000    0.000    0.000    0.000    0.000 
#
# Total GULP energy -396904.702403 kJ/mol
# GULP energy per Si atom -12403.271950 kJ/mol
# Density = 1.774872 g / cm^3
# Si number density = 17.789207 Si / 1000 Ang^3
#
#
#
# Elastic Constant Matrix: (Units=GPa)
#
#
# Indices 1 2 3 4 5 6 
#
# 1 96.8379 49.2994 63.2353 0.0000 16.3851 0.0000
# 2 49.2994 84.5500 55.4752 0.0000 6.9761 0.0000
# 3 63.2353 55.4752 122.6199 0.0000 5.4890 0.0000
# 4 0.0000 0.0000 0.0000 29.3443 0.0000 5.1534
# 5 16.3851 6.9761 5.4890 0.0000 20.1926 0.0000
# 6 0.0000 0.0000 0.0000 5.1534 0.0000 23.1007
#
#
#
# Elastic Compliance Matrix: (Units=1/GPa)
#
#
# Indices 1 2 3 4 5 6 
#
# 1 0.020123 -0.006073 -0.007079 0.000000 -0.012306 0.000000
# 2 -0.006073 0.018945 -0.005432 0.000000 -0.000140 0.000000
# 3 -0.007079 -0.005432 0.014094 0.000000 0.003790 0.000000
# 4 0.000000 0.000000 0.000000 0.035468 0.000000 -0.007912
# 5 -0.012306 -0.000140 0.003790 0.000000 0.058527 0.000000
# 6 0.000000 0.000000 0.000000 -0.007912 0.000000 0.045054
#
#
# Mechanical properties :
#
#
# Convention : Reuss Voigt Hill
#
# Bulk Modulus (GPa) = 62.53105 71.11418 66.82262
# Shear Modulus (GPa) = 21.30279 23.59406 22.44843
#
# Velocity S-wave (km/s) = 3.46426 3.64581 3.55620
# Velocity P-wave (km/s) = 7.15744 7.60167 7.38290
#
# Compressibility (1/GPa) = 0.01599205
#
# Stress axis : x y z
#
# Youngs Moduli (GPa) = 49.69355 52.78563 70.95199
#
# Poissons Ratio (x) = 0.32059 0.50227
# Poissons Ratio (y) = 0.30181 0.38545
# Poissons Ratio (z) = 0.35178 0.28676
#
# Static dielectric constant tensor:
#      x y z
#    x 3.335310 0.000000 0.081780 
#    y 0.000000 3.222110 0.000000 
#    z 0.081780 0.000000 3.323610 
# 
# 
# High freq. dielectric constant tensor:
#      x y z
#    x 1.674000 0.000000 0.012930 
#    y 0.000000 1.686250 0.000000 
#    z 0.012930 0.000000 1.685260 
# 
# From -- ./inp_files/249083.got.cif
#   From: 2010.06.25/outbox.cif.g09.slc.cpg/sg12_125_cif.got.tgz:249083.got - 2010.06.28 00:19:55.
