data_PCOD8087673
_publ_section_title
;
Structure prediction by ZEFSAII (Michael W. Deem and Ramdas Pophale) SiO2 
 PCOD8087673
Probable space group: C 2/M
;
_chemical_formula_sum "Si O2"
_cell_formula_units_Z 56
_cell_length_a 32.382861
_cell_length_b 9.163105
_cell_length_c 22.380505
_cell_angle_alpha 90.000000
_cell_angle_beta 26.515762
_cell_angle_gamma 90.000000
_cell_volume 2964.795502
_symmetry_space_group_name_H-M "C 2/M"
_symmetry_group_IT_number 12
_symmetry_cell_setting 'monoclinic'
loop_
_space_group_symop_operation_xyz
x,y,z
-x,y,-z
-x,-y,-z
x,-y,z
1/2+x,1/2+y,z
1/2-x,1/2+y,-z
1/2-x,1/2-y,-z
1/2+x,1/2-y,z
loop_
_atom_site_type_symbol
_atom_site_label
_atom_site_fract_x
_atom_site_fract_y
_atom_site_fract_z
Si Si1 0.917791 0.662364 0.059905
Si Si2 0.128331 0.159753 0.484871
Si Si3 0.976497 0.157870 0.776632
Si Si4 0.957169 0.168855 0.183564
Si Si5 0.203041 0.172206 0.696228
Si Si6 0.848017 0.671303 0.865272
Si Si7 0.999291 0.329361 0.430810
O O1 0.879887 0.500000 0.094596
O O2 0.838010 0.765387 0.188892
O O3 0.000000 0.652749 0.000000
O O4 0.955731 0.738144 0.951577
O O5 0.039091 0.132739 0.639100
O O6 0.198081 0.251242 0.436494
O O7 0.093240 0.248698 0.472676
O O8 0.169457 0.000000 0.413349
O O9 0.042945 0.201597 0.745941
O O10 0.903230 0.282119 0.853943
O O11 0.927874 0.000000 0.853803
O O12 0.860202 0.218072 0.278818
O O13 0.973367 0.000000 0.145937
O O14 0.214992 0.000000 0.685507
O O15 0.830424 0.500000 0.889790
O O16 0.906464 0.713707 0.728738
O O17 0.750000 0.750000 0.000000
O O18 0.982570 0.500000 0.443218
O O19 0.000000 0.287886 0.500000
#
# Coordination Sequence:
#
# PCOD8087673 Si02
#       7
#     8   8   8   8   8   8   8
#     4   9  17  30  48  70  98 132 171 219 269 308
#     4  10  20  34  53  78 108 140 173 216 268 313
#     4   9  19  36  55  76 106 141 175 215 265 317
#     4   9  18  33  52  74 102 140 181 217 258 313
#     4  10  19  32  51  74 103 141 182 218 257 312
#     4  10  20  36  59  84 110 141 178 223 275 330
#     4   9  19  38  61  82 106 140 182 224 270 326
#
# _framework density 18.888317000000001
#
# number of rings (size 3 to 8) (size 9 to 14) (size 15 to 20)
#    0.000    2.571    0.000    1.714    0.000    4.857 
#    2.571    0.000    0.000    0.000    0.000    0.000 
#    0.000    0.000    0.000    0.000    0.000    0.000 
#
# Total GULP energy -346889.537371 kJ/mol
# GULP energy per Si atom -12388.912049 kJ/mol
# Density = 1.884533 g / cm^3
# Si number density = 18.888317 Si / 1000 Ang^3
#
#
#
# Elastic Constant Matrix: (Units=GPa)
#
#
# Indices 1 2 3 4 5 6 
#
# 1 126.2070 54.0493 40.4917 -0.0051 -2.0446 -0.0003
# 2 54.0493 98.3166 38.1213 -0.0157 -10.3248 0.0058
# 3 40.4917 38.1213 60.7085 -0.0145 -10.6097 0.0053
# 4 -0.0051 -0.0157 -0.0145 22.5634 0.0044 -0.5634
# 5 -2.0446 -10.3248 -10.6097 0.0044 25.6202 -0.0002
# 6 -0.0003 0.0058 0.0053 -0.5634 -0.0002 25.8570
#
#
#
# Elastic Compliance Matrix: (Units=1/GPa)
#
#
# Indices 1 2 3 4 5 6 
#
# 1 0.011571 -0.004608 -0.005376 -0.000003 -0.003160 0.000002
# 2 -0.004608 0.015383 -0.006001 0.000005 0.003346 -0.000002
# 3 -0.005376 -0.006001 0.025149 0.000009 0.007567 -0.000004
# 4 -0.000003 0.000005 0.000009 0.044344 -0.000002 0.000966
# 5 -0.003160 0.003346 0.007567 -0.000002 0.043262 -0.000002
# 6 0.000002 -0.000002 -0.000004 0.000966 -0.000002 0.038695
#
#
# Mechanical properties :
#
#
# Convention : Reuss Voigt Hill
#
# Bulk Modulus (GPa) = 49.67342 61.17297 55.42320
# Shear Modulus (GPa) = 23.03257 24.97944 24.00600
#
# Velocity S-wave (km/s) = 3.49579 3.64054 3.56890
# Velocity P-wave (km/s) = 6.53067 7.08014 6.81095
#
# Compressibility (1/GPa) = 0.02013149
#
# Stress axis : x y z
#
# Youngs Moduli (GPa) = 86.42563 65.00730 39.76370
#
# Poissons Ratio (x) = 0.29957 0.21377
# Poissons Ratio (y) = 0.39828 0.23862
# Poissons Ratio (z) = 0.46462 0.39011
#
# Static dielectric constant tensor:
#      x y z
#    x 3.403000 0.000010 0.009250 
#    y 0.000010 3.940310 0.000040 
#    z 0.009250 0.000040 3.408630 
# 
# 
# High freq. dielectric constant tensor:
#      x y z
#    x 1.721310 0.000000 -0.002050 
#    y 0.000000 1.744210 0.000000 
#    z -0.002050 0.000000 1.716680 
# 
# From -- ./inp_files/237317.got.cif
#   From: 2010.06.25/outbox.cif.g09.slc.cpg/sg12_119_cif.got.tgz:237317.got - 2010.06.28 00:19:55.
