data_PCOD8087468
_publ_section_title
;
Structure prediction by ZEFSAII (Michael W. Deem and Ramdas Pophale) SiO2 
 PCOD8087468
Probable space group: C 2/M
;
_chemical_formula_sum "Si O2"
_cell_formula_units_Z 40
_cell_length_a 23.635959
_cell_length_b 14.079770
_cell_length_c 9.803678
_cell_angle_alpha 90.000000
_cell_angle_beta 129.516237
_cell_angle_gamma 90.000000
_cell_volume 2516.879355
_symmetry_space_group_name_H-M "C 2/M"
_symmetry_group_IT_number 12
_symmetry_cell_setting 'monoclinic'
loop_
_space_group_symop_operation_xyz
x,y,z
-x,y,-z
-x,-y,-z
x,-y,z
1/2+x,1/2+y,z
1/2-x,1/2+y,-z
1/2-x,1/2-y,-z
1/2+x,1/2-y,z
loop_
_atom_site_type_symbol
_atom_site_label
_atom_site_fract_x
_atom_site_fract_y
_atom_site_fract_z
Si Si1 0.647298 0.608798 0.157186
Si Si2 0.182485 0.391936 0.595301
Si Si3 0.399990 0.234215 0.737289
Si Si4 0.420979 0.889699 0.318826
Si Si5 0.061682 0.266907 0.910964
O O1 0.622295 0.500000 0.129857
O O2 0.731806 0.618463 0.245336
O O3 0.632351 0.660170 0.280703
O O4 0.598782 0.661583 0.965905
O O5 0.160689 0.500000 0.525285
O O6 0.159903 0.326902 0.433827
O O7 0.140672 0.359705 0.667432
O O8 0.473929 0.242848 0.761609
O O9 0.417527 0.184801 0.911038
O O10 0.500000 0.863991 0.500000
O O11 0.405677 0.830084 0.159401
O O12 0.416094 0.000000 0.272209
#
# Coordination Sequence:
#
# PCOD8087468 Si02
#       5
#     8   8   8   8   8
#     4   9  19  34  52  73  98 132 168 202 243 287
#     4  10  19  32  53  75 102 132 160 196 248 300
#     4   9  18  32  50  77  98 128 164 206 240 286
#     4  10  19  32  50  73 102 133 159 195 248 303
#     4   9  19  31  51  76  98 130 163 205 240 288
#
# _framework density 15.892697999999999
#
# number of rings (size 3 to 8) (size 9 to 14) (size 15 to 20)
#    1.200    1.400    2.000    0.600    0.000    3.200 
#    0.000    2.000    0.000    1.800    0.000    0.000 
#    0.000    0.000    0.000    0.000    0.000    0.000 
#
# Total GULP energy -247844.754410 kJ/mol
# GULP energy per Si atom -12392.237720 kJ/mol
# Density = 1.585653 g / cm^3
# Si number density = 15.892698 Si / 1000 Ang^3
#
#
#
# Elastic Constant Matrix: (Units=GPa)
#
#
# Indices 1 2 3 4 5 6 
#
# 1 74.1567 32.1470 22.4391 0.0000 -9.6637 0.0000
# 2 32.1470 91.8433 42.9624 0.0000 -14.1410 0.0000
# 3 22.4391 42.9624 54.4312 0.0000 -8.0259 0.0000
# 4 0.0000 0.0000 0.0000 16.5243 0.0000 4.2515
# 5 -9.6637 -14.1410 -8.0259 0.0000 22.0683 0.0000
# 6 0.0000 0.0000 0.0000 4.2515 0.0000 24.0755
#
#
#
# Elastic Compliance Matrix: (Units=1/GPa)
#
#
# Indices 1 2 3 4 5 6 
#
# 1 0.016576 -0.003634 -0.003422 0.000000 0.003686 0.000000
# 2 -0.003634 0.018973 -0.012595 0.000000 0.005986 0.000000
# 3 -0.003422 -0.012595 0.029917 0.000000 0.001311 0.000000
# 4 0.000000 0.000000 0.000000 0.063397 0.000000 -0.011195
# 5 0.003686 0.005986 0.001311 0.000000 0.051241 0.000000
# 6 0.000000 0.000000 0.000000 -0.011195 0.000000 0.043513
#
#
# Mechanical properties :
#
#
# Convention : Reuss Voigt Hill
#
# Bulk Modulus (GPa) = 38.21876 46.16978 42.19427
# Shear Modulus (GPa) = 18.40674 20.72580 19.56627
#
# Velocity S-wave (km/s) = 3.40691 3.61516 3.51258
# Velocity P-wave (km/s) = 6.29097 6.82201 6.56186
#
# Compressibility (1/GPa) = 0.02616516
#
# Stress axis : x y z
#
# Youngs Moduli (GPa) = 60.32851 52.70555 33.42592
#
# Poissons Ratio (x) = 0.19152 0.11438
# Poissons Ratio (y) = 0.21922 0.42100
# Poissons Ratio (z) = 0.20643 0.66382
#
# Static dielectric constant tensor:
#      x y z
#    x 3.054790 0.000000 0.068860 
#    y 0.000000 2.887610 0.000000 
#    z 0.068860 0.000000 2.756560 
# 
# 
# High freq. dielectric constant tensor:
#      x y z
#    x 1.621170 0.000000 0.009910 
#    y 0.000000 1.595600 0.000000 
#    z 0.009910 0.000000 1.590350 
# 
# From -- ./inp_files/84952.got.cif
#   From: 2010.06.25/outbox.cif.g09.slc.cpg/sg12_43_cif.got.tgz:84952.got - 2010.06.28 00:19:55.
