data_PCOD8087502
_publ_section_title
;
Structure prediction by ZEFSAII (Michael W. Deem and Ramdas Pophale) SiO2 
 PCOD8087502
Probable space group: C 2/M
;
_chemical_formula_sum "Si O2"
_cell_formula_units_Z 64
_cell_length_a 18.861843
_cell_length_b 9.290634
_cell_length_c 22.400389
_cell_angle_alpha 90.000000
_cell_angle_beta 54.755326
_cell_angle_gamma 90.000000
_cell_volume 3205.863604
_symmetry_space_group_name_H-M "C 2/M"
_symmetry_group_IT_number 12
_symmetry_cell_setting 'monoclinic'
loop_
_space_group_symop_operation_xyz
x,y,z
-x,y,-z
-x,-y,-z
x,-y,z
1/2+x,1/2+y,z
1/2-x,1/2+y,-z
1/2-x,1/2-y,-z
1/2+x,1/2-y,z
loop_
_atom_site_type_symbol
_atom_site_label
_atom_site_fract_x
_atom_site_fract_y
_atom_site_fract_z
Si Si1 0.488290 0.166051 0.075625
Si Si2 0.713253 0.342968 0.105988
Si Si3 0.650443 0.657396 0.006143
Si Si4 0.383963 0.666360 0.212873
Si Si5 0.271161 0.835173 0.354269
Si Si6 0.089310 0.331216 0.615344
Si Si7 0.027619 0.834075 0.242214
Si Si8 0.585234 0.333857 0.495006
O O1 0.571771 0.240695 0.063841
O O2 0.402931 0.247464 0.142231
O O3 0.484053 0.000000 0.096575
O O4 0.500000 0.187961 0.000000
O O5 0.739055 0.500000 0.120669
O O6 0.704688 0.365515 0.039530
O O7 0.625530 0.285794 0.179442
O O8 0.791546 0.228828 0.075383
O O9 0.618288 0.500000 0.998987
O O10 0.365605 0.500000 0.207670
O O11 0.299858 0.733573 0.285812
O O12 0.467760 0.688475 0.213736
O O13 0.324155 0.794844 0.388686
O O14 0.169102 0.810124 0.412758
O O15 0.291473 0.000000 0.327108
O O16 0.074995 0.500000 0.615129
O O17 0.098858 0.263015 0.546034
O O18 0.004770 0.264736 0.688087
O O19 0.024744 0.000000 0.263946
O O20 0.500000 0.284965 0.500000
O O21 0.577296 0.500000 0.518744
#
# Coordination Sequence:
#
# PCOD8087502 Si02
#       8
#     8   8   8   8   8   8   8   8
#     4  11  23  37  53  74 104 144 186 227 274 328
#     4   9  17  31  50  75 105 136 171 214 268 323
#     4  10  19  32  50  75 102 133 176 221 269 320
#     4  10  19  34  56  82 107 136 179 228 279 325
#     4   9  19  36  58  85 113 143 184 228 274 330
#     4  10  20  33  54  85 115 143 181 231 280 323
#     4   9  17  32  53  78 109 141 177 222 271 325
#     4  10  21  38  59  82 112 152 189 220 266 330
#
# _framework density 19.963418999999998
#
# number of rings (size 3 to 8) (size 9 to 14) (size 15 to 20)
#    0.000    2.250    1.250    1.875    0.000    3.750 
#    0.000    1.250    0.000    3.000    0.000    0.000 
#    0.000    0.000    0.000    0.000    0.000    0.000 
#
# Total GULP energy -396728.797592 kJ/mol
# GULP energy per Si atom -12397.774925 kJ/mol
# Density = 1.991798 g / cm^3
# Si number density = 19.963419 Si / 1000 Ang^3
#
#
#
# Elastic Constant Matrix: (Units=GPa)
#
#
# Indices 1 2 3 4 5 6 
#
# 1 46.7872 33.1824 37.4613 0.0000 -13.2170 0.0000
# 2 33.1824 132.0535 75.5685 -0.0001 -5.5742 -0.0001
# 3 37.4613 75.5685 123.6440 0.0000 -22.5099 -0.0001
# 4 0.0000 -0.0001 0.0000 40.1137 0.0000 -0.4126
# 5 -13.2170 -5.5742 -22.5099 0.0000 25.5764 0.0000
# 6 0.0000 -0.0001 -0.0001 -0.4126 0.0000 17.6140
#
#
#
# Elastic Compliance Matrix: (Units=1/GPa)
#
#
# Indices 1 2 3 4 5 6 
#
# 1 0.031670 -0.004870 -0.004564 0.000000 0.011288 0.000000
# 2 -0.004870 0.012833 -0.007522 0.000000 -0.006340 0.000000
# 3 -0.004564 -0.007522 0.015885 0.000000 0.009983 0.000000
# 4 0.000000 0.000000 0.000000 0.024935 0.000000 0.000584
# 5 0.011288 -0.006340 0.009983 0.000000 0.052336 0.000000
# 6 0.000000 0.000000 0.000000 0.000584 0.000000 0.056787
#
#
# Mechanical properties :
#
#
# Convention : Reuss Voigt Hill
#
# Bulk Modulus (GPa) = 37.76900 66.10100 51.93500
# Shear Modulus (GPa) = 21.08067 27.07900 24.07983
#
# Velocity S-wave (km/s) = 3.25309 3.68697 3.47680
# Velocity P-wave (km/s) = 5.75068 7.16296 6.49531
#
# Compressibility (1/GPa) = 0.02647674
#
# Stress axis : x y z
#
# Youngs Moduli (GPa) = 31.57554 77.92143 62.95086
#
# Poissons Ratio (x) = 0.37946 0.28731
# Poissons Ratio (y) = 0.15377 0.47354
# Poissons Ratio (z) = 0.14411 0.58615
#
# Static dielectric constant tensor:
#      x y z
#    x 3.301940 0.000000 -0.192590 
#    y 0.000000 3.949530 0.000000 
#    z -0.192590 0.000000 3.622050 
# 
# 
# High freq. dielectric constant tensor:
#      x y z
#    x 1.743720 0.000000 -0.015830 
#    y 0.000000 1.786070 0.000000 
#    z -0.015830 0.000000 1.781910 
# 
# From -- ./inp_files/346071.got.cif
#   From: 2010.06.25/outbox.cif.g09.slc.cpg/sg12_174_cif.got.tgz:346071.got - 2010.06.28 00:19:55.
