data_PCOD8087734
_publ_section_title
;
Structure prediction by ZEFSAII (Michael W. Deem and Ramdas Pophale) SiO2 
 PCOD8087734
Probable space group: C 2/M
;
_chemical_formula_sum "Si O2"
_cell_formula_units_Z 64
_cell_length_a 30.186274
_cell_length_b 8.719466
_cell_length_c 12.579358
_cell_angle_alpha 90.000000
_cell_angle_beta 79.005320
_cell_angle_gamma 90.000000
_cell_volume 3250.216482
_symmetry_space_group_name_H-M "C 2/M"
_symmetry_group_IT_number 12
_symmetry_cell_setting 'monoclinic'
loop_
_space_group_symop_operation_xyz
x,y,z
-x,y,-z
-x,-y,-z
x,-y,z
1/2+x,1/2+y,z
1/2-x,1/2+y,-z
1/2-x,1/2-y,-z
1/2+x,1/2-y,z
loop_
_atom_site_type_symbol
_atom_site_label
_atom_site_fract_x
_atom_site_fract_y
_atom_site_fract_z
Si Si1 0.411912 0.682800 0.276531
Si Si2 0.009598 0.670653 0.201269
Si Si3 0.252872 0.681171 0.114329
Si Si4 0.163400 0.681396 0.270652
Si Si5 0.900207 0.181904 0.877032
Si Si6 0.956993 0.669679 0.579706
Si Si7 0.148339 0.181362 0.888401
Si Si8 0.877207 0.823482 0.520159
O O1 0.415303 0.500000 0.278407
O O2 0.461800 0.745360 0.231269
O O3 0.379897 0.746970 0.197866
O O4 0.389507 0.742884 0.397409
O O5 0.002849 0.500000 0.154975
O O6 0.047990 0.766400 0.120819
O O7 0.032082 0.655160 0.303971
O O8 0.251438 0.500000 0.103574
O O9 0.211233 0.740946 0.203983
O O10 0.299719 0.734862 0.147202
O O11 0.250000 0.750000 0.000000
O O12 0.159132 0.500000 0.269398
O O13 0.122182 0.746442 0.218567
O O14 0.161861 0.735348 0.395580
O O15 0.899140 0.000000 0.865296
O O16 0.871382 0.241437 0.990968
O O17 0.942127 0.500000 0.543420
O O18 0.920187 0.798993 0.575852
O O19 0.000000 0.733097 0.500000
O O20 0.144462 0.000000 0.887887
O O21 0.863542 0.000000 0.518077
#
# Coordination Sequence:
#
# PCOD8087734 Si02
#       8
#     8   8   8   8   8   8   8   8
#     4  10  22  40  59  80 111 156 202 236 273 332
#     4  11  22  35  54  83 119 154 189 234 287 338
#     4  10  20  37  63  91 115 145 185 233 289 344
#     4  11  22  35  56  88 122 148 178 233 297 346
#     4  11  21  35  59  86 114 149 191 237 282 340
#     4  10  19  32  51  75 108 147 185 231 285 335
#     4   9  20  40  62  83 112 150 191 235 286 341
#     4  11  22  34  55  83 113 149 193 240 277 329
#
# _framework density 19.690995000000001
#
# number of rings (size 3 to 8) (size 9 to 14) (size 15 to 20)
#    0.000    1.625    3.750    1.500    0.000    2.250 
#    0.000    5.000    0.000    0.000    0.000    0.000 
#    0.000    0.000    0.000    0.000    0.000    0.000 
#
# Total GULP energy -396570.208567 kJ/mol
# GULP energy per Si atom -12392.819018 kJ/mol
# Density = 1.964618 g / cm^3
# Si number density = 19.690995 Si / 1000 Ang^3
#
#
#
# Elastic Constant Matrix: (Units=GPa)
#
#
# Indices 1 2 3 4 5 6 
#
# 1 141.0136 27.1579 65.3088 0.0000 -22.5574 0.0000
# 2 27.1579 53.3329 20.0587 0.0000 -4.1189 0.0000
# 3 65.3088 20.0587 90.6063 0.0000 -9.8225 0.0000
# 4 0.0000 0.0000 0.0000 20.7374 0.0000 -6.7609
# 5 -22.5574 -4.1189 -9.8225 0.0000 38.2325 0.0000
# 6 0.0000 0.0000 0.0000 -6.7609 0.0000 24.5023
#
#
#
# Elastic Compliance Matrix: (Units=1/GPa)
#
#
# Indices 1 2 3 4 5 6 
#
# 1 0.011821 -0.002881 -0.007365 0.000000 0.004772 0.000000
# 2 -0.002881 0.021198 -0.002626 0.000000 -0.000091 0.000000
# 3 -0.007365 -0.002626 0.016896 0.000000 -0.000288 0.000000
# 4 0.000000 0.000000 0.000000 0.052989 0.000000 0.014621
# 5 0.004772 -0.000091 -0.000288 0.000000 0.028887 0.000000
# 6 0.000000 0.000000 0.000000 0.014621 0.000000 0.044847
#
#
# Mechanical properties :
#
#
# Convention : Reuss Voigt Hill
#
# Bulk Modulus (GPa) = 41.37383 56.66707 49.02045
# Shear Modulus (GPa) = 23.75983 28.18959 25.97471
#
# Velocity S-wave (km/s) = 3.47743 3.78775 3.63590
# Velocity P-wave (km/s) = 6.09759 6.92604 6.52498
#
# Compressibility (1/GPa) = 0.02416987
#
# Stress axis : x y z
#
# Youngs Moduli (GPa) = 84.59657 47.17471 59.18583
#
# Poissons Ratio (x) = 0.13589 0.43593
# Poissons Ratio (y) = 0.24369 0.15544
# Poissons Ratio (z) = 0.62309 0.12389
#
# Static dielectric constant tensor:
#      x y z
#    x 3.809010 0.000000 -0.290410 
#    y 0.000000 3.650280 0.000000 
#    z -0.290410 0.000000 3.800430 
# 
# 
# High freq. dielectric constant tensor:
#      x y z
#    x 1.765420 0.000000 -0.023020 
#    y 0.000000 1.753470 0.000000 
#    z -0.023020 0.000000 1.767320 
# 
# From -- ./inp_files/187614.got.cif
#   From: 2010.06.25/outbox.cif.g09.slc.cpg/sg12_94_cif.got.tgz:187614.got - 2010.06.28 00:19:55.
