data_PCOD8087486
_publ_section_title
;
Structure prediction by ZEFSAII (Michael W. Deem and Ramdas Pophale) SiO2 
 PCOD8087486
Probable space group: C 2/M
;
_chemical_formula_sum "Si O2"
_cell_formula_units_Z 40
_cell_length_a 8.939395
_cell_length_b 27.731375
_cell_length_c 16.410184
_cell_angle_alpha 90.000000
_cell_angle_beta 148.402907
_cell_angle_gamma 90.000000
_cell_volume 2131.457947
_symmetry_space_group_name_H-M "C 2/M"
_symmetry_group_IT_number 12
_symmetry_cell_setting 'monoclinic'
loop_
_space_group_symop_operation_xyz
x,y,z
-x,y,-z
-x,-y,-z
x,-y,z
1/2+x,1/2+y,z
1/2-x,1/2+y,-z
1/2-x,1/2-y,-z
1/2+x,1/2-y,z
loop_
_atom_site_type_symbol
_atom_site_label
_atom_site_fract_x
_atom_site_fract_y
_atom_site_fract_z
Si Si1 0.796471 0.905306 0.672483
Si Si2 0.701877 0.777055 0.165336
Si Si3 0.739389 0.798163 0.669195
Si Si4 0.857553 0.618864 0.846657
Si Si5 0.649439 0.444158 0.985513
O O1 0.500000 0.929149 0.500000
O O2 0.696200 0.854748 0.666872
O O3 0.028360 0.899181 0.705798
O O4 0.937419 0.936155 0.810489
O O5 0.752838 0.731257 0.244477
O O6 0.608958 0.825735 0.171597
O O7 0.977229 0.794532 0.248444
O O8 0.500000 0.758706 0.000000
O O9 0.500000 0.775843 0.500000
O O10 0.000000 0.619621 0.000000
O O11 0.047633 0.584064 0.878459
O O12 0.731622 0.500000 0.026036
O O13 0.500000 0.427853 0.000000
#
# Coordination Sequence:
#
# PCOD8087486 Si02
#       5
#     8   8   8   8   8
#     4   9  19  35  54  77 105 137 172 207 246 302
#     4  10  19  32  50  74 101 135 177 209 240 292
#     4  10  20  33  49  74 108 138 167 206 249 292
#     4   8  17  34  53  74 102 137 174 208 247 303
#     4  10  21  37  56  78 101 127 166 216 265 307
#
# _framework density 18.766497999999999
#
# number of rings (size 3 to 8) (size 9 to 14) (size 15 to 20)
#    0.000    2.600    0.000    2.400    0.000    6.400 
#    0.000    1.000    0.000    2.400    0.000    0.000 
#    0.000    0.000    0.000    0.000    0.000    0.000 
#
# Total GULP energy -247787.741189 kJ/mol
# GULP energy per Si atom -12389.387059 kJ/mol
# Density = 1.872378 g / cm^3
# Si number density = 18.766498 Si / 1000 Ang^3
#
#
#
# Elastic Constant Matrix: (Units=GPa)
#
#
# Indices 1 2 3 4 5 6 
#
# 1 90.2256 60.3498 35.2186 0.0000 9.7644 0.0000
# 2 60.3498 105.6147 29.1619 0.0000 10.0364 0.0000
# 3 35.2186 29.1619 116.5026 0.0000 12.5392 0.0000
# 4 0.0000 0.0000 0.0000 28.1913 0.0000 4.4793
# 5 9.7644 10.0364 12.5392 0.0000 27.6804 0.0000
# 6 0.0000 0.0000 0.0000 4.4793 0.0000 26.7248
#
#
#
# Elastic Compliance Matrix: (Units=1/GPa)
#
#
# Indices 1 2 3 4 5 6 
#
# 1 0.019102 -0.009890 -0.003111 0.000000 -0.001743 0.000000
# 2 -0.009890 0.015483 -0.000691 0.000000 -0.001812 0.000000
# 3 -0.003111 -0.000691 0.010041 0.000000 -0.003201 0.000000
# 4 0.000000 0.000000 0.000000 0.036442 0.000000 -0.006108
# 5 -0.001743 -0.001812 -0.003201 0.000000 0.038848 0.000000
# 6 0.000000 0.000000 0.000000 -0.006108 0.000000 0.038442
#
#
# Mechanical properties :
#
#
# Convention : Reuss Voigt Hill
#
# Bulk Modulus (GPa) = 57.99946 62.42262 60.21104
# Shear Modulus (GPa) = 26.11092 29.02680 27.56886
#
# Velocity S-wave (km/s) = 3.73414 3.93712 3.83697
# Velocity P-wave (km/s) = 7.04022 7.34867 7.19610
#
# Compressibility (1/GPa) = 0.01724154
#
# Stress axis : x y z
#
# Youngs Moduli (GPa) = 52.35101 64.58785 99.58784
#
# Poissons Ratio (x) = 0.63880 0.30984
# Poissons Ratio (y) = 0.51777 0.06878
# Poissons Ratio (z) = 0.16287 0.04461
#
# Static dielectric constant tensor:
#      x y z
#    x 3.319430 0.000000 0.303340 
#    y 0.000000 3.773510 0.000000 
#    z 0.303340 0.000000 3.695940 
# 
# 
# High freq. dielectric constant tensor:
#      x y z
#    x 1.706580 0.000000 0.020650 
#    y 0.000000 1.726470 0.000000 
#    z 0.020650 0.000000 1.733160 
# 
# From -- ./inp_files/39173.got.cif
#   From: 2010.06.25/outbox.cif.g09.slc.cpg/sg12_20_cif.got.tgz:39173.got - 2010.06.28 00:19:55.
