data_PCOD8087236
_publ_section_title
;
Structure prediction by ZEFSAII (Michael W. Deem and Ramdas Pophale) SiO2 
 PCOD8087236
Probable space group: C 2/M
;
_chemical_formula_sum "Si O2"
_cell_formula_units_Z 56
_cell_length_a 25.062755
_cell_length_b 8.786763
_cell_length_c 20.256021
_cell_angle_alpha 90.000000
_cell_angle_beta 131.790256
_cell_angle_gamma 90.000000
_cell_volume 3325.918107
_symmetry_space_group_name_H-M "C 2/M"
_symmetry_group_IT_number 12
_symmetry_cell_setting 'monoclinic'
loop_
_space_group_symop_operation_xyz
x,y,z
-x,y,-z
-x,-y,-z
x,-y,z
1/2+x,1/2+y,z
1/2-x,1/2+y,-z
1/2-x,1/2-y,-z
1/2+x,1/2-y,z
loop_
_atom_site_type_symbol
_atom_site_label
_atom_site_fract_x
_atom_site_fract_y
_atom_site_fract_z
Si Si1 0.610805 0.830286 0.604558
Si Si2 0.939006 0.822040 0.239900
Si Si3 0.840722 0.323884 0.914224
Si Si4 0.808762 0.682007 0.208313
Si Si5 0.536552 0.824270 0.878286
Si Si6 0.526984 0.828169 0.417346
Si Si7 0.061840 0.828920 0.104747
O O1 0.672978 0.755807 0.701635
O O2 0.590419 0.754343 0.516506
O O3 0.542655 0.834888 0.595356
O O4 0.634393 0.000000 0.605484
O O5 0.868204 0.735390 0.205400
O O6 0.952540 0.780697 0.175702
O O7 0.010167 0.774994 0.339942
O O8 0.926077 0.000000 0.237004
O O9 0.828873 0.500000 0.889517
O O10 0.766885 0.248176 0.876287
O O11 0.867776 0.245807 0.869092
O O12 0.895906 0.297820 0.018826
O O13 0.807381 0.500000 0.206192
O O14 0.463796 0.771305 0.854385
O O15 0.528820 0.000000 0.851418
O O16 0.546648 0.000000 0.410586
O O17 0.080054 0.000000 0.143137
O O18 0.000000 0.830592 0.000000
#
# Coordination Sequence:
#
# PCOD8087236 Si02
#       7
#     8   8   8   8   8   8   8
#     4   7  12  24  44  65  85 115 153 188 222 267
#     4  11  21  31  44  67  97 125 156 192 231 277
#     4  10  20  33  49  70  94 121 155 193 231 271
#     4  10  19  32  48  67  94 127 159 189 227 275
#     4  10  20  34  50  67  91 124 158 192 230 271
#     4   8  13  26  45  63  86 117 152 187 225 269
#     4   9  17  31  51  72  91 114 149 193 235 271
#
# _framework density 16.837456
#
# number of rings (size 3 to 8) (size 9 to 14) (size 15 to 20)
#    0.000    2.714    0.000    4.714    0.000    4.000 
#    0.000    6.429    0.000    0.000    0.000    1.000 
#    0.000    0.000    0.000    0.000    0.000    0.000 
#
# Total GULP energy -346923.063249 kJ/mol
# GULP energy per Si atom -12390.109402 kJ/mol
# Density = 1.679913 g / cm^3
# Si number density = 16.837456 Si / 1000 Ang^3
#
#
#
# Elastic Constant Matrix: (Units=GPa)
#
#
# Indices 1 2 3 4 5 6 
#
# 1 55.1984 13.9362 26.0394 0.0000 -14.3765 0.0000
# 2 13.9362 75.8808 28.5958 0.0000 -9.4305 0.0000
# 3 26.0394 28.5958 55.2610 0.0000 -14.3459 0.0000
# 4 0.0000 0.0000 0.0000 17.2825 0.0000 -1.6928
# 5 -14.3765 -9.4305 -14.3459 0.0000 5.8063 0.0000
# 6 0.0000 0.0000 0.0000 -1.6928 0.0000 27.0455
#
#
#
# Elastic Compliance Matrix: (Units=1/GPa)
#
#
# Indices 1 2 3 4 5 6 
#
# 1 0.070102 0.008155 0.031363 0.000000 0.264310 0.000000
# 2 0.008155 0.017855 -0.000870 0.000000 0.047043 0.000000
# 3 0.031363 -0.000870 0.065703 0.000000 0.238579 0.000000
# 4 0.000000 0.000000 0.000000 0.058219 0.000000 0.003644
# 5 0.264310 0.047043 0.238579 0.000000 1.492542 0.000000
# 6 0.000000 0.000000 0.000000 0.003644 0.000000 0.037203
#
#
# Mechanical properties :
#
#
# Convention : Reuss Voigt Hill
#
# Bulk Modulus (GPa) = 4.32982 35.94253 20.13617
# Shear Modulus (GPa) = 2.87140 17.87811 10.37475
#
# Velocity S-wave (km/s) = 1.30731 3.26207 2.48497
# Velocity P-wave (km/s) = 2.20361 5.96500 4.49651
#
# Compressibility (1/GPa) = 0.23095636
#
# Stress axis : x y z
#
# Youngs Moduli (GPa) = 14.26488 56.00638 15.21996
#
# Poissons Ratio (x) = -0.45671 -0.47734
# Poissons Ratio (y) = -0.11632 0.01323
# Poissons Ratio (z) = -0.44739 0.04870
#
# Static dielectric constant tensor:
#      x y z
#    x 2.888870 0.000000 -0.034500 
#    y 0.000000 3.145260 0.000000 
#    z -0.034500 0.000000 3.589550 
# 
# 
# High freq. dielectric constant tensor:
#      x y z
#    x 1.612720 0.000000 -0.010050 
#    y 0.000000 1.646110 0.000000 
#    z -0.010050 0.000000 1.643460 
# 
# From -- ./inp_files/323800.got.cif
#   From: 2010.06.25/outbox.cif.g09.slc.cpg/sg12_162_cif.got.tgz:323800.got - 2010.06.28 00:19:55.
