data_PCOD8087459
_publ_section_title
;
Structure prediction by ZEFSAII (Michael W. Deem and Ramdas Pophale) SiO2 
 PCOD8087459
Probable space group: C 2/M
;
_chemical_formula_sum "Si O2"
_cell_formula_units_Z 56
_cell_length_a 19.246047
_cell_length_b 9.186524
_cell_length_c 24.189259
_cell_angle_alpha 90.000000
_cell_angle_beta 44.812363
_cell_angle_gamma 90.000000
_cell_volume 3014.209200
_symmetry_space_group_name_H-M "C 2/M"
_symmetry_group_IT_number 12
_symmetry_cell_setting 'monoclinic'
loop_
_space_group_symop_operation_xyz
x,y,z
-x,y,-z
-x,-y,-z
x,-y,z
1/2+x,1/2+y,z
1/2-x,1/2+y,-z
1/2-x,1/2-y,-z
1/2+x,1/2-y,z
loop_
_atom_site_type_symbol
_atom_site_label
_atom_site_fract_x
_atom_site_fract_y
_atom_site_fract_z
Si Si1 0.005432 0.834059 0.678632
Si Si2 0.311990 0.835328 0.799656
Si Si3 0.391976 0.165367 0.567456
Si Si4 0.340183 0.164571 0.473550
Si Si5 0.720605 0.668821 0.739517
Si Si6 0.678681 0.831894 0.081398
Si Si7 0.024888 0.831386 0.793001
O O1 0.893019 0.785503 0.742440
O O2 0.058778 0.733992 0.604120
O O3 0.052352 0.815173 0.712956
O O4 0.012243 0.000000 0.655015
O O5 0.225831 0.808550 0.803003
O O6 0.274189 0.815296 0.883730
O O7 0.354446 0.000000 0.768552
O O8 0.500000 0.243153 0.500000
O O9 0.333938 0.172550 0.542826
O O10 0.318346 0.238429 0.654549
O O11 0.413288 0.000000 0.574508
O O12 0.250000 0.250000 0.500000
O O13 0.334772 0.000000 0.455283
O O14 0.719180 0.500000 0.723360
O O15 0.617395 0.733852 0.775457
O O16 0.570197 0.763664 0.138627
O O17 0.671052 0.000000 0.068447
O O18 0.750000 0.750000 0.000000
O O19 0.002143 0.000000 0.820523
#
# Coordination Sequence:
#
# PCOD8087459 Si02
#       7
#     8   8   8   8   8   8   8
#     4  10  19  32  50  72  99 132 170 209 252 303
#     4   9  18  33  55  79  99 126 166 207 245 291
#     4   9  17  29  48  73  99 132 174 216 256 296
#     4  11  21  32  48  70  97 130 170 216 261 303
#     4   9  16  30  52  76 101 130 171 218 256 294
#     4  10  20  35  56  81 106 131 162 200 247 304
#     4   9  18  33  54  77 102 135 172 210 252 298
#
# _framework density 18.578669999999999
#
# number of rings (size 3 to 8) (size 9 to 14) (size 15 to 20)
#    0.000    2.429    0.000    3.000    0.000    5.714 
#    0.000    1.429    0.000   13.714    0.000    0.000 
#    0.000    0.000    0.000    0.000    0.000    0.000 
#
# Total GULP energy -347093.935928 kJ/mol
# GULP energy per Si atom -12396.211997 kJ/mol
# Density = 1.853638 g / cm^3
# Si number density = 18.578670 Si / 1000 Ang^3
#
#
#
# Elastic Constant Matrix: (Units=GPa)
#
#
# Indices 1 2 3 4 5 6 
#
# 1 115.4740 28.8236 39.2857 0.0000 4.3126 -0.0001
# 2 28.8236 84.0816 38.8606 0.0000 4.1707 -0.0003
# 3 39.2857 38.8606 103.7018 0.0000 4.7637 0.0000
# 4 0.0000 0.0000 0.0000 27.7542 0.0000 -2.0125
# 5 4.3126 4.1707 4.7637 0.0000 22.0037 0.0000
# 6 -0.0001 -0.0003 0.0000 -2.0125 0.0000 22.2356
#
#
#
# Elastic Compliance Matrix: (Units=1/GPa)
#
#
# Indices 1 2 3 4 5 6 
#
# 1 0.010252 -0.002047 -0.003073 0.000000 -0.000956 0.000000
# 2 -0.002047 0.014847 -0.004725 0.000000 -0.001390 0.000000
# 3 -0.003073 -0.004725 0.012634 0.000000 -0.001238 0.000000
# 4 0.000000 0.000000 0.000000 0.036269 0.000000 0.003283
# 5 -0.000956 -0.001390 -0.001238 0.000000 0.046166 0.000000
# 6 0.000000 0.000000 0.000000 0.003283 0.000000 0.045270
#
#
# Mechanical properties :
#
#
# Convention : Reuss Voigt Hill
#
# Bulk Modulus (GPa) = 55.41590 57.46637 56.44114
# Shear Modulus (GPa) = 26.15858 27.48454 26.82156
#
# Velocity S-wave (km/s) = 3.75639 3.85042 3.80369
# Velocity P-wave (km/s) = 6.97900 7.12504 7.05239
#
# Compressibility (1/GPa) = 0.01804536
#
# Stress axis : x y z
#
# Youngs Moduli (GPa) = 97.54195 67.35180 79.14871
#
# Poissons Ratio (x) = 0.13786 0.24321
# Poissons Ratio (y) = 0.19965 0.37394
# Poissons Ratio (z) = 0.29973 0.31821
#
# Static dielectric constant tensor:
#      x y z
#    x 3.516250 0.000000 0.191900 
#    y 0.000000 3.180210 0.000000 
#    z 0.191900 0.000000 3.723090 
# 
# 
# High freq. dielectric constant tensor:
#      x y z
#    x 1.725930 0.000000 0.007030 
#    y 0.000000 1.695330 0.000000 
#    z 0.007030 0.000000 1.709170 
# 
# From -- ./inp_files/342202.got.cif
#   From: 2010.06.25/outbox.cif.g09.slc.cpg/sg12_172_cif.got.tgz:342202.got - 2010.06.28 00:19:55.
