data_PCOD8087403
_publ_section_title
;
Structure prediction by ZEFSAII (Michael W. Deem and Ramdas Pophale) SiO2 
 PCOD8087403
Probable space group: C 2/M
;
_chemical_formula_sum "Si O2"
_cell_formula_units_Z 64
_cell_length_a 23.049319
_cell_length_b 9.018405
_cell_length_c 22.536722
_cell_angle_alpha 90.000000
_cell_angle_beta 130.796056
_cell_angle_gamma 90.000000
_cell_volume 3546.479278
_symmetry_space_group_name_H-M "C 2/M"
_symmetry_group_IT_number 12
_symmetry_cell_setting 'monoclinic'
loop_
_space_group_symop_operation_xyz
x,y,z
-x,y,-z
-x,-y,-z
x,-y,z
1/2+x,1/2+y,z
1/2-x,1/2+y,-z
1/2-x,1/2-y,-z
1/2+x,1/2-y,z
loop_
_atom_site_type_symbol
_atom_site_label
_atom_site_fract_x
_atom_site_fract_y
_atom_site_fract_z
Si Si1 0.581601 0.174787 0.528887
Si Si2 0.137554 0.336483 0.443611
Si Si3 0.199771 0.164422 0.384456
Si Si4 0.230575 0.823938 0.675759
Si Si5 0.700308 0.667541 0.884302
Si Si6 0.571365 0.329065 0.009431
Si Si7 0.233594 0.828090 0.178591
Si Si8 0.634967 0.166807 0.944889
O O1 0.500000 0.220742 0.500000
O O2 0.581845 0.219564 0.459240
O O3 0.645477 0.263436 0.607601
O O4 0.599089 0.000000 0.547478
O O5 0.112938 0.500000 0.405675
O O6 0.134166 0.229332 0.384321
O O7 0.222008 0.342597 0.527195
O O8 0.209508 0.267673 0.333668
O O9 0.174663 0.000000 0.347342
O O10 0.259969 0.766072 0.757892
O O11 0.229143 0.000000 0.673924
O O12 0.675006 0.500000 0.851821
O O13 0.705574 0.764736 0.828200
O O14 0.636793 0.740214 0.885007
O O15 0.781515 0.667323 0.970787
O O16 0.559452 0.500000 0.984437
O O17 0.647702 0.305992 0.098349
O O18 0.500000 0.268801 0.000000
O O19 0.574728 0.239091 0.950179
O O20 0.252860 0.000000 0.203093
O O21 0.608263 0.000000 0.912780
#
# Coordination Sequence:
#
# PCOD8087403 Si02
#       8
#     8   8   8   8   8   8   8   8
#     4   9  18  33  52  73  98 128 160 195 237 284
#     4   8  14  25  43  68  94 119 151 192 235 276
#     4   9  16  27  44  66  92 122 157 195 235 277
#     4  11  21  32  48  71  99 128 160 197 237 282
#     4   9  16  27  44  67  94 122 156 197 237 277
#     4   9  18  32  50  72  97 126 159 197 241 286
#     4  10  19  32  50  71  97 127 159 195 238 286
#     4   9  16  26  43  68  95 123 156 194 236 281
#
# _framework density 18.046064999999999
#
# number of rings (size 3 to 8) (size 9 to 14) (size 15 to 20)
#    0.000    2.750    0.000    3.375    0.000    7.000 
#    0.000    0.000    0.000    1.500    0.000    7.000 
#    0.000    0.000    0.000    0.000    0.000    0.000 
#
# Total GULP energy -396731.683964 kJ/mol
# GULP energy per Si atom -12397.865124 kJ/mol
# Density = 1.800499 g / cm^3
# Si number density = 18.046065 Si / 1000 Ang^3
#
#
#
# Elastic Constant Matrix: (Units=GPa)
#
#
# Indices 1 2 3 4 5 6 
#
# 1 153.5208 63.6629 33.4067 0.0000 -29.9506 0.0000
# 2 63.6629 126.2493 32.7335 0.0000 -16.6541 0.0000
# 3 33.4067 32.7335 38.1533 0.0000 -19.7703 0.0000
# 4 0.0000 0.0000 0.0000 23.5800 0.0000 -11.0791
# 5 -29.9506 -16.6541 -19.7703 0.0000 21.5199 0.0000
# 6 0.0000 0.0000 0.0000 -11.0791 0.0000 31.2211
#
#
#
# Elastic Compliance Matrix: (Units=1/GPa)
#
#
# Indices 1 2 3 4 5 6 
#
# 1 0.010270 -0.003698 0.000199 0.000000 0.011614 0.000000
# 2 -0.003698 0.011519 -0.008956 0.000000 -0.004460 0.000000
# 3 0.000199 -0.008956 0.057777 0.000000 0.046425 0.000000
# 4 0.000000 0.000000 0.000000 0.050894 0.000000 0.018060
# 5 0.011614 -0.004460 0.046425 0.000000 0.101831 0.000000
# 6 0.000000 0.000000 0.000000 0.018060 0.000000 0.038438
#
#
# Mechanical properties :
#
#
# Convention : Reuss Voigt Hill
#
# Bulk Modulus (GPa) = 18.29679 64.16997 41.23338
# Shear Modulus (GPa) = 15.93071 27.80557 21.86814
#
# Velocity S-wave (km/s) = 2.97438 3.92957 3.48486
# Velocity P-wave (km/s) = 4.68582 7.49833 6.25227
#
# Compressibility (1/GPa) = 0.05465440
#
# Stress axis : x y z
#
# Youngs Moduli (GPa) = 97.37209 86.80949 17.30807
#
# Poissons Ratio (x) = 0.32104 -0.00344
# Poissons Ratio (y) = 0.36010 0.15501
# Poissons Ratio (z) = -0.01935 0.77748
#
# Static dielectric constant tensor:
#      x y z
#    x 3.557700 0.000000 -0.345510 
#    y 0.000000 3.522390 0.000000 
#    z -0.345510 0.000000 2.894880 
# 
# 
# High freq. dielectric constant tensor:
#      x y z
#    x 1.701040 0.000000 -0.036100 
#    y 0.000000 1.708290 0.000000 
#    z -0.036100 0.000000 1.648250 
# 
# From -- ./inp_files/324263.got.cif
#   From: 2010.06.25/outbox.cif.g09.slc.cpg/sg12_163_cif.got.tgz:324263.got - 2010.06.28 00:19:55.
