data_PCOD8087922
_publ_section_title
;
Structure prediction by ZEFSAII (Michael W. Deem and Ramdas Pophale) SiO2 
 PCOD8087922
Probable space group: C 2/M
;
_chemical_formula_sum "Si O2"
_cell_formula_units_Z 64
_cell_length_a 24.234427
_cell_length_b 9.126717
_cell_length_c 19.656513
_cell_angle_alpha 90.000000
_cell_angle_beta 129.080530
_cell_angle_gamma 90.000000
_cell_volume 3374.903845
_symmetry_space_group_name_H-M "C 2/M"
_symmetry_group_IT_number 12
_symmetry_cell_setting 'monoclinic'
loop_
_space_group_symop_operation_xyz
x,y,z
-x,y,-z
-x,-y,-z
x,-y,z
1/2+x,1/2+y,z
1/2-x,1/2+y,-z
1/2-x,1/2-y,-z
1/2+x,1/2-y,z
loop_
_atom_site_type_symbol
_atom_site_label
_atom_site_fract_x
_atom_site_fract_y
_atom_site_fract_z
Si Si1 0.540676 0.827520 0.699992
Si Si2 0.828821 0.328644 0.117157
Si Si3 0.656309 0.826429 0.274843
Si Si4 0.695673 0.827321 0.056181
Si Si5 0.699191 0.826078 0.584306
Si Si6 0.419752 0.173926 0.922894
Si Si7 0.925441 0.326768 0.418521
Si Si8 0.112881 0.326156 0.389527
O O1 0.591137 0.782531 0.801268
O O2 0.583368 0.777634 0.666198
O O3 0.462363 0.756291 0.645158
O O4 0.528383 0.000000 0.687852
O O5 0.814820 0.500000 0.116313
O O6 0.772810 0.247979 0.123907
O O7 0.826897 0.281569 0.037285
O O8 0.732471 0.751691 0.331873
O O9 0.607217 0.775168 0.172998
O O10 0.622874 0.772699 0.320043
O O11 0.666393 0.000000 0.280358
O O12 0.636782 0.768090 0.064275
O O13 0.704780 0.000000 0.072311
O O14 0.637765 0.764294 0.585402
O O15 0.676821 0.776208 0.489952
O O16 0.710414 0.000000 0.596871
O O17 0.422558 0.000000 0.929032
O O18 0.500000 0.235209 0.000000
O O19 0.926093 0.500000 0.429332
O O20 0.000000 0.259159 0.500000
O O21 0.109328 0.500000 0.389595
#
# Coordination Sequence:
#
# PCOD8087922 Si02
#       8
#     8   8   8   8   8   8   8   8
#     4   9  16  26  45  73  98 120 156 203 240 275
#     4   9  18  30  50  76  97 122 157 200 243 288
#     4  10  21  34  51  74  98 129 166 204 244 287
#     4   9  18  33  50  70  98 127 156 196 247 293
#     4  10  19  32  52  75 100 130 161 200 247 294
#     4   9  19  34  52  73  97 128 167 207 243 283
#     4   9  15  26  44  70  99 123 152 192 238 280
#     4   9  17  30  49  74 100 127 165 207 243 280
#
# _framework density 18.963504
#
# number of rings (size 3 to 8) (size 9 to 14) (size 15 to 20)
#    0.000    2.750    1.250    0.375    3.500    0.000 
#    0.000    0.000    0.000    3.375    0.000    0.000 
#    0.000    0.000    0.000    0.000    0.000    0.000 
#
# Total GULP energy -396475.766675 kJ/mol
# GULP energy per Si atom -12389.867709 kJ/mol
# Density = 1.892034 g / cm^3
# Si number density = 18.963504 Si / 1000 Ang^3
#
#
#
# Elastic Constant Matrix: (Units=GPa)
#
#
# Indices 1 2 3 4 5 6 
#
# 1 136.0488 17.3041 71.8901 0.0000 0.9823 0.0000
# 2 17.3041 12.6791 16.8218 0.0000 1.5363 0.0000
# 3 71.8901 16.8218 137.8777 0.0000 3.4053 0.0000
# 4 0.0000 0.0000 0.0000 17.1780 0.0000 5.0054
# 5 0.9823 1.5363 3.4053 0.0000 29.8446 0.0000
# 6 0.0000 0.0000 0.0000 5.0054 0.0000 19.9533
#
#
#
# Elastic Compliance Matrix: (Units=1/GPa)
#
#
# Indices 1 2 3 4 5 6 
#
# 1 0.010915 -0.008830 -0.004629 0.000000 0.000623 0.000000
# 2 -0.008830 0.101621 -0.007694 0.000000 -0.004063 0.000000
# 3 -0.004629 -0.007694 0.010622 0.000000 -0.000664 0.000000
# 4 0.000000 0.000000 0.000000 0.062805 0.000000 -0.015755
# 5 0.000623 -0.004063 -0.000664 0.000000 0.033771 0.000000
# 6 0.000000 0.000000 0.000000 -0.015755 0.000000 0.054069
#
#
# Mechanical properties :
#
#
# Convention : Reuss Voigt Hill
#
# Bulk Modulus (GPa) = 12.36842 55.40419 33.88630
# Shear Modulus (GPa) = 14.57469 25.43448 20.00458
#
# Velocity S-wave (km/s) = 2.77531 3.66626 3.25144
# Velocity P-wave (km/s) = 4.09953 6.87034 5.65720
#
# Compressibility (1/GPa) = 0.08085107
#
# Stress axis : x y z
#
# Youngs Moduli (GPa) = 91.61622 9.84046 94.14800
#
# Poissons Ratio (x) = 0.08690 0.43583
# Poissons Ratio (y) = 0.80901 0.72435
# Poissons Ratio (z) = 0.42411 0.07571
#
# Static dielectric constant tensor:
#      x y z
#    x 3.787620 0.000000 -0.019240 
#    y 0.000000 2.870490 0.000000 
#    z -0.019240 0.000000 3.710640 
# 
# 
# High freq. dielectric constant tensor:
#      x y z
#    x 1.749540 0.000000 -0.001120 
#    y 0.000000 1.667110 0.000000 
#    z -0.001120 0.000000 1.750430 
# 
# From -- ./inp_files/282851.got.cif
#   From: 2010.06.25/outbox.cif.g09.slc.cpg/sg12_142_cif.got.tgz:282851.got - 2010.06.28 00:19:55.
