data_PCOD8087059
_publ_section_title
;
Structure prediction by ZEFSAII (Michael W. Deem and Ramdas Pophale) SiO2 
 PCOD8087059
Probable space group: C 2/M
;
_chemical_formula_sum "Si O2"
_cell_formula_units_Z 64
_cell_length_a 20.637494
_cell_length_b 9.333105
_cell_length_c 24.809205
_cell_angle_alpha 90.000000
_cell_angle_beta 50.396222
_cell_angle_gamma 90.000000
_cell_volume 3681.733718
_symmetry_space_group_name_H-M "C 2/M"
_symmetry_group_IT_number 12
_symmetry_cell_setting 'monoclinic'
loop_
_space_group_symop_operation_xyz
x,y,z
-x,y,-z
-x,-y,-z
x,-y,z
1/2+x,1/2+y,z
1/2-x,1/2+y,-z
1/2-x,1/2-y,-z
1/2+x,1/2-y,z
loop_
_atom_site_type_symbol
_atom_site_label
_atom_site_fract_x
_atom_site_fract_y
_atom_site_fract_z
Si Si1 0.257416 0.662837 0.573854
Si Si2 0.628264 0.669192 0.921420
Si Si3 0.465626 0.832296 0.203255
Si Si4 0.620679 0.665830 0.583929
Si Si5 0.522860 0.832089 0.291639
Si Si6 0.772463 0.664634 0.290635
Si Si7 0.709135 0.169010 0.223653
Si Si8 0.978843 0.830462 0.924943
O O1 0.223988 0.500000 0.582579
O O2 0.343752 0.688083 0.495397
O O3 0.185894 0.770527 0.592282
O O4 0.275152 0.688971 0.627366
O O5 0.623047 0.500000 0.923564
O O6 0.721170 0.724192 0.856463
O O7 0.562568 0.723916 0.911380
O O8 0.601084 0.718654 0.995966
O O9 0.493730 0.785360 0.247790
O O10 0.369137 0.786863 0.245639
O O11 0.525658 0.749428 0.129672
O O12 0.479429 0.000000 0.187503
O O13 0.607203 0.500000 0.604778
O O14 0.532194 0.747584 0.635073
O O15 0.619232 0.785685 0.248184
O O16 0.509964 0.000000 0.308218
O O17 0.767571 0.500000 0.274885
O O18 0.724078 0.760240 0.273390
O O19 0.716543 0.000000 0.227998
O O20 0.979438 0.000000 0.914418
#
# Coordination Sequence:
#
# PCOD8087059 Si02
#       8
#     8   8   8   8   8   8   8   8
#     4   9  18  34  53  76 106 137 167 206 260 307
#     4   8  15  29  49  74 100 128 165 207 256 300
#     4  10  19  32  50  74 102 134 168 202 251 308
#     4  10  19  31  53  80 103 132 173 215 249 295
#     4  10  21  37  53  71 105 144 169 203 258 312
#     4  10  19  33  53  75 103 133 164 210 258 300
#     4  10  20  35  55  75  99 136 178 211 246 305
#     4   9  16  29  51  75 100 127 163 216 256 289
#
# _framework density 17.383116000000001
#
# number of rings (size 3 to 8) (size 9 to 14) (size 15 to 20)
#    0.000    2.500    2.500    1.125    0.000    2.000 
#    0.000    3.125    0.000    3.750    0.000    0.000 
#    0.000    0.000    0.000    0.000    0.000    0.000 
#
# Total GULP energy -396755.669168 kJ/mol
# GULP energy per Si atom -12398.614661 kJ/mol
# Density = 1.734355 g / cm^3
# Si number density = 17.383116 Si / 1000 Ang^3
#
#
#
# Elastic Constant Matrix: (Units=GPa)
#
#
# Indices 1 2 3 4 5 6 
#
# 1 86.2998 35.1171 56.0951 0.0000 -6.1967 -0.0007
# 2 35.1171 47.2510 50.3246 0.0000 -2.4257 -0.0011
# 3 56.0951 50.3246 146.6925 0.0000 -5.0164 -0.0001
# 4 0.0000 0.0000 0.0000 30.8503 0.0000 3.2973
# 5 -6.1967 -2.4257 -5.0164 0.0000 26.8741 0.0001
# 6 -0.0007 -0.0011 -0.0001 3.2973 0.0001 22.2950
#
#
#
# Elastic Compliance Matrix: (Units=1/GPa)
#
#
# Indices 1 2 3 4 5 6 
#
# 1 0.017897 -0.009412 -0.003525 0.000000 0.002619 0.000000
# 2 -0.009412 0.038319 -0.009564 0.000000 -0.000497 0.000002
# 3 -0.003525 -0.009564 0.011462 0.000000 0.000463 -0.000001
# 4 0.000000 0.000000 0.000000 0.032935 0.000000 -0.004871
# 5 0.002619 -0.000497 0.000463 0.000000 0.037856 0.000000
# 6 0.000000 0.000002 -0.000001 -0.004871 0.000000 0.045573
#
#
# Mechanical properties :
#
#
# Convention : Reuss Voigt Hill
#
# Bulk Modulus (GPa) = 44.09991 62.59074 53.34533
# Shear Modulus (GPa) = 21.13248 25.25098 23.19173
#
# Velocity S-wave (km/s) = 3.49046 3.81545 3.65657
# Velocity P-wave (km/s) = 6.45514 7.44950 6.97008
#
# Compressibility (1/GPa) = 0.02267578
#
# Stress axis : x y z
#
# Youngs Moduli (GPa) = 55.87540 26.09691 87.24641
#
# Poissons Ratio (x) = 0.24562 0.30757
# Poissons Ratio (y) = 0.52590 0.83438
# Poissons Ratio (z) = 0.19698 0.24958
#
# Static dielectric constant tensor:
#      x y z
#    x 2.998580 0.000000 -0.068090 
#    y 0.000000 3.075330 0.000000 
#    z -0.068090 0.000000 3.605660 
# 
# 
# High freq. dielectric constant tensor:
#      x y z
#    x 1.639360 0.000000 0.001590 
#    y 0.000000 1.657520 0.000000 
#    z 0.001590 0.000000 1.688600 
# 
# From -- ./inp_files/345965.got.cif
#   From: 2010.06.25/outbox.cif.g09.slc.cpg/sg12_173_cif.got.tgz:345965.got - 2010.06.28 00:19:55.
