data_PCOD8087485
_publ_section_title
;
Structure prediction by ZEFSAII (Michael W. Deem and Ramdas Pophale) SiO2 
 PCOD8087485
Probable space group: C 2/M
;
_chemical_formula_sum "Si O2"
_cell_formula_units_Z 56
_cell_length_a 31.862064
_cell_length_b 8.995492
_cell_length_c 18.660306
_cell_angle_alpha 90.000000
_cell_angle_beta 32.924144
_cell_angle_gamma 90.000000
_cell_volume 2906.964171
_symmetry_space_group_name_H-M "C 2/M"
_symmetry_group_IT_number 12
_symmetry_cell_setting 'monoclinic'
loop_
_space_group_symop_operation_xyz
x,y,z
-x,y,-z
-x,-y,-z
x,-y,z
1/2+x,1/2+y,z
1/2-x,1/2+y,-z
1/2-x,1/2-y,-z
1/2+x,1/2-y,z
loop_
_atom_site_type_symbol
_atom_site_label
_atom_site_fract_x
_atom_site_fract_y
_atom_site_fract_z
Si Si1 0.997685 0.825023 0.919890
Si Si2 0.920000 0.672438 0.907162
Si Si3 0.170033 0.821870 0.089675
Si Si4 0.564585 0.828729 0.601049
Si Si5 0.149076 0.662340 0.692893
Si Si6 0.723091 0.837626 0.435727
Si Si7 0.475958 0.325187 0.610680
O O1 0.079446 0.770984 0.771941
O O2 0.928177 0.745759 0.974817
O O3 0.988391 0.000000 0.922779
O O4 0.000000 0.778060 0.000000
O O5 0.895615 0.500000 0.948955
O O6 0.856028 0.757134 0.950406
O O7 0.004327 0.690607 0.751765
O O8 0.107176 0.772052 0.239853
O O9 0.177453 0.000000 0.073153
O O10 0.250000 0.750000 0.000000
O O11 0.648916 0.770625 0.502144
O O12 0.543410 0.724587 0.566101
O O13 0.566597 0.000000 0.573998
O O14 0.118003 0.500000 0.762045
O O15 0.202297 0.731896 0.680050
O O16 0.202934 0.641633 0.547478
O O17 0.744571 0.000000 0.373228
O O18 0.500000 0.254196 0.500000
O O19 0.475346 0.500000 0.606180
#
# Coordination Sequence:
#
# PCOD8087485 Si02
#       7
#     8   8   8   8   8   8   8
#     4  11  23  37  53  75 106 144 184 227 274 325
#     4  10  19  35  57  81 107 138 182 231 274 326
#     4  10  20  36  59  86 113 147 187 229 280 335
#     4   9  17  31  52  78 106 135 172 216 263 317
#     4  10  19  32  50  74 101 134 173 213 259 308
#     4   9  17  31  49  74 104 132 166 213 260 306
#     4   9  19  35  54  79 110 141 177 222 270 322
#
# _framework density 19.264081999999998
#
# number of rings (size 3 to 8) (size 9 to 14) (size 15 to 20)
#    0.000    2.286    1.429    1.714    0.000    3.714 
#    0.000    1.429    0.000    3.429    0.000    0.000 
#    0.000    0.000    0.000    0.000    0.000    0.000 
#
# Total GULP energy -347013.289977 kJ/mol
# GULP energy per Si atom -12393.331785 kJ/mol
# Density = 1.922024 g / cm^3
# Si number density = 19.264082 Si / 1000 Ang^3
#
#
#
# Elastic Constant Matrix: (Units=GPa)
#
#
# Indices 1 2 3 4 5 6 
#
# 1 145.3667 50.4788 55.2073 -0.0003 -15.5666 0.0008
# 2 50.4788 73.3135 31.6393 0.0083 -2.9044 -0.0034
# 3 55.2073 31.6393 39.5014 0.0188 -10.1180 -0.0089
# 4 -0.0003 0.0083 0.0188 19.4346 -0.0077 -5.8206
# 5 -15.5666 -2.9044 -10.1180 -0.0077 33.8540 0.0038
# 6 0.0008 -0.0034 -0.0089 -5.8206 0.0038 37.1063
#
#
#
# Elastic Compliance Matrix: (Units=1/GPa)
#
#
# Indices 1 2 3 4 5 6 
#
# 1 0.014870 -0.002051 -0.018879 0.000019 0.001019 -0.000002
# 2 -0.002051 0.021511 -0.015304 0.000004 -0.003671 -0.000001
# 3 -0.018879 -0.015304 0.066489 -0.000052 0.009878 0.000006
# 4 0.000019 0.000004 -0.000052 0.053991 0.000005 0.008469
# 5 0.001019 -0.003671 0.009878 0.000005 0.032645 -0.000001
# 6 -0.000002 -0.000001 0.000006 0.008469 -0.000001 0.028278
#
#
# Mechanical properties :
#
#
# Convention : Reuss Voigt Hill
#
# Bulk Modulus (GPa) = 32.89154 59.20359 46.04756
# Shear Modulus (GPa) = 16.64521 26.13607 21.39064
#
# Velocity S-wave (km/s) = 2.94267 3.68737 3.33587
# Velocity P-wave (km/s) = 5.35321 6.99488 6.22837
#
# Compressibility (1/GPa) = 0.03040296
#
# Stress axis : x y z
#
# Youngs Moduli (GPa) = 67.24785 46.48719 15.04004
#
# Poissons Ratio (x) = 0.09534 0.28394
# Poissons Ratio (y) = 0.13792 0.23017
# Poissons Ratio (z) = 1.26958 0.71144
#
# Static dielectric constant tensor:
#      x y z
#    x 3.626840 0.000000 -0.036640 
#    y 0.000000 3.769430 0.000010 
#    z -0.036640 0.000010 3.329190 
# 
# 
# High freq. dielectric constant tensor:
#      x y z
#    x 1.751950 0.000000 -0.015270 
#    y 0.000000 1.754880 0.000000 
#    z -0.015270 0.000000 1.716300 
# 
# From -- ./inp_files/292390.got.cif
#   From: 2010.06.25/outbox.cif.g09.slc.cpg/sg12_147_cif.got.tgz:292390.got - 2010.06.28 00:19:55.
