data_PCOD8087691
_publ_section_title
;
Structure prediction by ZEFSAII (Michael W. Deem and Ramdas Pophale) SiO2 
 PCOD8087691
Probable space group: C 2/M
;
_chemical_formula_sum "Si O2"
_cell_formula_units_Z 64
_cell_length_a 23.278727
_cell_length_b 8.686166
_cell_length_c 17.189027
_cell_angle_alpha 90.000000
_cell_angle_beta 76.801047
_cell_angle_gamma 90.000000
_cell_volume 3383.854349
_symmetry_space_group_name_H-M "C 2/M"
_symmetry_group_IT_number 12
_symmetry_cell_setting 'monoclinic'
loop_
_space_group_symop_operation_xyz
x,y,z
-x,y,-z
-x,-y,-z
x,-y,z
1/2+x,1/2+y,z
1/2-x,1/2+y,-z
1/2-x,1/2-y,-z
1/2+x,1/2-y,z
loop_
_atom_site_type_symbol
_atom_site_label
_atom_site_fract_x
_atom_site_fract_y
_atom_site_fract_z
Si Si1 0.442797 0.681138 0.429132
Si Si2 0.603067 0.182373 0.104278
Si Si3 0.383946 0.179478 0.304151
Si Si4 0.158699 0.317204 0.245163
Si Si5 0.469434 0.180165 0.137819
Si Si6 0.708684 0.318214 0.774506
Si Si7 0.123831 0.179842 0.939104
Si Si8 0.932100 0.317315 0.596327
O O1 0.454478 0.500000 0.426448
O O2 0.395064 0.725383 0.379070
O O3 0.417333 0.734003 0.520007
O O4 0.503709 0.769290 0.392114
O O5 0.635773 0.249983 0.170117
O O6 0.535760 0.242407 0.125340
O O7 0.604181 0.000000 0.105628
O O8 0.636967 0.240528 0.017410
O O9 0.435966 0.219891 0.227893
O O10 0.321436 0.232224 0.288552
O O11 0.381845 0.000000 0.324697
O O12 0.158211 0.500000 0.241382
O O13 0.224589 0.257225 0.240786
O O14 0.116200 0.259724 0.327016
O O15 0.438949 0.265225 0.075015
O O16 0.467211 0.000000 0.120102
O O17 0.704772 0.500000 0.761201
O O18 0.676073 0.271890 0.864507
O O19 0.121692 0.000000 0.953372
O O20 0.930653 0.500000 0.584924
#
# Coordination Sequence:
#
# PCOD8087691 Si02
#       8
#     8   8   8   8   8   8   8   8
#     4  11  21  34  54  83 115 141 164 200 259 317
#     4  10  19  32  51  74  99 132 173 213 256 308
#     4  10  19  34  56  80 103 134 179 219 253 302
#     4   9  19  36  57  76  99 136 178 217 258 305
#     4   9  18  32  51  74 101 132 169 214 259 305
#     4   9  19  37  55  73 102 138 174 216 265 307
#     4  10  20  32  48  73 104 135 168 210 261 310
#     4  10  19  35  58  82 107 137 174 213 252 300
#
# _framework density 18.913345
#
# number of rings (size 3 to 8) (size 9 to 14) (size 15 to 20)
#    0.000    2.250    0.000    4.125    0.000    5.500 
#    0.000    5.000    0.000    0.000    0.000    0.000 
#    0.000    0.000    0.000    0.000    0.000    0.000 
#
# Total GULP energy -396901.906626 kJ/mol
# GULP energy per Si atom -12403.184582 kJ/mol
# Density = 1.887030 g / cm^3
# Si number density = 18.913345 Si / 1000 Ang^3
#
#
#
# Elastic Constant Matrix: (Units=GPa)
#
#
# Indices 1 2 3 4 5 6 
#
# 1 125.1007 20.9914 76.4438 0.0000 5.4242 0.0000
# 2 20.9914 41.0516 28.0716 0.0000 2.6960 0.0000
# 3 76.4438 28.0716 135.1604 0.0000 14.7081 0.0000
# 4 0.0000 0.0000 0.0000 26.7858 0.0000 3.3259
# 5 5.4242 2.6960 14.7081 0.0000 21.6553 0.0000
# 6 0.0000 0.0000 0.0000 3.3259 0.0000 22.5293
#
#
#
# Elastic Compliance Matrix: (Units=1/GPa)
#
#
# Indices 1 2 3 4 5 6 
#
# 1 0.012388 -0.001781 -0.006828 0.000000 0.001756 0.000000
# 2 -0.001781 0.028653 -0.004971 0.000000 0.000255 0.000000
# 3 -0.006828 -0.004971 0.013000 0.000000 -0.006500 0.000000
# 4 0.000000 0.000000 0.000000 0.038030 0.000000 -0.005614
# 5 0.001756 0.000255 -0.006500 0.000000 0.050122 0.000000
# 6 0.000000 0.000000 0.000000 -0.005614 0.000000 0.045215
#
#
# Mechanical properties :
#
#
# Convention : Reuss Voigt Hill
#
# Bulk Modulus (GPa) = 37.20097 61.36959 49.28528
# Shear Modulus (GPa) = 22.36837 25.91449 24.14143
#
# Velocity S-wave (km/s) = 3.44274 3.70560 3.57658
# Velocity P-wave (km/s) = 5.95946 7.12929 6.57046
#
# Compressibility (1/GPa) = 0.02688102
#
# Stress axis : x y z
#
# Youngs Moduli (GPa) = 80.72014 34.90023 76.92202
#
# Poissons Ratio (x) = 0.06216 0.52521
# Poissons Ratio (y) = 0.14377 0.38241
# Poissons Ratio (z) = 0.55114 0.17350
#
# Static dielectric constant tensor:
#      x y z
#    x 3.506250 0.000000 0.041860 
#    y 0.000000 3.283670 0.000000 
#    z 0.041860 0.000000 3.566830 
# 
# 
# High freq. dielectric constant tensor:
#      x y z
#    x 1.725330 0.000000 0.007100 
#    y 0.000000 1.722830 0.000000 
#    z 0.007100 0.000000 1.741270 
# 
# From -- ./inp_files/281315.got.cif
#   From: 2010.06.25/outbox.cif.g09.slc.cpg/sg12_141_cif.got.tgz:281315.got - 2010.06.28 00:19:55.
