data_PCOD8087885
_publ_section_title
;
Structure prediction by ZEFSAII (Michael W. Deem and Ramdas Pophale) SiO2 
 PCOD8087885
Probable space group: C 2/M
;
_chemical_formula_sum "Si O2"
_cell_formula_units_Z 56
_cell_length_a 13.866680
_cell_length_b 18.777345
_cell_length_c 12.355667
_cell_angle_alpha 90.000000
_cell_angle_beta 102.969164
_cell_angle_gamma 90.000000
_cell_volume 3135.094978
_symmetry_space_group_name_H-M "C 2/M"
_symmetry_group_IT_number 12
_symmetry_cell_setting 'monoclinic'
loop_
_space_group_symop_operation_xyz
x,y,z
-x,y,-z
-x,-y,-z
x,-y,z
1/2+x,1/2+y,z
1/2-x,1/2+y,-z
1/2-x,1/2-y,-z
1/2+x,1/2-y,z
loop_
_atom_site_type_symbol
_atom_site_label
_atom_site_fract_x
_atom_site_fract_y
_atom_site_fract_z
Si Si1 0.947121 0.630175 0.234338
Si Si2 0.648587 0.300322 0.097519
Si Si3 0.661571 0.082318 0.346190
Si Si4 0.215044 0.582570 0.960367
Si Si5 0.050835 0.216211 0.851057
Si Si6 0.739619 0.338654 0.814921
Si Si7 0.112308 0.578617 0.564243
O O1 0.892173 0.592568 0.120486
O O2 0.970386 0.711898 0.218189
O O3 0.879081 0.626832 0.326141
O O4 0.049995 0.589493 0.274579
O O5 0.705105 0.373890 0.090353
O O6 0.555324 0.319467 0.150903
O O7 0.720938 0.242445 0.169079
O O8 0.610408 0.265667 0.976012
O O9 0.737265 0.129458 0.296339
O O10 0.671396 0.108635 0.474178
O O11 0.691952 0.000000 0.345186
O O12 0.245890 0.500000 0.969515
O O13 0.210228 0.611672 0.081542
O O14 0.120101 0.163213 0.798442
O O15 0.152063 0.500000 0.604767
O O16 0.000000 0.572592 0.500000
#
# Coordination Sequence:
#
# PCOD8087885 Si02
#       7
#     8   8   8   8   8   8   8
#     4  11  17  30  52  76 100 124 163 207 243 293
#     4  10  19  35  49  69 104 138 160 191 247 301
#     4  10  20  32  49  74 104 133 160 199 250 296
#     4  11  21  32  50  78 101 125 167 209 242 282
#     4  10  19  32  52  71  95 137 169 190 240 299
#     4  11  19  34  49  73 104 130 161 201 245 296
#     4   8  16  30  45  68 102 135 158 188 247 304
#
# _framework density 17.862297999999999
#
# number of rings (size 3 to 8) (size 9 to 14) (size 15 to 20)
#    0.000    1.857    4.286    3.429    0.000    0.571 
#    0.000    8.571    0.000    0.000    0.000    0.000 
#    0.000    3.429    0.000    0.000    0.000    0.000 
#
# Total GULP energy -347115.200450 kJ/mol
# GULP energy per Si atom -12396.971445 kJ/mol
# Density = 1.782164 g / cm^3
# Si number density = 17.862298 Si / 1000 Ang^3
#
#
#
# Elastic Constant Matrix: (Units=GPa)
#
#
# Indices 1 2 3 4 5 6 
#
# 1 81.8185 16.3226 13.7808 0.0000 -27.8055 0.0000
# 2 16.3226 77.0567 14.9256 0.0000 -14.9742 0.0000
# 3 13.7808 14.9256 39.5609 0.0000 -23.1500 0.0000
# 4 0.0000 0.0000 0.0000 17.8622 0.0000 -9.4371
# 5 -27.8055 -14.9742 -23.1500 0.0000 31.1842 0.0000
# 6 0.0000 0.0000 0.0000 -9.4371 0.0000 25.8272
#
#
#
# Elastic Compliance Matrix: (Units=1/GPa)
#
#
# Indices 1 2 3 4 5 6 
#
# 1 0.018290 -0.001094 0.005795 0.000000 0.020085 0.000000
# 2 -0.001094 0.014513 -0.002806 0.000000 0.003910 0.000000
# 3 0.005795 -0.002806 0.046947 0.000000 0.038671 0.000000
# 4 0.000000 0.000000 0.000000 0.069377 0.000000 0.025350
# 5 0.020085 0.003910 0.038671 0.000000 0.080562 0.000000
# 6 0.000000 0.000000 0.000000 0.025350 0.000000 0.047982
#
#
# Mechanical properties :
#
#
# Convention : Reuss Voigt Hill
#
# Bulk Modulus (GPa) = 11.97039 32.05489 22.01264
# Shear Modulus (GPa) = 16.57123 25.20186 20.88654
#
# Velocity S-wave (km/s) = 3.04916 3.76027 3.42323
# Velocity P-wave (km/s) = 4.37178 6.06938 5.28913
#
# Compressibility (1/GPa) = 0.08353950
#
# Stress axis : x y z
#
# Youngs Moduli (GPa) = 54.67423 68.90586 21.30061
#
# Poissons Ratio (x) = 0.07536 -0.12343
# Poissons Ratio (y) = 0.05980 0.05977
# Poissons Ratio (z) = -0.31682 0.19336
#
# Static dielectric constant tensor:
#      x y z
#    x 3.371150 0.000000 -0.309120 
#    y 0.000000 3.117030 0.000000 
#    z -0.309120 0.000000 3.406230 
# 
# 
# High freq. dielectric constant tensor:
#      x y z
#    x 1.679960 0.000000 -0.022570 
#    y 0.000000 1.675390 0.000000 
#    z -0.022570 0.000000 1.674500 
# 
# From -- ./inp_files/145663.got.cif
#   From: 2010.06.25/outbox.cif.g09.slc.cpg/sg12_73_cif.got.tgz:145663.got - 2010.06.28 00:19:55.
