data_PCOD8087153
_publ_section_title
;
Structure prediction by ZEFSAII (Michael W. Deem and Ramdas Pophale) SiO2 
 PCOD8087153
Probable space group: C 2/M
;
_chemical_formula_sum "Si O2"
_cell_formula_units_Z 32
_cell_length_a 25.883879
_cell_length_b 10.647145
_cell_length_c 8.958182
_cell_angle_alpha 90.000000
_cell_angle_beta 37.935310
_cell_angle_gamma 90.000000
_cell_volume 1517.735352
_symmetry_space_group_name_H-M "C 2/M"
_symmetry_group_IT_number 12
_symmetry_cell_setting 'monoclinic'
loop_
_space_group_symop_operation_xyz
x,y,z
-x,y,-z
-x,-y,-z
x,-y,z
1/2+x,1/2+y,z
1/2-x,1/2+y,-z
1/2-x,1/2-y,-z
1/2+x,1/2-y,z
loop_
_atom_site_type_symbol
_atom_site_label
_atom_site_fract_x
_atom_site_fract_y
_atom_site_fract_z
Si Si1 0.837070 0.000000 0.630203
Si Si2 0.845030 0.755738 0.456566
Si Si3 0.352277 0.268306 0.094812
Si Si4 0.654332 0.000000 0.905819
Si Si5 0.591813 0.500000 0.221605
Si Si6 0.406436 0.000000 0.273109
O O1 0.881439 0.871957 0.470655
O O2 0.838794 0.000000 0.805492
O O3 0.744419 0.000000 0.775841
O O4 0.746799 0.734870 0.710234
O O5 0.868292 0.787940 0.233209
O O6 0.891034 0.626755 0.403821
O O7 0.397758 0.377211 0.902096
O O8 0.391205 0.132418 0.950801
O O9 0.662607 0.000000 0.704915
O O10 0.500000 0.500000 0.500000
O O11 0.500000 0.000000 0.000000
#
# Coordination Sequence:
#
# PCOD8087153 Si02
#       6
#     4   8   8   4   4   4
#     4  10  21  36  56  84 112 150 196 229 280 345
#     4   9  18  36  64  86 105 146 199 248 283 326
#     4   9  18  38  62  83 110 147 198 244 281 334
#     4   8  18  35  58  82 104 138 190 242 280 328
#     4  12  26  38  52  84 128 162 185 225 291 355
#     4  10  19  31  54  90 118 136 176 242 302 336
#
# _framework density 21.084043000000001
#
# number of rings (size 3 to 8) (size 9 to 14) (size 15 to 20)
#    0.000    2.500    0.000    3.000    0.000   10.000 
#    0.000    3.750    0.000    0.000    0.000    0.000 
#    0.000    0.000    0.000    0.000    0.000    0.000 
#
# Total GULP energy -198228.443154 kJ/mol
# GULP energy per Si atom -12389.277697 kJ/mol
# Density = 2.103606 g / cm^3
# Si number density = 21.084043 Si / 1000 Ang^3
#
#
#
# Elastic Constant Matrix: (Units=GPa)
#
#
# Indices 1 2 3 4 5 6 
#
# 1 43.0873 15.1695 14.2555 0.0000 8.0075 0.0000
# 2 15.1695 250.0036 66.4530 0.0000 24.1977 0.0000
# 3 14.2555 66.4530 83.0492 0.0000 12.6802 0.0000
# 4 0.0000 0.0000 0.0000 29.1428 0.0000 1.1465
# 5 8.0075 24.1977 12.6802 0.0000 16.0889 0.0000
# 6 0.0000 0.0000 0.0000 1.1465 0.0000 1.9098
#
#
#
# Elastic Compliance Matrix: (Units=1/GPa)
#
#
# Indices 1 2 3 4 5 6 
#
# 1 0.026167 0.000290 -0.003034 0.000000 -0.011069 0.000000
# 2 0.000290 0.005471 -0.003580 0.000000 -0.005552 0.000000
# 3 -0.003034 -0.003580 0.016340 0.000000 -0.005984 0.000000
# 4 0.000000 0.000000 0.000000 0.035144 0.000000 -0.021097
# 5 -0.011069 -0.005552 -0.005984 0.000000 0.080729 0.000000
# 6 0.000000 0.000000 0.000000 -0.021097 0.000000 0.536276
#
#
# Mechanical properties :
#
#
# Convention : Reuss Voigt Hill
#
# Bulk Modulus (GPa) = 28.30359 63.09957 45.70158
# Shear Modulus (GPa) = 6.90081 28.11244 17.50662
#
# Velocity S-wave (km/s) = 1.81111 3.65547 2.88466
# Velocity P-wave (km/s) = 4.22218 6.91442 5.72870
#
# Compressibility (1/GPa) = 0.03533121
#
# Stress axis : x y z
#
# Youngs Moduli (GPa) = 38.21552 182.77191 61.19924
#
# Poissons Ratio (x) = -0.05300 0.18566
# Poissons Ratio (y) = -0.01108 0.21910
# Poissons Ratio (z) = 0.11593 0.65434
#
# Static dielectric constant tensor:
#      x y z
#    x 3.651120 0.000000 0.109990 
#    y 0.000000 4.874180 0.000000 
#    z 0.109990 0.000000 3.410580 
# 
# 
# High freq. dielectric constant tensor:
#      x y z
#    x 1.802440 0.000000 -0.004290 
#    y 0.000000 1.867180 0.000000 
#    z -0.004290 0.000000 1.772580 
# 
# From -- ./inp_files/110312.got.cif
#   From: 2010.06.25/outbox.cif.g09.slc.cpg/sg12_56_cif.got.tgz:110312.got - 2010.06.28 00:19:55.
