data_PCOD8087138
_publ_section_title
;
Structure prediction by ZEFSAII (Michael W. Deem and Ramdas Pophale) SiO2 
 PCOD8087138
Probable space group: C 2/M
;
_chemical_formula_sum "Si O2"
_cell_formula_units_Z 48
_cell_length_a 20.515813
_cell_length_b 9.236983
_cell_length_c 14.511209
_cell_angle_alpha 90.000000
_cell_angle_beta 80.012429
_cell_angle_gamma 90.000000
_cell_volume 2708.261111
_symmetry_space_group_name_H-M "C 2/M"
_symmetry_group_IT_number 12
_symmetry_cell_setting 'monoclinic'
loop_
_space_group_symop_operation_xyz
x,y,z
-x,y,-z
-x,-y,-z
x,-y,z
1/2+x,1/2+y,z
1/2-x,1/2+y,-z
1/2-x,1/2-y,-z
1/2+x,1/2-y,z
loop_
_atom_site_type_symbol
_atom_site_label
_atom_site_fract_x
_atom_site_fract_y
_atom_site_fract_z
Si Si1 0.947009 0.169572 0.436604
Si Si2 0.654066 0.334656 0.271717
Si Si3 0.187776 0.830628 0.058192
Si Si4 0.804665 0.833376 0.541889
Si Si5 0.476184 0.167159 0.724387
Si Si6 0.945918 0.667688 0.939155
O O1 0.875966 0.219848 0.490045
O O2 0.000000 0.216426 0.500000
O O3 0.961933 0.252698 0.337726
O O4 0.950273 0.000000 0.415707
O O5 0.627674 0.500000 0.282592
O O6 0.692546 0.305957 0.167106
O O7 0.702411 0.304315 0.346393
O O8 0.591746 0.231080 0.297965
O O9 0.120070 0.763643 0.034558
O O10 0.189899 0.000000 0.032211
O O11 0.250000 0.750000 0.000000
O O12 0.750000 0.750000 0.500000
O O13 0.794596 0.000000 0.521335
O O14 0.480409 0.192505 0.832478
O O15 0.478786 0.000000 0.697384
O O16 0.925833 0.500000 0.958385
O O17 0.000000 0.718876 0.000000
#
# Coordination Sequence:
#
# PCOD8087138 Si02
#       6
#     8   8   8   8   8   8
#     4  10  19  35  57  76 103 141 177 211 255 317
#     4   9  18  36  57  75 102 144 180 209 260 321
#     4  10  20  35  58  82 106 139 180 223 264 316
#     4  10  21  37  55  76 105 141 175 214 262 309
#     4  10  19  31  54  85 107 132 175 224 261 300
#     4   9  19  37  57  78 110 144 174 216 270 319
#
# _framework density 17.723549999999999
#
# number of rings (size 3 to 8) (size 9 to 14) (size 15 to 20)
#    0.000    2.333    1.667    1.000    0.000    3.333 
#    3.000    0.000    0.000    0.000    0.000    0.000 
#    0.000    0.000    0.000    0.000    0.000    0.000 
#
# Total GULP energy -297620.940201 kJ/mol
# GULP energy per Si atom -12400.872508 kJ/mol
# Density = 1.768321 g / cm^3
# Si number density = 17.723550 Si / 1000 Ang^3
#
#
#
# Elastic Constant Matrix: (Units=GPa)
#
#
# Indices 1 2 3 4 5 6 
#
# 1 134.5191 66.9972 81.0519 0.0000 4.1797 0.0000
# 2 66.9972 84.3665 61.1061 0.0000 -3.9297 0.0000
# 3 81.0519 61.1061 115.9559 0.0000 2.2764 0.0000
# 4 0.0000 0.0000 0.0000 31.0208 0.0000 -3.1199
# 5 4.1797 -3.9297 2.2764 0.0000 31.9474 0.0000
# 6 0.0000 0.0000 0.0000 -3.1199 0.0000 35.0988
#
#
#
# Elastic Compliance Matrix: (Units=1/GPa)
#
#
# Indices 1 2 3 4 5 6 
#
# 1 0.015204 -0.007315 -0.006725 0.000000 -0.002410 0.000000
# 2 -0.007315 0.022997 -0.007090 0.000000 0.004291 0.000000
# 3 -0.006725 -0.007090 0.017085 0.000000 -0.001210 0.000000
# 4 0.000000 0.000000 0.000000 0.032527 0.000000 0.002891
# 5 -0.002410 0.004291 -0.001210 0.000000 0.032231 0.000000
# 6 0.000000 0.000000 0.000000 0.002891 0.000000 0.028748
#
#
# Mechanical properties :
#
#
# Convention : Reuss Voigt Hill
#
# Bulk Modulus (GPa) = 76.77341 83.68354 80.22847
# Shear Modulus (GPa) = 25.58906 27.99250 26.79078
#
# Velocity S-wave (km/s) = 3.80384 3.97847 3.89214
# Velocity P-wave (km/s) = 7.91856 8.27181 8.09711
#
# Compressibility (1/GPa) = 0.01302534
#
# Stress axis : x y z
#
# Youngs Moduli (GPa) = 65.77062 43.48325 58.53057
#
# Poissons Ratio (x) = 0.31809 0.39365
# Poissons Ratio (y) = 0.48112 0.41499
# Poissons Ratio (z) = 0.44234 0.30830
#
# Static dielectric constant tensor:
#      x y z
#    x 3.165640 0.000000 -0.049070 
#    y 0.000000 3.339960 0.000000 
#    z -0.049070 0.000000 3.524440 
# 
# 
# High freq. dielectric constant tensor:
#      x y z
#    x 1.667840 0.000000 -0.005490 
#    y 0.000000 1.688880 0.000000 
#    z -0.005490 0.000000 1.694050 
# 
# From -- ./inp_files/221648.got.cif
#   From: 2010.06.25/outbox.cif.g09.slc.cpg/sg12_111_cif.got.tgz:221648.got - 2010.06.28 00:19:55.
