data_PCOD8087226
_publ_section_title
;
Structure prediction by ZEFSAII (Michael W. Deem and Ramdas Pophale) SiO2 
 PCOD8087226
Probable space group: C 2/M
;
_chemical_formula_sum "Si O2"
_cell_formula_units_Z 64
_cell_length_a 35.863968
_cell_length_b 12.662927
_cell_length_c 21.806116
_cell_angle_alpha 90.000000
_cell_angle_beta 156.686595
_cell_angle_gamma 90.000000
_cell_volume 3919.250893
_symmetry_space_group_name_H-M "C 2/M"
_symmetry_group_IT_number 12
_symmetry_cell_setting 'monoclinic'
loop_
_space_group_symop_operation_xyz
x,y,z
-x,y,-z
-x,-y,-z
x,-y,z
1/2+x,1/2+y,z
1/2-x,1/2+y,-z
1/2-x,1/2-y,-z
1/2+x,1/2-y,z
loop_
_atom_site_type_symbol
_atom_site_label
_atom_site_fract_x
_atom_site_fract_y
_atom_site_fract_z
Si Si1 0.780561 0.621383 0.168865
Si Si2 0.891247 0.619980 0.215113
Si Si3 0.716128 0.125538 0.279611
Si Si4 0.553413 0.240360 0.520619
Si Si5 0.577270 0.124316 0.165373
Si Si6 0.938319 0.625584 0.052913
Si Si7 0.406600 0.739202 0.123891
Si Si8 0.578250 0.625211 0.443040
O O1 0.790805 0.500000 0.204414
O O2 0.809363 0.635872 0.141419
O O3 0.845424 0.692165 0.310625
O O4 0.673445 0.656932 0.016555
O O5 0.895608 0.500000 0.198707
O O6 0.867584 0.693596 0.121974
O O7 0.992147 0.648042 0.396891
O O8 0.676250 0.167436 0.286101
O O9 0.648533 0.161337 0.121646
O O10 0.821220 0.169216 0.428894
O O11 0.718035 0.000000 0.283051
O O12 0.500000 0.283746 0.500000
O O13 0.565123 0.339505 0.493435
O O14 0.584365 0.000000 0.179885
O O15 0.500000 0.159171 0.000000
O O16 0.538659 0.163148 0.173347
O O17 0.936703 0.500000 0.060800
O O18 0.931042 0.681728 0.106535
O O19 0.499532 0.674074 0.280532
O O20 0.571180 0.500000 0.429992
#
# Coordination Sequence:
#
# PCOD8087226 Si02
#       8
#     8   8   8   8   8   8   8   8
#     4  10  19  32  48  64  85 114 149 186 220 257
#     4   9  18  32  48  64  85 115 148 185 224 255
#     4   8  14  27  46  64  85 114 146 180 217 255
#     4   9  18  32  50  68  83 107 150 194 224 254
#     4   7  11  22  42  66  87 108 138 180 224 253
#     4   9  16  27  46  70  91 111 142 187 225 250
#     4  11  20  29  42  65  95 121 146 173 212 269
#     4  10  20  32  44  62  92 124 147 173 215 265
#
# _framework density 16.329650999999998
#
# number of rings (size 3 to 8) (size 9 to 14) (size 15 to 20)
#    0.000    2.875    0.000    3.750    0.000    1.750 
#    0.000    1.250    0.000    0.750    0.000    0.000 
#    0.000   34.000    0.000    0.000    0.000    0.000 
#
# Total GULP energy -396531.679302 kJ/mol
# GULP energy per Si atom -12391.614978 kJ/mol
# Density = 1.629248 g / cm^3
# Si number density = 16.329651 Si / 1000 Ang^3
#
#
#
# Elastic Constant Matrix: (Units=GPa)
#
#
# Indices 1 2 3 4 5 6 
#
# 1 96.7140 33.5846 49.0457 0.0000 10.3476 0.0000
# 2 33.5846 55.5430 30.0858 0.0000 4.2840 0.0000
# 3 49.0457 30.0858 92.1602 0.0000 12.2585 0.0000
# 4 0.0000 0.0000 0.0000 18.1828 0.0000 -0.8588
# 5 10.3476 4.2840 12.2585 0.0000 23.5019 0.0000
# 6 0.0000 0.0000 0.0000 -0.8588 0.0000 15.3048
#
#
#
# Elastic Compliance Matrix: (Units=1/GPa)
#
#
# Indices 1 2 3 4 5 6 
#
# 1 0.015816 -0.006062 -0.006080 0.000000 -0.002687 0.000000
# 2 -0.006062 0.024197 -0.004772 0.000000 0.000748 0.000000
# 3 -0.006080 -0.004772 0.016304 0.000000 -0.004957 0.000000
# 4 0.000000 0.000000 0.000000 0.055143 0.000000 0.003094
# 5 -0.002687 0.000748 -0.004957 0.000000 0.046182 0.000000
# 6 0.000000 0.000000 0.000000 0.003094 0.000000 0.065513
#
#
# Mechanical properties :
#
#
# Convention : Reuss Voigt Hill
#
# Bulk Modulus (GPa) = 44.47113 52.20550 48.33832
# Shear Modulus (GPa) = 18.90496 20.17796 19.54146
#
# Velocity S-wave (km/s) = 3.40620 3.51901 3.46307
# Velocity P-wave (km/s) = 6.53927 6.96782 6.75694
#
# Compressibility (1/GPa) = 0.02248650
#
# Stress axis : x y z
#
# Youngs Moduli (GPa) = 63.22706 41.32718 61.33538
#
# Poissons Ratio (x) = 0.25055 0.37295
# Poissons Ratio (y) = 0.38331 0.29271
# Poissons Ratio (z) = 0.38445 0.19723
#
# Static dielectric constant tensor:
#      x y z
#    x 3.427950 0.000000 0.234380 
#    y 0.000000 2.762770 0.000000 
#    z 0.234380 0.000000 3.061170 
# 
# 
# High freq. dielectric constant tensor:
#      x y z
#    x 1.635640 0.000000 0.011230 
#    y 0.000000 1.598170 0.000000 
#    z 0.011230 0.000000 1.619560 
# 
# From -- ./inp_files/276592.got.cif
#   From: 2010.06.25/outbox.cif.g09.slc.cpg/sg12_139_cif.got.tgz:276592.got - 2010.06.28 00:19:55.
