data_PCOD8087025
_publ_section_title
;
Structure prediction by ZEFSAII (Michael W. Deem and Ramdas Pophale) SiO2 
 PCOD8087025
Probable space group: C 2/M
;
_chemical_formula_sum "Si O2"
_cell_formula_units_Z 64
_cell_length_a 25.412325
_cell_length_b 8.801807
_cell_length_c 14.835466
_cell_angle_alpha 90.000000
_cell_angle_beta 91.357960
_cell_angle_gamma 90.000000
_cell_volume 3317.381704
_symmetry_space_group_name_H-M "C 2/M"
_symmetry_group_IT_number 12
_symmetry_cell_setting 'monoclinic'
loop_
_space_group_symop_operation_xyz
x,y,z
-x,y,-z
-x,-y,-z
x,-y,z
1/2+x,1/2+y,z
1/2-x,1/2+y,-z
1/2-x,1/2-y,-z
1/2+x,1/2-y,z
loop_
_atom_site_type_symbol
_atom_site_label
_atom_site_fract_x
_atom_site_fract_y
_atom_site_fract_z
Si Si1 0.059079 0.821320 0.484860
Si Si2 0.804053 0.680794 0.201660
Si Si3 0.305455 0.818841 0.811122
Si Si4 0.607532 0.679137 0.669779
Si Si5 0.049295 0.664747 0.940624
Si Si6 0.901180 0.819214 0.707197
Si Si7 0.489583 0.674937 0.225306
Si Si8 0.162108 0.676557 0.993612
O O1 0.102369 0.781521 0.563762
O O2 0.086494 0.764062 0.394116
O O3 0.000000 0.751524 0.500000
O O4 0.050874 0.000000 0.477887
O O5 0.800785 0.500000 0.202042
O O6 0.748861 0.752841 0.229194
O O7 0.846289 0.731331 0.277970
O O8 0.817678 0.744409 0.101242
O O9 0.350658 0.763614 0.745545
O O10 0.304909 0.000000 0.810835
O O11 0.312462 0.753536 0.914308
O O12 0.616037 0.500000 0.687992
O O13 0.551248 0.739256 0.703645
O O14 0.060874 0.500000 0.893221
O O15 0.036547 0.797855 0.871755
O O16 0.100073 0.712504 0.000054
O O17 0.000000 0.641490 0.000000
O O18 0.951817 0.756976 0.765466
O O19 0.892318 0.000000 0.713702
O O20 0.496569 0.500000 0.245821
O O21 0.174841 0.500000 0.993910
#
# Coordination Sequence:
#
# PCOD8087025 Si02
#       8
#     8   8   8   8   8   8   8   8
#     4   9  16  32  60  88 115 148 185 226 275 335
#     4  11  22  39  60  82 112 149 191 237 281 329
#     4  11  23  40  59  81 111 148 192 238 283 332
#     4  10  19  34  58  88 114 143 184 228 276 330
#     4  10  19  32  50  74 110 153 188 219 270 336
#     4  10  20  36  58  86 117 149 186 229 281 336
#     4  10  19  31  52  82 115 144 179 226 274 327
#     4   9  19  35  55  80 109 146 190 231 276 332
#
# _framework density 19.292321999999999
#
# number of rings (size 3 to 8) (size 9 to 14) (size 15 to 20)
#    0.000    2.000    2.500    1.875    0.000    1.750 
#    0.000    4.375    0.000    0.750    0.000    0.000 
#    0.000    0.000    0.000    0.000    0.000    0.000 
#
# Total GULP energy -396506.110564 kJ/mol
# GULP energy per Si atom -12390.815955 kJ/mol
# Density = 1.924841 g / cm^3
# Si number density = 19.292322 Si / 1000 Ang^3
#
#
#
# Elastic Constant Matrix: (Units=GPa)
#
#
# Indices 1 2 3 4 5 6 
#
# 1 143.5977 40.1164 45.9523 0.0000 1.5900 0.0000
# 2 40.1164 41.2726 28.2801 0.0000 2.6271 0.0000
# 3 45.9523 28.2801 105.9966 0.0000 5.7346 0.0000
# 4 0.0000 0.0000 0.0000 22.4170 0.0000 0.7981
# 5 1.5900 2.6271 5.7346 0.0000 21.6461 0.0000
# 6 0.0000 0.0000 0.0000 0.7981 0.0000 27.1291
#
#
#
# Elastic Compliance Matrix: (Units=1/GPa)
#
#
# Indices 1 2 3 4 5 6 
#
# 1 0.009949 -0.008244 -0.002159 0.000000 0.000842 0.000000
# 2 -0.008244 0.036531 -0.006052 0.000000 -0.002225 0.000000
# 3 -0.002159 -0.006052 0.012110 0.000000 -0.002315 0.000000
# 4 0.000000 0.000000 0.000000 0.044656 0.000000 -0.001314
# 5 0.000842 -0.002225 -0.002315 0.000000 0.047019 0.000000
# 6 0.000000 0.000000 0.000000 -0.001314 0.000000 0.036899
#
#
# Mechanical properties :
#
#
# Convention : Reuss Voigt Hill
#
# Bulk Modulus (GPa) = 38.94195 57.72939 48.33567
# Shear Modulus (GPa) = 21.86900 26.00633 23.93766
#
# Velocity S-wave (km/s) = 3.37049 3.67551 3.52630
# Velocity P-wave (km/s) = 5.94777 6.92828 6.45666
#
# Compressibility (1/GPa) = 0.02567925
#
# Stress axis : x y z
#
# Youngs Moduli (GPa) = 100.51651 27.37411 82.57508
#
# Poissons Ratio (x) = 0.22568 0.17828
# Poissons Ratio (y) = 0.82868 0.49975
# Poissons Ratio (z) = 0.21701 0.16567
#
# Static dielectric constant tensor:
#      x y z
#    x 3.701480 0.000000 0.345580 
#    y 0.000000 3.405900 0.000000 
#    z 0.345580 0.000000 4.893650 
# 
# 
# High freq. dielectric constant tensor:
#      x y z
#    x 1.759140 0.000000 0.004870 
#    y 0.000000 1.716900 0.000000 
#    z 0.004870 0.000000 1.748340 
# 
# From -- ./inp_files/238733.got.cif
#   From: 2010.06.25/outbox.cif.g09.slc.cpg/sg12_120_cif.got.tgz:238733.got - 2010.06.28 00:19:55.
