data_PCOD8087796
_publ_section_title
;
Structure prediction by ZEFSAII (Michael W. Deem and Ramdas Pophale) SiO2 
 PCOD8087796
Probable space group: C 2/M
;
_chemical_formula_sum "Si O2"
_cell_formula_units_Z 48
_cell_length_a 29.709886
_cell_length_b 9.029674
_cell_length_c 9.909348
_cell_angle_alpha 90.000000
_cell_angle_beta 99.409054
_cell_angle_gamma 90.000000
_cell_volume 2622.621558
_symmetry_space_group_name_H-M "C 2/M"
_symmetry_group_IT_number 12
_symmetry_cell_setting 'monoclinic'
loop_
_space_group_symop_operation_xyz
x,y,z
-x,y,-z
-x,-y,-z
x,-y,z
1/2+x,1/2+y,z
1/2-x,1/2+y,-z
1/2-x,1/2-y,-z
1/2+x,1/2-y,z
loop_
_atom_site_type_symbol
_atom_site_label
_atom_site_fract_x
_atom_site_fract_y
_atom_site_fract_z
Si Si1 0.132190 0.676320 0.226897
Si Si2 0.784304 0.171820 0.117548
Si Si3 0.055160 0.676290 0.387819
Si Si4 0.124632 0.676115 0.917580
Si Si5 0.730774 0.170535 0.361173
Si Si6 0.453900 0.175620 0.316324
O O1 0.132259 0.500000 0.230084
O O2 0.094016 0.742931 0.309037
O O3 0.181643 0.737969 0.294837
O O4 0.121033 0.730269 0.070089
O O5 0.833203 0.247706 0.135176
O O6 0.766565 0.193936 0.259626
O O7 0.787546 0.000000 0.079734
O O8 0.750000 0.250000 0.000000
O O9 0.056967 0.500000 0.382461
O O10 0.063574 0.731538 0.545457
O O11 0.005374 0.732863 0.313793
O O12 0.131059 0.500000 0.911067
O O13 0.079329 0.732159 0.818006
O O14 0.750000 0.250000 0.500000
O O15 0.724378 0.000000 0.394778
O O16 0.454574 0.000000 0.319168
#
# Coordination Sequence:
#
# PCOD8087796 Si02
#       6
#     8   8   8   8   8   8
#     4   9  17  30  46  69 104 134 164 211 258 300
#     4  11  22  38  56  76 106 139 174 216 259 308
#     4   8  14  26  43  69 104 134 165 209 256 302
#     4  10  19  32  51  77 105 135 172 210 256 310
#     4  10  22  37  52  76 105 136 172 215 260 309
#     4   8  15  26  44  72 102 133 168 206 254 308
#
# _framework density 18.302295999999998
#
# number of rings (size 3 to 8) (size 9 to 14) (size 15 to 20)
#    0.000    2.667    1.667    1.500    2.333    2.000 
#    0.000    3.333    0.000    0.000    0.000    5.833 
#    0.000    0.000    0.000    0.000    0.000    0.000 
#
# Total GULP energy -297529.909892 kJ/mol
# GULP energy per Si atom -12397.079579 kJ/mol
# Density = 1.826064 g / cm^3
# Si number density = 18.302296 Si / 1000 Ang^3
#
#
#
# Elastic Constant Matrix: (Units=GPa)
#
#
# Indices 1 2 3 4 5 6 
#
# 1 151.9596 20.8052 95.1964 0.0000 1.2066 0.0000
# 2 20.8052 29.9732 30.9192 0.0000 0.8940 0.0000
# 3 95.1964 30.9192 152.7317 0.0000 16.4133 0.0000
# 4 0.0000 0.0000 0.0000 20.3168 0.0000 0.0152
# 5 1.2066 0.8940 16.4133 0.0000 40.4739 0.0000
# 6 0.0000 0.0000 0.0000 0.0152 0.0000 20.7198
#
#
#
# Elastic Compliance Matrix: (Units=1/GPa)
#
#
# Indices 1 2 3 4 5 6 
#
# 1 0.011052 -0.000454 -0.007071 0.000000 0.002548 0.000000
# 2 -0.000454 0.042461 -0.008588 0.000000 0.002558 0.000000
# 3 -0.007071 -0.008588 0.013226 0.000000 -0.004963 0.000000
# 4 0.000000 0.000000 0.000000 0.049220 0.000000 -0.000036
# 5 0.002548 0.002558 -0.004963 0.000000 0.026588 0.000000
# 6 0.000000 0.000000 0.000000 -0.000036 0.000000 0.048263
#
#
# Mechanical properties :
#
#
# Convention : Reuss Voigt Hill
#
# Bulk Modulus (GPa) = 28.97315 69.83402 49.40359
# Shear Modulus (GPa) = 21.31835 28.81835 25.06835
#
# Velocity S-wave (km/s) = 3.41661 3.97240 3.70494
# Velocity P-wave (km/s) = 5.60615 7.69926 6.73452
#
# Compressibility (1/GPa) = 0.03451471
#
# Stress axis : x y z
#
# Youngs Moduli (GPa) = 90.48121 23.55109 75.60639
#
# Poissons Ratio (x) = 0.01069 0.53458
# Poissons Ratio (y) = 0.04106 0.64930
# Poissons Ratio (z) = 0.63975 0.20226
#
# Static dielectric constant tensor:
#      x y z
#    x 2.805800 0.000000 0.099050 
#    y 0.000000 2.812790 0.000000 
#    z 0.099050 0.000000 3.588650 
# 
# 
# High freq. dielectric constant tensor:
#      x y z
#    x 1.723040 0.000000 0.000630 
#    y 0.000000 1.650550 0.000000 
#    z 0.000630 0.000000 1.719860 
# 
# From -- ./inp_files/108587.got.cif
#   From: 2010.06.25/outbox.cif.g09.slc.cpg/sg12_55_cif.got.tgz:108587.got - 2010.06.28 00:19:55.
