data_PCOD8087250
_publ_section_title
;
Structure prediction by ZEFSAII (Michael W. Deem and Ramdas Pophale) SiO2 
 PCOD8087250
Probable space group: C 2/M
;
_chemical_formula_sum "Si O2"
_cell_formula_units_Z 64
_cell_length_a 33.594728
_cell_length_b 9.466321
_cell_length_c 13.961336
_cell_angle_alpha 90.000000
_cell_angle_beta 54.082008
_cell_angle_gamma 90.000000
_cell_volume 3595.737065
_symmetry_space_group_name_H-M "C 2/M"
_symmetry_group_IT_number 12
_symmetry_cell_setting 'monoclinic'
loop_
_space_group_symop_operation_xyz
x,y,z
-x,y,-z
-x,-y,-z
x,-y,z
1/2+x,1/2+y,z
1/2-x,1/2+y,-z
1/2-x,1/2-y,-z
1/2+x,1/2-y,z
loop_
_atom_site_type_symbol
_atom_site_label
_atom_site_fract_x
_atom_site_fract_y
_atom_site_fract_z
Si Si1 0.786955 0.834732 0.818674
Si Si2 0.599679 0.658354 0.998590
Si Si3 0.360228 0.161031 0.597865
Si Si4 0.444360 0.164869 0.098370
Si Si5 0.569660 0.162608 0.663383
Si Si6 0.691727 0.335764 0.996512
Si Si7 0.947006 0.658447 0.619809
Si Si8 0.478725 0.659459 0.736011
O O1 0.817140 0.767210 0.688256
O O2 0.734016 0.761975 0.893789
O O3 0.780236 0.000000 0.807966
O O4 0.814530 0.806278 0.880912
O O5 0.611041 0.500000 0.946619
O O6 0.595409 0.759100 0.913071
O O7 0.642164 0.708160 0.011530
O O8 0.547227 0.663220 0.124752
O O9 0.377728 0.187719 0.463138
O O10 0.407063 0.193419 0.596883
O O11 0.341722 0.000000 0.636949
O O12 0.426940 0.201989 0.230031
O O13 0.441183 0.000000 0.080462
O O14 0.500000 0.218636 0.000000
O O15 0.529505 0.257452 0.667868
O O16 0.553045 0.000000 0.673526
O O17 0.705254 0.500000 0.961378
O O18 0.940318 0.500000 0.669374
O O19 0.941237 0.768459 0.714407
O O20 0.000000 0.680022 0.500000
O O21 0.489399 0.500000 0.687737
#
# Coordination Sequence:
#
# PCOD8087250 Si02
#       8
#     8   8   8   8   8   8   8   8
#     4  10  20  35  57  83 111 136 172 221 262 312
#     4  10  21  35  53  77 108 141 173 218 271 323
#     4  10  20  34  53  73 102 144 180 211 259 318
#     4  10  20  34  55  78 103 139 183 230 269 307
#     4  10  20  36  52  71 103 142 182 217 256 312
#     4   9  19  37  57  79 109 142 174 211 265 323
#     4  10  19  32  48  68  99 140 179 211 246 304
#     4  11  21  31  47  74 106 139 173 214 263 308
#
# _framework density 17.798856000000001
#
# number of rings (size 3 to 8) (size 9 to 14) (size 15 to 20)
#    0.000    2.000    2.500    1.500    0.000    4.500 
#    0.000    0.000    0.000    0.750    0.000    0.000 
#    0.000    0.000    0.000    0.000    0.000    0.000 
#
# Total GULP energy -396803.600947 kJ/mol
# GULP energy per Si atom -12400.112530 kJ/mol
# Density = 1.775834 g / cm^3
# Si number density = 17.798856 Si / 1000 Ang^3
#
#
#
# Elastic Constant Matrix: (Units=GPa)
#
#
# Indices 1 2 3 4 5 6 
#
# 1 67.4662 36.6806 30.7943 0.0000 6.5233 0.0000
# 2 36.6806 83.3561 50.0148 0.0000 5.4837 0.0000
# 3 30.7943 50.0148 106.7417 0.0000 6.0528 0.0000
# 4 0.0000 0.0000 0.0000 26.5089 0.0000 0.7336
# 5 6.5233 5.4837 6.0528 0.0000 25.2959 0.0000
# 6 0.0000 0.0000 0.0000 0.7336 0.0000 28.9281
#
#
#
# Elastic Compliance Matrix: (Units=1/GPa)
#
#
# Indices 1 2 3 4 5 6 
#
# 1 0.020105 -0.007330 -0.002191 0.000000 -0.003071 0.000000
# 2 -0.007330 0.019440 -0.006957 0.000000 -0.000659 0.000000
# 3 -0.002191 -0.006957 0.013323 0.000000 -0.001115 0.000000
# 4 0.000000 0.000000 0.000000 0.037750 0.000000 -0.000957
# 5 -0.003071 -0.000659 -0.001115 0.000000 0.040734 0.000000
# 6 0.000000 0.000000 0.000000 -0.000957 0.000000 0.034593
#
#
# Mechanical properties :
#
#
# Convention : Reuss Voigt Hill
#
# Bulk Modulus (GPa) = 50.22161 54.72703 52.47432
# Shear Modulus (GPa) = 24.32646 25.48485 24.90566
#
# Velocity S-wave (km/s) = 3.70096 3.78805 3.74476
# Velocity P-wave (km/s) = 6.82204 7.06730 6.94575
#
# Compressibility (1/GPa) = 0.01991175
#
# Stress axis : x y z
#
# Youngs Moduli (GPa) = 49.73958 51.44103 75.05603
#
# Poissons Ratio (x) = 0.37707 0.16447
# Poissons Ratio (y) = 0.36460 0.52213
# Poissons Ratio (z) = 0.10900 0.35785
#
# Static dielectric constant tensor:
#      x y z
#    x 3.092240 0.000000 0.106820 
#    y 0.000000 3.329970 0.000000 
#    z 0.106820 0.000000 3.338940 
# 
# 
# High freq. dielectric constant tensor:
#      x y z
#    x 1.663420 0.000000 0.006240 
#    y 0.000000 1.692050 0.000000 
#    z 0.006240 0.000000 1.682250 
# 
# From -- ./inp_files/249703.got.cif
#   From: 2010.06.25/outbox.cif.g09.slc.cpg/sg12_125_cif.got.tgz:249703.got - 2010.06.28 00:19:55.
