data_PCOD8087727
_publ_section_title
;
Structure prediction by ZEFSAII (Michael W. Deem and Ramdas Pophale) SiO2 
 PCOD8087727
Probable space group: C 2/M
;
_chemical_formula_sum "Si O2"
_cell_formula_units_Z 64
_cell_length_a 19.031983
_cell_length_b 9.014670
_cell_length_c 22.301957
_cell_angle_alpha 90.000000
_cell_angle_beta 65.859356
_cell_angle_gamma 90.000000
_cell_volume 3491.650773
_symmetry_space_group_name_H-M "C 2/M"
_symmetry_group_IT_number 12
_symmetry_cell_setting 'monoclinic'
loop_
_space_group_symop_operation_xyz
x,y,z
-x,y,-z
-x,-y,-z
x,-y,z
1/2+x,1/2+y,z
1/2-x,1/2+y,-z
1/2-x,1/2-y,-z
1/2+x,1/2-y,z
loop_
_atom_site_type_symbol
_atom_site_label
_atom_site_fract_x
_atom_site_fract_y
_atom_site_fract_z
Si Si1 0.432235 0.327897 0.734692
Si Si2 0.815827 0.830745 0.511489
Si Si3 0.072724 0.324692 0.011976
Si Si4 0.778403 0.675690 0.756591
Si Si5 0.903257 0.173117 0.370486
Si Si6 0.733060 0.174455 0.652462
Si Si7 0.890767 0.830020 0.882108
Si Si8 0.226498 0.325289 0.892139
O O1 0.413536 0.500000 0.728450
O O2 0.365936 0.231464 0.727548
O O3 0.511608 0.276477 0.677282
O O4 0.436085 0.299100 0.804585
O O5 0.750000 0.750000 0.500000
O O6 0.894711 0.801275 0.446364
O O7 0.809634 0.788516 0.584406
O O8 0.792465 0.000000 0.515158
O O9 0.069916 0.500000 0.015878
O O10 0.068815 0.266315 0.080966
O O11 0.151269 0.269818 0.953466
O O12 0.000000 0.262698 0.000000
O O13 0.776772 0.500000 0.759679
O O14 0.738145 0.731434 0.710608
O O15 0.728975 0.739348 0.828751
O O16 0.843624 0.274504 0.355283
O O17 0.889792 0.000000 0.358905
O O18 0.727571 0.000000 0.669451
O O19 0.801267 0.784544 0.905628
O O20 0.897408 0.000000 0.899266
O O21 0.224895 0.500000 0.878664
#
# Coordination Sequence:
#
# PCOD8087727 Si02
#       8
#     8   8   8   8   8   8   8   8
#     4   9  19  36  55  76 105 136 166 209 262 307
#     4   8  15  28  48  73  99 132 171 209 251 301
#     4  10  21  35  52  77 106 132 160 201 250 296
#     4  11  22  35  53  76 101 133 176 217 253 301
#     4   9  17  32  54  78 103 132 172 216 254 302
#     4  10  19  32  51  75 105 138 171 210 259 307
#     4   9  18  33  53  74  97 131 169 201 241 296
#     4   9  19  37  56  73  98 132 168 205 251 303
#
# _framework density 18.329438
#
# number of rings (size 3 to 8) (size 9 to 14) (size 15 to 20)
#    0.000    2.625    0.000    2.625    0.000    4.750 
#    0.000    3.125    0.000    3.750    0.000    0.000 
#    0.000    0.000    0.000    0.000    0.000    0.000 
#
# Total GULP energy -396610.164776 kJ/mol
# GULP energy per Si atom -12394.067649 kJ/mol
# Density = 1.828772 g / cm^3
# Si number density = 18.329438 Si / 1000 Ang^3
#
#
#
# Elastic Constant Matrix: (Units=GPa)
#
#
# Indices 1 2 3 4 5 6 
#
# 1 33.9411 10.6723 5.6923 -0.0001 -2.5627 -0.0002
# 2 10.6723 49.1679 17.3466 -0.0003 4.8839 -0.0010
# 3 5.6923 17.3466 51.3500 0.0000 -11.0680 0.0001
# 4 -0.0001 -0.0003 0.0000 23.1246 0.0000 4.5955
# 5 -2.5627 4.8839 -11.0680 0.0000 33.1846 -0.0001
# 6 -0.0002 -0.0010 0.0001 4.5955 -0.0001 26.1364
#
#
#
# Elastic Compliance Matrix: (Units=1/GPa)
#
#
# Indices 1 2 3 4 5 6 
#
# 1 0.032034 -0.007147 -0.000406 0.000000 0.003390 0.000000
# 2 -0.007147 0.026048 -0.009646 0.000000 -0.007603 0.000001
# 3 -0.000406 -0.009646 0.024864 0.000000 0.009681 0.000000
# 4 0.000000 0.000000 0.000000 0.044810 0.000000 -0.007879
# 5 0.003390 -0.007603 0.009681 0.000000 0.034744 0.000000
# 6 0.000000 0.000001 0.000000 -0.007879 0.000000 0.039646
#
#
# Mechanical properties :
#
#
# Convention : Reuss Voigt Hill
#
# Bulk Modulus (GPa) = 20.59765 22.43128 21.51446
# Shear Modulus (GPa) = 19.78424 23.20564 21.49494
#
# Velocity S-wave (km/s) = 3.28894 3.56199 3.42819
# Velocity P-wave (km/s) = 5.06801 5.40199 5.23766
#
# Compressibility (1/GPa) = 0.04854923
#
# Stress axis : x y z
#
# Youngs Moduli (GPa) = 31.21679 38.39078 40.21831
#
# Poissons Ratio (x) = 0.27437 0.01633
# Poissons Ratio (y) = 0.22310 0.38793
# Poissons Ratio (z) = 0.01268 0.37031
#
# Static dielectric constant tensor:
#      x y z
#    x 3.167560 0.000000 -0.128870 
#    y 0.000000 3.249440 0.000000 
#    z -0.128870 0.000000 3.846950 
# 
# 
# High freq. dielectric constant tensor:
#      x y z
#    x 1.684430 0.000000 -0.002410 
#    y 0.000000 1.705790 0.000000 
#    z -0.002410 0.000000 1.728930 
# 
# From -- ./inp_files/345511.got.cif
#   From: 2010.06.25/outbox.cif.g09.slc.cpg/sg12_173_cif.got.tgz:345511.got - 2010.06.28 00:19:55.
