data_PCOD8087270
_publ_section_title
;
Structure prediction by ZEFSAII (Michael W. Deem and Ramdas Pophale) SiO2 
 PCOD8087270
Probable space group: C 2/M
;
_chemical_formula_sum "Si O2"
_cell_formula_units_Z 48
_cell_length_a 11.737538
_cell_length_b 17.403680
_cell_length_c 24.820742
_cell_angle_alpha 90.000000
_cell_angle_beta 32.160845
_cell_angle_gamma 90.000000
_cell_volume 2698.904983
_symmetry_space_group_name_H-M "C 2/M"
_symmetry_group_IT_number 12
_symmetry_cell_setting 'monoclinic'
loop_
_space_group_symop_operation_xyz
x,y,z
-x,y,-z
-x,-y,-z
x,-y,z
1/2+x,1/2+y,z
1/2-x,1/2+y,-z
1/2-x,1/2-y,-z
1/2+x,1/2-y,z
loop_
_atom_site_type_symbol
_atom_site_label
_atom_site_fract_x
_atom_site_fract_y
_atom_site_fract_z
Si Si1 0.228738 0.500000 0.057509
Si Si2 0.460159 0.850663 0.908924
Si Si3 0.416035 0.296674 0.740201
Si Si4 0.161045 0.212256 0.105705
Si Si5 0.789109 0.354999 0.738816
Si Si6 0.287610 0.088677 0.619561
Si Si7 0.219576 0.000000 0.837271
O O1 0.088593 0.434099 0.089561
O O2 0.213430 0.500000 0.127727
O O3 0.463514 0.500000 0.937814
O O4 0.712336 0.841176 0.798629
O O5 0.319266 0.796592 0.926745
O O6 0.376175 0.834904 0.003774
O O7 0.360533 0.274775 0.822936
O O8 0.443040 0.216777 0.695490
O O9 0.618726 0.354166 0.657810
O O10 0.957643 0.169620 0.160887
O O11 0.847889 0.381997 0.655047
O O12 0.818037 0.425218 0.768674
O O13 0.500000 0.092255 0.500000
O O14 0.201056 0.000000 0.656757
#
# Coordination Sequence:
#
# PCOD8087270 Si02
#       7
#     4   8   8   8   8   8   4
#     4  11  22  30  48  78 110 154 189 220 259 320
#     4  10  19  32  48  75 113 146 184 221 263 318
#     4  10  21  34  57  80 107 147 180 231 278 324
#     4   9  18  33  48  74 110 147 182 217 264 319
#     4  10  19  36  57  80 109 143 190 226 269 326
#     4  10  22  40  61  85 109 138 182 233 287 340
#     4  11  20  34  52  77 112 153 188 224 266 316
#
# _framework density 17.784991000000002
#
# number of rings (size 3 to 8) (size 9 to 14) (size 15 to 20)
#    0.000    2.000    2.500    1.500    1.167    0.667 
#    0.000    0.833    0.000    0.000    0.000    1.750 
#    0.000    0.000    0.000    0.000    0.000    0.000 
#
# Total GULP energy -297437.394965 kJ/mol
# GULP energy per Si atom -12393.224790 kJ/mol
# Density = 1.774451 g / cm^3
# Si number density = 17.784991 Si / 1000 Ang^3
#
#
#
# Elastic Constant Matrix: (Units=GPa)
#
#
# Indices 1 2 3 4 5 6 
#
# 1 72.3824 61.3586 28.0280 -0.0062 0.6377 0.0037
# 2 61.3586 157.6213 49.5347 -0.0173 0.9567 -0.0012
# 3 28.0280 49.5347 71.0799 -0.0781 6.7813 0.0280
# 4 -0.0062 -0.0173 -0.0781 25.4328 0.0060 -3.3450
# 5 0.6377 0.9567 6.7813 0.0060 20.1717 0.0030
# 6 0.0037 -0.0012 0.0280 -3.3450 0.0030 38.8539
#
#
#
# Elastic Compliance Matrix: (Units=1/GPa)
#
#
# Indices 1 2 3 4 5 6 
#
# 1 0.021236 -0.007190 -0.003442 -0.000011 0.000827 -0.000001
# 2 -0.007190 0.010606 -0.004680 -0.000009 0.001298 0.000004
# 3 -0.003442 -0.004680 0.019274 0.000055 -0.006149 -0.000008
# 4 -0.000011 -0.000009 0.000055 0.039770 -0.000030 0.003424
# 5 0.000827 0.001298 -0.006149 -0.000030 0.051554 -0.000002
# 6 -0.000001 0.000004 -0.000008 0.003424 -0.000002 0.026032
#
#
# Mechanical properties :
#
#
# Convention : Reuss Voigt Hill
#
# Bulk Modulus (GPa) = 48.79896 64.32516 56.56206
# Shear Modulus (GPa) = 24.28050 27.70250 25.99150
#
# Velocity S-wave (km/s) = 3.69890 3.95097 3.82701
# Velocity P-wave (km/s) = 6.76316 7.55383 7.16940
#
# Compressibility (1/GPa) = 0.02049224
#
# Stress axis : x y z
#
# Youngs Moduli (GPa) = 47.08968 94.28523 51.88355
#
# Poissons Ratio (x) = 0.67792 0.17858
# Poissons Ratio (y) = 0.33858 0.24281
# Poissons Ratio (z) = 0.16208 0.44125
#
# Static dielectric constant tensor:
#      x y z
#    x 3.341280 -0.000040 0.046150 
#    y -0.000040 3.702710 -0.000030 
#    z 0.046150 -0.000030 3.080110 
# 
# 
# High freq. dielectric constant tensor:
#      x y z
#    x 1.688290 0.000000 0.010080 
#    y 0.000000 1.701830 0.000000 
#    z 0.010080 0.000000 1.662720 
# 
# From -- ./inp_files/204423.got.cif
#   From: 2010.06.25/outbox.cif.g09.slc.cpg/sg12_103_cif.got.tgz:204423.got - 2010.06.28 00:19:55.
