data_PCOD8087726
_publ_section_title
;
Structure prediction by ZEFSAII (Michael W. Deem and Ramdas Pophale) SiO2 
 PCOD8087726
Probable space group: C 2/M
;
_chemical_formula_sum "Si O2"
_cell_formula_units_Z 56
_cell_length_a 18.541431
_cell_length_b 9.691449
_cell_length_c 24.064882
_cell_angle_alpha 90.000000
_cell_angle_beta 138.955449
_cell_angle_gamma 90.000000
_cell_volume 2839.532091
_symmetry_space_group_name_H-M "C 2/M"
_symmetry_group_IT_number 12
_symmetry_cell_setting 'monoclinic'
loop_
_space_group_symop_operation_xyz
x,y,z
-x,y,-z
-x,-y,-z
x,-y,z
1/2+x,1/2+y,z
1/2-x,1/2+y,-z
1/2-x,1/2-y,-z
1/2+x,1/2-y,z
loop_
_atom_site_type_symbol
_atom_site_label
_atom_site_fract_x
_atom_site_fract_y
_atom_site_fract_z
Si Si1 0.832826 0.150253 0.116311
Si Si2 0.158870 0.150374 0.003648
Si Si3 0.782454 0.659590 0.731838
Si Si4 0.420944 0.657765 0.729656
Si Si5 0.475042 0.156145 0.921732
Si Si6 0.034486 0.163518 0.580591
Si Si7 0.856661 0.842126 0.565721
O O1 0.794700 0.126360 0.030859
O O2 0.954987 0.210823 0.190212
O O3 0.825157 0.000000 0.142724
O O4 0.745741 0.260045 0.091144
O O5 0.045334 0.232275 0.929219
O O6 0.140958 0.000000 0.021778
O O7 0.782760 0.500000 0.712982
O O8 0.837691 0.746001 0.714642
O O9 0.848874 0.677200 0.828687
O O10 0.657887 0.713320 0.667784
O O11 0.408994 0.500000 0.744084
O O12 0.400633 0.668643 0.652986
O O13 0.513446 0.000000 0.930351
O O14 0.500000 0.189790 0.000000
O O15 0.000000 0.222153 0.500000
O O16 0.949118 0.217806 0.577328
O O17 0.031245 0.000000 0.578295
O O18 0.750000 0.750000 0.500000
O O19 0.827202 0.000000 0.533030
#
# Coordination Sequence:
#
# PCOD8087726 Si02
#       7
#     8   8   8   8   8   8   8
#     4   9  18  32  51  74 103 140 179 223 275 327
#     4  10  19  32  51  75 104 139 181 226 275 325
#     4  10  20  35  58  83 107 144 190 232 278 335
#     4  10  20  35  56  83 113 147 183 230 287 336
#     4  10  21  35  52  76 107 145 188 232 277 332
#     4   9  18  34  56  82 110 141 179 223 271 326
#     4  10  21  37  59  85 114 146 183 225 276 335
#
# _framework density 19.721558999999999
#
# number of rings (size 3 to 8) (size 9 to 14) (size 15 to 20)
#    0.000    2.286    1.429    1.286    0.000    4.286 
#    0.000    5.000    0.000    2.571    0.000    0.000 
#    0.000    0.000    0.000    0.000    0.000    0.000 
#
# Total GULP energy -347021.287371 kJ/mol
# GULP energy per Si atom -12393.617406 kJ/mol
# Density = 1.967667 g / cm^3
# Si number density = 19.721559 Si / 1000 Ang^3
#
#
#
# Elastic Constant Matrix: (Units=GPa)
#
#
# Indices 1 2 3 4 5 6 
#
# 1 78.9760 33.7281 66.6886 0.0000 13.2934 0.0000
# 2 33.7281 86.3073 52.3732 0.0000 17.8045 0.0000
# 3 66.6886 52.3732 135.2078 0.0000 27.4715 0.0000
# 4 0.0000 0.0000 0.0000 20.3014 0.0000 4.8449
# 5 13.2934 17.8045 27.4715 0.0000 39.6608 0.0000
# 6 0.0000 0.0000 0.0000 4.8449 0.0000 23.4609
#
#
#
# Elastic Compliance Matrix: (Units=1/GPa)
#
#
# Indices 1 2 3 4 5 6 
#
# 1 0.022172 -0.002732 -0.010028 0.000000 0.000741 0.000000
# 2 -0.002732 0.015837 -0.004106 0.000000 -0.003349 0.000000
# 3 -0.010028 -0.004106 0.014984 0.000000 -0.005174 0.000000
# 4 0.000000 0.000000 0.000000 0.051811 0.000000 -0.010699
# 5 0.000741 -0.003349 -0.005174 0.000000 0.030053 0.000000
# 6 0.000000 0.000000 0.000000 -0.010699 0.000000 0.044834
#
#
# Mechanical properties :
#
#
# Convention : Reuss Voigt Hill
#
# Bulk Modulus (GPa) = 51.92179 67.34121 59.63150
# Shear Modulus (GPa) = 22.74331 26.53136 24.63734
#
# Velocity S-wave (km/s) = 3.39959 3.67181 3.53832
# Velocity P-wave (km/s) = 6.46485 7.22470 6.85531
#
# Compressibility (1/GPa) = 0.01925974
#
# Stress axis : x y z
#
# Youngs Moduli (GPa) = 45.10152 63.14308 66.73691
#
# Poissons Ratio (x) = 0.17252 0.66926
# Poissons Ratio (y) = 0.12323 0.27405
# Poissons Ratio (z) = 0.45229 0.25929
#
# Static dielectric constant tensor:
#      x y z
#    x 6.377460 0.000000 -4.749090 
#    y 0.000000 3.769560 0.000000 
#    z -4.749090 0.000000 11.857250 
# 
# 
# High freq. dielectric constant tensor:
#      x y z
#    x 1.749480 0.000000 0.009780 
#    y 0.000000 1.753570 0.000000 
#    z 0.009780 0.000000 1.776160 
# 
# From -- ./inp_files/363191.got.cif
#   From: 2010.06.25/outbox.cif.g09.slc.cpg/sg12_182_cif.got.tgz:363191.got - 2010.06.28 00:19:55.
