data_PCOD8087041
_publ_section_title
;
Structure prediction by ZEFSAII (Michael W. Deem and Ramdas Pophale) SiO2 
 PCOD8087041
Probable space group: C 2/M
;
_chemical_formula_sum "Si O2"
_cell_formula_units_Z 56
_cell_length_a 26.164757
_cell_length_b 8.965041
_cell_length_c 12.935723
_cell_angle_alpha 90.000000
_cell_angle_beta 67.076497
_cell_angle_gamma 90.000000
_cell_volume 2794.675871
_symmetry_space_group_name_H-M "C 2/M"
_symmetry_group_IT_number 12
_symmetry_cell_setting 'monoclinic'
loop_
_space_group_symop_operation_xyz
x,y,z
-x,y,-z
-x,-y,-z
x,-y,z
1/2+x,1/2+y,z
1/2-x,1/2+y,-z
1/2-x,1/2-y,-z
1/2+x,1/2-y,z
loop_
_atom_site_type_symbol
_atom_site_label
_atom_site_fract_x
_atom_site_fract_y
_atom_site_fract_z
Si Si1 0.219515 0.170579 0.767941
Si Si2 0.949474 0.823688 0.834345
Si Si3 0.149005 0.173533 0.624880
Si Si4 0.130120 0.327498 0.958758
Si Si5 0.943229 0.673571 0.183510
Si Si6 0.163499 0.672615 0.403951
Si Si7 0.049796 0.673306 0.383586
O O1 0.195325 0.209006 0.674033
O O2 0.191298 0.271742 0.878270
O O3 0.285216 0.203003 0.714067
O O4 0.206625 0.000000 0.806635
O O5 0.958452 0.772902 0.710348
O O6 0.998393 0.757871 0.867017
O O7 0.949750 0.000000 0.840870
O O8 0.891212 0.761539 0.924245
O O9 0.092827 0.263976 0.693004
O O10 0.172668 0.226866 0.497194
O O11 0.134040 0.000000 0.632368
O O12 0.133770 0.500000 0.984939
O O13 0.088092 0.295443 0.898367
O O14 0.954542 0.500000 0.193429
O O15 0.162344 0.500000 0.439211
O O16 0.107448 0.719384 0.390852
O O17 0.049410 0.500000 0.351968
O O18 0.000000 0.711245 0.500000
#
# Coordination Sequence:
#
# PCOD8087041 Si02
#       7
#     8   8   8   8   8   8   8
#     4   9  19  35  54  81 115 147 183 228 277 326
#     4  12  24  37  57  83 112 145 181 226 277 328
#     4  10  19  31  52  83 117 148 180 225 277 329
#     4  10  21  37  58  83 111 145 184 225 271 327
#     4  10  20  35  56  82 113 147 183 223 270 328
#     4  10  20  35  56  80 110 150 190 229 275 327
#     4  10  22  40  60  81 108 145 187 228 269 320
#
# _framework density 20.038101999999999
#
# number of rings (size 3 to 8) (size 9 to 14) (size 15 to 20)
#    0.000    1.857    0.000    4.286    0.000    6.571 
#    0.000    0.714    0.000    0.000    0.000    0.000 
#    0.000    0.000    0.000    0.000    0.000    0.000 
#
# Total GULP energy -347352.730564 kJ/mol
# GULP energy per Si atom -12405.454663 kJ/mol
# Density = 1.999249 g / cm^3
# Si number density = 20.038102 Si / 1000 Ang^3
#
#
#
# Elastic Constant Matrix: (Units=GPa)
#
#
# Indices 1 2 3 4 5 6 
#
# 1 97.5079 35.8407 36.1079 0.0000 -25.5477 0.0000
# 2 35.8407 111.8246 53.9884 0.0000 -11.4675 0.0000
# 3 36.1079 53.9884 96.7792 0.0000 -22.4897 0.0000
# 4 0.0000 0.0000 0.0000 35.7538 0.0000 -4.3101
# 5 -25.5477 -11.4675 -22.4897 0.0000 27.1117 0.0000
# 6 0.0000 0.0000 0.0000 -4.3101 0.0000 25.7887
#
#
#
# Elastic Compliance Matrix: (Units=1/GPa)
#
#
# Indices 1 2 3 4 5 6 
#
# 1 0.014873 -0.003013 -0.001124 0.000000 0.011808 0.000000
# 2 -0.003013 0.012857 -0.006744 0.000000 -0.002996 0.000000
# 3 -0.001124 -0.006744 0.016854 0.000000 0.010069 0.000000
# 4 0.000000 0.000000 0.000000 0.028544 0.000000 0.004771
# 5 0.011808 -0.002996 0.010069 0.000000 0.055097 0.000000
# 6 0.000000 0.000000 0.000000 0.004771 0.000000 0.039574
#
#
# Mechanical properties :
#
#
# Convention : Reuss Voigt Hill
#
# Bulk Modulus (GPa) = 43.81869 61.99842 52.90856
# Shear Modulus (GPa) = 25.35868 29.74247 27.55058
#
# Velocity S-wave (km/s) = 3.56128 3.85684 3.71200
# Velocity P-wave (km/s) = 6.23101 7.13029 6.69576
#
# Compressibility (1/GPa) = 0.02282131
#
# Stress axis : x y z
#
# Youngs Moduli (GPa) = 67.23454 77.77671 59.33148
#
# Poissons Ratio (x) = 0.23437 0.06670
# Poissons Ratio (y) = 0.20260 0.40015
# Poissons Ratio (z) = 0.07558 0.52456
#
# Static dielectric constant tensor:
#      x y z
#    x 3.622520 0.000000 -0.230740 
#    y 0.000000 3.588070 0.000000 
#    z -0.230740 0.000000 3.562880 
# 
# 
# High freq. dielectric constant tensor:
#      x y z
#    x 1.772290 0.000000 -0.019810 
#    y 0.000000 1.781930 0.000000 
#    z -0.019810 0.000000 1.781570 
# 
# From -- ./inp_files/180768.got.cif
#   From: 2010.06.25/outbox.cif.g09.slc.cpg/sg12_91_cif.got.tgz:180768.got - 2010.06.28 00:19:55.
