data_PCOD8087866
_publ_section_title
;
Structure prediction by ZEFSAII (Michael W. Deem and Ramdas Pophale) SiO2 
 PCOD8087866
Probable space group: C 2/M
;
_chemical_formula_sum "Si O2"
_cell_formula_units_Z 44
_cell_length_a 8.520395
_cell_length_b 27.559877
_cell_length_c 10.375763
_cell_angle_alpha 90.000000
_cell_angle_beta 109.977272
_cell_angle_gamma 90.000000
_cell_volume 2289.842058
_symmetry_space_group_name_H-M "C 2/M"
_symmetry_group_IT_number 12
_symmetry_cell_setting 'monoclinic'
loop_
_space_group_symop_operation_xyz
x,y,z
-x,y,-z
-x,-y,-z
x,-y,z
1/2+x,1/2+y,z
1/2-x,1/2+y,-z
1/2-x,1/2-y,-z
1/2+x,1/2-y,z
loop_
_atom_site_type_symbol
_atom_site_label
_atom_site_fract_x
_atom_site_fract_y
_atom_site_fract_z
Si Si1 0.754295 0.054623 0.082364
Si Si2 0.195042 0.302708 0.027625
Si Si3 0.658322 0.882812 0.826989
Si Si4 0.000000 0.098440 0.500000
Si Si5 0.209687 0.635699 0.266234
Si Si6 0.387426 0.554671 0.730493
O O1 0.696601 0.085096 0.188142
O O2 0.956214 0.058392 0.127502
O O3 0.697355 0.000000 0.091423
O O4 0.658357 0.072612 0.927956
O O5 0.270501 0.321192 0.185639
O O6 0.250000 0.250000 0.000000
O O7 0.251079 0.338481 0.927511
O O8 0.000000 0.305743 0.000000
O O9 0.479088 0.860915 0.731411
O O10 0.755477 0.903000 0.729538
O O11 0.154401 0.133446 0.582171
O O12 0.053497 0.063891 0.398421
O O13 0.311059 0.500000 0.716718
#
# Coordination Sequence:
#
# PCOD8087866 Si02
#       6
#     8   8   8   4   8   8
#     4   9  17  30  49  76 107 135 169 216 268 315
#     4   9  19  35  58  84 107 129 163 214 271 321
#     4  10  19  32  51  80 106 129 173 224 266 307
#     4  10  21  38  52  68 106 148 184 212 249 306
#     4   9  20  35  52  76 106 140 173 213 258 309
#     4  10  20  33  51  74 105 145 182 217 257 308
#
# _framework density 19.215301
#
# number of rings (size 3 to 8) (size 9 to 14) (size 15 to 20)
#    0.000    2.545    0.000    3.000    0.000    9.455 
#    0.000    0.909    0.000    9.818    0.000    0.000 
#    0.000    0.000    0.000    0.000    0.000    0.000 
#
# Total GULP energy -272579.194840 kJ/mol
# GULP energy per Si atom -12389.963402 kJ/mol
# Density = 1.917157 g / cm^3
# Si number density = 19.215301 Si / 1000 Ang^3
#
#
#
# Elastic Constant Matrix: (Units=GPa)
#
#
# Indices 1 2 3 4 5 6 
#
# 1 67.0402 22.7545 33.5492 0.0000 4.1503 0.0000
# 2 22.7545 114.5568 20.8677 0.0000 -7.0150 0.0000
# 3 33.5492 20.8677 80.0932 0.0000 9.3725 0.0000
# 4 0.0000 0.0000 0.0000 17.2174 0.0000 -6.5620
# 5 4.1503 -7.0150 9.3725 0.0000 34.2636 0.0000
# 6 0.0000 0.0000 0.0000 -6.5620 0.0000 29.4041
#
#
#
# Elastic Compliance Matrix: (Units=1/GPa)
#
#
# Indices 1 2 3 4 5 6 
#
# 1 0.019560 -0.002587 -0.007417 0.000000 -0.000870 0.000000
# 2 -0.002587 0.009739 -0.001781 0.000000 0.002794 0.000000
# 3 -0.007417 -0.001781 0.016523 0.000000 -0.003986 0.000000
# 4 0.000000 0.000000 0.000000 0.063480 0.000000 0.014167
# 5 -0.000870 0.002794 -0.003986 0.000000 0.030953 0.000000
# 6 0.000000 0.000000 0.000000 0.014167 0.000000 0.037170
#
#
# Mechanical properties :
#
#
# Convention : Reuss Voigt Hill
#
# Bulk Modulus (GPa) = 44.94165 46.22590 45.58378
# Shear Modulus (GPa) = 23.99078 28.47826 26.23452
#
# Velocity S-wave (km/s) = 3.53728 3.85393 3.69900
# Velocity P-wave (km/s) = 6.33422 6.62667 6.48210
#
# Compressibility (1/GPa) = 0.02225107
#
# Stress axis : x y z
#
# Youngs Moduli (GPa) = 51.12355 102.68320 60.52255
#
# Poissons Ratio (x) = 0.26568 0.44892
# Poissons Ratio (y) = 0.13228 0.10776
# Poissons Ratio (z) = 0.37921 0.18283
#
# Static dielectric constant tensor:
#      x y z
#    x 3.548850 0.000000 0.132110 
#    y 0.000000 2.310550 0.000000 
#    z 0.132110 0.000000 3.418680 
# 
# 
# High freq. dielectric constant tensor:
#      x y z
#    x 1.742550 0.000000 0.003170 
#    y 0.000000 1.731980 0.000000 
#    z 0.003170 0.000000 1.726070 
# 
# From -- ./inp_files/41736.got.cif
#   From: 2010.06.25/outbox.cif.g09.slc.cpg/sg12_21_cif.got.tgz:41736.got - 2010.06.28 00:19:55.
