data_PCOD8087159
_publ_section_title
;
Structure prediction by ZEFSAII (Michael W. Deem and Ramdas Pophale) SiO2 
 PCOD8087159
Probable space group: C 2/M
;
_chemical_formula_sum "Si O2"
_cell_formula_units_Z 52
_cell_length_a 21.959149
_cell_length_b 14.377126
_cell_length_c 8.755175
_cell_angle_alpha 90.000000
_cell_angle_beta 89.330539
_cell_angle_gamma 90.000000
_cell_volume 2763.902823
_symmetry_space_group_name_H-M "C 2/M"
_symmetry_group_IT_number 12
_symmetry_cell_setting 'monoclinic'
loop_
_space_group_symop_operation_xyz
x,y,z
-x,y,-z
-x,-y,-z
x,-y,z
1/2+x,1/2+y,z
1/2-x,1/2+y,-z
1/2-x,1/2-y,-z
1/2+x,1/2-y,z
loop_
_atom_site_type_symbol
_atom_site_label
_atom_site_fract_x
_atom_site_fract_y
_atom_site_fract_z
Si Si1 0.189896 0.896602 0.531308
Si Si2 0.649039 0.724636 0.016709
Si Si3 0.267385 0.109155 0.017979
Si Si4 0.893916 0.244411 0.307362
Si Si5 0.500000 0.326158 0.500000
Si Si6 0.598050 0.398153 0.271107
Si Si7 0.304932 0.105598 0.361189
O O1 0.155150 0.834524 0.652571
O O2 0.159135 0.897191 0.366677
O O3 0.258658 0.861313 0.496273
O O4 0.191044 0.000000 0.601248
O O5 0.700489 0.647142 0.974917
O O6 0.604034 0.685424 0.149278
O O7 0.681379 0.823346 0.062144
O O8 0.603105 0.742482 0.876143
O O9 0.273922 0.122148 0.198467
O O10 0.275049 0.000000 0.968534
O O11 0.867987 0.340303 0.373895
O O12 0.958808 0.234695 0.386757
O O13 0.541270 0.387874 0.387788
O O14 0.591237 0.500000 0.191261
O O15 0.322760 0.000000 0.385401
#
# Coordination Sequence:
#
# PCOD8087159 Si02
#       7
#     8   8   8   8   4   8   8
#     4   9  17  30  51  77 107 138 165 206 268 326
#     4  10  19  31  55  82 105 139 174 213 263 314
#     4   9  17  31  51  82 117 137 161 208 269 329
#     4  10  21  34  51  75 107 138 177 221 255 305
#     4  10  23  40  53  70 104 148 183 220 261 294
#     4  10  19  35  57  78 105 140 178 215 260 315
#     4   9  16  31  55  79 102 138 174 208 263 320
#
# _framework density 18.813976
#
# number of rings (size 3 to 8) (size 9 to 14) (size 15 to 20)
#    0.000    2.462    1.538    1.154    0.000    2.462 
#    0.000    1.154    0.000    0.923    0.000    4.308 
#    0.000    0.000    0.000    0.000    0.000    0.000 
#
# Total GULP energy -322178.726964 kJ/mol
# GULP energy per Si atom -12391.489499 kJ/mol
# Density = 1.877115 g / cm^3
# Si number density = 18.813976 Si / 1000 Ang^3
#
#
#
# Elastic Constant Matrix: (Units=GPa)
#
#
# Indices 1 2 3 4 5 6 
#
# 1 70.9550 42.5088 34.0374 0.0000 -1.6277 0.0000
# 2 42.5088 102.2309 22.1593 0.0000 -9.1098 0.0000
# 3 34.0374 22.1593 50.3810 0.0000 -6.0489 0.0000
# 4 0.0000 0.0000 0.0000 11.0433 0.0000 9.3444
# 5 -1.6277 -9.1098 -6.0489 0.0000 34.5486 0.0000
# 6 0.0000 0.0000 0.0000 9.3444 0.0000 3.8240
#
#
#
# Elastic Compliance Matrix: (Units=1/GPa)
#
#
# Indices 1 2 3 4 5 6 
#
# 1 0.025520 -0.007832 -0.014198 0.000000 -0.003349 0.000000
# 2 -0.007832 0.013362 -0.000211 0.000000 0.003117 0.000000
# 3 -0.014198 -0.000211 0.030079 0.000000 0.004542 0.000000
# 4 0.000000 0.000000 0.000000 -0.084811 0.000000 0.207247
# 5 -0.003349 0.003117 0.004542 0.000000 0.030404 0.000000
# 6 0.000000 0.000000 0.000000 0.207247 0.000000 -0.244928
#
#
# Mechanical properties :
#
#
# Convention : Reuss Voigt Hill
#
# Bulk Modulus (GPa) = 40.85402 46.77531 43.81467
# Shear Modulus (GPa) = -28.13260 18.20727 -4.96266
#
# Velocity S-wave (km/s) = -3.87111 3.11425 -1.62588
# Velocity P-wave (km/s) = 1.33462 6.15202 4.45132
#
# Compressibility (1/GPa) = 0.02447739
#
# Stress axis : x y z
#
# Youngs Moduli (GPa) = 39.18497 74.83838 33.24524
#
# Poissons Ratio (x) = 0.58616 0.47203
# Poissons Ratio (y) = 0.30691 0.00703
# Poissons Ratio (z) = 0.55637 0.01582
#
# Static dielectric constant tensor:
#      x y z
#    x 3.338550 0.000000 -0.019350 
#    y 0.000000 3.632340 0.000000 
#    z -0.019350 0.000000 3.263970 
# 
# 
# High freq. dielectric constant tensor:
#      x y z
#    x 1.707240 0.000000 -0.003270 
#    y 0.000000 1.731290 0.000000 
#    z -0.003270 0.000000 1.716640 
# 
# From -- ./inp_files/95791.got.cif
#   From: 2010.06.25/outbox.cif.g09.slc.cpg/sg12_48_cif.got.tgz:95791.got - 2010.06.28 00:19:55.
