data_PCOD8087702
_publ_section_title
;
Structure prediction by ZEFSAII (Michael W. Deem and Ramdas Pophale) SiO2 
 PCOD8087702
Probable space group: C 2/M
;
_chemical_formula_sum "Si O2"
_cell_formula_units_Z 56
_cell_length_a 18.265655
_cell_length_b 9.113002
_cell_length_c 22.729337
_cell_angle_alpha 90.000000
_cell_angle_beta 127.244750
_cell_angle_gamma 90.000000
_cell_volume 3011.812293
_symmetry_space_group_name_H-M "C 2/M"
_symmetry_group_IT_number 12
_symmetry_cell_setting 'monoclinic'
loop_
_space_group_symop_operation_xyz
x,y,z
-x,y,-z
-x,-y,-z
x,-y,z
1/2+x,1/2+y,z
1/2-x,1/2+y,-z
1/2-x,1/2-y,-z
1/2+x,1/2-y,z
loop_
_atom_site_type_symbol
_atom_site_label
_atom_site_fract_x
_atom_site_fract_y
_atom_site_fract_z
Si Si1 0.513405 0.830771 0.072244
Si Si2 0.621839 0.335222 0.216285
Si Si3 0.274604 0.170644 0.639188
Si Si4 0.055697 0.327778 0.360056
Si Si5 0.445826 0.333604 0.213774
Si Si6 0.838149 0.329460 0.068093
Si Si7 0.919656 0.831408 0.507421
O O1 0.597621 0.744750 0.143438
O O2 0.419258 0.806362 0.061092
O O3 0.542537 0.000000 0.085209
O O4 0.500000 0.769053 0.000000
O O5 0.652716 0.500000 0.216868
O O6 0.705230 0.255201 0.290273
O O7 0.533506 0.330620 0.214611
O O8 0.348261 0.211382 0.624798
O O9 0.175253 0.220089 0.568226
O O10 0.278223 0.000000 0.656353
O O11 0.035805 0.500000 0.348752
O O12 0.060028 0.273342 0.428458
O O13 0.971213 0.245912 0.287057
O O14 0.413869 0.500000 0.211053
O O15 0.363557 0.245009 0.142669
O O16 0.817277 0.500000 0.068850
O O17 0.750000 0.250000 0.000000
O O18 0.000000 0.810436 0.500000
O O19 0.912514 0.000000 0.525424
#
# Coordination Sequence:
#
# PCOD8087702 Si02
#       7
#     8   8   8   8   8   8   8
#     4   9  18  33  52  73  99 133 169 203 243 293
#     4   9  17  29  49  76 101 126 160 206 253 291
#     4   9  18  33  53  75  98 127 165 206 246 292
#     4  10  19  32  53  78 100 125 162 208 252 293
#     4   9  17  31  51  74 100 129 164 206 249 293
#     4  10  19  32  51  75 103 133 167 206 248 295
#     4  10  21  36  52  72 101 136 168 199 242 296
#
# _framework density 18.593456
#
# number of rings (size 3 to 8) (size 9 to 14) (size 15 to 20)
#    0.000    2.571    0.000    2.143    0.000    5.714 
#    0.000    1.429    0.000    3.429    0.000    0.000 
#    0.000    0.000    0.000    0.000    0.000    0.000 
#
# Total GULP energy -347255.671076 kJ/mol
# GULP energy per Si atom -12401.988253 kJ/mol
# Density = 1.855114 g / cm^3
# Si number density = 18.593456 Si / 1000 Ang^3
#
#
#
# Elastic Constant Matrix: (Units=GPa)
#
#
# Indices 1 2 3 4 5 6 
#
# 1 36.4104 33.4119 43.8777 0.0000 4.0834 0.0000
# 2 33.4119 123.0522 91.8673 0.0000 3.3221 0.0000
# 3 43.8777 91.8673 188.6665 0.0000 5.1642 0.0000
# 4 0.0000 0.0000 0.0000 38.8752 0.0000 0.0147
# 5 4.0834 3.3221 5.1642 0.0000 27.1000 0.0000
# 6 0.0000 0.0000 0.0000 0.0147 0.0000 18.9495
#
#
#
# Elastic Compliance Matrix: (Units=1/GPa)
#
#
# Indices 1 2 3 4 5 6 
#
# 1 0.041544 -0.006346 -0.006455 0.000000 -0.004252 0.000000
# 2 -0.006346 0.013742 -0.005223 0.000000 0.000267 0.000000
# 3 -0.006455 -0.005223 0.009349 0.000000 -0.000169 0.000000
# 4 0.000000 0.000000 0.000000 0.025723 0.000000 -0.000020
# 5 -0.004252 0.000267 -0.000169 0.000000 0.037540 0.000000
# 6 0.000000 0.000000 0.000000 -0.000020 0.000000 0.052772
#
#
# Mechanical properties :
#
#
# Convention : Reuss Voigt Hill
#
# Bulk Modulus (GPa) = 34.98093 76.27143 55.62618
# Shear Modulus (GPa) = 22.09963 28.91642 25.50802
#
# Velocity S-wave (km/s) = 3.45130 3.94787 3.70791
# Velocity P-wave (km/s) = 5.89376 7.86706 6.95079
#
# Compressibility (1/GPa) = 0.02858700
#
# Stress axis : x y z
#
# Youngs Moduli (GPa) = 24.07066 72.77151 106.95984
#
# Poissons Ratio (x) = 0.46183 0.69046
# Poissons Ratio (y) = 0.15276 0.55861
# Poissons Ratio (z) = 0.15538 0.38006
#
# Static dielectric constant tensor:
#      x y z
#    x 3.100220 0.000000 0.037450 
#    y 0.000000 3.526220 0.000000 
#    z 0.037450 0.000000 3.652880 
# 
# 
# High freq. dielectric constant tensor:
#      x y z
#    x 1.680610 0.000000 0.004320 
#    y 0.000000 1.728620 0.000000 
#    z 0.004320 0.000000 1.738660 
# 
# From -- ./inp_files/320218.got.cif
#   From: 2010.06.25/outbox.cif.g09.slc.cpg/sg12_161_cif.got.tgz:320218.got - 2010.06.28 00:19:55.
