data_PCOD8087869
_publ_section_title
;
Structure prediction by ZEFSAII (Michael W. Deem and Ramdas Pophale) SiO2 
 PCOD8087869
Probable space group: C 2/M
;
_chemical_formula_sum "Si O2"
_cell_formula_units_Z 56
_cell_length_a 20.618398
_cell_length_b 8.772080
_cell_length_c 19.728838
_cell_angle_alpha 90.000000
_cell_angle_beta 121.811139
_cell_angle_gamma 90.000000
_cell_volume 3032.290064
_symmetry_space_group_name_H-M "C 2/M"
_symmetry_group_IT_number 12
_symmetry_cell_setting 'monoclinic'
loop_
_space_group_symop_operation_xyz
x,y,z
-x,y,-z
-x,-y,-z
x,-y,z
1/2+x,1/2+y,z
1/2-x,1/2+y,-z
1/2-x,1/2-y,-z
1/2+x,1/2-y,z
loop_
_atom_site_type_symbol
_atom_site_label
_atom_site_fract_x
_atom_site_fract_y
_atom_site_fract_z
Si Si1 0.592933 0.324375 0.331048
Si Si2 0.283587 0.180684 0.820924
Si Si3 0.684049 0.322763 0.507213
Si Si4 0.535542 0.819843 0.819482
Si Si5 0.745024 0.680075 0.334563
Si Si6 0.708955 0.818788 0.912165
Si Si7 0.042463 0.681096 0.088750
O O1 0.578860 0.500000 0.306836
O O2 0.607683 0.300040 0.419915
O O3 0.515958 0.233596 0.271856
O O4 0.665052 0.267790 0.325304
O O5 0.242528 0.238166 0.730367
O O6 0.248365 0.261441 0.866170
O O7 0.370727 0.235273 0.864581
O O8 0.275154 0.000000 0.823639
O O9 0.700799 0.500000 0.528749
O O10 0.750000 0.250000 0.500000
O O11 0.683843 0.236073 0.579310
O O12 0.621758 0.759740 0.861313
O O13 0.498743 0.751527 0.867704
O O14 0.534938 0.000000 0.820682
O O15 0.749427 0.500000 0.327766
O O16 0.713280 0.000000 0.919265
O O17 0.750000 0.750000 0.000000
O O18 0.037126 0.500000 0.085814
O O19 0.000000 0.749533 0.000000
#
# Coordination Sequence:
#
# PCOD8087869 Si02
#       7
#     8   8   8   8   8   8   8
#     4   9  18  31  50  79 114 144 176 225 275 321
#     4  11  21  35  58  82 110 146 182 227 278 328
#     4   9  17  29  47  76 112 148 182 220 272 327
#     4  10  20  35  56  79 106 144 185 226 270 327
#     4  10  19  32  51  80 115 147 182 225 272 325
#     4  11  24  41  59  80 109 146 188 230 275 330
#     4   9  17  31  52  78 104 133 175 223 270 322
#
# _framework density 18.467891000000002
#
# number of rings (size 3 to 8) (size 9 to 14) (size 15 to 20)
#    0.000    2.143    1.429    3.429    0.000    6.286 
#    0.000    0.000    0.000    3.000    0.000    6.000 
#    0.000    0.000    0.000    0.000    0.000    0.000 
#
# Total GULP energy -347135.683990 kJ/mol
# GULP energy per Si atom -12397.703000 kJ/mol
# Density = 1.842586 g / cm^3
# Si number density = 18.467891 Si / 1000 Ang^3
#
#
#
# Elastic Constant Matrix: (Units=GPa)
#
#
# Indices 1 2 3 4 5 6 
#
# 1 96.4383 32.9495 54.5692 0.0000 -3.0492 0.0000
# 2 32.9495 50.7490 36.9611 0.0000 3.6673 0.0000
# 3 54.5692 36.9611 157.5965 0.0000 -3.8395 0.0000
# 4 0.0000 0.0000 0.0000 35.0744 0.0000 -1.9441
# 5 -3.0492 3.6673 -3.8395 0.0000 27.0039 0.0000
# 6 0.0000 0.0000 0.0000 -1.9441 0.0000 23.3769
#
#
#
# Elastic Compliance Matrix: (Units=1/GPa)
#
#
# Indices 1 2 3 4 5 6 
#
# 1 0.014855 -0.007352 -0.003366 0.000000 0.002197 0.000000
# 2 -0.007352 0.027849 -0.004112 0.000000 -0.005197 0.000000
# 3 -0.003366 -0.004112 0.008509 0.000000 0.001388 0.000000
# 4 0.000000 0.000000 0.000000 0.028643 0.000000 0.002382
# 5 0.002197 -0.005197 0.001388 0.000000 0.038183 0.000000
# 6 0.000000 0.000000 0.000000 0.002382 0.000000 0.042975
#
#
# Mechanical properties :
#
#
# Convention : Reuss Voigt Hill
#
# Bulk Modulus (GPa) = 46.39856 61.52703 53.96279
# Shear Modulus (GPa) = 25.27038 29.11130 27.19084
#
# Velocity S-wave (km/s) = 3.70312 3.97460 3.84126
# Velocity P-wave (km/s) = 6.59262 7.37911 6.99692
#
# Compressibility (1/GPa) = 0.02155239
#
# Stress axis : x y z
#
# Youngs Moduli (GPa) = 67.31531 35.90788 117.52184
#
# Poissons Ratio (x) = 0.26401 0.39557
# Poissons Ratio (y) = 0.49493 0.48327
# Poissons Ratio (z) = 0.22658 0.14766
#
# Static dielectric constant tensor:
#      x y z
#    x 3.185100 0.000000 0.230620 
#    y 0.000000 3.362130 0.000000 
#    z 0.230620 0.000000 3.020270 
# 
# 
# High freq. dielectric constant tensor:
#      x y z
#    x 1.679580 0.000000 -0.000210 
#    y 0.000000 1.709910 0.000000 
#    z -0.000210 0.000000 1.739230 
# 
# From -- ./inp_files/281602.got.cif
#   From: 2010.06.25/outbox.cif.g09.slc.cpg/sg12_141_cif.got.tgz:281602.got - 2010.06.28 00:19:55.
