data_PCOD8087316
_publ_section_title
;
Structure prediction by ZEFSAII (Michael W. Deem and Ramdas Pophale) SiO2 
 PCOD8087316
Probable space group: C 2/M
;
_chemical_formula_sum "Si O2"
_cell_formula_units_Z 40
_cell_length_a 15.642178
_cell_length_b 14.370966
_cell_length_c 15.540749
_cell_angle_alpha 90.000000
_cell_angle_beta 141.223577
_cell_angle_gamma 90.000000
_cell_volume 2187.891591
_symmetry_space_group_name_H-M "C 2/M"
_symmetry_group_IT_number 12
_symmetry_cell_setting 'monoclinic'
loop_
_space_group_symop_operation_xyz
x,y,z
-x,y,-z
-x,-y,-z
x,-y,z
1/2+x,1/2+y,z
1/2-x,1/2+y,-z
1/2-x,1/2-y,-z
1/2+x,1/2-y,z
loop_
_atom_site_type_symbol
_atom_site_label
_atom_site_fract_x
_atom_site_fract_y
_atom_site_fract_z
Si Si1 0.333809 0.257494 0.950191
Si Si2 0.301979 0.602993 0.065854
Si Si3 0.364560 0.609717 0.445131
Si Si4 0.644254 0.253320 0.225292
Si Si5 0.117794 0.897717 0.343764
O O1 0.250475 0.160737 0.892693
O O2 0.329915 0.294099 0.849712
O O3 0.261829 0.339271 0.948661
O O4 0.483408 0.232768 0.105397
O O5 0.234639 0.500000 0.011154
O O6 0.462600 0.592050 0.194655
O O7 0.500000 0.642738 0.500000
O O8 0.344399 0.500000 0.417489
O O9 0.230281 0.659219 0.302815
O O10 0.376045 0.639040 0.553906
O O11 0.691615 0.327271 0.335364
O O12 0.187535 0.000000 0.391268
#
# Coordination Sequence:
#
# PCOD8087316 Si02
#       5
#     8   8   8   8   8
#     4   9  19  31  47  74  97 123 160 187 230 289
#     4   9  17  32  51  70  97 126 154 193 232 274
#     4  10  20  33  50  71  93 123 162 196 232 279
#     4  10  19  32  49  70  99 125 152 197 237 273
#     4   9  18  32  51  72  93 123 160 194 232 277
#
# _framework density 18.282440000000001
#
# number of rings (size 3 to 8) (size 9 to 14) (size 15 to 20)
#    0.000    2.600    0.000    1.800    0.000    4.000 
#    0.000    6.000    0.000    0.600    0.000    0.000 
#    0.000    0.000    0.000    0.000    0.000    0.000 
#
# Total GULP energy -247903.484196 kJ/mol
# GULP energy per Si atom -12395.174210 kJ/mol
# Density = 1.824083 g / cm^3
# Si number density = 18.282440 Si / 1000 Ang^3
#
#
#
# Elastic Constant Matrix: (Units=GPa)
#
#
# Indices 1 2 3 4 5 6 
#
# 1 97.3270 45.7358 27.2513 0.0000 -22.1511 0.0000
# 2 45.7358 97.6591 30.6214 0.0000 -7.7279 0.0000
# 3 27.2513 30.6214 51.8200 0.0001 -19.0049 0.0001
# 4 0.0000 0.0000 0.0001 23.6732 0.0001 2.1706
# 5 -22.1511 -7.7279 -19.0049 0.0001 28.0830 0.0000
# 6 0.0000 0.0000 0.0001 2.1706 0.0000 25.2495
#
#
#
# Elastic Compliance Matrix: (Units=1/GPa)
#
#
# Indices 1 2 3 4 5 6 
#
# 1 0.015794 -0.006329 -0.000846 0.000000 0.010144 0.000000
# 2 -0.006329 0.015197 -0.007913 0.000000 -0.006165 0.000000
# 3 -0.000846 -0.007913 0.031092 0.000000 0.018196 0.000000
# 4 0.000000 0.000000 0.000000 0.042577 0.000000 -0.003660
# 5 0.010144 -0.006165 0.018196 0.000000 0.054228 0.000000
# 6 0.000000 0.000000 0.000000 -0.003660 0.000000 0.039919
#
#
# Mechanical properties :
#
#
# Convention : Reuss Voigt Hill
#
# Bulk Modulus (GPa) = 31.34031 50.44701 40.89366
# Shear Modulus (GPa) = 20.86649 24.94765 22.90707
#
# Velocity S-wave (km/s) = 3.38204 3.69801 3.54355
# Velocity P-wave (km/s) = 5.69477 6.77398 6.25768
#
# Compressibility (1/GPa) = 0.03190779
#
# Stress axis : x y z
#
# Youngs Moduli (GPa) = 63.31419 65.80284 32.16286
#
# Poissons Ratio (x) = 0.41646 0.02720
# Poissons Ratio (y) = 0.40071 0.25450
# Poissons Ratio (z) = 0.05355 0.52069
#
# Static dielectric constant tensor:
#      x y z
#    x 3.467770 0.000000 -0.185980 
#    y 0.000000 3.647340 0.000000 
#    z -0.185980 0.000000 3.186650 
# 
# 
# High freq. dielectric constant tensor:
#      x y z
#    x 1.711200 0.000000 -0.018550 
#    y 0.000000 1.702740 0.000000 
#    z -0.018550 0.000000 1.689870 
# 
# From -- ./inp_files/58960.got.cif
#   From: 2010.06.25/outbox.cif.g09.slc.cpg/sg12_30_cif.got.tgz:58960.got - 2010.06.28 00:19:55.
