data_PCOD8087101
_publ_section_title
;
Structure prediction by ZEFSAII (Michael W. Deem and Ramdas Pophale) SiO2 
 PCOD8087101
Probable space group: C 2/M
;
_chemical_formula_sum "Si O2"
_cell_formula_units_Z 48
_cell_length_a 23.326463
_cell_length_b 8.978840
_cell_length_c 12.392946
_cell_angle_alpha 90.000000
_cell_angle_beta 111.163342
_cell_angle_gamma 90.000000
_cell_volume 2420.572676
_symmetry_space_group_name_H-M "C 2/M"
_symmetry_group_IT_number 12
_symmetry_cell_setting 'monoclinic'
loop_
_space_group_symop_operation_xyz
x,y,z
-x,y,-z
-x,-y,-z
x,-y,z
1/2+x,1/2+y,z
1/2-x,1/2+y,-z
1/2-x,1/2-y,-z
1/2+x,1/2-y,z
loop_
_atom_site_type_symbol
_atom_site_label
_atom_site_fract_x
_atom_site_fract_y
_atom_site_fract_z
Si Si1 0.160101 0.827774 0.423864
Si Si2 0.750120 0.675291 0.667013
Si Si3 0.965007 0.170719 0.747154
Si Si4 0.091507 0.675574 0.854485
Si Si5 0.787027 0.823135 0.122334
Si Si6 0.069799 0.661246 0.076521
O O1 0.187489 0.741296 0.339396
O O2 0.191356 0.770169 0.555863
O O3 0.086063 0.803751 0.381307
O O4 0.175229 0.000000 0.414720
O O5 0.754560 0.500000 0.665489
O O6 0.743711 0.727867 0.786074
O O7 0.927488 0.212914 0.830564
O O8 0.024473 0.271931 0.767328
O O9 0.986458 0.000000 0.769401
O O10 0.096724 0.500000 0.836818
O O11 0.143228 0.764175 0.824858
O O12 0.102961 0.713864 0.988849
O O13 0.786865 0.000000 0.108253
O O14 0.750000 0.750000 0.000000
O O15 0.097480 0.500000 0.133785
O O16 0.000000 0.631183 0.000000
#
# Coordination Sequence:
#
# PCOD8087101 Si02
#       6
#     8   8   8   8   8   8
#     4   9  19  36  59  86 113 143 184 232 278 327
#     4   9  20  39  59  81 111 148 188 228 276 332
#     4  10  19  31  53  84 112 141 180 230 281 328
#     4  10  21  37  54  77 111 150 187 227 274 331
#     4  11  24  40  59  82 111 150 189 229 278 335
#     4   8  16  30  47  70 104 143 179 218 265 319
#
# _framework density 19.830019
#
# number of rings (size 3 to 8) (size 9 to 14) (size 15 to 20)
#    0.000    2.500    0.000    2.500    2.333    6.333 
#    0.000    0.833    0.000    5.000    0.000    0.000 
#    0.000    0.000    0.000    0.000    0.000    0.000 
#
# Total GULP energy -297466.007444 kJ/mol
# GULP energy per Si atom -12394.416977 kJ/mol
# Density = 1.978488 g / cm^3
# Si number density = 19.830019 Si / 1000 Ang^3
#
#
#
# Elastic Constant Matrix: (Units=GPa)
#
#
# Indices 1 2 3 4 5 6 
#
# 1 89.8282 33.8863 51.7484 0.0000 5.1270 0.0000
# 2 33.8863 65.7295 34.9007 0.0000 -3.3087 0.0000
# 3 51.7484 34.9007 95.0643 0.0000 -0.2614 0.0000
# 4 0.0000 0.0000 0.0000 25.8799 0.0000 -1.4215
# 5 5.1270 -3.3087 -0.2614 0.0000 29.5354 0.0000
# 6 0.0000 0.0000 0.0000 -1.4215 0.0000 39.0751
#
#
#
# Elastic Compliance Matrix: (Units=1/GPa)
#
#
# Indices 1 2 3 4 5 6 
#
# 1 0.017803 -0.005236 -0.007779 0.000000 -0.003746 0.000000
# 2 -0.005236 0.020563 -0.004690 0.000000 0.003171 0.000000
# 3 -0.007779 -0.004690 0.016478 0.000000 0.000971 0.000000
# 4 0.000000 0.000000 0.000000 0.038717 0.000000 0.001408
# 5 -0.003746 0.003171 0.000971 0.000000 0.034872 0.000000
# 6 0.000000 0.000000 0.000000 0.001408 0.000000 0.025643
#
#
# Mechanical properties :
#
#
# Convention : Reuss Voigt Hill
#
# Bulk Modulus (GPa) = 51.45739 54.63253 53.04496
# Shear Modulus (GPa) = 25.51473 27.57052 26.54262
#
# Velocity S-wave (km/s) = 3.59091 3.73277 3.66253
# Velocity P-wave (km/s) = 6.57255 6.79620 6.68531
#
# Compressibility (1/GPa) = 0.01943355
#
# Stress axis : x y z
#
# Youngs Moduli (GPa) = 56.17120 48.62999 60.68597
#
# Poissons Ratio (x) = 0.25464 0.47207
# Poissons Ratio (y) = 0.29412 0.28464
# Poissons Ratio (z) = 0.43695 0.22809
#
# Static dielectric constant tensor:
#      x y z
#    x 3.639170 0.000000 -0.034770 
#    y 0.000000 3.565990 0.000000 
#    z -0.034770 0.000000 3.892610 
# 
# 
# High freq. dielectric constant tensor:
#      x y z
#    x 1.767660 0.000000 0.017980 
#    y 0.000000 1.773010 0.000000 
#    z 0.017980 0.000000 1.760440 
# 
# From -- ./inp_files/173067.got.cif
#   From: 2010.06.25/outbox.cif.g09.slc.cpg/sg12_87_cif.got.tgz:173067.got - 2010.06.28 00:19:55.
