data_PCOD8087290
_publ_section_title
;
Structure prediction by ZEFSAII (Michael W. Deem and Ramdas Pophale) SiO2 
 PCOD8087290
Probable space group: C 2/M
;
_chemical_formula_sum "Si O2"
_cell_formula_units_Z 56
_cell_length_a 19.129523
_cell_length_b 9.573270
_cell_length_c 24.702548
_cell_angle_alpha 90.000000
_cell_angle_beta 136.232090
_cell_angle_gamma 90.000000
_cell_volume 3129.308301
_symmetry_space_group_name_H-M "C 2/M"
_symmetry_group_IT_number 12
_symmetry_cell_setting 'monoclinic'
loop_
_space_group_symop_operation_xyz
x,y,z
-x,y,-z
-x,-y,-z
x,-y,z
1/2+x,1/2+y,z
1/2-x,1/2+y,-z
1/2-x,1/2-y,-z
1/2+x,1/2-y,z
loop_
_atom_site_type_symbol
_atom_site_label
_atom_site_fract_x
_atom_site_fract_y
_atom_site_fract_z
Si Si1 0.349710 0.842073 0.563251
Si Si2 0.463743 0.834404 0.260309
Si Si3 0.739949 0.339263 0.672380
Si Si4 0.707224 0.661595 0.775677
Si Si5 0.938358 0.666229 0.915137
Si Si6 0.036605 0.334809 0.187812
Si Si7 0.099367 0.657644 0.527555
O O1 0.250000 0.750000 0.500000
O O2 0.427748 0.789659 0.653202
O O3 0.414052 0.836102 0.544163
O O4 0.314096 0.000000 0.555963
O O5 0.370768 0.755071 0.234939
O O6 0.463227 0.790099 0.196128
O O7 0.448076 0.000000 0.259385
O O8 0.738750 0.500000 0.654080
O O9 0.684995 0.318972 0.699462
O O10 0.852063 0.277764 0.738115
O O11 0.691219 0.253536 0.596793
O O12 0.693082 0.500000 0.784453
O O13 0.821236 0.712804 0.852724
O O14 0.942143 0.500000 0.919212
O O15 0.992377 0.718707 0.889083
O O16 0.000000 0.731704 0.000000
O O17 0.043376 0.500000 0.189424
O O18 0.119288 0.500000 0.558977
O O19 0.000000 0.719535 0.500000
#
# Coordination Sequence:
#
# PCOD8087290 Si02
#       7
#     8   8   8   8   8   8   8
#     4  10  21  34  48  67  92 126 163 199 240 281
#     4  10  19  32  49  68  95 129 159 189 233 287
#     4   9  17  31  49  66  86 116 157 199 232 268
#     4   9  18  31  49  74  98 121 155 197 235 274
#     4   8  14  28  51  75  97 122 154 192 231 272
#     4   8  15  28  47  69  90 118 157 191 221 270
#     4  10  20  32  45  64  90 118 153 196 238 280
#
# _framework density 17.895327999999999
#
# number of rings (size 3 to 8) (size 9 to 14) (size 15 to 20)
#    0.000    2.857    0.000    3.429    0.000    4.286 
#    0.000    1.429    0.000    1.286    0.000    0.000 
#    0.000    0.000    0.000    0.000    0.000    0.000 
#
# Total GULP energy -346974.256566 kJ/mol
# GULP energy per Si atom -12391.937735 kJ/mol
# Density = 1.785460 g / cm^3
# Si number density = 17.895328 Si / 1000 Ang^3
#
#
#
# Elastic Constant Matrix: (Units=GPa)
#
#
# Indices 1 2 3 4 5 6 
#
# 1 99.6901 26.2877 29.9776 0.0000 -9.3022 0.0000
# 2 26.2877 37.3180 22.3294 0.0000 -0.7156 0.0000
# 3 29.9776 22.3294 89.4871 0.0000 -16.4054 0.0000
# 4 0.0000 0.0000 0.0000 14.2065 0.0000 1.0797
# 5 -9.3022 -0.7156 -16.4054 0.0000 25.8383 0.0000
# 6 0.0000 0.0000 0.0000 1.0797 0.0000 26.8443
#
#
#
# Elastic Compliance Matrix: (Units=1/GPa)
#
#
# Indices 1 2 3 4 5 6 
#
# 1 0.012986 -0.008051 -0.001726 0.000000 0.003356 0.000000
# 2 -0.008051 0.036994 -0.007784 0.000000 -0.006816 0.000000
# 3 -0.001726 -0.007784 0.015326 0.000000 0.008894 0.000000
# 4 0.000000 0.000000 0.000000 0.070606 0.000000 -0.002840
# 5 0.003356 -0.006816 0.008894 0.000000 0.045369 0.000000
# 6 0.000000 0.000000 0.000000 -0.002840 0.000000 0.037366
#
#
# Mechanical properties :
#
#
# Convention : Reuss Voigt Hill
#
# Bulk Modulus (GPa) = 33.12853 42.63161 37.88007
# Shear Modulus (GPa) = 18.95159 23.23786 21.09472
#
# Velocity S-wave (km/s) = 3.25780 3.60744 3.43707
# Velocity P-wave (km/s) = 5.71870 6.42075 6.07987
#
# Compressibility (1/GPa) = 0.03018546
#
# Stress axis : x y z
#
# Youngs Moduli (GPa) = 77.00464 27.03106 65.24960
#
# Poissons Ratio (x) = 0.21762 0.11263
# Poissons Ratio (y) = 0.61993 0.50789
# Poissons Ratio (z) = 0.13292 0.21040
#
# Static dielectric constant tensor:
#      x y z
#    x 3.527620 0.000000 -0.309150 
#    y 0.000000 2.962000 0.000000 
#    z -0.309150 0.000000 3.452440 
# 
# 
# High freq. dielectric constant tensor:
#      x y z
#    x 1.704240 0.000000 -0.015520 
#    y 0.000000 1.654400 0.000000 
#    z -0.015520 0.000000 1.679490 
# 
# From -- ./inp_files/280320.got.cif
#   From: 2010.06.25/outbox.cif.g09.slc.cpg/sg12_141_cif.got.tgz:280320.got - 2010.06.28 00:19:55.
