data_PCOD8087132
_publ_section_title
;
Structure prediction by ZEFSAII (Michael W. Deem and Ramdas Pophale) SiO2 
 PCOD8087132
Probable space group: C 2/M
;
_chemical_formula_sum "Si O2"
_cell_formula_units_Z 60
_cell_length_a 17.501409
_cell_length_b 21.562802
_cell_length_c 8.329151
_cell_angle_alpha 90.000000
_cell_angle_beta 90.494942
_cell_angle_gamma 90.000000
_cell_volume 3143.132872
_symmetry_space_group_name_H-M "C 2/M"
_symmetry_group_IT_number 12
_symmetry_cell_setting 'monoclinic'
loop_
_space_group_symop_operation_xyz
x,y,z
-x,y,-z
-x,-y,-z
x,-y,z
1/2+x,1/2+y,z
1/2-x,1/2+y,-z
1/2-x,1/2-y,-z
1/2+x,1/2-y,z
loop_
_atom_site_type_symbol
_atom_site_label
_atom_site_fract_x
_atom_site_fract_y
_atom_site_fract_z
Si Si1 0.317001 0.404668 0.682770
Si Si2 0.666247 0.069832 0.857110
Si Si3 0.986190 0.068799 0.683020
Si Si4 0.000000 0.852442 0.000000
Si Si5 0.152846 0.792486 0.120476
Si Si6 0.418881 0.927471 0.452946
Si Si7 0.787888 0.336384 0.900181
Si Si8 0.269657 0.070961 0.636609
O O1 0.254461 0.432474 0.802670
O O2 0.396150 0.439579 0.712071
O O3 0.331984 0.331500 0.716548
O O4 0.290609 0.417135 0.503301
O O5 0.612677 0.098083 0.716294
O O6 0.642368 0.000000 0.907959
O O7 0.656002 0.117420 0.001940
O O8 0.018996 0.108088 0.836448
O O9 0.000000 0.096826 0.500000
O O10 0.023705 0.000000 0.690394
O O11 0.071730 0.808248 0.038718
O O12 0.159025 0.719573 0.165026
O O13 0.218817 0.808623 0.997621
O O14 0.500000 0.895876 0.500000
O O15 0.356860 0.914549 0.588636
O O16 0.430217 0.000000 0.428600
O O17 0.747397 0.378449 0.766355
O O18 0.262151 0.000000 0.698308
#
# Coordination Sequence:
#
# PCOD8087132 Si02
#       8
#     8   8   8   4   8   8   8   8
#     4   9  18  34  54  76 108 142 174 216 264 328
#     4   9  16  30  53  77 105 139 170 213 272 326
#     4  10  20  33  55  87 115 140 180 225 278 334
#     4  10  21  40  58  74 113 156 180 224 282 326
#     4   9  21  39  55  71 102 148 186 213 263 321
#     4   8  15  30  49  70 103 139 166 202 264 328
#     4  10  20  35  54  79 103 137 182 225 256 315
#     4  10  19  31  54  84 109 131 169 224 273 314
#
# _framework density 19.089236
#
# number of rings (size 3 to 8) (size 9 to 14) (size 15 to 20)
#    0.000    2.667    0.000    2.600    1.867    0.533 
#    2.400    1.333    0.000    3.200    0.000    0.000 
#    0.000    0.000    0.000    0.000    0.000    0.000 
#
# Total GULP energy -371705.751814 kJ/mol
# GULP energy per Si atom -12390.191727 kJ/mol
# Density = 1.904579 g / cm^3
# Si number density = 19.089236 Si / 1000 Ang^3
#
#
#
# Elastic Constant Matrix: (Units=GPa)
#
#
# Indices 1 2 3 4 5 6 
#
# 1 58.6700 11.6219 -4.3368 0.0000 22.0911 0.0000
# 2 11.6219 123.3283 43.7225 0.0000 6.2888 0.0000
# 3 -4.3368 43.7225 64.8666 0.0000 3.4319 0.0000
# 4 0.0000 0.0000 0.0000 19.2967 0.0000 -4.7814
# 5 22.0911 6.2888 3.4319 0.0000 19.6876 0.0000
# 6 0.0000 0.0000 0.0000 -4.7814 0.0000 13.3166
#
#
#
# Elastic Compliance Matrix: (Units=1/GPa)
#
#
# Indices 1 2 3 4 5 6 
#
# 1 0.031481 -0.003382 0.006254 0.000000 -0.035334 0.000000
# 2 -0.003382 0.011111 -0.007800 0.000000 0.001605 0.000000
# 3 0.006254 -0.007800 0.021530 0.000000 -0.008279 0.000000
# 4 0.000000 0.000000 0.000000 0.056883 0.000000 0.020424
# 5 -0.035334 0.001605 -0.008279 0.000000 0.091371 0.000000
# 6 0.000000 0.000000 0.000000 0.020424 0.000000 0.082428
#
#
# Mechanical properties :
#
#
# Convention : Reuss Voigt Hill
#
# Bulk Modulus (GPa) = 18.42803 38.76444 28.59624
# Shear Modulus (GPa) = 15.49193 23.51734 19.50464
#
# Velocity S-wave (km/s) = 2.85187 3.51375 3.19997
# Velocity P-wave (km/s) = 4.52977 6.06737 5.35405
#
# Compressibility (1/GPa) = 0.05426515
#
# Stress axis : x y z
#
# Youngs Moduli (GPa) = 31.76513 90.00482 46.44715
#
# Poissons Ratio (x) = 0.30439 -0.29047
# Poissons Ratio (y) = 0.10743 0.36229
# Poissons Ratio (z) = -0.19865 0.70203
#
# Static dielectric constant tensor:
#      x y z
#    x 3.531900 0.000000 0.141920 
#    y 0.000000 3.568420 0.000000 
#    z 0.141920 0.000000 3.642280 
# 
# 
# High freq. dielectric constant tensor:
#      x y z
#    x 1.731740 0.000000 0.012580 
#    y 0.000000 1.727080 0.000000 
#    z 0.012580 0.000000 1.737430 
# 
# From -- ./inp_files/77550.got.cif
#   From: 2010.06.25/outbox.cif.g09.slc.cpg/sg12_39_cif.got.tgz:77550.got - 2010.06.28 00:19:55.
