data_PCOD8087719
_publ_section_title
;
Structure prediction by ZEFSAII (Michael W. Deem and Ramdas Pophale) SiO2 
 PCOD8087719
Probable space group: C 2/M
;
_chemical_formula_sum "Si O2"
_cell_formula_units_Z 48
_cell_length_a 23.177433
_cell_length_b 8.945938
_cell_length_c 26.349929
_cell_angle_alpha 90.000000
_cell_angle_beta 151.127902
_cell_angle_gamma 90.000000
_cell_volume 2638.082006
_symmetry_space_group_name_H-M "C 2/M"
_symmetry_group_IT_number 12
_symmetry_cell_setting 'monoclinic'
loop_
_space_group_symop_operation_xyz
x,y,z
-x,y,-z
-x,-y,-z
x,-y,z
1/2+x,1/2+y,z
1/2-x,1/2+y,-z
1/2-x,1/2-y,-z
1/2+x,1/2-y,z
loop_
_atom_site_type_symbol
_atom_site_label
_atom_site_fract_x
_atom_site_fract_y
_atom_site_fract_z
Si Si1 0.565218 0.177968 0.999591
Si Si2 0.061642 0.676318 0.200111
Si Si3 0.431641 0.827469 0.623540
Si Si4 0.198403 0.827350 0.383709
Si Si5 0.363986 0.664534 0.105275
Si Si6 0.666183 0.664591 0.800420
O O1 0.701975 0.238694 0.106021
O O2 0.571140 0.000000 0.000333
O O3 0.500000 0.234154 0.000000
O O4 0.487211 0.238175 0.891630
O O5 0.077454 0.500000 0.209952
O O6 0.183559 0.750267 0.316164
O O7 0.971702 0.727023 0.174622
O O8 0.335979 0.805667 0.504865
O O9 0.388203 0.740349 0.639892
O O10 0.557823 0.768672 0.697405
O O11 0.445337 0.000000 0.649342
O O12 0.161502 0.000000 0.350664
O O13 0.374542 0.500000 0.087525
O O14 0.356424 0.641934 0.158469
O O15 0.250000 0.750000 0.000000
O O16 0.661016 0.500000 0.769920
#
# Coordination Sequence:
#
# PCOD8087719 Si02
#       6
#     8   8   8   8   8   8
#     4   9  19  36  55  75 100 131 170 217 261 298
#     4  11  20  32  52  77 103 135 172 207 255 310
#     4  10  20  32  49  74 106 141 173 205 247 303
#     4  10  20  33  48  73 108 141 171 206 250 300
#     4  11  20  30  46  74 107 137 166 203 254 308
#     4  10  19  32  51  75 104 136 169 207 255 305
#
# _framework density 18.195036999999999
#
# number of rings (size 3 to 8) (size 9 to 14) (size 15 to 20)
#    0.000    1.833    3.333    2.000    0.000    2.667 
#    0.000    0.000    0.000    5.500    0.000    7.000 
#    0.000    0.000    0.000    0.000    0.000    0.000 
#
# Total GULP energy -297363.174821 kJ/mol
# GULP energy per Si atom -12390.132284 kJ/mol
# Density = 1.815362 g / cm^3
# Si number density = 18.195037 Si / 1000 Ang^3
#
#
#
# Elastic Constant Matrix: (Units=GPa)
#
#
# Indices 1 2 3 4 5 6 
#
# 1 77.1222 24.2919 50.2883 0.0000 2.0051 0.0000
# 2 24.2919 81.5488 57.8847 0.0001 -1.8064 0.0001
# 3 50.2883 57.8847 147.8889 0.0006 2.4406 0.0001
# 4 0.0000 0.0001 0.0006 28.6776 0.0000 0.1340
# 5 2.0051 -1.8064 2.4406 0.0000 13.4050 0.0000
# 6 0.0000 0.0001 0.0001 0.1340 0.0000 13.7808
#
#
#
# Elastic Compliance Matrix: (Units=1/GPa)
#
#
# Indices 1 2 3 4 5 6 
#
# 1 0.016802 -0.001398 -0.005137 0.000000 -0.001766 0.000000
# 2 -0.001398 0.017263 -0.006342 0.000000 0.003690 0.000000
# 3 -0.005137 -0.006342 0.011026 0.000000 -0.002094 0.000000
# 4 0.000000 0.000000 0.000000 0.034872 0.000000 -0.000339
# 5 -0.001766 0.003690 -0.002094 0.000000 0.075741 0.000000
# 6 0.000000 0.000000 0.000000 -0.000339 0.000000 0.072568
#
#
# Mechanical properties :
#
#
# Convention : Reuss Voigt Hill
#
# Bulk Modulus (GPa) = 51.71686 63.49886 57.60786
# Shear Modulus (GPa) = 19.19590 22.77900 20.98745
#
# Velocity S-wave (km/s) = 3.25161 3.54211 3.39996
# Velocity P-wave (km/s) = 6.52554 7.19051 6.86608
#
# Compressibility (1/GPa) = 0.01933605
#
# Stress axis : x y z
#
# Youngs Moduli (GPa) = 59.51520 57.92882 90.69727
#
# Poissons Ratio (x) = 0.08097 0.46594
# Poissons Ratio (y) = 0.08319 0.57523
# Poissons Ratio (z) = 0.30575 0.36740
#
# Static dielectric constant tensor:
#      x y z
#    x 3.036790 0.000000 0.052920 
#    y 0.000000 3.563310 0.000000 
#    z 0.052920 0.000000 3.623960 
# 
# 
# High freq. dielectric constant tensor:
#      x y z
#    x 1.649640 0.000000 0.001920 
#    y 0.000000 1.699620 0.000000 
#    z 0.001920 0.000000 1.726970 
# 
# From -- ./inp_files/367214.got.cif
#   From: 2010.06.25/outbox.cif.g09.slc.cpg/sg12_184_cif.got.tgz:367214.got - 2010.06.28 00:19:55.
