data_PCOD8087062
_publ_section_title
;
Structure prediction by ZEFSAII (Michael W. Deem and Ramdas Pophale) SiO2 
 PCOD8087062
Probable space group: C 2/M
;
_chemical_formula_sum "Si O2"
_cell_formula_units_Z 56
_cell_length_a 33.070116
_cell_length_b 9.061564
_cell_length_c 12.384954
_cell_angle_alpha 90.000000
_cell_angle_beta 119.970438
_cell_angle_gamma 90.000000
_cell_volume 3215.090508
_symmetry_space_group_name_H-M "C 2/M"
_symmetry_group_IT_number 12
_symmetry_cell_setting 'monoclinic'
loop_
_space_group_symop_operation_xyz
x,y,z
-x,y,-z
-x,-y,-z
x,-y,z
1/2+x,1/2+y,z
1/2-x,1/2+y,-z
1/2-x,1/2-y,-z
1/2+x,1/2-y,z
loop_
_atom_site_type_symbol
_atom_site_label
_atom_site_fract_x
_atom_site_fract_y
_atom_site_fract_z
Si Si1 0.550710 0.671886 0.237953
Si Si2 0.106128 0.170628 0.524503
Si Si3 0.547693 0.173860 0.615785
Si Si4 0.111467 0.172473 0.109685
Si Si5 0.198998 0.831447 0.535942
Si Si6 0.455683 0.174642 0.141192
Si Si7 0.803822 0.330190 0.689289
O O1 0.537519 0.500000 0.222911
O O2 0.576142 0.723287 0.381189
O O3 0.584896 0.707889 0.185130
O O4 0.503905 0.764312 0.157506
O O5 0.091657 0.259608 0.611253
O O6 0.160762 0.202789 0.576532
O O7 0.096800 0.000000 0.534402
O O8 0.500000 0.235871 0.500000
O O9 0.549666 0.224135 0.742051
O O10 0.550216 0.000000 0.607198
O O11 0.164027 0.233633 0.189043
O O12 0.112840 0.000000 0.085932
O O13 0.087403 0.255604 0.979044
O O14 0.190792 0.721645 0.426473
O O15 0.250188 0.809022 0.655619
O O16 0.192617 0.000000 0.484752
O O17 0.455243 0.000000 0.126928
O O18 0.819359 0.500000 0.716674
#
# Coordination Sequence:
#
# PCOD8087062 Si02
#       7
#     8   8   8   8   8   8   8
#     4  10  20  34  52  76 107 143 174 210 259 310
#     4  10  19  33  55  79 106 138 175 214 256 309
#     4  10  21  37  53  74 105 138 173 221 268 303
#     4  11  22  37  54  75 110 144 176 216 262 314
#     4   9  18  34  52  78 111 140 171 215 264 309
#     4  11  23  37  53  75 106 140 180 221 260 312
#     4  10  19  31  53  80 108 140 175 212 260 316
#
# _framework density 17.417860999999998
#
# number of rings (size 3 to 8) (size 9 to 14) (size 15 to 20)
#    0.000    1.857    2.857    1.714    0.000    5.429 
#    0.000    0.000    0.000    0.857    0.000    0.000 
#    0.000    0.000    0.000    0.000    0.000    0.000 
#
# Total GULP energy -347307.690311 kJ/mol
# GULP energy per Si atom -12403.846083 kJ/mol
# Density = 1.737822 g / cm^3
# Si number density = 17.417861 Si / 1000 Ang^3
#
#
#
# Elastic Constant Matrix: (Units=GPa)
#
#
# Indices 1 2 3 4 5 6 
#
# 1 97.4173 36.2298 41.5507 0.0000 12.9243 0.0000
# 2 36.2298 58.4069 43.4273 0.0000 4.2035 0.0000
# 3 41.5507 43.4273 96.2538 0.0000 12.8499 0.0000
# 4 0.0000 0.0000 0.0000 30.3356 0.0000 1.1197
# 5 12.9243 4.2035 12.8499 0.0000 26.3166 0.0000
# 6 0.0000 0.0000 0.0000 1.1197 0.0000 29.6854
#
#
#
# Elastic Compliance Matrix: (Units=1/GPa)
#
#
# Indices 1 2 3 4 5 6 
#
# 1 0.014506 -0.006731 -0.002586 0.000000 -0.004786 0.000000
# 2 -0.006731 0.028956 -0.010679 0.000000 0.003895 0.000000
# 3 -0.002586 -0.010679 0.017037 0.000000 -0.005343 0.000000
# 4 0.000000 0.000000 0.000000 0.033010 0.000000 -0.001245
# 5 -0.004786 0.003895 -0.005343 0.000000 0.042336 0.000000
# 6 0.000000 0.000000 0.000000 -0.001245 0.000000 0.033734
#
#
# Mechanical properties :
#
#
# Convention : Reuss Voigt Hill
#
# Bulk Modulus (GPa) = 48.76219 54.94374 51.85297
# Shear Modulus (GPa) = 23.10458 25.99220 24.54839
#
# Velocity S-wave (km/s) = 3.64605 3.86719 3.75824
# Velocity P-wave (km/s) = 6.76618 7.18005 6.97618
#
# Compressibility (1/GPa) = 0.02050769
#
# Stress axis : x y z
#
# Youngs Moduli (GPa) = 68.93467 34.53514 58.69612
#
# Poissons Ratio (x) = 0.23245 0.15181
# Poissons Ratio (y) = 0.46399 0.62679
# Poissons Ratio (z) = 0.17829 0.36879
#
# Static dielectric constant tensor:
#      x y z
#    x 3.272400 0.000000 0.145910 
#    y 0.000000 3.241380 0.000000 
#    z 0.145910 0.000000 3.200290 
# 
# 
# High freq. dielectric constant tensor:
#      x y z
#    x 1.669080 0.000000 0.012770 
#    y 0.000000 1.678350 0.000000 
#    z 0.012770 0.000000 1.657750 
# 
# From -- ./inp_files/186416.got.cif
#   From: 2010.06.25/outbox.cif.g09.slc.cpg/sg12_94_cif.got.tgz:186416.got - 2010.06.28 00:19:55.
