data_PCOD8087766
_publ_section_title
;
Structure prediction by ZEFSAII (Michael W. Deem and Ramdas Pophale) SiO2 
 PCOD8087766
Probable space group: C 2/M
;
_chemical_formula_sum "Si O2"
_cell_formula_units_Z 56
_cell_length_a 16.003373
_cell_length_b 9.540549
_cell_length_c 24.892372
_cell_angle_alpha 90.000000
_cell_angle_beta 50.935066
_cell_angle_gamma 90.000000
_cell_volume 2950.901686
_symmetry_space_group_name_H-M "C 2/M"
_symmetry_group_IT_number 12
_symmetry_cell_setting 'monoclinic'
loop_
_space_group_symop_operation_xyz
x,y,z
-x,y,-z
-x,-y,-z
x,-y,z
1/2+x,1/2+y,z
1/2-x,1/2+y,-z
1/2-x,1/2-y,-z
1/2+x,1/2-y,z
loop_
_atom_site_type_symbol
_atom_site_label
_atom_site_fract_x
_atom_site_fract_y
_atom_site_fract_z
Si Si1 0.588828 0.663271 0.919809
Si Si2 0.744246 0.341793 0.426765
Si Si3 0.683669 0.161712 0.719313
Si Si4 0.504441 0.664008 0.837182
Si Si5 0.198572 0.838646 0.144468
Si Si6 0.372529 0.662408 0.711512
Si Si7 0.088983 0.838037 0.577606
O O1 0.618486 0.500000 0.905644
O O2 0.538032 0.713098 0.883495
O O3 0.695891 0.743940 0.894727
O O4 0.500000 0.696466 0.000000
O O5 0.782430 0.500000 0.425017
O O6 0.745324 0.317043 0.362933
O O7 0.823656 0.232263 0.420407
O O8 0.624103 0.318419 0.500751
O O9 0.575245 0.252555 0.764718
O O10 0.759688 0.223645 0.735660
O O11 0.650280 0.000000 0.740916
O O12 0.525545 0.500000 0.820286
O O13 0.377823 0.696984 0.875994
O O14 0.122095 0.811340 0.227106
O O15 0.237108 0.000000 0.127172
O O16 0.369983 0.500000 0.696970
O O17 0.473666 0.731220 0.638995
O O18 0.086123 0.000000 0.595387
#
# Coordination Sequence:
#
# PCOD8087766 Si02
#       7
#     8   8   8   8   8   8   8
#     4  10  22  40  59  83 116 146 175 218 271 325
#     4   9  18  30  46  71 100 132 175 225 271 316
#     4  10  19  32  51  76 106 138 179 229 272 316
#     4  10  21  37  58  83 111 145 183 222 269 324
#     4  10  20  36  58  83 110 143 185 225 263 317
#     4   9  17  30  50  74 101 134 175 222 265 311
#     4   9  17  31  49  68  97 138 178 219 269 320
#
# _framework density 18.977252
#
# number of rings (size 3 to 8) (size 9 to 14) (size 15 to 20)
#    0.000    2.429    1.429    0.857    0.000    3.714 
#    0.000    4.286    0.000    0.000    0.000    5.000 
#    0.000    0.000    0.000    0.000    0.000    0.000 
#
# Total GULP energy -346995.464545 kJ/mol
# GULP energy per Si atom -12392.695162 kJ/mol
# Density = 1.893406 g / cm^3
# Si number density = 18.977252 Si / 1000 Ang^3
#
#
#
# Elastic Constant Matrix: (Units=GPa)
#
#
# Indices 1 2 3 4 5 6 
#
# 1 122.7360 42.6682 52.2256 0.0000 -11.1134 0.0000
# 2 42.6682 48.1408 38.7898 0.0000 -8.8847 0.0001
# 3 52.2256 38.7898 101.6037 0.0000 -11.8649 0.0000
# 4 0.0000 0.0000 0.0000 24.4151 0.0000 -5.1527
# 5 -11.1134 -8.8847 -11.8649 0.0000 28.7675 0.0000
# 6 0.0000 0.0001 0.0000 -5.1527 0.0000 26.4711
#
#
#
# Elastic Compliance Matrix: (Units=1/GPa)
#
#
# Indices 1 2 3 4 5 6 
#
# 1 0.012463 -0.008375 -0.003098 0.000000 0.000951 0.000000
# 2 -0.008375 0.036266 -0.009046 0.000000 0.004234 0.000000
# 3 -0.003098 -0.009046 0.015152 0.000000 0.002259 0.000000
# 4 0.000000 0.000000 0.000000 0.042713 0.000000 0.008314
# 5 0.000951 0.004234 0.002259 0.000000 0.037368 0.000000
# 6 0.000000 0.000000 0.000000 0.008314 0.000000 0.039396
#
#
# Mechanical properties :
#
#
# Convention : Reuss Voigt Hill
#
# Bulk Modulus (GPa) = 43.77717 59.98310 51.88013
# Shear Modulus (GPa) = 21.55084 25.18385 23.36734
#
# Velocity S-wave (km/s) = 3.37354 3.64683 3.51284
# Velocity P-wave (km/s) = 6.18811 7.02915 6.62200
#
# Compressibility (1/GPa) = 0.02284296
#
# Stress axis : x y z
#
# Youngs Moduli (GPa) = 80.23539 27.57433 65.99829
#
# Poissons Ratio (x) = 0.23093 0.20446
# Poissons Ratio (y) = 0.67196 0.59703
# Poissons Ratio (z) = 0.24857 0.24944
#
# Static dielectric constant tensor:
#      x y z
#    x 3.503250 0.000000 0.021820 
#    y 0.000000 3.276810 0.000000 
#    z 0.021820 0.000000 3.630080 
# 
# 
# High freq. dielectric constant tensor:
#      x y z
#    x 1.733550 0.000000 -0.000350 
#    y 0.000000 1.714490 0.000000 
#    z -0.000350 0.000000 1.743820 
# 
# From -- ./inp_files/308947.got.cif
#   From: 2010.06.25/outbox.cif.g09.slc.cpg/sg12_155_cif.got.tgz:308947.got - 2010.06.28 00:19:55.
