data_PCOD8087167
_publ_section_title
;
Structure prediction by ZEFSAII (Michael W. Deem and Ramdas Pophale) SiO2 
 PCOD8087167
Probable space group: C 2/M
;
_chemical_formula_sum "Si O2"
_cell_formula_units_Z 64
_cell_length_a 15.447412
_cell_length_b 9.125803
_cell_length_c 28.307239
_cell_angle_alpha 90.000000
_cell_angle_beta 122.776954
_cell_angle_gamma 90.000000
_cell_volume 3355.127197
_symmetry_space_group_name_H-M "C 2/M"
_symmetry_group_IT_number 12
_symmetry_cell_setting 'monoclinic'
loop_
_space_group_symop_operation_xyz
x,y,z
-x,y,-z
-x,-y,-z
x,-y,z
1/2+x,1/2+y,z
1/2-x,1/2+y,-z
1/2-x,1/2-y,-z
1/2+x,1/2-y,z
loop_
_atom_site_type_symbol
_atom_site_label
_atom_site_fract_x
_atom_site_fract_y
_atom_site_fract_z
Si Si1 0.025357 0.330966 0.369406
Si Si2 0.480852 0.331866 0.875252
Si Si3 0.404727 0.830121 0.243232
Si Si4 0.711698 0.172548 0.357602
Si Si5 0.445419 0.673119 0.436458
Si Si6 0.415702 0.666744 0.752326
Si Si7 0.713608 0.672481 0.129838
Si Si8 0.306167 0.825398 0.059790
O O1 0.031904 0.500000 0.386061
O O2 0.929208 0.302244 0.305607
O O3 0.007435 0.237824 0.410769
O O4 0.132087 0.281152 0.375659
O O5 0.518356 0.500000 0.894186
O O6 0.412733 0.321489 0.807801
O O7 0.402885 0.277722 0.893415
O O8 0.575435 0.221834 0.903687
O O9 0.476901 0.733365 0.231984
O O10 0.289334 0.781614 0.195384
O O11 0.426360 0.000000 0.237345
O O12 0.826748 0.225302 0.403963
O O13 0.679972 0.247397 0.298931
O O14 0.705712 0.000000 0.347942
O O15 0.500000 0.729850 0.500000
O O16 0.452319 0.500000 0.433936
O O17 0.408498 0.500000 0.732980
O O18 0.715863 0.500000 0.126294
O O19 0.751242 0.736246 0.090881
O O20 0.299699 0.000000 0.053182
O O21 0.250000 0.750000 0.000000
#
# Coordination Sequence:
#
# PCOD8087167 Si02
#       8
#     8   8   8   8   8   8   8   8
#     4   9  19  34  56  82 110 145 186 231 274 330
#     4  10  21  37  58  86 115 146 188 232 275 331
#     4   9  17  34  58  81 114 152 187 221 275 347
#     4   9  20  38  56  77 111 152 186 222 280 346
#     4  10  22  39  57  79 111 150 191 234 281 335
#     4  10  19  31  55  87 117 142 179 235 282 322
#     4   9  19  36  59  83 111 153 190 219 273 344
#     4  11  23  41  63  83 112 153 194 234 279 331
#
# _framework density 19.075282999999999
#
# number of rings (size 3 to 8) (size 9 to 14) (size 15 to 20)
#    0.000    2.375    1.250    1.500    1.750    4.250 
#    0.000    4.375    0.000    0.000    0.000    0.000 
#    0.000    0.000    0.000    0.000    0.000    0.000 
#
# Total GULP energy -396722.757121 kJ/mol
# GULP energy per Si atom -12397.586160 kJ/mol
# Density = 1.903187 g / cm^3
# Si number density = 19.075283 Si / 1000 Ang^3
#
#
#
# Elastic Constant Matrix: (Units=GPa)
#
#
# Indices 1 2 3 4 5 6 
#
# 1 118.3828 35.9361 63.2613 0.0000 -4.2355 0.0000
# 2 35.9361 50.1246 37.3321 0.0000 1.5218 0.0000
# 3 63.2613 37.3321 117.5105 0.0000 1.3736 0.0000
# 4 0.0000 0.0000 0.0000 30.3097 0.0000 -2.9128
# 5 -4.2355 1.5218 1.3736 0.0000 23.0708 0.0000
# 6 0.0000 0.0000 0.0000 -2.9128 0.0000 23.2360
#
#
#
# Elastic Compliance Matrix: (Units=1/GPa)
#
#
# Indices 1 2 3 4 5 6 
#
# 1 0.013073 -0.005499 -0.005327 0.000000 0.003080 0.000000
# 2 -0.005499 0.028482 -0.006059 0.000000 -0.002527 0.000000
# 3 -0.005327 -0.006059 0.013318 0.000000 -0.001371 0.000000
# 4 0.000000 0.000000 0.000000 0.033395 0.000000 0.004186
# 5 0.003080 -0.002527 -0.001371 0.000000 0.044159 0.000000
# 6 0.000000 0.000000 0.000000 0.004186 0.000000 0.043561
#
#
# Mechanical properties :
#
#
# Convention : Reuss Voigt Hill
#
# Bulk Modulus (GPa) = 47.38304 62.11968 54.75136
# Shear Modulus (GPa) = 23.06360 25.28918 24.17639
#
# Velocity S-wave (km/s) = 3.48096 3.64504 3.56395
# Velocity P-wave (km/s) = 6.40703 7.09587 6.76023
#
# Compressibility (1/GPa) = 0.02110460
#
# Stress axis : x y z
#
# Youngs Moduli (GPa) = 76.49250 35.11042 75.08361
#
# Poissons Ratio (x) = 0.19306 0.39997
# Poissons Ratio (y) = 0.42060 0.45491
# Poissons Ratio (z) = 0.40748 0.21272
#
# Static dielectric constant tensor:
#      x y z
#    x 3.766340 0.000000 0.072240 
#    y 0.000000 3.338290 0.000000 
#    z 0.072240 0.000000 3.641640 
# 
# 
# High freq. dielectric constant tensor:
#      x y z
#    x 1.744760 0.000000 0.002050 
#    y 0.000000 1.724470 0.000000 
#    z 0.002050 0.000000 1.742460 
# 
# From -- ./inp_files/359962.got.cif
#   From: 2010.06.25/outbox.cif.g09.slc.cpg/sg12_180_cif.got.tgz:359962.got - 2010.06.28 00:19:55.
