data_PCOD8087865
_publ_section_title
;
Structure prediction by ZEFSAII (Michael W. Deem and Ramdas Pophale) SiO2 
 PCOD8087865
Probable space group: C 2/M
;
_chemical_formula_sum "Si O2"
_cell_formula_units_Z 64
_cell_length_a 18.705226
_cell_length_b 13.072532
_cell_length_c 24.880073
_cell_angle_alpha 90.000000
_cell_angle_beta 30.241927
_cell_angle_gamma 90.000000
_cell_volume 3064.115335
_symmetry_space_group_name_H-M "C 2/M"
_symmetry_group_IT_number 12
_symmetry_cell_setting 'monoclinic'
loop_
_space_group_symop_operation_xyz
x,y,z
-x,y,-z
-x,-y,-z
x,-y,z
1/2+x,1/2+y,z
1/2-x,1/2+y,-z
1/2-x,1/2-y,-z
1/2+x,1/2-y,z
loop_
_atom_site_type_symbol
_atom_site_label
_atom_site_fract_x
_atom_site_fract_y
_atom_site_fract_z
Si Si1 0.850574 0.380115 0.577257
Si Si2 0.155355 0.380691 0.710872
Si Si3 0.122948 0.878446 0.052469
Si Si4 0.892350 0.734833 0.838147
Si Si5 0.616182 0.381365 0.522992
Si Si6 0.666453 0.879861 0.530172
Si Si7 0.660636 0.713247 0.788742
Si Si8 0.100356 0.258563 0.286743
O O1 0.869960 0.500000 0.557102
O O2 0.807021 0.334193 0.547166
O O3 0.728118 0.357233 0.698686
O O4 0.000000 0.332019 0.500000
O O5 0.120099 0.500000 0.739919
O O6 0.310391 0.363758 0.582865
O O7 0.153761 0.329725 0.770962
O O8 0.038169 0.327575 0.749481
O O9 0.114463 0.831410 0.117737
O O10 0.994873 0.832811 0.099410
O O11 0.113412 0.000000 0.062932
O O12 0.267665 0.846069 0.929970
O O13 0.876058 0.782533 0.789002
O O14 0.585609 0.500000 0.551315
O O15 0.718224 0.333959 0.503304
O O16 0.466562 0.324386 0.628450
O O17 0.503873 0.855735 0.651102
O O18 0.685622 0.000000 0.520566
O O19 0.748943 0.707679 0.786371
#
# Coordination Sequence:
#
# PCOD8087865 Si02
#       8
#     8   8   8   8   8   8   8   8
#     4  10  19  32  51  79 118 159 195 233 292 362
#     4  10  21  39  61  86 121 166 209 244 289 352
#     4  10  23  45  67  91 118 149 202 256 303 361
#     4  10  23  41  68  92 114 157 199 252 310 350
#     4  10  22  36  56  88 122 161 204 246 292 346
#     4  10  20  32  52  83 118 156 198 242 290 348
#     4  11  24  37  58  88 122 163 198 243 302 354
#     4  12  23  37  58  87 127 156 195 244 298 361
#
# _framework density 20.886942000000001
#
# number of rings (size 3 to 8) (size 9 to 14) (size 15 to 20)
#    0.000    1.625    2.500    1.875    3.500    2.500 
#    0.000    1.875    0.000    0.000    0.000    6.125 
#    0.000    0.000    0.000    0.000    0.000    0.000 
#
# Total GULP energy -396809.358205 kJ/mol
# GULP energy per Si atom -12400.292444 kJ/mol
# Density = 2.083940 g / cm^3
# Si number density = 20.886942 Si / 1000 Ang^3
#
#
#
# Elastic Constant Matrix: (Units=GPa)
#
#
# Indices 1 2 3 4 5 6 
#
# 1 93.4830 6.1626 19.5404 0.0026 -11.0096 0.0005
# 2 6.1626 77.9678 23.1777 0.0072 -1.9302 0.0001
# 3 19.5404 23.1777 80.4653 0.0176 -5.9608 -0.0013
# 4 0.0026 0.0072 0.0176 25.0269 -0.0020 -0.6199
# 5 -11.0096 -1.9302 -5.9608 -0.0020 27.3290 -0.0005
# 6 0.0005 0.0001 -0.0013 -0.6199 -0.0005 16.8344
#
#
#
# Elastic Compliance Matrix: (Units=1/GPa)
#
#
# Indices 1 2 3 4 5 6 
#
# 1 0.011719 -0.000075 -0.002515 0.000001 0.004167 0.000000
# 2 -0.000075 0.014028 -0.004016 -0.000001 0.000084 0.000000
# 3 -0.002515 -0.004016 0.014331 -0.000008 0.001829 0.000001
# 4 0.000001 -0.000001 -0.000008 0.039993 0.000001 0.001473
# 5 0.004167 0.000084 0.001829 0.000001 0.038675 0.000001
# 6 0.000000 0.000000 0.000001 0.001473 0.000001 0.059457
#
#
# Mechanical properties :
#
#
# Convention : Reuss Voigt Hill
#
# Bulk Modulus (GPa) = 37.22509 38.85306 38.03908
# Shear Modulus (GPa) = 24.95384 27.37375 26.16380
#
# Velocity S-wave (km/s) = 3.46021 3.62410 3.54310
# Velocity P-wave (km/s) = 5.81592 6.01283 5.91520
#
# Compressibility (1/GPa) = 0.02686360
#
# Stress axis : x y z
#
# Youngs Moduli (GPa) = 85.33416 71.28742 69.77954
#
# Poissons Ratio (x) = 0.00537 0.17552
# Poissons Ratio (y) = 0.00643 0.28024
# Poissons Ratio (z) = 0.21465 0.28630
#
# Static dielectric constant tensor:
#      x y z
#    x 3.938860 0.000000 -0.088340 
#    y 0.000000 3.729020 0.000000 
#    z -0.088340 0.000000 3.680840 
# 
# 
# High freq. dielectric constant tensor:
#      x y z
#    x 1.817850 0.000000 -0.007760 
#    y 0.000000 1.824080 0.000000 
#    z -0.007760 0.000000 1.802140 
# 
# From -- ./inp_files/344045.got.cif
#   From: 2010.06.25/outbox.cif.g09.slc.cpg/sg12_173_cif.got.tgz:344045.got - 2010.06.28 00:19:55.
