data_PCOD8087682
_publ_section_title
;
Structure prediction by ZEFSAII (Michael W. Deem and Ramdas Pophale) SiO2 
 PCOD8087682
Probable space group: C 2/M
;
_chemical_formula_sum "Si O2"
_cell_formula_units_Z 64
_cell_length_a 20.592787
_cell_length_b 19.443265
_cell_length_c 22.748500
_cell_angle_alpha 90.000000
_cell_angle_beta 154.856296
_cell_angle_gamma 90.000000
_cell_volume 3870.023898
_symmetry_space_group_name_H-M "C 2/M"
_symmetry_group_IT_number 12
_symmetry_cell_setting 'monoclinic'
loop_
_space_group_symop_operation_xyz
x,y,z
-x,y,-z
-x,-y,-z
x,-y,z
1/2+x,1/2+y,z
1/2-x,1/2+y,-z
1/2-x,1/2-y,-z
1/2+x,1/2-y,z
loop_
_atom_site_type_symbol
_atom_site_label
_atom_site_fract_x
_atom_site_fract_y
_atom_site_fract_z
Si Si1 0.842526 0.076140 0.592250
Si Si2 0.970331 0.713882 0.409885
Si Si3 0.657772 0.576137 0.907548
Si Si4 0.535399 0.923367 0.408369
Si Si5 0.103500 0.783295 0.409900
Si Si6 0.349464 0.713916 0.909907
Si Si7 0.283736 0.716694 0.090123
Si Si8 0.718397 0.423368 0.091428
O O1 0.688089 0.095271 0.498988
O O2 0.874972 0.133805 0.569444
O O3 0.975376 0.077597 0.749879
O O4 0.832589 0.000000 0.554677
O O5 0.794689 0.728474 0.249995
O O6 0.000000 0.739562 0.500000
O O7 0.009085 0.632523 0.437757
O O8 0.082406 0.756209 0.458730
O O9 0.723012 0.500000 0.945157
O O10 0.735962 0.633793 0.930490
O O11 0.689671 0.595246 0.000671
O O12 0.399834 0.918185 0.249880
O O13 0.543458 0.000000 0.443045
O O14 0.250000 0.750000 0.500000
O O15 0.955480 0.762816 0.250011
O O16 0.335032 0.756240 0.958713
O O17 0.366581 0.632557 0.937867
O O18 0.500000 0.739635 0.000000
O O19 0.250000 0.750000 0.000000
O O20 0.657152 0.500000 0.056835
#
# Coordination Sequence:
#
# PCOD8087682 Si02
#       8
#     8   8   8   8   8   8   8   8
#     4   9  17  29  48  74  99 123 155 196 241 287
#     4  10  21  34  47  68  97 130 165 199 239 284
#     4   9  17  29  48  74  99 123 155 196 241 287
#     4   9  17  30  47  68  97 129 159 193 234 282
#     4  10  19  32  51  74  98 125 161 201 242 287
#     4  10  21  34  47  68  97 130 165 199 239 284
#     4  10  19  32  51  74  98 125 161 201 242 287
#     4   9  17  30  47  68  97 129 159 193 234 282
#
# _framework density 16.537365000000001
#
# number of rings (size 3 to 8) (size 9 to 14) (size 15 to 20)
#    0.000    2.500    2.500    0.000    0.000    2.500 
#    0.000    0.000    0.000    0.750    0.000    0.000 
#    0.000    0.000    0.000    0.000    0.000    0.000 
#
# Total GULP energy -396675.293988 kJ/mol
# GULP energy per Si atom -12396.102937 kJ/mol
# Density = 1.649973 g / cm^3
# Si number density = 16.537365 Si / 1000 Ang^3
#
#
#
# Elastic Constant Matrix: (Units=GPa)
#
#
# Indices 1 2 3 4 5 6 
#
# 1 116.2386 54.3949 55.1076 0.0030 0.0224 0.0025
# 2 54.3949 84.1296 34.1782 -0.0148 0.1839 -0.0025
# 3 55.1076 34.1782 57.1824 -0.0353 0.5365 -0.0058
# 4 0.0030 -0.0148 -0.0353 19.2621 -0.0146 0.0036
# 5 0.0224 0.1839 0.5365 -0.0146 29.5026 0.0005
# 6 0.0025 -0.0025 -0.0058 0.0036 0.0005 20.0655
#
#
#
# Elastic Compliance Matrix: (Units=1/GPa)
#
#
# Indices 1 2 3 4 5 6 
#
# 1 0.017890 -0.006026 -0.013642 -0.000032 0.000272 -0.000007
# 2 -0.006026 0.017728 -0.004789 0.000006 -0.000019 0.000002
# 3 -0.013642 -0.004789 0.033503 0.000059 -0.000569 0.000011
# 4 -0.000032 0.000006 0.000059 0.051916 0.000025 -0.000009
# 5 0.000272 -0.000019 -0.000569 0.000025 0.033906 -0.000001
# 6 -0.000007 0.000002 0.000011 -0.000009 -0.000001 0.049837
#
#
# Mechanical properties :
#
#
# Convention : Reuss Voigt Hill
#
# Bulk Modulus (GPa) = 49.48631 60.54575 55.01603
# Shear Modulus (GPa) = 19.19914 21.35737 20.27825
#
# Velocity S-wave (km/s) = 3.41098 3.59759 3.50552
# Velocity P-wave (km/s) = 6.74551 7.34492 7.05159
#
# Compressibility (1/GPa) = 0.02020761
#
# Stress axis : x y z
#
# Youngs Moduli (GPa) = 55.89625 56.40835 29.84819
#
# Poissons Ratio (x) = 0.33989 0.40720
# Poissons Ratio (y) = 0.33680 0.14294
# Poissons Ratio (z) = 0.76255 0.27014
#
# Static dielectric constant tensor:
#      x y z
#    x 2.784360 -0.000010 -0.006760 
#    y -0.000010 3.509840 0.000140 
#    z -0.006760 0.000140 3.494160 
# 
# 
# High freq. dielectric constant tensor:
#      x y z
#    x 1.597990 0.000000 -0.000420 
#    y 0.000000 1.648210 0.000000 
#    z -0.000420 0.000000 1.640690 
# 
# From -- ./inp_files/78779.got.cif
#   From: 2010.06.25/outbox.cif.g09.slc.cpg/sg12_40_cif.got.tgz:78779.got - 2010.06.28 00:19:55.
