data_PCOD8087176
_publ_section_title
;
Structure prediction by ZEFSAII (Michael W. Deem and Ramdas Pophale) SiO2 
 PCOD8087176
Probable space group: C 2/M
;
_chemical_formula_sum "Si O2"
_cell_formula_units_Z 56
_cell_length_a 17.970799
_cell_length_b 18.247438
_cell_length_c 12.896810
_cell_angle_alpha 90.000000
_cell_angle_beta 45.701129
_cell_angle_gamma 90.000000
_cell_volume 3026.819645
_symmetry_space_group_name_H-M "C 2/M"
_symmetry_group_IT_number 12
_symmetry_cell_setting 'monoclinic'
loop_
_space_group_symop_operation_xyz
x,y,z
-x,y,-z
-x,-y,-z
x,-y,z
1/2+x,1/2+y,z
1/2-x,1/2+y,-z
1/2-x,1/2-y,-z
1/2+x,1/2-y,z
loop_
_atom_site_type_symbol
_atom_site_label
_atom_site_fract_x
_atom_site_fract_y
_atom_site_fract_z
Si Si1 0.263946 0.580417 0.732363
Si Si2 0.136898 0.084097 0.580763
Si Si3 0.415758 0.642816 0.732438
Si Si4 0.786611 0.812205 0.039131
Si Si5 0.110355 0.701117 0.355324
Si Si6 0.114823 0.287868 0.894133
Si Si7 0.225589 0.205593 0.624359
O O1 0.215358 0.500000 0.800167
O O2 0.282548 0.589856 0.592203
O O3 0.372150 0.585709 0.690446
O O4 0.188721 0.643577 0.847682
O O5 0.189046 0.123408 0.629780
O O6 0.033074 0.125175 0.646958
O O7 0.114007 0.000000 0.633332
O O8 0.411743 0.722473 0.681479
O O9 0.347858 0.631693 0.904835
O O10 0.685533 0.844994 0.201660
O O11 0.868817 0.776015 0.037868
O O12 0.750000 0.750000 0.000000
O O13 0.174907 0.709361 0.397799
O O14 0.000000 0.664916 0.500000
O O15 0.131846 0.249805 0.767276
O O16 0.000000 0.319970 0.000000
O O17 0.250000 0.250000 0.500000
#
# Coordination Sequence:
#
# PCOD8087176 Si02
#       7
#     8   8   8   8   8   8   8
#     4  11  21  35  53  81 118 148 182 227 285 345
#     4  11  23  36  57  87 120 152 183 231 292 344
#     4  11  18  35  56  83 112 148 186 227 290 336
#     4   9  18  33  52  80 109 140 181 239 268 326
#     4  10  19  31  56  84 109 141 188 239 278 324
#     4  11  21  35  54  80 110 148 186 232 279 326
#     4  11  19  36  56  84 112 148 192 234 274 334
#
# _framework density 18.501268
#
# number of rings (size 3 to 8) (size 9 to 14) (size 15 to 20)
#    0.000    1.429    5.714    3.429    0.000    2.571 
#    0.000    0.000    0.000   14.571    0.000    0.000 
#    0.000    0.000    0.000    0.000    0.000    0.000 
#
# Total GULP energy -346884.906355 kJ/mol
# GULP energy per Si atom -12388.746656 kJ/mol
# Density = 1.845916 g / cm^3
# Si number density = 18.501268 Si / 1000 Ang^3
#
#
#
# Elastic Constant Matrix: (Units=GPa)
#
#
# Indices 1 2 3 4 5 6 
#
# 1 88.6921 28.7007 33.8002 0.0000 -5.0627 0.0000
# 2 28.7007 73.7605 11.4607 0.0000 4.5359 0.0000
# 3 33.8002 11.4607 82.0990 0.0000 2.5965 0.0000
# 4 0.0000 0.0000 0.0000 15.4728 0.0000 1.8602
# 5 -5.0627 4.5359 2.5965 0.0000 35.1540 0.0000
# 6 0.0000 0.0000 0.0000 1.8602 0.0000 21.4285
#
#
#
# Elastic Compliance Matrix: (Units=1/GPa)
#
#
# Indices 1 2 3 4 5 6 
#
# 1 0.015341 -0.005290 -0.005682 0.000000 0.003312 0.000000
# 2 -0.005290 0.015778 0.000064 0.000000 -0.002802 0.000000
# 3 -0.005682 0.000064 0.014571 0.000000 -0.001903 0.000000
# 4 0.000000 0.000000 0.000000 0.065311 0.000000 -0.005670
# 5 0.003312 -0.002802 -0.001903 0.000000 0.029425 0.000000
# 6 0.000000 0.000000 0.000000 -0.005670 0.000000 0.047159
#
#
# Mechanical properties :
#
#
# Convention : Reuss Voigt Hill
#
# Bulk Modulus (GPa) = 41.88701 43.60831 42.74766
# Shear Modulus (GPa) = 23.00320 25.78372 24.39346
#
# Velocity S-wave (km/s) = 3.52992 3.73717 3.63502
# Velocity P-wave (km/s) = 6.26921 6.49950 6.38539
#
# Compressibility (1/GPa) = 0.02387375
#
# Stress axis : x y z
#
# Youngs Moduli (GPa) = 65.18308 63.37850 68.62916
#
# Poissons Ratio (x) = 0.33528 0.38997
# Poissons Ratio (y) = 0.34483 -0.00439
# Poissons Ratio (z) = 0.37039 -0.00406
#
# Static dielectric constant tensor:
#      x y z
#    x 3.661880 0.000000 0.413310 
#    y 0.000000 3.379250 0.000000 
#    z 0.413310 0.000000 4.616610 
# 
# 
# High freq. dielectric constant tensor:
#      x y z
#    x 1.722760 0.000000 0.006790 
#    y 0.000000 1.672810 0.000000 
#    z 0.006790 0.000000 1.730200 
# 
# From -- ./inp_files/158190.got.cif
#   From: 2010.06.25/outbox.cif.g09.slc.cpg/sg12_80_cif.got.tgz:158190.got - 2010.06.28 00:19:55.
