data_PCOD8087434
_publ_section_title
;
Structure prediction by ZEFSAII (Michael W. Deem and Ramdas Pophale) SiO2 
 PCOD8087434
Probable space group: C 2/M
;
_chemical_formula_sum "Si O2"
_cell_formula_units_Z 64
_cell_length_a 25.127023
_cell_length_b 8.601940
_cell_length_c 20.907492
_cell_angle_alpha 90.000000
_cell_angle_beta 53.940147
_cell_angle_gamma 90.000000
_cell_volume 3653.146187
_symmetry_space_group_name_H-M "C 2/M"
_symmetry_group_IT_number 12
_symmetry_cell_setting 'monoclinic'
loop_
_space_group_symop_operation_xyz
x,y,z
-x,y,-z
-x,-y,-z
x,-y,z
1/2+x,1/2+y,z
1/2-x,1/2+y,-z
1/2-x,1/2-y,-z
1/2+x,1/2-y,z
loop_
_atom_site_type_symbol
_atom_site_label
_atom_site_fract_x
_atom_site_fract_y
_atom_site_fract_z
Si Si1 0.490214 0.819944 0.820994
Si Si2 0.352798 0.320113 0.904208
Si Si3 0.236972 0.179936 0.914487
Si Si4 0.225903 0.821584 0.668960
Si Si5 0.044592 0.180654 0.908517
Si Si6 0.896498 0.819484 0.336437
Si Si7 0.810545 0.680781 0.494709
Si Si8 0.814618 0.321034 0.176474
O O1 0.417025 0.784102 0.848570
O O2 0.504348 0.715271 0.872939
O O3 0.539924 0.777842 0.728838
O O4 0.497144 0.000000 0.834004
O O5 0.372416 0.500000 0.886205
O O6 0.301439 0.280834 0.884331
O O7 0.321263 0.277456 0.995098
O O8 0.212449 0.215535 0.861101
O O9 0.255838 0.000000 0.907391
O O10 0.162705 0.780426 0.670287
O O11 0.294136 0.793002 0.581528
O O12 0.227398 0.713194 0.730039
O O13 0.220721 0.000000 0.694704
O O14 0.109687 0.283377 0.863392
O O15 0.064368 0.000000 0.896187
O O16 0.000000 0.226936 0.000000
O O17 0.876177 0.767463 0.423068
O O18 0.914352 0.000000 0.323928
O O19 0.816941 0.500000 0.474297
O O20 0.750000 0.750000 0.500000
O O21 0.807005 0.500000 0.162876
#
# Coordination Sequence:
#
# PCOD8087434 Si02
#       8
#     8   8   8   8   8   8   8   8
#     4  12  23  34  52  77 105 137 174 215 259 311
#     4  10  21  38  58  78 101 132 173 220 266 310
#     4  10  21  38  58  77 101 134 173 219 266 310
#     4   9  18  32  49  70 102 140 173 209 255 308
#     4  11  23  37  51  69 100 140 176 211 258 313
#     4  10  19  32  50  72 103 139 173 212 257 308
#     4   9  17  29  47  70  99 135 173 211 254 305
#     4  12  23  33  51  77 105 137 174 216 258 307
#
# _framework density 17.519145000000002
#
# number of rings (size 3 to 8) (size 9 to 14) (size 15 to 20)
#    0.000    1.625    1.250    5.625    0.000    8.000 
#    0.000    0.000    0.000    0.000    0.000    0.875 
#    0.000    7.000    0.000    0.000    0.000    0.000 
#
# Total GULP energy -396878.916812 kJ/mol
# GULP energy per Si atom -12402.466150 kJ/mol
# Density = 1.747927 g / cm^3
# Si number density = 17.519145 Si / 1000 Ang^3
#
#
#
# Elastic Constant Matrix: (Units=GPa)
#
#
# Indices 1 2 3 4 5 6 
#
# 1 54.6533 13.1151 28.6189 -0.0114 -7.1523 0.0071
# 2 13.1151 64.3222 33.3912 -0.0121 -1.7481 0.0109
# 3 28.6189 33.3912 112.3456 -0.0110 -11.7924 0.0093
# 4 -0.0114 -0.0121 -0.0110 28.7890 -0.0053 -0.3423
# 5 -7.1523 -1.7481 -11.7924 -0.0053 12.9209 0.0034
# 6 0.0071 0.0109 0.0093 -0.3423 0.0034 26.3757
#
#
#
# Elastic Compliance Matrix: (Units=1/GPa)
#
#
# Indices 1 2 3 4 5 6 
#
# 1 0.022034 -0.002130 -0.004125 0.000008 0.008144 -0.000005
# 2 -0.002130 0.018679 -0.005383 0.000004 -0.003565 -0.000005
# 3 -0.004125 -0.005383 0.012426 0.000002 0.008329 -0.000002
# 4 0.000008 0.000004 0.000002 0.034741 0.000021 0.000451
# 5 0.008144 -0.003565 0.008329 0.000021 0.089021 -0.000015
# 6 -0.000005 -0.000005 -0.000002 0.000451 -0.000015 0.037920
#
#
# Mechanical properties :
#
#
# Convention : Reuss Voigt Hill
#
# Bulk Modulus (GPa) = 33.48682 42.39682 37.94182
# Shear Modulus (GPa) = 20.15710 24.03019 22.09365
#
# Velocity S-wave (km/s) = 3.39569 3.70760 3.55507
# Velocity P-wave (km/s) = 5.87624 6.52543 6.20933
#
# Compressibility (1/GPa) = 0.02986250
#
# Stress axis : x y z
#
# Youngs Moduli (GPa) = 45.38416 53.53681 80.47501
#
# Poissons Ratio (x) = 0.11403 0.33197
# Poissons Ratio (y) = 0.09666 0.43322
# Poissons Ratio (z) = 0.18721 0.28820
#
# Static dielectric constant tensor:
#      x y z
#    x 2.888460 -0.000010 -0.004460 
#    y -0.000010 3.317730 0.000010 
#    z -0.004460 0.000010 3.645770 
# 
# 
# High freq. dielectric constant tensor:
#      x y z
#    x 1.633600 0.000000 -0.001460 
#    y 0.000000 1.691030 0.000000 
#    z -0.001460 0.000000 1.685670 
# 
# From -- ./inp_files/324192.got.cif
#   From: 2010.06.25/outbox.cif.g09.slc.cpg/sg12_163_cif.got.tgz:324192.got - 2010.06.28 00:19:55.
