data_PCOD8087963
_publ_section_title
;
Structure prediction by ZEFSAII (Michael W. Deem and Ramdas Pophale) SiO2 
 PCOD8087963
Probable space group: C 2/M
;
_chemical_formula_sum "Si O2"
_cell_formula_units_Z 64
_cell_length_a 19.120102
_cell_length_b 8.996647
_cell_length_c 25.164105
_cell_angle_alpha 90.000000
_cell_angle_beta 54.863389
_cell_angle_gamma 90.000000
_cell_volume 3539.891830
_symmetry_space_group_name_H-M "C 2/M"
_symmetry_group_IT_number 12
_symmetry_cell_setting 'monoclinic'
loop_
_space_group_symop_operation_xyz
x,y,z
-x,y,-z
-x,-y,-z
x,-y,z
1/2+x,1/2+y,z
1/2-x,1/2+y,-z
1/2-x,1/2-y,-z
1/2+x,1/2-y,z
loop_
_atom_site_type_symbol
_atom_site_label
_atom_site_fract_x
_atom_site_fract_y
_atom_site_fract_z
Si Si1 0.120372 0.327713 0.561102
Si Si2 0.225442 0.171576 0.428289
Si Si3 0.597319 0.329223 0.940716
Si Si4 0.226028 0.675628 0.315834
Si Si5 0.177078 0.667100 0.813528
Si Si6 0.562132 0.826007 0.320318
Si Si7 0.848891 0.164154 0.805997
Si Si8 0.262499 0.177035 0.051065
O O1 0.116536 0.500000 0.545228
O O2 0.148903 0.230020 0.498635
O O3 0.184325 0.305787 0.582170
O O4 0.028155 0.264997 0.619010
O O5 0.226944 0.269049 0.375178
O O6 0.208613 0.000000 0.421641
O O7 0.628157 0.500000 0.925052
O O8 0.606801 0.257580 0.877957
O O9 0.652038 0.241351 0.960236
O O10 0.500000 0.316110 0.000000
O O11 0.238552 0.500000 0.308489
O O12 0.304942 0.750950 0.250106
O O13 0.135880 0.723510 0.328951
O O14 0.143813 0.500000 0.816908
O O15 0.263247 0.663642 0.809251
O O16 0.580406 0.766749 0.252807
O O17 0.556753 0.000000 0.316859
O O18 0.821237 0.219308 0.876825
O O19 0.888723 0.000000 0.791655
O O20 0.272074 0.000000 0.042547
O O21 0.250000 0.250000 0.000000
#
# Coordination Sequence:
#
# PCOD8087963 Si02
#       8
#     8   8   8   8   8   8   8   8
#     4   9  19  36  53  70  96 129 165 201 240 291
#     4  10  20  34  52  72  97 131 166 200 242 293
#     4  10  20  34  53  77 105 136 171 212 257 306
#     4  10  19  32  52  76 101 128 161 203 249 295
#     4   9  17  31  51  74 101 132 167 206 249 299
#     4   9  18  32  52  75  96 124 162 202 243 289
#     4   8  16  30  48  72 100 128 159 200 249 296
#     4  10  20  34  53  76 103 137 174 213 257 305
#
# _framework density 18.079649
#
# number of rings (size 3 to 8) (size 9 to 14) (size 15 to 20)
#    0.000    2.625    0.000    2.625    0.000    6.500 
#    0.000    3.750    0.000    3.000    0.000    0.000 
#    0.000    0.000    0.000    0.000    0.000    0.000 
#
# Total GULP energy -396766.208174 kJ/mol
# GULP energy per Si atom -12398.944005 kJ/mol
# Density = 1.803850 g / cm^3
# Si number density = 18.079649 Si / 1000 Ang^3
#
#
#
# Elastic Constant Matrix: (Units=GPa)
#
#
# Indices 1 2 3 4 5 6 
#
# 1 43.9645 33.6823 49.1396 0.0001 3.1137 0.0008
# 2 33.6823 93.4780 62.3542 0.0000 0.8804 0.0009
# 3 49.1396 62.3542 146.3846 0.0000 4.8205 -0.0002
# 4 0.0001 0.0000 0.0000 39.8958 0.0000 4.2502
# 5 3.1137 0.8804 4.8205 0.0000 27.4965 0.0002
# 6 0.0008 0.0009 -0.0002 4.2502 0.0002 23.1637
#
#
#
# Elastic Compliance Matrix: (Units=1/GPa)
#
#
# Indices 1 2 3 4 5 6 
#
# 1 0.040110 -0.007687 -0.010107 0.000000 -0.002524 -0.000001
# 2 -0.007687 0.016428 -0.004454 0.000000 0.001125 0.000000
# 3 -0.010107 -0.004454 0.012149 0.000000 -0.000843 0.000001
# 4 0.000000 0.000000 0.000000 0.025565 0.000000 -0.004691
# 5 -0.002524 0.001125 -0.000843 0.000000 0.036766 0.000000
# 6 -0.000001 0.000000 0.000001 -0.004691 0.000000 0.044032
#
#
# Mechanical properties :
#
#
# Convention : Reuss Voigt Hill
#
# Bulk Modulus (GPa) = 41.33790 63.79773 52.56781
# Shear Modulus (GPa) = 21.96728 27.35460 24.66094
#
# Velocity S-wave (km/s) = 3.48951 3.89396 3.69727
# Velocity P-wave (km/s) = 6.25696 7.45526 6.88224
#
# Compressibility (1/GPa) = 0.02419087
#
# Stress axis : x y z
#
# Youngs Moduli (GPa) = 24.93114 60.87084 82.30916
#
# Poissons Ratio (x) = 0.46792 0.83191
# Poissons Ratio (y) = 0.19165 0.36664
# Poissons Ratio (z) = 0.25198 0.27114
#
# Static dielectric constant tensor:
#      x y z
#    x 3.068730 0.000000 -0.027510 
#    y 0.000000 3.495740 0.000000 
#    z -0.027510 0.000000 3.664970 
# 
# 
# High freq. dielectric constant tensor:
#      x y z
#    x 1.663670 0.000000 0.001550 
#    y 0.000000 1.710190 0.000000 
#    z 0.001550 0.000000 1.716070 
# 
# From -- ./inp_files/346031.got.cif
#   From: 2010.06.25/outbox.cif.g09.slc.cpg/sg12_174_cif.got.tgz:346031.got - 2010.06.28 00:19:55.
