data_PCOD8087143
_publ_section_title
;
Structure prediction by ZEFSAII (Michael W. Deem and Ramdas Pophale) SiO2 
 PCOD8087143
Probable space group: C 2/M
;
_chemical_formula_sum "Si O2"
_cell_formula_units_Z 56
_cell_length_a 21.986448
_cell_length_b 9.090853
_cell_length_c 14.454127
_cell_angle_alpha 90.000000
_cell_angle_beta 78.814044
_cell_angle_gamma 90.000000
_cell_volume 2834.143219
_symmetry_space_group_name_H-M "C 2/M"
_symmetry_group_IT_number 12
_symmetry_cell_setting 'monoclinic'
loop_
_space_group_symop_operation_xyz
x,y,z
-x,y,-z
-x,-y,-z
x,-y,z
1/2+x,1/2+y,z
1/2-x,1/2+y,-z
1/2-x,1/2-y,-z
1/2+x,1/2-y,z
loop_
_atom_site_type_symbol
_atom_site_label
_atom_site_fract_x
_atom_site_fract_y
_atom_site_fract_z
Si Si1 0.528849 0.327182 0.761783
Si Si2 0.348633 0.831470 0.616286
Si Si3 0.355785 0.667803 0.150698
Si Si4 0.893273 0.669489 0.405370
Si Si5 0.185629 0.171367 0.037214
Si Si6 0.902054 0.328519 0.797638
Si Si7 0.722749 0.829772 0.685621
O O1 0.515780 0.500000 0.759955
O O2 0.577944 0.285026 0.827272
O O3 0.554095 0.270969 0.655591
O O4 0.466369 0.244626 0.808192
O O5 0.389808 0.791345 0.514650
O O6 0.391613 0.802485 0.691981
O O7 0.287740 0.733859 0.634568
O O8 0.326547 0.000000 0.617834
O O9 0.341459 0.500000 0.181290
O O10 0.299883 0.760979 0.211004
O O11 0.357805 0.691234 0.040162
O O12 0.912137 0.500000 0.383278
O O13 0.826669 0.704001 0.380045
O O14 0.153603 0.249609 0.132820
O O15 0.196456 0.000000 0.056545
O O16 0.250000 0.250000 0.000000
O O17 0.902820 0.500000 0.823363
O O18 0.731887 0.000000 0.701294
#
# Coordination Sequence:
#
# PCOD8087143 Si02
#       7
#     8   8   8   8   8   8   8
#     4  10  21  39  60  82 108 142 184 229 273 321
#     4  10  21  36  54  76 110 153 187 218 271 333
#     4   9  20  38  59  80 109 148 182 217 273 335
#     4   9  19  36  56  80 110 146 184 224 271 326
#     4  11  23  40  61  86 114 144 179 221 270 327
#     4  11  24  40  57  80 111 148 186 226 270 322
#     4  10  19  31  54  86 114 139 179 232 275 315
#
# _framework density 19.759058
#
# number of rings (size 3 to 8) (size 9 to 14) (size 15 to 20)
#    0.000    2.000    0.000    3.000    0.000    8.571 
#    0.000    5.714    0.000    0.000    0.000    0.000 
#    0.000    0.000    0.000    0.000    0.000    0.000 
#
# Total GULP energy -347341.006144 kJ/mol
# GULP energy per Si atom -12405.035934 kJ/mol
# Density = 1.971409 g / cm^3
# Si number density = 19.759058 Si / 1000 Ang^3
#
#
#
# Elastic Constant Matrix: (Units=GPa)
#
#
# Indices 1 2 3 4 5 6 
#
# 1 88.7939 48.9081 29.7334 0.0000 -14.7715 0.0000
# 2 48.9081 107.1968 41.5014 0.0000 -8.4976 0.0000
# 3 29.7334 41.5014 83.6722 0.0000 3.1453 0.0000
# 4 0.0000 0.0000 0.0000 31.5926 0.0000 -8.9018
# 5 -14.7715 -8.4976 3.1453 0.0000 27.2059 0.0000
# 6 0.0000 0.0000 0.0000 -8.9018 0.0000 36.1827
#
#
#
# Elastic Compliance Matrix: (Units=1/GPa)
#
#
# Indices 1 2 3 4 5 6 
#
# 1 0.016872 -0.005753 -0.003434 0.000000 0.007761 0.000000
# 2 -0.005753 0.014028 -0.004982 0.000000 0.001834 0.000000
# 3 -0.003434 -0.004982 0.015840 0.000000 -0.005252 0.000000
# 4 0.000000 0.000000 0.000000 0.034011 0.000000 0.008367
# 5 0.007761 0.001834 -0.005252 0.000000 0.042150 0.000000
# 6 0.000000 0.000000 0.000000 0.008367 0.000000 0.029696
#
#
# Mechanical properties :
#
#
# Convention : Reuss Voigt Hill
#
# Bulk Modulus (GPa) = 54.34326 57.77207 56.05767
# Shear Modulus (GPa) = 26.72816 29.63090 28.17953
#
# Velocity S-wave (km/s) = 3.68190 3.87668 3.78055
# Velocity P-wave (km/s) = 6.75558 7.02424 6.89122
#
# Compressibility (1/GPa) = 0.01840154
#
# Stress axis : x y z
#
# Youngs Moduli (GPa) = 59.27093 71.28733 63.13055
#
# Poissons Ratio (x) = 0.41012 0.21677
# Poissons Ratio (y) = 0.34099 0.31453
# Poissons Ratio (z) = 0.20351 0.35517
#
# Static dielectric constant tensor:
#      x y z
#    x 3.558370 0.000000 0.081990 
#    y 0.000000 3.683490 0.000000 
#    z 0.081990 0.000000 3.716520 
# 
# 
# High freq. dielectric constant tensor:
#      x y z
#    x 1.767430 0.000000 0.003600 
#    y 0.000000 1.776780 0.000000 
#    z 0.003600 0.000000 1.773490 
# 
# From -- ./inp_files/237465.got.cif
#   From: 2010.06.25/outbox.cif.g09.slc.cpg/sg12_119_cif.got.tgz:237465.got - 2010.06.28 00:19:55.
