data_PCOD8087277
_publ_section_title
;
Structure prediction by ZEFSAII (Michael W. Deem and Ramdas Pophale) SiO2 
 PCOD8087277
Probable space group: C 2/M
;
_chemical_formula_sum "Si O2"
_cell_formula_units_Z 64
_cell_length_a 32.926776
_cell_length_b 8.220098
_cell_length_c 29.193440
_cell_angle_alpha 90.000000
_cell_angle_beta 157.121322
_cell_angle_gamma 90.000000
_cell_volume 3071.967646
_symmetry_space_group_name_H-M "C 2/M"
_symmetry_group_IT_number 12
_symmetry_cell_setting 'monoclinic'
loop_
_space_group_symop_operation_xyz
x,y,z
-x,y,-z
-x,-y,-z
x,-y,z
1/2+x,1/2+y,z
1/2-x,1/2+y,-z
1/2-x,1/2-y,-z
1/2+x,1/2-y,z
loop_
_atom_site_type_symbol
_atom_site_label
_atom_site_fract_x
_atom_site_fract_y
_atom_site_fract_z
Si Si1 0.864459 0.806460 0.229759
Si Si2 0.010973 0.193659 0.461059
Si Si3 0.862984 0.306188 0.982936
Si Si4 0.262835 0.693049 0.326915
Si Si5 0.892738 0.694006 0.910682
Si Si6 0.251361 0.806575 0.586768
Si Si7 0.525684 0.691285 0.322647
Si Si8 0.464372 0.193188 0.766511
O O1 0.917415 0.744681 0.331789
O O2 0.745356 0.741528 0.106976
O O3 0.932665 0.736943 0.258010
O O4 0.864580 0.000000 0.227619
O O5 0.000000 0.269516 0.500000
O O6 0.119229 0.256906 0.552843
O O7 0.009741 0.000000 0.462225
O O8 0.861901 0.500000 0.979818
O O9 0.877336 0.237169 0.946191
O O10 0.957948 0.243326 0.113107
O O11 0.258077 0.500000 0.318507
O O12 0.197028 0.764674 0.216090
O O13 0.220473 0.750469 0.332325
O O14 0.890290 0.500000 0.909837
O O15 0.000000 0.756651 0.000000
O O16 0.139777 0.733646 0.454202
O O17 0.346518 0.743373 0.653999
O O18 0.245624 0.000000 0.578959
O O19 0.531128 0.500000 0.335971
O O20 0.496645 0.733592 0.240653
O O21 0.467646 0.000000 0.767284
#
# Coordination Sequence:
#
# PCOD8087277 Si02
#       8
#     8   8   8   8   8   8   8   8
#     4   9  16  27  41  59  86 118 149 184 225 268
#     4   9  14  20  33  55  82 114 146 174 212 264
#     4   9  17  28  40  59  89 122 152 183 223 269
#     4   9  14  21  35  56  83 115 147 176 215 269
#     4   9  15  22  34  55  85 121 152 176 214 273
#     4   9  16  28  44  64  90 118 149 187 230 273
#     4  10  19  32  49  67  89 119 154 191 231 268
#     4  10  20  32  47  66  90 121 155 190 228 269
#
# _framework density 20.833553999999999
#
# number of rings (size 3 to 8) (size 9 to 14) (size 15 to 20)
#    0.000    2.750    1.250    1.875    0.000    6.500 
#    0.000    0.000    0.000    0.000    0.000    0.000 
#    0.000    6.000    0.000    0.500    0.000    0.000 
#
# Total GULP energy -396606.859391 kJ/mol
# GULP energy per Si atom -12393.964356 kJ/mol
# Density = 2.078614 g / cm^3
# Si number density = 20.833554 Si / 1000 Ang^3
#
#
#
# Elastic Constant Matrix: (Units=GPa)
#
#
# Indices 1 2 3 4 5 6 
#
# 1 174.0192 2.1431 65.7192 0.0002 2.0874 0.0001
# 2 2.1431 2.8148 3.0300 0.0001 2.3017 0.0001
# 3 65.7192 3.0300 135.2124 0.0006 5.3758 0.0004
# 4 0.0002 0.0001 0.0006 4.7894 0.0004 -3.9070
# 5 2.0874 2.3017 5.3758 0.0004 44.4963 0.0002
# 6 0.0001 0.0001 0.0004 -3.9070 0.0002 13.7609
#
#
#
# Elastic Compliance Matrix: (Units=1/GPa)
#
#
# Indices 1 2 3 4 5 6 
#
# 1 0.007048 -0.001859 -0.003391 0.000000 0.000175 0.000000
# 2 -0.001859 0.379358 -0.006854 -0.000006 -0.018708 -0.000005
# 3 -0.003391 -0.006854 0.009221 -0.000001 -0.000600 -0.000001
# 4 0.000000 -0.000006 -0.000001 0.271732 -0.000003 0.077150
# 5 0.000175 -0.018708 -0.000600 -0.000003 0.023506 -0.000001
# 6 0.000000 -0.000005 -0.000001 0.077150 -0.000001 0.094574
#
#
# Mechanical properties :
#
#
# Convention : Reuss Voigt Hill
#
# Bulk Modulus (GPa) = 2.69237 50.42565 26.55901
# Shear Modulus (GPa) = 5.35646 28.68627 17.02136
#
# Velocity S-wave (km/s) = 1.60520 3.71472 2.86145
# Velocity P-wave (km/s) = 2.17501 6.53112 4.86755
#
# Compressibility (1/GPa) = 0.37141984
#
# Stress axis : x y z
#
# Youngs Moduli (GPa) = 141.88693 2.63603 108.44410
#
# Poissons Ratio (x) = 0.00490 0.36772
# Poissons Ratio (y) = 0.26378 0.74323
# Poissons Ratio (z) = 0.48112 0.01807
#
# Static dielectric constant tensor:
#      x y z
#    x 4.055600 0.000000 0.074670 
#    y 0.000000 2.853500 0.000000 
#    z 0.074670 0.000000 4.023820 
# 
# 
# High freq. dielectric constant tensor:
#      x y z
#    x 1.832620 0.000000 0.000650 
#    y 0.000000 1.724820 0.000000 
#    z 0.000650 0.000000 1.824800 
# 
# From -- ./inp_files/351787.got.cif
#   From: 2010.06.25/outbox.cif.g09.slc.cpg/sg12_176_cif.got.tgz:351787.got - 2010.06.28 00:19:55.
