data_PCOD8087576
_publ_section_title
;
Structure prediction by ZEFSAII (Michael W. Deem and Ramdas Pophale) SiO2 
 PCOD8087576
Probable space group: C 2/M
;
_chemical_formula_sum "Si O2"
_cell_formula_units_Z 56
_cell_length_a 19.061369
_cell_length_b 9.101270
_cell_length_c 18.432691
_cell_angle_alpha 90.000000
_cell_angle_beta 98.143799
_cell_angle_gamma 90.000000
_cell_volume 3165.505146
_symmetry_space_group_name_H-M "C 2/M"
_symmetry_group_IT_number 12
_symmetry_cell_setting 'monoclinic'
loop_
_space_group_symop_operation_xyz
x,y,z
-x,y,-z
-x,-y,-z
x,-y,z
1/2+x,1/2+y,z
1/2-x,1/2+y,-z
1/2-x,1/2-y,-z
1/2+x,1/2-y,z
loop_
_atom_site_type_symbol
_atom_site_label
_atom_site_fract_x
_atom_site_fract_y
_atom_site_fract_z
Si Si1 0.211685 0.327452 0.560477
Si Si2 0.396266 0.669079 0.807886
Si Si3 0.349147 0.330705 0.065148
Si Si4 0.080639 0.174363 0.494766
Si Si5 0.645863 0.671391 0.353500
Si Si6 0.780077 0.164912 0.904873
Si Si7 0.510830 0.173645 0.919636
O O1 0.200792 0.500000 0.544234
O O2 0.250000 0.250000 0.500000
O O3 0.134537 0.251334 0.560689
O O4 0.268630 0.300168 0.633596
O O5 0.422869 0.500000 0.811992
O O6 0.387047 0.735596 0.725509
O O7 0.320019 0.679385 0.834911
O O8 0.450010 0.770881 0.858140
O O9 0.365007 0.500000 0.082551
O O10 0.283625 0.280367 0.105096
O O11 0.416104 0.236993 0.100086
O O12 0.333699 0.298009 0.978397
O O13 0.103736 0.232851 0.418023
O O14 0.000000 0.222776 0.500000
O O15 0.089573 0.000000 0.503693
O O16 0.631585 0.500000 0.350563
O O17 0.750075 0.000000 0.911884
O O18 0.512499 0.000000 0.917473
O O19 0.500000 0.231964 0.000000
#
# Coordination Sequence:
#
# PCOD8087576 Si02
#       7
#     8   8   8   8   8   8   8
#     4   9  16  29  50  75 101 130 167 203 241 290
#     4  10  19  34  54  73  99 133 169 208 254 308
#     4  10  19  32  51  72  94 123 164 207 248 300
#     4   9  17  31  52  78 107 138 169 203 244 291
#     4   8  16  31  51  74 100 133 169 207 250 295
#     4   9  18  31  49  72  95 123 159 204 254 298
#     4  11  22  34  50  73 101 131 167 214 258 299
#
# _framework density 17.690698999999999
#
# number of rings (size 3 to 8) (size 9 to 14) (size 15 to 20)
#    0.000    2.571    1.429    2.143    0.000    2.000 
#    0.000    5.000    0.000    3.429    0.000    0.000 
#    0.000    0.000    0.000    0.000    0.000    0.000 
#
# Total GULP energy -347038.289650 kJ/mol
# GULP energy per Si atom -12394.224630 kJ/mol
# Density = 1.765043 g / cm^3
# Si number density = 17.690699 Si / 1000 Ang^3
#
#
#
# Elastic Constant Matrix: (Units=GPa)
#
#
# Indices 1 2 3 4 5 6 
#
# 1 121.7544 46.2036 47.9566 0.0000 14.4877 0.0000
# 2 46.2036 63.7843 30.3150 0.0000 11.8248 0.0000
# 3 47.9566 30.3150 91.4357 0.0000 11.7788 0.0000
# 4 0.0000 0.0000 0.0000 16.1619 0.0000 5.5147
# 5 14.4877 11.8248 11.7788 0.0000 22.7120 0.0000
# 6 0.0000 0.0000 0.0000 5.5147 0.0000 34.0954
#
#
#
# Elastic Compliance Matrix: (Units=1/GPa)
#
#
# Indices 1 2 3 4 5 6 
#
# 1 0.012695 -0.006800 -0.004090 0.000000 -0.002436 0.000000
# 2 -0.006800 0.023338 -0.003391 0.000000 -0.006054 0.000000
# 3 -0.004090 -0.003391 0.014619 0.000000 -0.003207 0.000000
# 4 0.000000 0.000000 0.000000 0.065488 0.000000 -0.010592
# 5 -0.002436 -0.006054 -0.003207 0.000000 0.050399 0.000000
# 6 0.000000 0.000000 0.000000 -0.010592 0.000000 0.031043
#
#
# Mechanical properties :
#
#
# Convention : Reuss Voigt Hill
#
# Bulk Modulus (GPa) = 45.27015 58.43606 51.85311
# Shear Modulus (GPa) = 21.41273 24.76049 23.08661
#
# Velocity S-wave (km/s) = 3.48285 3.74523 3.61642
# Velocity P-wave (km/s) = 6.46676 7.19764 6.84197
#
# Compressibility (1/GPa) = 0.02208961
#
# Stress axis : x y z
#
# Youngs Moduli (GPa) = 78.77401 42.84902 68.40387
#
# Poissons Ratio (x) = 0.29138 0.27975
# Poissons Ratio (y) = 0.53568 0.23196
# Poissons Ratio (z) = 0.32216 0.14530
#
# Static dielectric constant tensor:
#      x y z
#    x 3.998310 0.000000 -0.489650 
#    y 0.000000 3.223770 0.000000 
#    z -0.489650 0.000000 4.028170 
# 
# 
# High freq. dielectric constant tensor:
#      x y z
#    x 1.685530 0.000000 0.011640 
#    y 0.000000 1.675550 0.000000 
#    z 0.011640 0.000000 1.657670 
# 
# From -- ./inp_files/313322.got.cif
#   From: 2010.06.25/outbox.cif.g09.slc.cpg/sg12_157_cif.got.tgz:313322.got - 2010.06.28 00:19:55.
