data_PCOD8087333
_publ_section_title
;
Structure prediction by ZEFSAII (Michael W. Deem and Ramdas Pophale) SiO2 
 PCOD8087333
Probable space group: C 2/M
;
_chemical_formula_sum "Si O2"
_cell_formula_units_Z 56
_cell_length_a 14.549322
_cell_length_b 13.352164
_cell_length_c 17.345188
_cell_angle_alpha 90.000000
_cell_angle_beta 60.076259
_cell_angle_gamma 90.000000
_cell_volume 2920.365920
_symmetry_space_group_name_H-M "C 2/M"
_symmetry_group_IT_number 12
_symmetry_cell_setting 'monoclinic'
loop_
_space_group_symop_operation_xyz
x,y,z
-x,y,-z
-x,-y,-z
x,-y,z
1/2+x,1/2+y,z
1/2-x,1/2+y,-z
1/2-x,1/2-y,-z
1/2+x,1/2-y,z
loop_
_atom_site_type_symbol
_atom_site_label
_atom_site_fract_x
_atom_site_fract_y
_atom_site_fract_z
Si Si1 0.374801 0.245388 0.548313
Si Si2 0.896615 0.884955 0.955081
Si Si3 0.781762 0.886101 0.309193
Si Si4 0.107495 0.890142 0.589196
Si Si5 0.861054 0.891591 0.682259
Si Si6 0.121741 0.200786 0.878984
Si Si7 0.757187 0.384252 0.116769
O O1 0.500000 0.227345 0.500000
O O2 0.317083 0.141017 0.592145
O O3 0.341798 0.299240 0.481864
O O4 0.320374 0.312792 0.637571
O O5 0.800595 0.852976 0.938739
O O6 0.999945 0.813165 0.901392
O O7 0.929805 0.000000 0.924111
O O8 0.855494 0.875770 0.060191
O O9 0.882519 0.870640 0.323413
O O10 0.798076 0.821122 0.225020
O O11 0.767150 0.000000 0.288348
O O12 0.985798 0.894404 0.619399
O O13 0.157774 0.000000 0.547566
O O14 0.831271 0.864030 0.781570
O O15 0.812137 0.000000 0.681924
O O16 0.142694 0.312876 0.904301
O O17 0.796139 0.500000 0.097879
#
# Coordination Sequence:
#
# PCOD8087333 Si02
#       7
#     8   8   8   8   8   8   8
#     4  10  19  32  49  72 101 136 170 212 263 314
#     4  10  21  37  59  86 112 143 186 231 269 319
#     4  11  21  33  50  74 102 137 178 217 261 320
#     4   9  18  31  51  76  99 128 172 224 267 309
#     4   9  16  30  51  76 101 127 166 218 267 314
#     4  11  20  36  58  84 111 145 180 226 278 327
#     4  10  20  35  57  85 113 144 183 227 275 326
#
# _framework density 19.175678999999999
#
# number of rings (size 3 to 8) (size 9 to 14) (size 15 to 20)
#    0.000    2.000    1.429    3.857    0.000    4.286 
#    0.000    1.429    0.000    2.571    0.000    0.000 
#    0.000    0.000    0.000    0.000    0.000    0.000 
#
# Total GULP energy -346879.712400 kJ/mol
# GULP energy per Si atom -12388.561157 kJ/mol
# Density = 1.913203 g / cm^3
# Si number density = 19.175679 Si / 1000 Ang^3
#
#
#
# Elastic Constant Matrix: (Units=GPa)
#
#
# Indices 1 2 3 4 5 6 
#
# 1 62.3660 49.5170 17.6489 0.0000 8.2684 0.0000
# 2 49.5170 89.1438 27.2591 0.0000 3.4098 0.0000
# 3 17.6489 27.2591 88.0083 0.0000 8.9023 0.0000
# 4 0.0000 0.0000 0.0000 30.7103 0.0000 -0.2039
# 5 8.2684 3.4098 8.9023 0.0000 25.5477 0.0000
# 6 0.0000 0.0000 0.0000 -0.2039 0.0000 28.6132
#
#
#
# Elastic Compliance Matrix: (Units=1/GPa)
#
#
# Indices 1 2 3 4 5 6 
#
# 1 0.030068 -0.016352 -0.000209 0.000000 -0.007476 0.000000
# 2 -0.016352 0.021287 -0.003692 0.000000 0.003738 0.000000
# 3 -0.000209 -0.003692 0.012948 0.000000 -0.003951 0.000000
# 4 0.000000 0.000000 0.000000 0.032564 0.000000 0.000232
# 5 -0.007476 0.003738 -0.003951 0.000000 0.042440 0.000000
# 6 0.000000 0.000000 0.000000 0.000232 0.000000 0.034951
#
#
# Mechanical properties :
#
#
# Convention : Reuss Voigt Hill
#
# Bulk Modulus (GPa) = 42.02281 47.59646 44.80964
# Shear Modulus (GPa) = 22.45223 26.64711 24.54967
#
# Velocity S-wave (km/s) = 3.42551 3.73182 3.58194
# Velocity P-wave (km/s) = 6.13251 6.59119 6.36598
#
# Compressibility (1/GPa) = 0.02379660
#
# Stress axis : x y z
#
# Youngs Moduli (GPa) = 33.25827 46.97703 77.23381
#
# Poissons Ratio (x) = 0.76817 0.01612
# Poissons Ratio (y) = 0.54384 0.28516
# Poissons Ratio (z) = 0.00694 0.17345
#
# Static dielectric constant tensor:
#      x y z
#    x 3.306030 0.000000 0.239990 
#    y 0.000000 3.678790 0.000000 
#    z 0.239990 0.000000 3.531730 
# 
# 
# High freq. dielectric constant tensor:
#      x y z
#    x 1.723360 0.000000 0.020710 
#    y 0.000000 1.741700 0.000000 
#    z 0.020710 0.000000 1.749270 
# 
# From -- ./inp_files/223730.got.cif
#   From: 2010.06.25/outbox.cif.g09.slc.cpg/sg12_112_cif.got.tgz:223730.got - 2010.06.28 00:19:55.
