data_PCOD8087315
_publ_section_title
;
Structure prediction by ZEFSAII (Michael W. Deem and Ramdas Pophale) SiO2 
 PCOD8087315
Probable space group: C 2/M
;
_chemical_formula_sum "Si O2"
_cell_formula_units_Z 64
_cell_length_a 13.932946
_cell_length_b 25.555701
_cell_length_c 11.783932
_cell_angle_alpha 90.000000
_cell_angle_beta 73.803855
_cell_angle_gamma 90.000000
_cell_volume 4029.336532
_symmetry_space_group_name_H-M "C 2/M"
_symmetry_group_IT_number 12
_symmetry_cell_setting 'monoclinic'
loop_
_space_group_symop_operation_xyz
x,y,z
-x,y,-z
-x,-y,-z
x,-y,z
1/2+x,1/2+y,z
1/2-x,1/2+y,-z
1/2-x,1/2-y,-z
1/2+x,1/2-y,z
loop_
_atom_site_type_symbol
_atom_site_label
_atom_site_fract_x
_atom_site_fract_y
_atom_site_fract_z
Si Si1 0.390385 0.788602 0.554299
Si Si2 0.496431 0.059602 0.634925
Si Si3 0.119218 0.345680 0.672704
Si Si4 0.925140 0.202936 0.885123
Si Si5 0.162455 0.368289 0.240889
Si Si6 0.145616 0.186339 0.855570
Si Si7 0.772999 0.215062 0.739552
Si Si8 0.956414 0.680414 0.898187
O O1 0.500000 0.764718 0.500000
O O2 0.353719 0.817582 0.453656
O O3 0.397948 0.829843 0.654811
O O4 0.316688 0.741713 0.611440
O O5 0.500000 0.068306 0.500000
O O6 0.583473 0.094410 0.665595
O O7 0.384065 0.074705 0.715787
O O8 0.517557 0.000000 0.662213
O O9 0.217534 0.338419 0.719270
O O10 0.035072 0.315310 0.770381
O O11 0.861951 0.196566 0.792126
O O12 0.920225 0.261501 0.936283
O O13 0.040068 0.185554 0.822954
O O14 0.875703 0.171547 0.005903
O O15 0.281839 0.360077 0.217614
O O16 0.136752 0.353561 0.118198
O O17 0.200338 0.242677 0.824290
O O18 0.000000 0.655008 0.000000
#
# Coordination Sequence:
#
# PCOD8087315 Si02
#       8
#     8   8   8   8   8   8   8   8
#     4  11  17  31  43  67 103 135 163 194 234 292
#     4  10  19  35  58  77  95 120 164 217 252 292
#     4  11  19  32  45  71 100 133 163 199 251 292
#     4  11  18  30  40  70  98 131 182 197 224 281
#     4  10  19  32  49  70  98 130 161 205 256 288
#     4  10  20  28  46  66 102 136 167 211 225 282
#     4  11  21  27  45  66 100 145 167 190 241 295
#     4  11  18  27  46  68  98 132 172 203 228 284
#
# _framework density 15.883509
#
# number of rings (size 3 to 8) (size 9 to 14) (size 15 to 20)
#    0.000    1.375    8.750    0.750    1.750    0.000 
#    0.000    0.000    0.000    6.000    0.000    2.625 
#    0.000    2.500    0.000    0.000    0.000    0.000 
#
# Total GULP energy -396469.769384 kJ/mol
# GULP energy per Si atom -12389.680293 kJ/mol
# Density = 1.584736 g / cm^3
# Si number density = 15.883509 Si / 1000 Ang^3
#
#
#
# Elastic Constant Matrix: (Units=GPa)
#
#
# Indices 1 2 3 4 5 6 
#
# 1 125.4318 41.2102 43.5681 0.0000 4.3941 0.0000
# 2 41.2102 66.2143 22.7891 0.0000 -1.0118 0.0000
# 3 43.5681 22.7891 73.7999 0.0000 0.1807 0.0000
# 4 0.0000 0.0000 0.0000 11.2475 0.0000 1.4055
# 5 4.3941 -1.0118 0.1807 0.0000 30.8205 0.0000
# 6 0.0000 0.0000 0.0000 1.4055 0.0000 17.3605
#
#
#
# Elastic Compliance Matrix: (Units=1/GPa)
#
#
# Indices 1 2 3 4 5 6 
#
# 1 0.011635 -0.005490 -0.005169 0.000000 -0.001809 0.000000
# 2 -0.005490 0.019499 -0.002784 0.000000 0.001439 0.000000
# 3 -0.005169 -0.002784 0.017460 0.000000 0.000543 0.000000
# 4 0.000000 0.000000 0.000000 0.089817 0.000000 -0.007271
# 5 -0.001809 0.001439 0.000543 0.000000 0.032748 0.000000
# 6 0.000000 0.000000 0.000000 -0.007271 0.000000 0.058191
#
#
# Mechanical properties :
#
#
# Convention : Reuss Voigt Hill
#
# Bulk Modulus (GPa) = 46.06441 53.39787 49.73114
# Shear Modulus (GPa) = 18.97735 22.41093 20.69414
#
# Velocity S-wave (km/s) = 3.46031 3.76034 3.61344
# Velocity P-wave (km/s) = 6.71039 7.24879 6.98478
#
# Compressibility (1/GPa) = 0.02170873
#
# Stress axis : x y z
#
# Youngs Moduli (GPa) = 85.94776 51.28365 57.27358
#
# Poissons Ratio (x) = 0.28154 0.29605
# Poissons Ratio (y) = 0.47185 0.15944
# Poissons Ratio (z) = 0.44427 0.14277
#
# Static dielectric constant tensor:
#      x y z
#    x 3.216310 0.000000 0.007990 
#    y 0.000000 2.598850 0.000000 
#    z 0.007990 0.000000 3.175780 
# 
# 
# High freq. dielectric constant tensor:
#      x y z
#    x 1.615120 0.000000 0.000060 
#    y 0.000000 1.537640 0.000000 
#    z 0.000060 0.000000 1.624020 
# 
# From -- ./inp_files/148633.got.cif
#   From: 2010.06.25/outbox.cif.g09.slc.cpg/sg12_75_cif.got.tgz:148633.got - 2010.06.28 00:19:55.
