data_PCOD8087822
_publ_section_title
;
Structure prediction by ZEFSAII (Michael W. Deem and Ramdas Pophale) SiO2 
 PCOD8087822
Probable space group: C 2/M
;
_chemical_formula_sum "Si O2"
_cell_formula_units_Z 56
_cell_length_a 20.510466
_cell_length_b 9.535669
_cell_length_c 16.433218
_cell_angle_alpha 90.000000
_cell_angle_beta 121.522150
_cell_angle_gamma 90.000000
_cell_volume 2739.757775
_symmetry_space_group_name_H-M "C 2/M"
_symmetry_group_IT_number 12
_symmetry_cell_setting 'monoclinic'
loop_
_space_group_symop_operation_xyz
x,y,z
-x,y,-z
-x,-y,-z
x,-y,z
1/2+x,1/2+y,z
1/2-x,1/2+y,-z
1/2-x,1/2-y,-z
1/2+x,1/2-y,z
loop_
_atom_site_type_symbol
_atom_site_label
_atom_site_fract_x
_atom_site_fract_y
_atom_site_fract_z
Si Si1 0.825683 0.161695 0.064769
Si Si2 0.327980 0.844358 0.533579
Si Si3 0.222002 0.839166 0.643956
Si Si4 0.490731 0.844669 0.580838
Si Si5 0.482965 0.664658 0.082200
Si Si6 0.387920 0.160529 0.745977
Si Si7 0.385802 0.338349 0.282268
O O1 0.897912 0.211719 0.055889
O O2 0.841913 0.184334 0.170036
O O3 0.808170 0.000000 0.033383
O O4 0.750000 0.250000 0.000000
O O5 0.274749 0.735558 0.445682
O O6 0.400775 0.855935 0.524678
O O7 0.366000 0.789205 0.641490
O O8 0.289928 0.000000 0.518511
O O9 0.306439 0.826407 0.740169
O O10 0.164055 0.778196 0.673753
O O11 0.201963 0.000000 0.612547
O O12 0.500000 0.771650 0.500000
O O13 0.534798 0.746469 0.673983
O O14 0.527658 0.000000 0.610688
O O15 0.492912 0.500000 0.103812
O O16 0.546800 0.741326 0.176717
O O17 0.500000 0.705504 0.000000
O O18 0.418094 0.000000 0.766268
O O19 0.405251 0.500000 0.308867
#
# Coordination Sequence:
#
# PCOD8087822 Si02
#       7
#     8   8   8   8   8   8   8
#     4  10  23  42  64  91 120 151 193 245 298 353
#     4  10  20  35  54  80 114 150 193 238 286 340
#     4  10  21  35  53  82 116 151 192 237 284 341
#     4  10  19  32  51  77 109 145 186 233 279 334
#     4  10  23  43  64  89 120 153 195 246 299 356
#     4  10  22  38  58  84 115 152 196 243 289 345
#     4  10  21  36  55  81 114 149 190 237 288 346
#
# _framework density 20.439762000000002
#
# number of rings (size 3 to 8) (size 9 to 14) (size 15 to 20)
#    0.000    2.000    1.429    1.286    2.000    3.429 
#    0.000    0.000    0.000    0.000    0.000    0.000 
#    0.000    0.000    0.000    0.000    0.000    0.000 
#
# Total GULP energy -346900.283028 kJ/mol
# GULP energy per Si atom -12389.295822 kJ/mol
# Density = 2.039324 g / cm^3
# Si number density = 20.439762 Si / 1000 Ang^3
#
#
#
# Elastic Constant Matrix: (Units=GPa)
#
#
# Indices 1 2 3 4 5 6 
#
# 1 37.9756 19.0591 42.4067 0.0000 1.8017 0.0000
# 2 19.0591 73.6919 68.6784 0.0000 14.2969 0.0000
# 3 42.4067 68.6784 113.3833 0.0000 13.1749 0.0000
# 4 0.0000 0.0000 0.0000 40.0987 0.0000 4.6844
# 5 1.8017 14.2969 13.1749 0.0000 37.4381 0.0000
# 6 0.0000 0.0000 0.0000 4.6844 0.0000 19.2284
#
#
#
# Elastic Compliance Matrix: (Units=1/GPa)
#
#
# Indices 1 2 3 4 5 6 
#
# 1 0.048425 0.009500 -0.024161 0.000000 0.002544 0.000000
# 2 0.009500 0.034142 -0.023631 0.000000 -0.005179 0.000000
# 3 -0.024161 -0.023631 0.032307 0.000000 -0.001182 0.000000
# 4 0.000000 0.000000 0.000000 0.025669 0.000000 -0.006253
# 5 0.002544 -0.005179 -0.001182 0.000000 0.028982 0.000000
# 6 0.000000 0.000000 0.000000 -0.006253 0.000000 0.053530
#
#
# Mechanical properties :
#
#
# Convention : Reuss Voigt Hill
#
# Bulk Modulus (GPa) = 26.11791 53.92658 40.02224
# Shear Modulus (GPa) = 16.00497 25.68014 20.84255
#
# Velocity S-wave (km/s) = 2.80130 3.54839 3.19675
# Velocity P-wave (km/s) = 4.82378 6.57484 5.76617
#
# Compressibility (1/GPa) = 0.03828791
#
# Stress axis : x y z
#
# Youngs Moduli (GPa) = 20.65063 29.28986 30.95260
#
# Poissons Ratio (x) = -0.27824 0.74785
# Poissons Ratio (y) = -0.19617 0.73145
# Poissons Ratio (z) = 0.49894 0.69216
#
# Static dielectric constant tensor:
#      x y z
#    x 4.372440 0.000000 -0.051160 
#    y 0.000000 3.765600 0.000000 
#    z -0.051160 0.000000 3.625170 
# 
# 
# High freq. dielectric constant tensor:
#      x y z
#    x 1.827350 0.000000 -0.002760 
#    y 0.000000 1.786080 0.000000 
#    z -0.002760 0.000000 1.788710 
# 
# From -- ./inp_files/288444.got.cif
#   From: 2010.06.25/outbox.cif.g09.slc.cpg/sg12_145_cif.got.tgz:288444.got - 2010.06.28 00:19:55.
