data_PCOD8087283
_publ_section_title
;
Structure prediction by ZEFSAII (Michael W. Deem and Ramdas Pophale) SiO2 
 PCOD8087283
Probable space group: C 2/M
;
_chemical_formula_sum "Si O2"
_cell_formula_units_Z 56
_cell_length_a 19.548912
_cell_length_b 8.796306
_cell_length_c 22.117282
_cell_angle_alpha 90.000000
_cell_angle_beta 125.377277
_cell_angle_gamma 90.000000
_cell_volume 3101.006881
_symmetry_space_group_name_H-M "C 2/M"
_symmetry_group_IT_number 12
_symmetry_cell_setting 'monoclinic'
loop_
_space_group_symop_operation_xyz
x,y,z
-x,y,-z
-x,-y,-z
x,-y,z
1/2+x,1/2+y,z
1/2-x,1/2+y,-z
1/2-x,1/2-y,-z
1/2+x,1/2-y,z
loop_
_atom_site_type_symbol
_atom_site_label
_atom_site_fract_x
_atom_site_fract_y
_atom_site_fract_z
Si Si1 0.508315 0.680128 0.593467
Si Si2 0.080561 0.821123 0.757999
Si Si3 0.624698 0.820154 0.552264
Si Si4 0.966319 0.678172 0.796404
Si Si5 0.756727 0.680492 0.805846
Si Si6 0.939516 0.681315 0.917516
Si Si7 0.220932 0.321757 0.318991
O O1 0.511876 0.500000 0.585030
O O2 0.525649 0.724856 0.671595
O O3 0.579123 0.756353 0.588357
O O4 0.417384 0.746193 0.528848
O O5 0.175452 0.755482 0.799506
O O6 0.041236 0.753655 0.798137
O O7 0.083650 0.000000 0.766846
O O8 0.722358 0.771449 0.604389
O O9 0.615395 0.000000 0.544109
O O10 0.980934 0.500000 0.803647
O O11 0.969174 0.739373 0.866806
O O12 0.876747 0.717736 0.719973
O O13 0.754873 0.500000 0.804668
O O14 0.843761 0.737031 0.881000
O O15 0.753606 0.734181 0.734883
O O16 0.942352 0.500000 0.919877
O O17 0.000000 0.750736 0.000000
O O18 0.238019 0.500000 0.336127
#
# Coordination Sequence:
#
# PCOD8087283 Si02
#       7
#     8   8   8   8   8   8   8
#     4  10  19  32  49  67  94 136 172 200 242 300
#     4  10  19  32  50  71  98 133 167 202 244 295
#     4  11  20  29  46  75 101 122 159 217 262 283
#     4   9  19  32  51  75 101 130 162 207 248 288
#     4   8  14  27  48  71  93 126 171 203 231 285
#     4   8  14  28  52  78 100 126 164 204 239 285
#     4   9  16  32  51  67  92 131 174 204 239 296
#
# _framework density 18.058651000000001
#
# number of rings (size 3 to 8) (size 9 to 14) (size 15 to 20)
#    0.000    2.714    1.429    4.286    0.000    1.714 
#    0.000    1.429    0.000    0.429    0.000    0.000 
#    0.000    0.000    0.000    0.000    0.000    0.000 
#
# Total GULP energy -347058.141172 kJ/mol
# GULP energy per Si atom -12394.933613 kJ/mol
# Density = 1.801755 g / cm^3
# Si number density = 18.058651 Si / 1000 Ang^3
#
#
#
# Elastic Constant Matrix: (Units=GPa)
#
#
# Indices 1 2 3 4 5 6 
#
# 1 131.6961 25.2547 66.7787 0.0000 9.0971 0.0000
# 2 25.2547 44.1931 28.0759 0.0000 3.1369 0.0000
# 3 66.7787 28.0759 127.3967 0.0000 18.6900 0.0000
# 4 0.0000 0.0000 0.0000 10.8975 0.0000 -3.0673
# 5 9.0971 3.1369 18.6900 0.0000 25.6710 0.0000
# 6 0.0000 0.0000 0.0000 -3.0673 0.0000 24.8288
#
#
#
# Elastic Compliance Matrix: (Units=1/GPa)
#
#
# Indices 1 2 3 4 5 6 
#
# 1 0.010665 -0.002952 -0.004969 0.000000 0.000199 0.000000
# 2 -0.002952 0.027158 -0.004595 0.000000 0.001073 0.000000
# 3 -0.004969 -0.004595 0.012457 0.000000 -0.006747 0.000000
# 4 0.000000 0.000000 0.000000 0.095070 0.000000 0.011745
# 5 0.000199 0.001073 -0.006747 0.000000 0.043665 0.000000
# 6 0.000000 0.000000 0.000000 0.011745 0.000000 0.041727
#
#
# Mechanical properties :
#
#
# Convention : Reuss Voigt Hill
#
# Bulk Modulus (GPa) = 39.60812 60.38940 49.99876
# Shear Modulus (GPa) = 18.92574 24.49123 21.70848
#
# Velocity S-wave (km/s) = 3.24082 3.68666 3.47091
# Velocity P-wave (km/s) = 5.99871 7.18577 6.61891
#
# Compressibility (1/GPa) = 0.02524735
#
# Stress axis : x y z
#
# Youngs Moduli (GPa) = 93.76232 36.82146 80.27792
#
# Poissons Ratio (x) = 0.10870 0.39891
# Poissons Ratio (y) = 0.27679 0.36889
# Poissons Ratio (z) = 0.46592 0.16920
#
# Static dielectric constant tensor:
#      x y z
#    x 3.491590 0.000000 0.246080 
#    y 0.000000 2.974090 0.000000 
#    z 0.246080 0.000000 3.579210 
# 
# 
# High freq. dielectric constant tensor:
#      x y z
#    x 1.687640 0.000000 0.019180 
#    y 0.000000 1.667780 0.000000 
#    z 0.019180 0.000000 1.694230 
# 
# From -- ./inp_files/314433.got.cif
#   From: 2010.06.25/outbox.cif.g09.slc.cpg/sg12_158_cif.got.tgz:314433.got - 2010.06.28 00:19:55.
