data_PCOD8087423
_publ_section_title
;
Structure prediction by ZEFSAII (Michael W. Deem and Ramdas Pophale) SiO2 
 PCOD8087423
Probable space group: C 2/M
;
_chemical_formula_sum "Si O2"
_cell_formula_units_Z 64
_cell_length_a 20.143747
_cell_length_b 8.751999
_cell_length_c 24.914336
_cell_angle_alpha 90.000000
_cell_angle_beta 131.646771
_cell_angle_gamma 90.000000
_cell_volume 3282.208545
_symmetry_space_group_name_H-M "C 2/M"
_symmetry_group_IT_number 12
_symmetry_cell_setting 'monoclinic'
loop_
_space_group_symop_operation_xyz
x,y,z
-x,y,-z
-x,-y,-z
x,-y,z
1/2+x,1/2+y,z
1/2-x,1/2+y,-z
1/2-x,1/2-y,-z
1/2+x,1/2-y,z
loop_
_atom_site_type_symbol
_atom_site_label
_atom_site_fract_x
_atom_site_fract_y
_atom_site_fract_z
Si Si1 0.535507 0.327048 0.573345
Si Si2 0.518960 0.676483 0.101046
Si Si3 0.315053 0.682104 0.988927
Si Si4 0.177466 0.682410 0.121633
Si Si5 0.314393 0.828790 0.613780
Si Si6 0.357177 0.326626 0.736841
Si Si7 0.144984 0.831044 0.469071
Si Si8 0.709031 0.677391 0.718769
O O1 0.500000 0.243135 0.500000
O O2 0.564777 0.500000 0.573177
O O3 0.457723 0.325979 0.573859
O O4 0.617965 0.244684 0.648335
O O5 0.521247 0.500000 0.085045
O O6 0.579188 0.763435 0.088819
O O7 0.555388 0.702547 0.180855
O O8 0.417745 0.735997 0.050840
O O9 0.306188 0.500000 0.986391
O O10 0.289612 0.744781 0.916511
O O11 0.250000 0.750000 0.000000
O O12 0.174951 0.500000 0.115546
O O13 0.251684 0.742625 0.204045
O O14 0.370664 0.712631 0.681505
O O15 0.206669 0.802141 0.555514
O O16 0.340643 0.800277 0.566490
O O17 0.340404 0.000000 0.644463
O O18 0.324693 0.500000 0.726987
O O19 0.281635 0.207051 0.712435
O O20 0.169959 0.000000 0.459933
O O21 0.692464 0.500000 0.718457
#
# Coordination Sequence:
#
# PCOD8087423 Si02
#       8
#     8   8   8   8   8   8   8   8
#     4   9  16  29  51  76 101 134 177 217 255 305
#     4   9  20  38  59  83 109 142 186 228 269 325
#     4  11  23  40  60  83 113 147 183 227 278 332
#     4  10  20  35  58  86 115 147 183 227 276 329
#     4  10  19  32  50  72 101 134 172 221 267 310
#     4  10  19  33  54  78 103 134 172 215 261 313
#     4   9  18  32  50  71  97 135 179 217 258 315
#     4   9  18  33  53  79 108 138 174 218 263 310
#
# _framework density 19.499065000000002
#
# number of rings (size 3 to 8) (size 9 to 14) (size 15 to 20)
#    0.000    2.375    0.000    2.625    0.000    6.000 
#    2.250    0.625    0.000    1.500    0.000    0.000 
#    0.000    0.000    0.000    0.000    0.000    0.000 
#
# Total GULP energy -396476.593058 kJ/mol
# GULP energy per Si atom -12389.893533 kJ/mol
# Density = 1.945468 g / cm^3
# Si number density = 19.499065 Si / 1000 Ang^3
#
#
#
# Elastic Constant Matrix: (Units=GPa)
#
#
# Indices 1 2 3 4 5 6 
#
# 1 93.6123 29.6498 60.7053 0.0000 3.7966 0.0000
# 2 29.6498 50.5545 37.1061 0.0000 -2.2057 0.0000
# 3 60.7053 37.1061 135.0955 0.0000 1.9395 0.0000
# 4 0.0000 0.0000 0.0000 26.5439 0.0000 -5.2679
# 5 3.7966 -2.2057 1.9395 0.0000 31.7475 0.0000
# 6 0.0000 0.0000 0.0000 -5.2679 0.0000 24.6629
#
#
#
# Elastic Compliance Matrix: (Units=1/GPa)
#
#
# Indices 1 2 3 4 5 6 
#
# 1 0.016207 -0.005343 -0.005787 0.000000 -0.001956 0.000000
# 2 -0.005343 0.026683 -0.004968 0.000000 0.002796 0.000000
# 3 -0.005787 -0.004968 0.011372 0.000000 -0.000348 0.000000
# 4 0.000000 0.000000 0.000000 0.039341 0.000000 0.008403
# 5 -0.001956 0.002796 -0.000348 0.000000 0.031948 0.000000
# 6 0.000000 0.000000 0.000000 0.008403 0.000000 0.042342
#
#
# Mechanical properties :
#
#
# Convention : Reuss Voigt Hill
#
# Bulk Modulus (GPa) = 45.31946 59.35385 52.33666
# Shear Modulus (GPa) = 24.10302 26.71094 25.40698
#
# Velocity S-wave (km/s) = 3.51965 3.70517 3.61360
# Velocity P-wave (km/s) = 6.30948 6.98640 6.65655
#
# Compressibility (1/GPa) = 0.02206558
#
# Stress axis : x y z
#
# Youngs Moduli (GPa) = 61.70334 37.47749 87.93481
#
# Poissons Ratio (x) = 0.20024 0.50887
# Poissons Ratio (y) = 0.32968 0.43687
# Poissons Ratio (z) = 0.35707 0.18619
#
# Static dielectric constant tensor:
#      x y z
#    x 3.353570 0.000000 0.132500 
#    y 0.000000 3.413720 0.000000 
#    z 0.132500 0.000000 3.989440 
# 
# 
# High freq. dielectric constant tensor:
#      x y z
#    x 1.736740 0.000000 -0.001260 
#    y 0.000000 1.740880 0.000000 
#    z -0.001260 0.000000 1.778380 
# 
# From -- ./inp_files/346246.got.cif
#   From: 2010.06.25/outbox.cif.g09.slc.cpg/sg12_174_cif.got.tgz:346246.got - 2010.06.28 00:19:55.
