data_PCOD8087961
_publ_section_title
;
Structure prediction by ZEFSAII (Michael W. Deem and Ramdas Pophale) SiO2 
 PCOD8087961
Probable space group: C 2/M
;
_chemical_formula_sum "Si O2"
_cell_formula_units_Z 64
_cell_length_a 18.392610
_cell_length_b 9.091010
_cell_length_c 26.698659
_cell_angle_alpha 90.000000
_cell_angle_beta 129.828070
_cell_angle_gamma 90.000000
_cell_volume 3428.381213
_symmetry_space_group_name_H-M "C 2/M"
_symmetry_group_IT_number 12
_symmetry_cell_setting 'monoclinic'
loop_
_space_group_symop_operation_xyz
x,y,z
-x,y,-z
-x,-y,-z
x,-y,z
1/2+x,1/2+y,z
1/2-x,1/2+y,-z
1/2-x,1/2-y,-z
1/2+x,1/2-y,z
loop_
_atom_site_type_symbol
_atom_site_label
_atom_site_fract_x
_atom_site_fract_y
_atom_site_fract_z
Si Si1 0.323462 0.672354 0.496349
Si Si2 0.309882 0.669869 0.984613
Si Si3 0.346137 0.826079 0.763676
Si Si4 0.345265 0.672654 0.266412
Si Si5 0.670107 0.170976 0.354536
Si Si6 0.968645 0.675131 0.619679
Si Si7 0.970405 0.831624 0.126245
Si Si8 0.684659 0.671553 0.860837
O O1 0.332495 0.500000 0.512959
O O2 0.250000 0.750000 0.500000
O O3 0.278959 0.695904 0.421169
O O4 0.424261 0.752701 0.549333
O O5 0.281185 0.500000 0.970400
O O6 0.419784 0.688067 0.049505
O O7 0.250000 0.750000 0.000000
O O8 0.281980 0.743880 0.919268
O O9 0.252839 0.778045 0.752121
O O10 0.342434 0.757172 0.705834
O O11 0.436136 0.765801 0.833082
O O12 0.354084 0.000000 0.765375
O O13 0.365574 0.500000 0.282878
O O14 0.425431 0.767253 0.328782
O O15 0.343103 0.716404 0.207293
O O16 0.592909 0.233747 0.359893
O O17 0.648916 0.000000 0.340590
O O18 0.966502 0.500000 0.613547
O O19 0.901079 0.780365 0.140647
O O20 0.999503 0.000000 0.147830
O O21 0.706649 0.500000 0.875460
#
# Coordination Sequence:
#
# PCOD8087961 Si02
#       8
#     8   8   8   8   8   8   8   8
#     4   9  16  29  50  75 102 128 159 204 251 294
#     4   9  17  30  50  76 102 128 161 203 248 292
#     4  10  20  34  51  71  97 130 167 203 242 292
#     4  10  21  35  50  71 100 132 165 204 248 291
#     4   8  16  31  51  75  98 123 161 203 241 288
#     4  10  19  32  52  76 100 128 165 206 247 296
#     4   9  18  32  50  73  99 125 157 199 244 289
#     4   9  18  33  52  75 101 128 163 204 245 293
#
# _framework density 18.667702999999999
#
# number of rings (size 3 to 8) (size 9 to 14) (size 15 to 20)
#    0.000    2.750    0.000    3.375    0.000    3.500 
#    0.000    4.375    0.000    7.500    0.000    0.000 
#    0.000    0.000    0.000    0.000    0.000    0.000 
#
# Total GULP energy -396608.409082 kJ/mol
# GULP energy per Si atom -12394.012784 kJ/mol
# Density = 1.862521 g / cm^3
# Si number density = 18.667703 Si / 1000 Ang^3
#
#
#
# Elastic Constant Matrix: (Units=GPa)
#
#
# Indices 1 2 3 4 5 6 
#
# 1 49.6229 20.2908 33.0171 0.0000 20.3794 0.0000
# 2 20.2908 67.0552 53.8742 0.0000 12.0219 0.0000
# 3 33.0171 53.8742 136.0810 0.0000 26.1186 0.0000
# 4 0.0000 0.0000 0.0000 38.0634 0.0000 5.4327
# 5 20.3794 12.0219 26.1186 0.0000 17.3294 0.0000
# 6 0.0000 0.0000 0.0000 5.4327 0.0000 16.9019
#
#
#
# Elastic Compliance Matrix: (Units=1/GPa)
#
#
# Indices 1 2 3 4 5 6 
#
# 1 0.040025 -0.004665 0.000772 0.000000 -0.044997 0.000000
# 2 -0.004665 0.022523 -0.008216 0.000000 0.002243 0.000000
# 3 0.000772 -0.008216 0.013358 0.000000 -0.015342 0.000000
# 4 0.000000 0.000000 0.000000 0.027535 0.000000 -0.008850
# 5 -0.044997 0.002243 -0.015342 0.000000 0.132189 0.000000
# 6 0.000000 0.000000 0.000000 -0.008850 0.000000 0.062010
#
#
# Mechanical properties :
#
#
# Convention : Reuss Voigt Hill
#
# Bulk Modulus (GPa) = 19.34593 51.90261 35.62427
# Shear Modulus (GPa) = 14.74545 24.16408 19.45477
#
# Velocity S-wave (km/s) = 2.81355 3.60173 3.23176
# Velocity P-wave (km/s) = 4.57609 6.72015 5.74895
#
# Compressibility (1/GPa) = 0.05169047
#
# Stress axis : x y z
#
# Youngs Moduli (GPa) = 24.98409 44.39883 74.85880
#
# Poissons Ratio (x) = 0.20710 -0.05778
# Poissons Ratio (y) = 0.11654 0.61501
# Poissons Ratio (z) = -0.01928 0.36476
#
# Static dielectric constant tensor:
#      x y z
#    x 3.190310 0.000000 -0.099070 
#    y 0.000000 3.391520 0.000000 
#    z -0.099070 0.000000 2.933060 
# 
# 
# High freq. dielectric constant tensor:
#      x y z
#    x 1.681010 0.000000 -0.001080 
#    y 0.000000 1.714950 0.000000 
#    z -0.001080 0.000000 1.746310 
# 
# From -- ./inp_files/319192.got.cif
#   From: 2010.06.25/outbox.cif.g09.slc.cpg/sg12_160_cif.got.tgz:319192.got - 2010.06.28 00:19:55.
