data_PCOD8087396
_publ_section_title
;
Structure prediction by ZEFSAII (Michael W. Deem and Ramdas Pophale) SiO2 
 PCOD8087396
Probable space group: C 2/M
;
_chemical_formula_sum "Si O2"
_cell_formula_units_Z 48
_cell_length_a 32.034169
_cell_length_b 9.165260
_cell_length_c 9.097324
_cell_angle_alpha 90.000000
_cell_angle_beta 92.453976
_cell_angle_gamma 90.000000
_cell_volume 2668.538398
_symmetry_space_group_name_H-M "C 2/M"
_symmetry_group_IT_number 12
_symmetry_cell_setting 'monoclinic'
loop_
_space_group_symop_operation_xyz
x,y,z
-x,y,-z
-x,-y,-z
x,-y,z
1/2+x,1/2+y,z
1/2-x,1/2+y,-z
1/2-x,1/2-y,-z
1/2+x,1/2-y,z
loop_
_atom_site_type_symbol
_atom_site_label
_atom_site_fract_x
_atom_site_fract_y
_atom_site_fract_z
Si Si1 0.083542 0.163969 0.834503
Si Si2 0.711191 0.170377 0.922519
Si Si3 0.873450 0.331556 0.917101
Si Si4 0.874329 0.669999 0.582317
Si Si5 0.957483 0.330207 0.419285
Si Si6 0.668852 0.665195 0.668159
O O1 0.048159 0.246007 0.735254
O O2 0.126144 0.167806 0.750905
O O3 0.068389 0.000000 0.862566
O O4 0.090871 0.243001 0.991047
O O5 0.703224 0.242092 0.761992
O O6 0.720795 0.000000 0.902354
O O7 0.750000 0.250000 0.000000
O O8 0.672021 0.196533 0.022763
O O9 0.886129 0.500000 0.929529
O O10 0.873219 0.276869 0.749801
O O11 0.863158 0.500000 0.565602
O O12 0.920079 0.703850 0.525820
O O13 0.838840 0.760067 0.490612
O O14 0.959879 0.500000 0.380623
O O15 0.000000 0.274416 0.500000
O O16 0.685038 0.500000 0.648246
#
# Coordination Sequence:
#
# PCOD8087396 Si02
#       6
#     8   8   8   8   8   8
#     4   9  17  29  47  69  93 123 157 191 228 273
#     4  10  19  32  50  71  94 121 154 191 231 274
#     4   9  18  32  50  70  93 122 155 191 230 274
#     4   9  17  31  50  71  94 121 155 193 231 271
#     4   9  17  30  49  71  94 122 156 192 230 273
#     4   9  17  30  48  70  94 122 156 190 227 274
#
# _framework density 17.987375
#
# number of rings (size 3 to 8) (size 9 to 14) (size 15 to 20)
#    0.000    2.833    0.000    1.500    0.000    5.667 
#    0.000    1.667    0.000    5.000    0.000    0.000 
#    0.000    0.000    0.000    0.000    0.000    0.000 
#
# Total GULP energy -297618.156914 kJ/mol
# GULP energy per Si atom -12400.756538 kJ/mol
# Density = 1.794643 g / cm^3
# Si number density = 17.987375 Si / 1000 Ang^3
#
#
#
# Elastic Constant Matrix: (Units=GPa)
#
#
# Indices 1 2 3 4 5 6 
#
# 1 68.9980 53.4586 51.9935 0.0000 36.5531 0.0000
# 2 53.4586 120.8124 82.7142 0.0000 31.6194 0.0000
# 3 51.9935 82.7142 166.0158 0.0000 39.4461 0.0000
# 4 0.0000 0.0000 0.0000 28.6629 0.0000 10.7737
# 5 36.5531 31.6194 39.4461 0.0000 34.7085 0.0000
# 6 0.0000 0.0000 0.0000 10.7737 0.0000 23.9116
#
#
#
# Elastic Compliance Matrix: (Units=1/GPa)
#
#
# Indices 1 2 3 4 5 6 
#
# 1 0.038336 -0.008359 -0.000079 0.000000 -0.032668 0.000000
# 2 -0.008359 0.015345 -0.005203 0.000000 0.000736 0.000000
# 3 -0.000079 -0.005203 0.010267 0.000000 -0.006845 0.000000
# 4 0.000000 0.000000 0.000000 0.042002 0.000000 -0.018925
# 5 -0.032668 0.000736 -0.006845 0.000000 0.070324 0.000000
# 6 0.000000 0.000000 0.000000 -0.018925 0.000000 0.050348
#
#
# Mechanical properties :
#
#
# Convention : Reuss Voigt Hill
#
# Bulk Modulus (GPa) = 27.27306 81.35099 54.31203
# Shear Modulus (GPa) = 18.78810 28.63390 23.71100
#
# Velocity S-wave (km/s) = 3.23540 3.99418 3.63464
# Velocity P-wave (km/s) = 5.39929 8.16065 6.91912
#
# Compressibility (1/GPa) = 0.03666621
#
# Stress axis : x y z
#
# Youngs Moduli (GPa) = 26.08508 65.16643 97.40030
#
# Poissons Ratio (x) = 0.54473 0.00774
# Poissons Ratio (y) = 0.21805 0.50673
# Poissons Ratio (z) = 0.00207 0.33903
#
# Static dielectric constant tensor:
#      x y z
#    x 3.084530 0.000000 0.230280 
#    y 0.000000 3.441310 0.000000 
#    z 0.230280 0.000000 3.468470 
# 
# 
# High freq. dielectric constant tensor:
#      x y z
#    x 1.666490 0.000000 0.026490 
#    y 0.000000 1.701350 0.000000 
#    z 0.026490 0.000000 1.697620 
# 
# From -- ./inp_files/108563.got.cif
#   From: 2010.06.25/outbox.cif.g09.slc.cpg/sg12_55_cif.got.tgz:108563.got - 2010.06.28 00:19:55.
