data_PCOD8087477
_publ_section_title
;
Structure prediction by ZEFSAII (Michael W. Deem and Ramdas Pophale) SiO2 
 PCOD8087477
Probable space group: C 2/M
;
_chemical_formula_sum "Si O2"
_cell_formula_units_Z 64
_cell_length_a 24.232680
_cell_length_b 8.687160
_cell_length_c 30.719874
_cell_angle_alpha 90.000000
_cell_angle_beta 151.518129
_cell_angle_gamma 90.000000
_cell_volume 3083.957725
_symmetry_space_group_name_H-M "C 2/M"
_symmetry_group_IT_number 12
_symmetry_cell_setting 'monoclinic'
loop_
_space_group_symop_operation_xyz
x,y,z
-x,y,-z
-x,-y,-z
x,-y,z
1/2+x,1/2+y,z
1/2-x,1/2+y,-z
1/2-x,1/2-y,-z
1/2+x,1/2-y,z
loop_
_atom_site_type_symbol
_atom_site_label
_atom_site_fract_x
_atom_site_fract_y
_atom_site_fract_z
Si Si1 0.345057 0.820244 0.451781
Si Si2 0.591776 0.818212 0.661157
Si Si3 0.756442 0.178909 0.305562
Si Si4 0.462498 0.676982 0.872147
Si Si5 0.311448 0.817885 0.584538
Si Si6 0.938283 0.679094 0.261809
Si Si7 0.196054 0.178730 0.072606
Si Si8 0.379814 0.166498 0.896346
O O1 0.472487 0.772221 0.555112
O O2 0.331773 0.773325 0.392424
O O3 0.248861 0.733352 0.413107
O O4 0.324998 0.000000 0.443972
O O5 0.697053 0.727851 0.710273
O O6 0.585737 0.754540 0.706357
O O7 0.616006 0.000000 0.674823
O O8 0.619056 0.222222 0.216464
O O9 0.773096 0.000000 0.325941
O O10 0.458127 0.500000 0.854338
O O11 0.401001 0.699912 0.875904
O O12 0.597814 0.736729 0.969842
O O13 0.250000 0.750000 0.500000
O O14 0.443881 0.753588 0.677011
O O15 0.307359 0.000000 0.578397
O O16 0.957623 0.500000 0.283031
O O17 0.831067 0.705844 0.152981
O O18 0.199452 0.265038 0.120922
O O19 0.167844 0.000000 0.061258
O O20 0.331522 0.000000 0.844169
O O21 0.500000 0.122052 0.000000
#
# Coordination Sequence:
#
# PCOD8087477 Si02
#       8
#     8   8   8   8   8   8   8   8
#     4  11  23  41  62  85 113 151 192 236 286 340
#     4  10  20  37  59  84 117 155 188 226 281 344
#     4  12  25  38  55  83 115 153 194 237 285 337
#     4  10  19  32  50  73 104 147 193 234 274 329
#     4  11  21  38  62  88 117 150 188 234 285 338
#     4   9  18  34  57  86 116 148 186 230 283 337
#     4   9  17  30  51  76 105 145 190 230 275 335
#     4   9  16  26  42  68 103 140 178 225 278 326
#
# _framework density 20.752552999999999
#
# number of rings (size 3 to 8) (size 9 to 14) (size 15 to 20)
#    0.000    1.875    1.250    3.750    0.000    5.500 
#    0.000    1.250    0.000    0.750    0.000    0.000 
#    0.000    0.000    0.000    0.000    0.000    0.000 
#
# Total GULP energy -396443.646434 kJ/mol
# GULP energy per Si atom -12388.863951 kJ/mol
# Density = 2.070532 g / cm^3
# Si number density = 20.752553 Si / 1000 Ang^3
#
#
#
# Elastic Constant Matrix: (Units=GPa)
#
#
# Indices 1 2 3 4 5 6 
#
# 1 53.4119 9.0059 20.7155 0.0005 18.3422 0.0002
# 2 9.0059 52.9507 27.1366 0.0005 13.1299 0.0001
# 3 20.7155 27.1366 144.5009 -0.0014 33.2128 0.0014
# 4 0.0005 0.0005 -0.0014 23.8754 0.0006 -0.9840
# 5 18.3422 13.1299 33.2128 0.0006 30.9035 0.0003
# 6 0.0002 0.0001 0.0014 -0.9840 0.0003 24.2977
#
#
#
# Elastic Compliance Matrix: (Units=1/GPa)
#
#
# Indices 1 2 3 4 5 6 
#
# 1 0.023535 -0.000561 -0.000150 0.000000 -0.013569 0.000000
# 2 -0.000561 0.021841 -0.002610 0.000000 -0.006142 0.000000
# 3 -0.000150 -0.002610 0.009504 0.000001 -0.009017 0.000000
# 4 0.000000 0.000000 0.000001 0.041954 -0.000001 0.001699
# 5 -0.013569 -0.006142 -0.009017 -0.000001 0.052713 0.000000
# 6 0.000000 0.000000 0.000000 0.001699 0.000000 0.041225
#
#
# Mechanical properties :
#
#
# Convention : Reuss Voigt Hill
#
# Bulk Modulus (GPa) = 20.72994 40.50884 30.61939
# Shear Modulus (GPa) = 23.41989 28.74903 26.08446
#
# Velocity S-wave (km/s) = 3.36301 3.72603 3.54916
# Velocity P-wave (km/s) = 5.00904 6.17037 5.61978
#
# Compressibility (1/GPa) = 0.04823941
#
# Stress axis : x y z
#
# Youngs Moduli (GPa) = 42.49001 45.78484 105.21411
#
# Poissons Ratio (x) = 0.02571 0.01575
# Poissons Ratio (y) = 0.02386 0.27456
# Poissons Ratio (z) = 0.00636 0.11948
#
# Static dielectric constant tensor:
#      x y z
#    x 3.088230 0.000010 0.615850 
#    y 0.000010 3.563980 -0.000010 
#    z 0.615850 -0.000010 3.857380 
# 
# 
# High freq. dielectric constant tensor:
#      x y z
#    x 1.761850 0.000000 0.017170 
#    y 0.000000 1.800600 0.000000 
#    z 0.017170 0.000000 1.843250 
# 
# From -- ./inp_files/382458.got.cif
#   From: 2010.06.25/outbox.cif.g09.slc.cpg/sg12_192_cif.got.tgz:382458.got - 2010.06.28 00:19:55.
