data_PCOD8087646
_publ_section_title
;
Structure prediction by ZEFSAII (Michael W. Deem and Ramdas Pophale) SiO2 
 PCOD8087646
Probable space group: C 2/M
;
_chemical_formula_sum "Si O2"
_cell_formula_units_Z 56
_cell_length_a 14.324765
_cell_length_b 9.003270
_cell_length_c 27.959116
_cell_angle_alpha 90.000000
_cell_angle_beta 121.543781
_cell_angle_gamma 90.000000
_cell_volume 3073.077183
_symmetry_space_group_name_H-M "C 2/M"
_symmetry_group_IT_number 12
_symmetry_cell_setting 'monoclinic'
loop_
_space_group_symop_operation_xyz
x,y,z
-x,y,-z
-x,-y,-z
x,-y,z
1/2+x,1/2+y,z
1/2-x,1/2+y,-z
1/2-x,1/2-y,-z
1/2+x,1/2-y,z
loop_
_atom_site_type_symbol
_atom_site_label
_atom_site_fract_x
_atom_site_fract_y
_atom_site_fract_z
Si Si1 0.429893 0.175210 0.435601
Si Si2 0.914397 0.172841 0.048185
Si Si3 0.342955 0.325599 0.860269
Si Si4 0.217431 0.673528 0.063855
Si Si5 0.742457 0.175604 0.733491
Si Si6 0.499671 0.173985 0.351335
Si Si7 0.208896 0.322554 0.350929
O O1 0.500000 0.223888 0.500000
O O2 0.497966 0.222601 0.406580
O O3 0.315446 0.261670 0.406753
O O4 0.404539 0.000000 0.428322
O O5 0.828015 0.215461 0.065864
O O6 0.031377 0.222725 0.099530
O O7 0.910908 0.000000 0.034563
O O8 0.887006 0.258700 0.991924
O O9 0.325864 0.500000 0.861905
O O10 0.270434 0.243771 0.880562
O O11 0.303489 0.272902 0.797762
O O12 0.199279 0.500000 0.063696
O O13 0.614970 0.223001 0.703646
O O14 0.799174 0.260619 0.704948
O O15 0.753264 0.000000 0.727093
O O16 0.603329 0.242417 0.351209
O O17 0.512933 0.000000 0.351200
O O18 0.212916 0.500000 0.350685
#
# Coordination Sequence:
#
# PCOD8087646 Si02
#       7
#     8   8   8   8   8   8   8
#     4   9  18  34  54  75 102 136 170 200 235 289
#     4   9  19  35  51  70  99 131 162 199 246 298
#     4  10  20  34  53  73  95 128 165 202 246 294
#     4  10  20  33  50  73 100 128 160 202 249 297
#     4   9  19  36  53  70  96 131 169 202 239 296
#     4   8  16  32  51  71  99 132 162 198 245 289
#     4  10  19  32  51  74 101 131 162 203 250 285
#
# _framework density 18.222778000000002
#
# number of rings (size 3 to 8) (size 9 to 14) (size 15 to 20)
#    0.000    2.714    0.000    2.143    0.000    5.429 
#    0.000    5.714    0.000    0.000    0.000    0.000 
#    0.000    0.000    0.000    0.000    0.000    0.000 
#
# Total GULP energy -347201.449937 kJ/mol
# GULP energy per Si atom -12400.051783 kJ/mol
# Density = 1.818130 g / cm^3
# Si number density = 18.222778 Si / 1000 Ang^3
#
#
#
# Elastic Constant Matrix: (Units=GPa)
#
#
# Indices 1 2 3 4 5 6 
#
# 1 131.6099 32.8774 63.9622 0.0000 -4.1307 0.0000
# 2 32.8774 39.3563 33.1766 0.0000 -4.5840 0.0000
# 3 63.9622 33.1766 147.6440 0.0000 -14.1424 0.0000
# 4 0.0000 0.0000 0.0000 26.6429 0.0000 -3.8155
# 5 -4.1307 -4.5840 -14.1424 0.0000 17.7959 0.0000
# 6 0.0000 0.0000 0.0000 -3.8155 0.0000 26.7067
#
#
#
# Elastic Compliance Matrix: (Units=1/GPa)
#
#
# Indices 1 2 3 4 5 6 
#
# 1 0.010789 -0.006340 -0.003427 0.000000 -0.001852 0.000000
# 2 -0.006340 0.035191 -0.004799 0.000000 0.003779 0.000000
# 3 -0.003427 -0.004799 0.009895 0.000000 0.005832 0.000000
# 4 0.000000 0.000000 0.000000 0.038317 0.000000 0.005474
# 5 -0.001852 0.003779 0.005832 0.000000 0.061371 0.000000
# 6 0.000000 0.000000 0.000000 0.005474 0.000000 0.038226
#
#
# Mechanical properties :
#
#
# Convention : Reuss Voigt Hill
#
# Bulk Modulus (GPa) = 37.39304 64.29362 50.84333
# Shear Modulus (GPa) = 21.56703 26.80203 24.18453
#
# Velocity S-wave (km/s) = 3.44397 3.83926 3.64697
# Velocity P-wave (km/s) = 6.03150 7.41699 6.75984
#
# Compressibility (1/GPa) = 0.02674295
#
# Stress axis : x y z
#
# Youngs Moduli (GPa) = 92.68377 28.41644 101.06517
#
# Poissons Ratio (x) = 0.18016 0.34634
# Poissons Ratio (y) = 0.58763 0.48501
# Poissons Ratio (z) = 0.31762 0.13637
#
# Static dielectric constant tensor:
#      x y z
#    x 3.566990 0.000000 -0.016770 
#    y 0.000000 3.156760 0.000000 
#    z -0.016770 0.000000 3.452410 
# 
# 
# High freq. dielectric constant tensor:
#      x y z
#    x 1.712900 0.000000 -0.003040 
#    y 0.000000 1.689220 0.000000 
#    z -0.003040 0.000000 1.706990 
# 
# From -- ./inp_files/360041.got.cif
#   From: 2010.06.25/outbox.cif.g09.slc.cpg/sg12_181_cif.got.tgz:360041.got - 2010.06.28 00:19:55.
