data_PCOD8087619
_publ_section_title
;
Structure prediction by ZEFSAII (Michael W. Deem and Ramdas Pophale) SiO2 
 PCOD8087619
Probable space group: C 2/M
;
_chemical_formula_sum "Si O2"
_cell_formula_units_Z 64
_cell_length_a 27.412932
_cell_length_b 9.103823
_cell_length_c 14.581389
_cell_angle_alpha 90.000000
_cell_angle_beta 103.117830
_cell_angle_gamma 90.000000
_cell_volume 3544.010165
_symmetry_space_group_name_H-M "C 2/M"
_symmetry_group_IT_number 12
_symmetry_cell_setting 'monoclinic'
loop_
_space_group_symop_operation_xyz
x,y,z
-x,y,-z
-x,-y,-z
x,-y,z
1/2+x,1/2+y,z
1/2-x,1/2+y,-z
1/2-x,1/2-y,-z
1/2+x,1/2-y,z
loop_
_atom_site_type_symbol
_atom_site_label
_atom_site_fract_x
_atom_site_fract_y
_atom_site_fract_z
Si Si1 0.865237 0.167968 0.101761
Si Si2 0.666255 0.671278 0.107309
Si Si3 0.802315 0.672273 0.540571
Si Si4 0.866925 0.168235 0.710810
Si Si5 0.394087 0.827566 0.450893
Si Si6 0.042252 0.829623 0.375663
Si Si7 0.256873 0.331443 0.097494
Si Si8 0.429505 0.325364 0.290825
O O1 0.815747 0.183828 0.145337
O O2 0.910429 0.232626 0.182737
O O3 0.877573 0.000000 0.086731
O O4 0.858780 0.239310 0.996895
O O5 0.677918 0.500000 0.097625
O O6 0.630706 0.700101 0.179281
O O7 0.719455 0.750856 0.152427
O O8 0.793003 0.500000 0.545908
O O9 0.750000 0.750000 0.500000
O O10 0.825603 0.729832 0.645495
O O11 0.840763 0.709563 0.474704
O O12 0.922200 0.201284 0.696209
O O13 0.851332 0.000000 0.684940
O O14 0.439719 0.763447 0.530020
O O15 0.395373 0.751718 0.352754
O O16 0.402266 0.000000 0.444360
O O17 0.987017 0.777218 0.324613
O O18 0.042910 0.000000 0.404830
O O19 0.240661 0.500000 0.082548
O O20 0.250000 0.250000 0.000000
O O21 0.422469 0.500000 0.296664
#
# Coordination Sequence:
#
# PCOD8087619 Si02
#       8
#     8   8   8   8   8   8   8   8
#     4   8  16  30  46  68  98 127 157 197 241 283
#     4   9  17  31  50  70  96 131 166 200 241 289
#     4  10  21  36  53  75 103 132 162 200 246 295
#     4   9  18  33  52  73  99 132 168 204 242 289
#     4  10  21  35  51  73  99 127 161 200 245 296
#     4   9  18  33  52  73  96 126 165 204 244 293
#     4   9  16  28  46  67  93 125 160 197 239 286
#     4  10  19  32  51  73  98 129 164 203 247 293
#
# _framework density 18.05864
#
# number of rings (size 3 to 8) (size 9 to 14) (size 15 to 20)
#    0.000    2.750    0.000    2.250    0.000    5.000 
#    0.000    6.250    0.000    3.750    0.000    0.000 
#    0.000    9.000    0.000    0.000    0.000    0.000 
#
# Total GULP energy -396603.489591 kJ/mol
# GULP energy per Si atom -12393.859050 kJ/mol
# Density = 1.801754 g / cm^3
# Si number density = 18.058640 Si / 1000 Ang^3
#
#
#
# Elastic Constant Matrix: (Units=GPa)
#
#
# Indices 1 2 3 4 5 6 
#
# 1 90.4846 39.0445 61.4758 0.0000 7.2529 0.0000
# 2 39.0445 61.2832 36.3447 0.0000 3.8304 0.0000
# 3 61.4758 36.3447 118.5208 0.0000 -0.4195 0.0000
# 4 0.0000 0.0000 0.0000 17.5512 0.0000 -3.0172
# 5 7.2529 3.8304 -0.4195 0.0000 29.2625 0.0000
# 6 0.0000 0.0000 0.0000 -3.0172 0.0000 24.7442
#
#
#
# Elastic Compliance Matrix: (Units=1/GPa)
#
#
# Indices 1 2 3 4 5 6 
#
# 1 0.020295 -0.007849 -0.008135 0.000000 -0.004120 0.000000
# 2 -0.007849 0.023195 -0.003046 0.000000 -0.001135 0.000000
# 3 -0.008135 -0.003046 0.013600 0.000000 0.002610 0.000000
# 4 0.000000 0.000000 0.000000 0.058196 0.000000 0.007096
# 5 -0.004120 -0.001135 0.002610 0.000000 0.035380 0.000000
# 6 0.000000 0.000000 0.000000 0.007096 0.000000 0.041279
#
#
# Mechanical properties :
#
#
# Convention : Reuss Voigt Hill
#
# Bulk Modulus (GPa) = 52.54252 60.44651 56.49451
# Shear Modulus (GPa) = 21.15514 23.20649 22.18081
#
# Velocity S-wave (km/s) = 3.42639 3.58867 3.50846
# Velocity P-wave (km/s) = 6.69419 7.12154 6.91117
#
# Compressibility (1/GPa) = 0.01903220
#
# Stress axis : x y z
#
# Youngs Moduli (GPa) = 49.27239 43.11184 73.52876
#
# Poissons Ratio (x) = 0.33836 0.59815
# Poissons Ratio (y) = 0.38672 0.22397
# Poissons Ratio (z) = 0.40082 0.13132
#
# Static dielectric constant tensor:
#      x y z
#    x 3.568920 0.000000 0.055570 
#    y 0.000000 3.389500 0.000000 
#    z 0.055570 0.000000 3.354680 
# 
# 
# High freq. dielectric constant tensor:
#      x y z
#    x 1.697050 0.000000 -0.003500 
#    y 0.000000 1.687000 0.000000 
#    z -0.003500 0.000000 1.689900 
# 
# From -- ./inp_files/244225.got.cif
#   From: 2010.06.25/outbox.cif.g09.slc.cpg/sg12_123_cif.got.tgz:244225.got - 2010.06.28 00:19:55.
