data_PCOD8087611
_publ_section_title
;
Structure prediction by ZEFSAII (Michael W. Deem and Ramdas Pophale) SiO2 
 PCOD8087611
Probable space group: C 2/M
;
_chemical_formula_sum "Si O2"
_cell_formula_units_Z 48
_cell_length_a 19.374630
_cell_length_b 9.286219
_cell_length_c 15.550665
_cell_angle_alpha 90.000000
_cell_angle_beta 89.711320
_cell_angle_gamma 90.000000
_cell_volume 2797.794372
_symmetry_space_group_name_H-M "C 2/M"
_symmetry_group_IT_number 12
_symmetry_cell_setting 'monoclinic'
loop_
_space_group_symop_operation_xyz
x,y,z
-x,y,-z
-x,-y,-z
x,-y,z
1/2+x,1/2+y,z
1/2-x,1/2+y,-z
1/2-x,1/2-y,-z
1/2+x,1/2-y,z
loop_
_atom_site_type_symbol
_atom_site_label
_atom_site_fract_x
_atom_site_fract_y
_atom_site_fract_z
Si Si1 0.455139 0.669135 0.920813
Si Si2 0.311897 0.661904 0.749051
Si Si3 0.801005 0.165628 0.560819
Si Si4 0.056989 0.333356 0.431101
Si Si5 0.704235 0.337220 0.065550
Si Si6 0.053228 0.334978 0.241241
O O1 0.464304 0.500000 0.909428
O O2 0.375523 0.713805 0.936201
O O3 0.484114 0.742427 0.833039
O O4 0.500000 0.727434 0.000000
O O5 0.345793 0.500000 0.753144
O O6 0.270870 0.676586 0.659187
O O7 0.266294 0.680510 0.836425
O O8 0.367957 0.786509 0.750575
O O9 0.750000 0.250000 0.500000
O O10 0.877123 0.232282 0.555478
O O11 0.804943 0.000000 0.531082
O O12 0.079656 0.500000 0.442873
O O13 0.021778 0.311618 0.336989
O O14 0.000000 0.286461 0.500000
O O15 0.708938 0.500000 0.033728
O O16 0.750000 0.250000 0.000000
O O17 0.049963 0.500000 0.212591
#
# Coordination Sequence:
#
# PCOD8087611 Si02
#       6
#     8   8   8   8   8   8
#     4   9  18  33  50  66  90 125 158 188 228 277
#     4   8  16  31  48  65  90 126 159 185 225 281
#     4  10  19  32  51  73  97 126 161 199 237 281
#     4   9  18  33  51  71  98 129 158 193 240 288
#     4   9  17  30  48  69  91 118 152 188 229 273
#     4   9  16  27  47  72  93 118 155 194 229 271
#
# _framework density 17.156372000000001
#
# number of rings (size 3 to 8) (size 9 to 14) (size 15 to 20)
#    0.000    3.000    0.000    2.000    0.000    4.667 
#    0.000    1.667    0.000    6.000    0.000    0.000 
#    0.000    0.000    0.000    0.000    0.000    0.000 
#
# Total GULP energy -297341.590988 kJ/mol
# GULP energy per Si atom -12389.232958 kJ/mol
# Density = 1.711732 g / cm^3
# Si number density = 17.156372 Si / 1000 Ang^3
#
#
#
# Elastic Constant Matrix: (Units=GPa)
#
#
# Indices 1 2 3 4 5 6 
#
# 1 54.5737 38.4105 62.1098 0.0000 1.4022 0.0000
# 2 38.4105 79.2656 67.6740 0.0000 0.7609 0.0000
# 3 62.1098 67.6740 170.2188 0.0000 2.8637 0.0000
# 4 0.0000 0.0000 0.0000 32.3304 0.0000 2.4579
# 5 1.4022 0.7609 2.8637 0.0000 31.2553 0.0000
# 6 0.0000 0.0000 0.0000 2.4579 0.0000 21.9839
#
#
#
# Elastic Compliance Matrix: (Units=1/GPa)
#
#
# Indices 1 2 3 4 5 6 
#
# 1 0.035323 -0.009258 -0.009199 0.000000 -0.000516 0.000000
# 2 -0.009258 0.021526 -0.005186 0.000000 0.000366 0.000000
# 3 -0.009199 -0.005186 0.011302 0.000000 -0.000497 0.000000
# 4 0.000000 0.000000 0.000000 0.031196 0.000000 -0.003488
# 5 -0.000516 0.000366 -0.000497 0.000000 0.032054 0.000000
# 6 0.000000 0.000000 0.000000 -0.003488 0.000000 0.045878
#
#
# Mechanical properties :
#
#
# Convention : Reuss Voigt Hill
#
# Bulk Modulus (GPa) = 47.92969 71.16075 59.54522
# Shear Modulus (GPa) = 21.59640 26.17150 23.88395
#
# Velocity S-wave (km/s) = 3.55180 3.90996 3.73518
# Velocity P-wave (km/s) = 6.69463 7.87093 7.30649
#
# Compressibility (1/GPa) = 0.02086389
#
# Stress axis : x y z
#
# Youngs Moduli (GPa) = 28.31053 46.45466 88.48144
#
# Poissons Ratio (x) = 0.43006 0.81397
# Poissons Ratio (y) = 0.26209 0.45891
# Poissons Ratio (z) = 0.26044 0.24094
#
# Static dielectric constant tensor:
#      x y z
#    x 2.763850 0.000000 0.073700 
#    y 0.000000 3.267510 0.000000 
#    z 0.073700 0.000000 3.725110 
# 
# 
# High freq. dielectric constant tensor:
#      x y z
#    x 1.604400 0.000000 0.003700 
#    y 0.000000 1.669440 0.000000 
#    z 0.003700 0.000000 1.686520 
# 
# From -- ./inp_files/229262.got.cif
#   From: 2010.06.25/outbox.cif.g09.slc.cpg/sg12_115_cif.got.tgz:229262.got - 2010.06.28 00:19:55.
