data_PCOD8087578
_publ_section_title
;
Structure prediction by ZEFSAII (Michael W. Deem and Ramdas Pophale) SiO2 
 PCOD8087578
Probable space group: C 2/M
;
_chemical_formula_sum "Si O2"
_cell_formula_units_Z 48
_cell_length_a 27.803590
_cell_length_b 8.984502
_cell_length_c 11.426313
_cell_angle_alpha 90.000000
_cell_angle_beta 102.340732
_cell_angle_gamma 90.000000
_cell_volume 2788.357097
_symmetry_space_group_name_H-M "C 2/M"
_symmetry_group_IT_number 12
_symmetry_cell_setting 'monoclinic'
loop_
_space_group_symop_operation_xyz
x,y,z
-x,y,-z
-x,-y,-z
x,-y,z
1/2+x,1/2+y,z
1/2-x,1/2+y,-z
1/2-x,1/2-y,-z
1/2+x,1/2-y,z
loop_
_atom_site_type_symbol
_atom_site_label
_atom_site_fract_x
_atom_site_fract_y
_atom_site_fract_z
Si Si1 0.975188 0.677339 0.149759
Si Si2 0.431961 0.676151 0.911140
Si Si3 0.045754 0.324646 0.597386
Si Si4 0.245496 0.171282 0.620544
Si Si5 0.162515 0.173022 0.283864
Si Si6 0.637607 0.670954 0.532606
O O1 0.977092 0.500000 0.132932
O O2 0.959451 0.724293 0.271139
O O3 0.028660 0.746629 0.153539
O O4 0.935640 0.750732 0.041280
O O5 0.442398 0.500000 0.922171
O O6 0.377947 0.711341 0.834311
O O7 0.046141 0.500000 0.585081
O O8 0.096898 0.267071 0.574866
O O9 0.000000 0.257715 0.500000
O O10 0.250000 0.250000 0.500000
O O11 0.286586 0.244380 0.726921
O O12 0.188801 0.191346 0.632192
O O13 0.258748 0.000000 0.612200
O O14 0.143703 0.226459 0.401750
O O15 0.174725 0.000000 0.295670
O O16 0.620682 0.500000 0.524317
#
# Coordination Sequence:
#
# PCOD8087578 Si02
#       6
#     8   8   8   8   8   8
#     4  10  20  33  48  69  97 126 159 196 235 281
#     4  10  19  32  51  72  95 124 159 197 236 281
#     4  10  21  34  48  69  96 126 159 192 230 279
#     4   9  17  29  46  70  98 126 157 194 236 281
#     4   9  18  31  48  73  99 123 157 197 237 282
#     4   9  18  31  47  70  98 125 154 190 233 279
#
# _framework density 17.214438999999999
#
# number of rings (size 3 to 8) (size 9 to 14) (size 15 to 20)
#    0.000    2.500    0.000    4.500    0.000    6.333 
#    0.000    0.000    0.000    1.000    0.000    0.000 
#    0.000    0.000    0.000    0.000    0.000    0.000 
#
# Total GULP energy -297506.678020 kJ/mol
# GULP energy per Si atom -12396.111584 kJ/mol
# Density = 1.717526 g / cm^3
# Si number density = 17.214439 Si / 1000 Ang^3
#
#
#
# Elastic Constant Matrix: (Units=GPa)
#
#
# Indices 1 2 3 4 5 6 
#
# 1 114.4513 45.5357 67.3660 0.0000 19.9980 0.0000
# 2 45.5357 65.7923 45.3832 0.0000 10.8100 0.0000
# 3 67.3660 45.3832 102.2620 0.0000 12.0596 0.0000
# 4 0.0000 0.0000 0.0000 24.0328 0.0000 2.8218
# 5 19.9980 10.8100 12.0596 0.0000 30.3508 0.0000
# 6 0.0000 0.0000 0.0000 2.8218 0.0000 34.5506
#
#
#
# Elastic Compliance Matrix: (Units=1/GPa)
#
#
# Indices 1 2 3 4 5 6 
#
# 1 0.016381 -0.004906 -0.007918 0.000000 -0.005900 0.000000
# 2 -0.004906 0.023880 -0.007076 0.000000 -0.002461 0.000000
# 3 -0.007918 -0.007076 0.018069 0.000000 0.000558 0.000000
# 4 0.000000 0.000000 0.000000 0.042013 0.000000 -0.003431
# 5 -0.005900 -0.002461 0.000558 0.000000 0.037490 0.000000
# 6 0.000000 0.000000 0.000000 -0.003431 0.000000 0.029223
#
#
# Mechanical properties :
#
#
# Convention : Reuss Voigt Hill
#
# Bulk Modulus (GPa) = 53.96481 66.56393 60.26437
# Shear Modulus (GPa) = 23.47066 26.06821 24.76943
#
# Velocity S-wave (km/s) = 3.69647 3.89565 3.79737
# Velocity P-wave (km/s) = 7.04522 7.68025 7.36958
#
# Compressibility (1/GPa) = 0.01853060
#
# Stress axis : x y z
#
# Youngs Moduli (GPa) = 61.04801 41.87593 55.34337
#
# Poissons Ratio (x) = 0.20545 0.43819
# Poissons Ratio (y) = 0.29952 0.39158
# Poissons Ratio (z) = 0.48336 0.29630
#
# Static dielectric constant tensor:
#      x y z
#    x 3.379790 0.000000 0.264430 
#    y 0.000000 3.317650 0.000000 
#    z 0.264430 0.000000 3.143620 
# 
# 
# High freq. dielectric constant tensor:
#      x y z
#    x 1.663290 0.000000 0.023740 
#    y 0.000000 1.672650 0.000000 
#    z 0.023740 0.000000 1.642940 
# 
# From -- ./inp_files/172288.got.cif
#   From: 2010.06.25/outbox.cif.g09.slc.cpg/sg12_87_cif.got.tgz:172288.got - 2010.06.28 00:19:55.
