data_PCOD8087855
_publ_section_title
;
Structure prediction by ZEFSAII (Michael W. Deem and Ramdas Pophale) SiO2 
 PCOD8087855
Probable space group: C 2/M
;
_chemical_formula_sum "Si O2"
_cell_formula_units_Z 56
_cell_length_a 19.734130
_cell_length_b 9.042097
_cell_length_c 24.319134
_cell_angle_alpha 90.000000
_cell_angle_beta 135.509385
_cell_angle_gamma 90.000000
_cell_volume 3041.057635
_symmetry_space_group_name_H-M "C 2/M"
_symmetry_group_IT_number 12
_symmetry_cell_setting 'monoclinic'
loop_
_space_group_symop_operation_xyz
x,y,z
-x,y,-z
-x,-y,-z
x,-y,z
1/2+x,1/2+y,z
1/2-x,1/2+y,-z
1/2-x,1/2-y,-z
1/2+x,1/2-y,z
loop_
_atom_site_type_symbol
_atom_site_label
_atom_site_fract_x
_atom_site_fract_y
_atom_site_fract_z
Si Si1 0.594222 0.326183 0.808207
Si Si2 0.455374 0.827432 0.810184
Si Si3 0.485928 0.330788 0.052738
Si Si4 0.434589 0.326563 0.630043
Si Si5 0.204795 0.327928 0.368676
Si Si6 0.236084 0.830834 0.048877
Si Si7 0.577403 0.324487 0.501037
O O1 0.607968 0.500000 0.823816
O O2 0.539800 0.264730 0.830149
O O3 0.534261 0.286545 0.718737
O O4 0.698448 0.247470 0.866118
O O5 0.449463 0.769135 0.869054
O O6 0.353850 0.795505 0.721159
O O7 0.481323 0.000000 0.823703
O O8 0.521578 0.500000 0.078627
O O9 0.500000 0.268375 0.000000
O O10 0.373625 0.315006 0.998451
O O11 0.413711 0.500000 0.619653
O O12 0.343336 0.251476 0.606874
O O13 0.446771 0.269264 0.574709
O O14 0.205221 0.500000 0.383826
O O15 0.313944 0.270433 0.421701
O O16 0.268826 0.000000 0.062265
O O17 0.250000 0.750000 0.000000
O O18 0.500000 0.257028 0.500000
O O19 0.571099 0.500000 0.500182
#
# Coordination Sequence:
#
# PCOD8087855 Si02
#       7
#     8   8   8   8   8   8   8
#     4  10  19  32  51  79 108 135 173 218 262 307
#     4  10  19  32  52  79 106 134 173 219 265 307
#     4  10  22  39  55  73 102 141 178 211 257 317
#     4   9  18  32  53  79 102 135 176 211 253 305
#     4   9  18  32  53  80 103 132 172 215 260 303
#     4  11  21  34  56  80 104 136 176 217 260 309
#     4   9  17  32  53  76 106 139 171 208 255 309
#
# _framework density 18.414646999999999
#
# number of rings (size 3 to 8) (size 9 to 14) (size 15 to 20)
#    0.000    2.286    1.429    1.714    0.000    2.000 
#    2.571    0.000    0.000    1.714    0.000    0.000 
#    0.000    0.000    0.000    0.000    0.000    0.000 
#
# Total GULP energy -347181.491297 kJ/mol
# GULP energy per Si atom -12399.338975 kJ/mol
# Density = 1.837273 g / cm^3
# Si number density = 18.414647 Si / 1000 Ang^3
#
#
#
# Elastic Constant Matrix: (Units=GPa)
#
#
# Indices 1 2 3 4 5 6 
#
# 1 107.0081 37.1342 66.9295 0.0000 -15.0400 0.0000
# 2 37.1342 65.9645 45.9204 0.0000 -1.3489 0.0000
# 3 66.9295 45.9204 138.4376 0.0000 -8.8185 0.0000
# 4 0.0000 0.0000 0.0000 21.9615 0.0000 1.1002
# 5 -15.0400 -1.3489 -8.8185 0.0000 28.2149 0.0000
# 6 0.0000 0.0000 0.0000 1.1002 0.0000 20.9258
#
#
#
# Elastic Compliance Matrix: (Units=1/GPa)
#
#
# Indices 1 2 3 4 5 6 
#
# 1 0.015226 -0.004674 -0.005416 0.000000 0.006200 0.000000
# 2 -0.004674 0.021181 -0.004959 0.000000 -0.003029 0.000000
# 3 -0.005416 -0.004959 0.011517 0.000000 0.000476 0.000000
# 4 0.000000 0.000000 0.000000 0.045655 0.000000 -0.002400
# 5 0.006200 -0.003029 0.000476 0.000000 0.038751 0.000000
# 6 0.000000 0.000000 0.000000 -0.002400 0.000000 0.047914
#
#
# Mechanical properties :
#
#
# Convention : Reuss Voigt Hill
#
# Bulk Modulus (GPa) = 56.09786 67.93093 62.01439
# Shear Modulus (GPa) = 23.11771 24.98216 24.04994
#
# Velocity S-wave (km/s) = 3.54700 3.68726 3.61781
# Velocity P-wave (km/s) = 6.87785 7.42277 7.15550
#
# Compressibility (1/GPa) = 0.01782599
#
# Stress axis : x y z
#
# Youngs Moduli (GPa) = 65.67717 47.21138 86.82834
#
# Poissons Ratio (x) = 0.22069 0.47024
# Poissons Ratio (y) = 0.30701 0.43058
# Poissons Ratio (z) = 0.35569 0.23412
#
# Static dielectric constant tensor:
#      x y z
#    x 3.200500 0.000000 -0.000590 
#    y 0.000000 3.347530 0.000000 
#    z -0.000590 0.000000 4.004300 
# 
# 
# High freq. dielectric constant tensor:
#      x y z
#    x 1.693270 0.000000 0.002200 
#    y 0.000000 1.701940 0.000000 
#    z 0.002200 0.000000 1.731880 
# 
# From -- ./inp_files/342485.got.cif
#   From: 2010.06.25/outbox.cif.g09.slc.cpg/sg12_172_cif.got.tgz:342485.got - 2010.06.28 00:19:55.
