data_PCOD8087067
_publ_section_title
;
Structure prediction by ZEFSAII (Michael W. Deem and Ramdas Pophale) SiO2 
 PCOD8087067
Probable space group: C 2/M
;
_chemical_formula_sum "Si O2"
_cell_formula_units_Z 48
_cell_length_a 20.523140
_cell_length_b 9.254672
_cell_length_c 15.078675
_cell_angle_alpha 90.000000
_cell_angle_beta 111.336768
_cell_angle_gamma 90.000000
_cell_volume 2667.664834
_symmetry_space_group_name_H-M "C 2/M"
_symmetry_group_IT_number 12
_symmetry_cell_setting 'monoclinic'
loop_
_space_group_symop_operation_xyz
x,y,z
-x,y,-z
-x,-y,-z
x,-y,z
1/2+x,1/2+y,z
1/2-x,1/2+y,-z
1/2-x,1/2-y,-z
1/2+x,1/2-y,z
loop_
_atom_site_type_symbol
_atom_site_label
_atom_site_fract_x
_atom_site_fract_y
_atom_site_fract_z
Si Si1 0.582249 0.170447 0.310084
Si Si2 0.424283 0.669070 0.996003
Si Si3 0.673321 0.669945 0.215108
Si Si4 0.073049 0.670685 0.824497
Si Si5 0.331699 0.828476 0.288834
Si Si6 0.925253 0.671872 0.493642
O O1 0.640676 0.250319 0.282597
O O2 0.505702 0.216188 0.238540
O O3 0.592036 0.224294 0.415827
O O4 0.593137 0.000000 0.306608
O O5 0.424676 0.500000 0.017882
O O6 0.403063 0.754089 0.073393
O O7 0.500000 0.720951 0.000000
O O8 0.367713 0.710812 0.894210
O O9 0.669940 0.500000 0.232164
O O10 0.752357 0.726598 0.242841
O O11 0.079764 0.500000 0.839738
O O12 0.124203 0.729311 0.772958
O O13 0.365946 0.769990 0.397028
O O14 0.334700 0.000000 0.289788
O O15 0.929140 0.500000 0.493635
O O16 0.000000 0.735007 0.500000
#
# Coordination Sequence:
#
# PCOD8087067 Si02
#       6
#     8   8   8   8   8   8
#     4  10  19  31  53  81 103 127 167 214 252 292
#     4  10  20  34  51  72 101 139 174 201 245 309
#     4  10  21  36  52  72 104 140 169 203 251 305
#     4  10  19  32  54  80 100 125 170 220 252 285
#     4   9  18  33  52  76 104 133 167 207 252 301
#     4   9  15  28  52  79 103 129 164 206 252 300
#
# _framework density 17.993265000000001
#
# number of rings (size 3 to 8) (size 9 to 14) (size 15 to 20)
#    0.000    2.333    3.333    0.000    0.000    2.333 
#    0.000    0.833    0.000    1.500    0.000    0.000 
#    0.000    0.000    0.000    0.000    0.000    0.000 
#
# Total GULP energy -297627.397732 kJ/mol
# GULP energy per Si atom -12401.141572 kJ/mol
# Density = 1.795231 g / cm^3
# Si number density = 17.993265 Si / 1000 Ang^3
#
#
#
# Elastic Constant Matrix: (Units=GPa)
#
#
# Indices 1 2 3 4 5 6 
#
# 1 138.3254 23.5899 77.4283 0.0000 -1.1387 0.0000
# 2 23.5899 18.0128 29.7226 0.0000 -5.5570 0.0000
# 3 77.4283 29.7226 161.6362 0.0000 -7.3145 0.0000
# 4 0.0000 0.0000 0.0000 7.9796 0.0000 -5.7623
# 5 -1.1387 -5.5570 -7.3145 0.0000 38.1836 0.0000
# 6 0.0000 0.0000 0.0000 -5.7623 0.0000 18.4030
#
#
#
# Elastic Compliance Matrix: (Units=1/GPa)
#
#
# Indices 1 2 3 4 5 6 
#
# 1 0.010703 -0.008520 -0.003633 0.000000 -0.001617 0.000000
# 2 -0.008520 0.089573 -0.011915 0.000000 0.010499 0.000000
# 3 -0.003633 -0.011915 0.010123 0.000000 0.000097 0.000000
# 4 0.000000 0.000000 0.000000 0.161933 0.000000 0.050704
# 5 -0.001617 0.010499 0.000097 0.000000 0.027688 0.000000
# 6 0.000000 0.000000 0.000000 0.050704 0.000000 0.070215
#
#
# Mechanical properties :
#
#
# Convention : Reuss Voigt Hill
#
# Bulk Modulus (GPa) = 16.06105 64.38400 40.22252
# Shear Modulus (GPa) = 11.38626 25.39549 18.39088
#
# Velocity S-wave (km/s) = 2.51829 3.76092 3.20049
# Velocity P-wave (km/s) = 4.17148 7.39725 6.00502
#
# Compressibility (1/GPa) = 0.06226244
#
# Stress axis : x y z
#
# Youngs Moduli (GPa) = 93.43325 11.16402 98.78880
#
# Poissons Ratio (x) = 0.09512 0.35894
# Poissons Ratio (y) = 0.79604 1.17706
# Poissons Ratio (z) = 0.33948 0.13302
#
# Static dielectric constant tensor:
#      x y z
#    x 3.433260 0.000000 0.045050 
#    y 0.000000 2.878200 0.000000 
#    z 0.045050 0.000000 3.516660 
# 
# 
# High freq. dielectric constant tensor:
#      x y z
#    x 1.700770 0.000000 -0.002630 
#    y 0.000000 1.651910 0.000000 
#    z -0.002630 0.000000 1.712830 
# 
# From -- ./inp_files/153708.got.cif
#   From: 2010.06.25/outbox.cif.g09.slc.cpg/sg12_77_cif.got.tgz:153708.got - 2010.06.28 00:19:55.
