data_PCOD8087268
_publ_section_title
;
Structure prediction by ZEFSAII (Michael W. Deem and Ramdas Pophale) SiO2 
 PCOD8087268
Probable space group: C 2/M
;
_chemical_formula_sum "Si O2"
_cell_formula_units_Z 60
_cell_length_a 11.096932
_cell_length_b 25.891865
_cell_length_c 11.149559
_cell_angle_alpha 90.000000
_cell_angle_beta 104.927652
_cell_angle_gamma 90.000000
_cell_volume 3095.382308
_symmetry_space_group_name_H-M "C 2/M"
_symmetry_group_IT_number 12
_symmetry_cell_setting 'monoclinic'
loop_
_space_group_symop_operation_xyz
x,y,z
-x,y,-z
-x,-y,-z
x,-y,z
1/2+x,1/2+y,z
1/2-x,1/2+y,-z
1/2-x,1/2-y,-z
1/2+x,1/2-y,z
loop_
_atom_site_type_symbol
_atom_site_label
_atom_site_fract_x
_atom_site_fract_y
_atom_site_fract_z
Si Si1 0.646217 0.113634 0.541049
Si Si2 0.608949 0.862975 0.113292
Si Si3 0.446817 0.765641 0.757266
Si Si4 0.180447 0.715007 0.681273
Si Si5 0.356433 0.058522 0.695346
Si Si6 0.754676 0.348381 0.072230
Si Si7 0.000000 0.801747 0.000000
Si Si8 0.653912 0.942417 0.775535
O O1 0.500000 0.104914 0.500000
O O2 0.676408 0.174358 0.569709
O O3 0.701176 0.090613 0.431532
O O4 0.706528 0.080615 0.664262
O O5 0.556242 0.825932 0.205035
O O6 0.681802 0.910972 0.193511
O O7 0.500000 0.885001 0.000000
O O8 0.699605 0.830741 0.048588
O O9 0.302585 0.750285 0.687373
O O10 0.542736 0.757717 0.667306
O O11 0.500120 0.733385 0.882097
O O12 0.188692 0.687831 0.812003
O O13 0.505418 0.058331 0.732513
O O14 0.303751 0.000000 0.681668
O O15 0.793886 0.407866 0.102605
O O16 0.608851 0.342825 0.031667
O O17 0.705520 0.000000 0.806476
#
# Coordination Sequence:
#
# PCOD8087268 Si02
#       8
#     8   8   8   8   8   8   4   8
#     4   9  17  33  51  73 103 136 176 221 265 313
#     4  12  19  31  51  76 112 138 170 211 265 314
#     4  11  19  33  52  81 107 145 182 215 263 317
#     4  10  20  33  54  79 109 141 181 222 265 310
#     4  10  20  32  51  78 106 140 174 213 271 326
#     4  10  19  32  48  75 106 140 175 218 262 312
#     4  10  20  32  51  72 105 142 190 214 246 318
#     4   9  16  28  48  72  98 130 169 217 267 313
#
# _framework density 19.383711999999999
#
# number of rings (size 3 to 8) (size 9 to 14) (size 15 to 20)
#    0.000    1.867    3.333    2.800    0.000    4.533 
#    0.000    3.000    0.000    0.000    0.000    7.467 
#    0.000   18.133    0.000    0.000    0.000    0.000 
#
# Total GULP energy -371701.087594 kJ/mol
# GULP energy per Si atom -12390.036253 kJ/mol
# Density = 1.933959 g / cm^3
# Si number density = 19.383712 Si / 1000 Ang^3
#
#
#
# Elastic Constant Matrix: (Units=GPa)
#
#
# Indices 1 2 3 4 5 6 
#
# 1 75.1990 32.2392 21.4374 0.0000 4.0986 0.0000
# 2 32.2392 72.6023 28.7350 0.0000 0.5639 0.0000
# 3 21.4374 28.7350 48.9454 0.0000 -8.1843 0.0000
# 4 0.0000 0.0000 0.0000 21.7747 0.0000 -1.4747
# 5 4.0986 0.5639 -8.1843 0.0000 13.1688 0.0000
# 6 0.0000 0.0000 0.0000 -1.4747 0.0000 14.9164
#
#
#
# Elastic Compliance Matrix: (Units=1/GPa)
#
#
# Indices 1 2 3 4 5 6 
#
# 1 0.017887 -0.005423 -0.006185 0.000000 -0.009179 0.000000
# 2 -0.005423 0.020410 -0.010569 0.000000 -0.005755 0.000000
# 3 -0.006185 -0.010569 0.033192 0.000000 0.023006 0.000000
# 4 0.000000 0.000000 0.000000 0.046234 0.000000 0.004571
# 5 -0.009179 -0.005755 0.023006 0.000000 0.093338 0.000000
# 6 0.000000 0.000000 0.000000 0.004571 0.000000 0.067492
#
#
# Mechanical properties :
#
#
# Convention : Reuss Voigt Hill
#
# Bulk Modulus (GPa) = 36.85516 40.17443 38.51479
# Shear Modulus (GPa) = 15.06243 17.59434 16.32838
#
# Velocity S-wave (km/s) = 2.79062 3.01605 2.90552
# Velocity P-wave (km/s) = 5.42569 5.73582 5.58291
#
# Compressibility (1/GPa) = 0.02713325
#
# Stress axis : x y z
#
# Youngs Moduli (GPa) = 55.90786 48.99626 30.12815
#
# Poissons Ratio (x) = 0.26573 0.18634
# Poissons Ratio (y) = 0.30321 0.31843
# Poissons Ratio (z) = 0.34578 0.51784
#
# Static dielectric constant tensor:
#      x y z
#    x 3.425430 0.000000 -0.152300 
#    y 0.000000 3.618650 0.000000 
#    z -0.152300 0.000000 3.782930 
# 
# 
# High freq. dielectric constant tensor:
#      x y z
#    x 1.713250 0.000000 -0.014770 
#    y 0.000000 1.744980 0.000000 
#    z -0.014770 0.000000 1.753060 
# 
# From -- ./inp_files/136997.got.cif
#   From: 2010.06.25/outbox.cif.g09.slc.cpg/sg12_69_cif.got.tgz:136997.got - 2010.06.28 00:19:55.
