data_PCOD8087632
_publ_section_title
;
Structure prediction by ZEFSAII (Michael W. Deem and Ramdas Pophale) SiO2 
 PCOD8087632
Probable space group: C 2/M
;
_chemical_formula_sum "Si O2"
_cell_formula_units_Z 56
_cell_length_a 23.925297
_cell_length_b 10.889693
_cell_length_c 15.057958
_cell_angle_alpha 90.000000
_cell_angle_beta 61.347086
_cell_angle_gamma 90.000000
_cell_volume 3442.755917
_symmetry_space_group_name_H-M "C 2/M"
_symmetry_group_IT_number 12
_symmetry_cell_setting 'monoclinic'
loop_
_space_group_symop_operation_xyz
x,y,z
-x,y,-z
-x,-y,-z
x,-y,z
1/2+x,1/2+y,z
1/2-x,1/2+y,-z
1/2-x,1/2-y,-z
1/2+x,1/2-y,z
loop_
_atom_site_type_symbol
_atom_site_label
_atom_site_fract_x
_atom_site_fract_y
_atom_site_fract_z
Si Si1 0.348910 0.773917 0.975094
Si Si2 0.638284 0.753358 0.734404
Si Si3 0.697537 0.356676 0.529495
Si Si4 0.269394 0.638713 0.684040
Si Si5 0.569788 0.359817 0.944670
Si Si6 0.575631 0.000000 0.833552
Si Si7 0.789517 0.142222 0.862830
Si Si8 0.925867 0.500000 0.957082
O O1 0.339294 0.715003 0.885676
O O2 0.396914 0.885588 0.927389
O O3 0.382012 0.680309 0.016239
O O4 0.282346 0.815669 0.066554
O O5 0.639278 0.687591 0.636502
O O6 0.710204 0.770056 0.714782
O O7 0.601072 0.660508 0.825634
O O8 0.602199 0.882949 0.760531
O O9 0.718045 0.500000 0.537698
O O10 0.750000 0.250000 0.500000
O O11 0.681009 0.353476 0.436595
O O12 0.241426 0.500000 0.713147
O O13 0.306221 0.671187 0.747089
O O14 0.556838 0.500000 0.971997
O O15 0.500000 0.291557 0.000000
O O16 0.500335 0.000000 0.886334
O O17 0.595843 0.000000 0.922347
O O18 0.796103 0.000000 0.881735
#
# Coordination Sequence:
#
# PCOD8087632 Si02
#       8
#     8   8   8   8   8   4   8   4
#     4  11  20  32  49  71 103 132 171 214 250 313
#     4  11  18  31  49  74 105 133 173 213 262 311
#     4   9  19  31  51  75 105 139 174 216 264 317
#     4   9  16  31  50  73 100 131 168 210 251 307
#     4  11  22  33  46  69 103 139 170 210 262 312
#     4  11  20  30  56  77  99 143 173 219 258 304
#     4  10  19  32  51  73  99 136 169 205 261 308
#     4  11  20  34  50  77 103 133 186 213 251 306
#
# _framework density 16.266038999999999
#
# number of rings (size 3 to 8) (size 9 to 14) (size 15 to 20)
#    0.000    1.714    4.286    1.714    1.000    0.000 
#    0.000    0.000    1.571    0.000    0.000    5.000 
#    0.000   16.000    0.000    0.000    0.000    0.000 
#
# Total GULP energy -346944.952175 kJ/mol
# GULP energy per Si atom -12390.891149 kJ/mol
# Density = 1.622902 g / cm^3
# Si number density = 16.266039 Si / 1000 Ang^3
#
#
#
# Elastic Constant Matrix: (Units=GPa)
#
#
# Indices 1 2 3 4 5 6 
#
# 1 74.9508 37.2463 49.3868 0.0000 8.7508 0.0000
# 2 37.2463 98.8898 46.5324 0.0000 7.8994 0.0000
# 3 49.3868 46.5324 132.5396 0.0000 13.6807 0.0000
# 4 0.0000 0.0000 0.0000 30.3925 0.0000 1.2344
# 5 8.7508 7.8994 13.6807 0.0000 20.7659 0.0000
# 6 0.0000 0.0000 0.0000 1.2344 0.0000 15.1712
#
#
#
# Elastic Compliance Matrix: (Units=1/GPa)
#
#
# Indices 1 2 3 4 5 6 
#
# 1 0.019490 -0.004590 -0.005347 0.000000 -0.002945 0.000000
# 2 -0.004590 0.013267 -0.002818 0.000000 -0.001256 0.000000
# 3 -0.005347 -0.002818 0.010927 0.000000 -0.003873 0.000000
# 4 0.000000 0.000000 0.000000 0.033012 0.000000 -0.002686
# 5 -0.002945 -0.001256 -0.003873 0.000000 0.052426 0.000000
# 6 0.000000 0.000000 0.000000 -0.002686 0.000000 0.066133
#
#
# Mechanical properties :
#
#
# Convention : Reuss Voigt Hill
#
# Bulk Modulus (GPa) = 55.02264 63.63459 59.32862
# Shear Modulus (GPa) = 22.04369 24.81357 23.42863
#
# Velocity S-wave (km/s) = 3.68529 3.90998 3.79930
# Velocity P-wave (km/s) = 7.21170 7.71946 7.46989
#
# Compressibility (1/GPa) = 0.01817434
#
# Stress axis : x y z
#
# Youngs Moduli (GPa) = 51.30854 75.37332 91.52048
#
# Poissons Ratio (x) = 0.34593 0.48937
# Poissons Ratio (y) = 0.23548 0.25791
# Poissons Ratio (z) = 0.27435 0.21241
#
# Static dielectric constant tensor:
#      x y z
#    x 3.379250 0.000000 -0.281270 
#    y 0.000000 3.240340 0.000000 
#    z -0.281270 0.000000 3.630420 
# 
# 
# High freq. dielectric constant tensor:
#      x y z
#    x 1.591500 0.000000 0.004000 
#    y 0.000000 1.639500 0.000000 
#    z 0.004000 0.000000 1.624800 
# 
# From -- ./inp_files/239289.got.cif
#   From: 2010.06.25/outbox.cif.g09.slc.cpg/sg12_120_cif.got.tgz:239289.got - 2010.06.28 00:19:55.
