data_PCOD8087446
_publ_section_title
;
Structure prediction by ZEFSAII (Michael W. Deem and Ramdas Pophale) SiO2 
 PCOD8087446
Probable space group: C 2/M
;
_chemical_formula_sum "Si O2"
_cell_formula_units_Z 56
_cell_length_a 17.003970
_cell_length_b 13.527847
_cell_length_c 14.451934
_cell_angle_alpha 90.000000
_cell_angle_beta 103.727581
_cell_angle_gamma 90.000000
_cell_volume 3229.376855
_symmetry_space_group_name_H-M "C 2/M"
_symmetry_group_IT_number 12
_symmetry_cell_setting 'monoclinic'
loop_
_space_group_symop_operation_xyz
x,y,z
-x,y,-z
-x,-y,-z
x,-y,z
1/2+x,1/2+y,z
1/2-x,1/2+y,-z
1/2-x,1/2-y,-z
1/2+x,1/2-y,z
loop_
_atom_site_type_symbol
_atom_site_label
_atom_site_fract_x
_atom_site_fract_y
_atom_site_fract_z
Si Si1 0.407265 0.115615 0.991901
Si Si2 0.079125 0.888568 0.269687
Si Si3 0.783874 0.805140 0.371133
Si Si4 0.189145 0.266250 0.899633
Si Si5 0.395476 0.616251 0.248986
Si Si6 0.325981 0.757389 0.813936
Si Si7 0.268853 0.389678 0.563057
O O1 0.355038 0.162799 0.895656
O O2 0.391882 0.000000 0.986071
O O3 0.500000 0.143278 0.000000
O O4 0.378753 0.155956 0.084799
O O5 0.103595 0.819985 0.189804
O O6 0.140872 0.874246 0.371683
O O7 0.990357 0.859704 0.279283
O O8 0.079955 0.000000 0.232009
O O9 0.862152 0.836394 0.334423
O O10 0.703116 0.815989 0.285667
O O11 0.791624 0.691068 0.408828
O O12 0.773923 0.878090 0.454412
O O13 0.144294 0.166092 0.853227
O O14 0.246580 0.302639 0.830814
O O15 0.250000 0.250000 0.000000
O O16 0.376481 0.500000 0.239050
O O17 0.236665 0.500000 0.576912
#
# Coordination Sequence:
#
# PCOD8087446 Si02
#       7
#     8   8   8   8   8   8   8
#     4  10  20  33  49  68  92 123 158 196 235 277
#     4   9  18  31  49  72  98 126 152 191 243 286
#     4   9  18  30  48  74  96 126 160 191 234 277
#     4   9  19  32  48  69  91 120 155 194 234 273
#     4  10  19  32  50  72  97 123 156 196 239 285
#     4   9  18  33  50  69  94 123 159 196 231 280
#     4   9  17  31  49  72 100 126 158 194 232 279
#
# _framework density 17.340806000000001
#
# number of rings (size 3 to 8) (size 9 to 14) (size 15 to 20)
#    0.000    2.714    0.000    1.286    0.000    6.857 
#    0.000    6.429    0.000    8.571    0.000    9.000 
#    0.000    0.000    0.000    0.000    0.000    0.000 
#
# Total GULP energy -347012.339330 kJ/mol
# GULP energy per Si atom -12393.297833 kJ/mol
# Density = 1.730134 g / cm^3
# Si number density = 17.340806 Si / 1000 Ang^3
#
#
#
# Elastic Constant Matrix: (Units=GPa)
#
#
# Indices 1 2 3 4 5 6 
#
# 1 109.5890 63.5763 36.4971 0.0000 -21.2301 0.0000
# 2 63.5763 105.1892 48.1622 0.0000 -15.9396 0.0000
# 3 36.4971 48.1622 89.3038 0.0000 -7.3647 0.0000
# 4 0.0000 0.0000 0.0000 25.8105 0.0000 -0.6995
# 5 -21.2301 -15.9396 -7.3647 0.0000 22.5741 0.0000
# 6 0.0000 0.0000 0.0000 -0.6995 0.0000 28.3734
#
#
#
# Elastic Compliance Matrix: (Units=1/GPa)
#
#
# Indices 1 2 3 4 5 6 
#
# 1 0.015701 -0.007336 -0.001716 0.000000 0.009026 0.000000
# 2 -0.007336 0.017184 -0.005999 0.000000 0.003277 0.000000
# 3 -0.001716 -0.005999 0.015057 0.000000 -0.000937 0.000000
# 4 0.000000 0.000000 0.000000 0.038770 0.000000 0.000956
# 5 0.009026 0.003277 -0.000937 0.000000 0.054795 0.000000
# 6 0.000000 0.000000 0.000000 0.000956 0.000000 0.035268
#
#
# Mechanical properties :
#
#
# Convention : Reuss Voigt Hill
#
# Bulk Modulus (GPa) = 56.05464 66.72815 61.39140
# Shear Modulus (GPa) = 23.49355 25.74136 24.61745
#
# Velocity S-wave (km/s) = 3.68477 3.85702 3.77188
# Velocity P-wave (km/s) = 7.10625 7.64195 7.37897
#
# Compressibility (1/GPa) = 0.01783973
#
# Stress axis : x y z
#
# Youngs Moduli (GPa) = 63.68962 58.19352 66.41432
#
# Poissons Ratio (x) = 0.42693 0.11396
# Poissons Ratio (y) = 0.46725 0.39842
# Poissons Ratio (z) = 0.10928 0.34910
#
# Static dielectric constant tensor:
#      x y z
#    x 3.418610 0.000000 -0.182540 
#    y 0.000000 3.239340 0.000000 
#    z -0.182540 0.000000 3.404530 
# 
# 
# High freq. dielectric constant tensor:
#      x y z
#    x 1.666720 0.000000 -0.004240 
#    y 0.000000 1.661890 0.000000 
#    z -0.004240 0.000000 1.673770 
# 
# From -- ./inp_files/214278.got.cif
#   From: 2010.06.25/outbox.cif.g09.slc.cpg/sg12_108_cif.got.tgz:214278.got - 2010.06.28 00:19:55.
