data_PCOD8087020
_publ_section_title
;
Structure prediction by ZEFSAII (Michael W. Deem and Ramdas Pophale) SiO2 
 PCOD8087020
Probable space group: C 2/M
;
_chemical_formula_sum "Si O2"
_cell_formula_units_Z 56
_cell_length_a 31.179198
_cell_length_b 9.055663
_cell_length_c 23.302024
_cell_angle_alpha 90.000000
_cell_angle_beta 153.074909
_cell_angle_gamma 90.000000
_cell_volume 2979.267008
_symmetry_space_group_name_H-M "C 2/M"
_symmetry_group_IT_number 12
_symmetry_cell_setting 'monoclinic'
loop_
_space_group_symop_operation_xyz
x,y,z
-x,y,-z
-x,-y,-z
x,-y,z
1/2+x,1/2+y,z
1/2-x,1/2+y,-z
1/2-x,1/2-y,-z
1/2+x,1/2-y,z
loop_
_atom_site_type_symbol
_atom_site_label
_atom_site_fract_x
_atom_site_fract_y
_atom_site_fract_z
Si Si1 0.554282 0.325152 0.977148
Si Si2 0.863212 0.826535 0.805391
Si Si3 0.607000 0.828563 0.923453
Si Si4 0.894650 0.329167 0.379089
Si Si5 0.478920 0.324739 0.285065
Si Si6 0.678956 0.670235 0.814718
Si Si7 0.654392 0.171710 0.549279
O O1 0.568099 0.500000 0.983315
O O2 0.611734 0.265829 0.101249
O O3 0.443343 0.285136 0.854628
O O4 0.591633 0.235023 0.968081
O O5 0.760588 0.773381 0.660151
O O6 0.860075 0.000000 0.810335
O O7 0.540221 0.742268 0.799990
O O8 0.579379 0.000000 0.889870
O O9 0.716198 0.804985 0.035016
O O10 0.896244 0.500000 0.364506
O O11 0.826442 0.251423 0.252461
O O12 0.855257 0.299924 0.394845
O O13 0.000000 0.261837 0.500000
O O14 0.477949 0.500000 0.279092
O O15 0.398572 0.266062 0.233229
O O16 0.581625 0.271184 0.427524
O O17 0.657683 0.500000 0.777859
O O18 0.636698 0.000000 0.513061
#
# Coordination Sequence:
#
# PCOD8087020 Si02
#       7
#     8   8   8   8   8   8   8
#     4   9  17  35  60  85 109 137 176 220 262 315
#     4   8  16  32  59  87 110 139 174 213 264 318
#     4  11  23  38  55  78 106 140 180 225 273 317
#     4  10  19  31  52  82 111 140 175 214 259 312
#     4  11  23  38  54  75 104 144 186 223 262 314
#     4  10  22  37  54  77 107 142 181 222 268 316
#     4  10  19  34  54  80 113 145 176 215 263 316
#
# _framework density 18.796569000000002
#
# number of rings (size 3 to 8) (size 9 to 14) (size 15 to 20)
#    0.000    2.143    1.429    3.000    0.000    3.714 
#    0.000    3.571    0.000    0.000    0.000    0.000 
#    0.000    0.000    0.000    0.000    0.000    0.000 
#
# Total GULP energy -347211.092393 kJ/mol
# GULP energy per Si atom -12400.396157 kJ/mol
# Density = 1.875379 g / cm^3
# Si number density = 18.796569 Si / 1000 Ang^3
#
#
#
# Elastic Constant Matrix: (Units=GPa)
#
#
# Indices 1 2 3 4 5 6 
#
# 1 63.9037 23.8739 43.8426 0.0000 9.4052 0.0000
# 2 23.8739 57.7638 44.1905 0.0000 -2.1741 0.0000
# 3 43.8426 44.1905 112.7697 0.0000 8.5718 0.0000
# 4 0.0000 0.0000 0.0000 31.5920 0.0000 -2.5313
# 5 9.4052 -2.1741 8.5718 0.0000 32.3771 0.0000
# 6 0.0000 0.0000 0.0000 -2.5313 0.0000 19.1043
#
#
#
# Elastic Compliance Matrix: (Units=1/GPa)
#
#
# Indices 1 2 3 4 5 6 
#
# 1 0.022638 -0.004445 -0.006671 0.000000 -0.005108 0.000000
# 2 -0.004445 0.026201 -0.008951 0.000000 0.005420 0.000000
# 3 -0.006671 -0.008951 0.015172 0.000000 -0.002680 0.000000
# 4 0.000000 0.000000 0.000000 0.031993 0.000000 0.004239
# 5 -0.005108 0.005420 -0.002680 0.000000 0.033444 0.000000
# 6 0.000000 0.000000 0.000000 0.004239 0.000000 0.052906
#
#
# Mechanical properties :
#
#
# Convention : Reuss Voigt Hill
#
# Bulk Modulus (GPa) = 41.88144 50.91679 46.39912
# Shear Modulus (GPa) = 21.69700 24.78337 23.24018
#
# Velocity S-wave (km/s) = 3.40119 3.63506 3.52007
# Velocity P-wave (km/s) = 6.14443 6.69069 6.42337
#
# Compressibility (1/GPa) = 0.02387692
#
# Stress axis : x y z
#
# Youngs Moduli (GPa) = 44.17390 38.16685 65.90890
#
# Poissons Ratio (x) = 0.16966 0.43967
# Poissons Ratio (y) = 0.19636 0.58995
# Poissons Ratio (z) = 0.29468 0.34163
#
# Static dielectric constant tensor:
#      x y z
#    x 3.496140 0.000000 0.363550 
#    y 0.000000 3.227630 0.000000 
#    z 0.363550 0.000000 3.806840 
# 
# 
# High freq. dielectric constant tensor:
#      x y z
#    x 1.724360 0.000000 0.009340 
#    y 0.000000 1.709930 0.000000 
#    z 0.009340 0.000000 1.736600 
# 
# From -- ./inp_files/329702.got.cif
#   From: 2010.06.25/outbox.cif.g09.slc.cpg/sg12_165_cif.got.tgz:329702.got - 2010.06.28 00:19:55.
