data_PCOD8087561
_publ_section_title
;
Structure prediction by ZEFSAII (Michael W. Deem and Ramdas Pophale) SiO2 
 PCOD8087561
Probable space group: C 2/M
;
_chemical_formula_sum "Si O2"
_cell_formula_units_Z 56
_cell_length_a 16.419170
_cell_length_b 27.527649
_cell_length_c 18.041316
_cell_angle_alpha 90.000000
_cell_angle_beta 157.147320
_cell_angle_gamma 90.000000
_cell_volume 3166.842060
_symmetry_space_group_name_H-M "C 2/M"
_symmetry_group_IT_number 12
_symmetry_cell_setting 'monoclinic'
loop_
_space_group_symop_operation_xyz
x,y,z
-x,y,-z
-x,-y,-z
x,-y,z
1/2+x,1/2+y,z
1/2-x,1/2+y,-z
1/2-x,1/2-y,-z
1/2+x,1/2-y,z
loop_
_atom_site_type_symbol
_atom_site_label
_atom_site_fract_x
_atom_site_fract_y
_atom_site_fract_z
Si Si1 0.210715 0.642621 0.705525
Si Si2 0.308719 0.000000 0.230253
Si Si3 0.724513 0.500000 0.333894
Si Si4 0.928768 0.295393 0.017690
Si Si5 0.808362 0.224737 0.674897
Si Si6 0.206391 0.167486 0.963396
Si Si7 0.436402 0.580432 0.063973
Si Si8 0.115903 0.289512 0.751471
O O1 0.224122 0.691969 0.670825
O O2 0.419277 0.611088 0.871797
O O3 0.177878 0.659318 0.763106
O O4 0.000000 0.613850 0.500000
O O5 0.232511 0.000000 0.250662
O O6 0.560345 0.000000 0.440664
O O7 0.228045 0.951217 0.122090
O O8 0.590118 0.547268 0.242900
O O9 0.795907 0.334235 0.954725
O O10 0.119831 0.275699 0.228890
O O11 0.789780 0.249703 0.875775
O O12 0.000000 0.320566 0.000000
O O13 0.612903 0.232361 0.455937
O O14 0.987578 0.196522 0.779653
O O15 0.371502 0.198728 0.150713
O O16 0.183561 0.113507 0.976854
#
# Coordination Sequence:
#
# PCOD8087561 Si02
#       8
#     8   4   4   8   8   8   8   8
#     4   9  18  28  50  76 101 143 178 204 237 287
#     4  10  23  37  55  77 102 138 156 197 252 312
#     4  10  23  37  52  78 105 128 165 194 249 316
#     4  11  21  35  49  69 102 135 176 222 263 297
#     4   9  18  34  48  71  99 138 179 216 250 286
#     4  10  23  32  51  76  96 134 175 218 257 298
#     4  10  21  36  52  73 107 132 168 205 246 300
#     4  10  19  32  51  70 102 139 182 214 248 291
#
# _framework density 17.683232
#
# number of rings (size 3 to 8) (size 9 to 14) (size 15 to 20)
#    0.000    2.143    1.429    2.571    6.000    4.571 
#    0.000    0.000    0.000    0.000    0.000    2.000 
#    0.000    1.143    0.000    0.000    0.000    0.000 
#
# Total GULP energy -347111.733488 kJ/mol
# GULP energy per Si atom -12396.847625 kJ/mol
# Density = 1.764298 g / cm^3
# Si number density = 17.683232 Si / 1000 Ang^3
#
#
#
# Elastic Constant Matrix: (Units=GPa)
#
#
# Indices 1 2 3 4 5 6 
#
# 1 112.6452 31.3128 35.6284 -0.0001 10.4349 0.0002
# 2 31.3128 61.5560 32.5017 -0.0003 1.0691 0.0003
# 3 35.6284 32.5017 127.5845 0.0022 -6.4192 -0.0001
# 4 -0.0001 -0.0003 0.0022 13.8085 0.0008 3.6909
# 5 10.4349 1.0691 -6.4192 0.0008 14.8060 -0.0002
# 6 0.0002 0.0003 -0.0001 3.6909 -0.0002 17.4183
#
#
#
# Elastic Compliance Matrix: (Units=1/GPa)
#
#
# Indices 1 2 3 4 5 6 
#
# 1 0.011789 -0.004457 -0.002615 0.000001 -0.009120 0.000000
# 2 -0.004457 0.020635 -0.004016 0.000001 -0.000090 -0.000001
# 3 -0.002615 -0.004016 0.009915 -0.000002 0.006432 0.000001
# 4 0.000001 0.000001 -0.000002 0.076767 -0.000006 -0.016267
# 5 -0.009120 -0.000090 0.006432 -0.000006 0.076763 0.000002
# 6 0.000000 -0.000001 0.000001 -0.016267 0.000002 0.060858
#
#
# Mechanical properties :
#
#
# Convention : Reuss Voigt Hill
#
# Bulk Modulus (GPa) = 49.60259 55.63015 52.61637
# Shear Modulus (GPa) = 17.50545 22.69608 20.10076
#
# Velocity S-wave (km/s) = 3.14975 3.58646 3.37518
# Velocity P-wave (km/s) = 6.42958 6.97695 6.70885
#
# Compressibility (1/GPa) = 0.02016024
#
# Stress axis : x y z
#
# Youngs Moduli (GPa) = 84.82806 48.46120 100.85633
#
# Poissons Ratio (x) = 0.21601 0.26378
# Poissons Ratio (y) = 0.37811 0.40509
# Poissons Ratio (z) = 0.22186 0.19464
#
# Static dielectric constant tensor:
#      x y z
#    x 3.042780 0.000000 -0.011990 
#    y 0.000000 3.134180 0.000000 
#    z -0.011990 0.000000 3.621520 
# 
# 
# High freq. dielectric constant tensor:
#      x y z
#    x 1.652280 0.000000 -0.006570 
#    y 0.000000 1.649750 0.000000 
#    z -0.006570 0.000000 1.704930 
# 
# From -- ./inp_files/318553.got.cif
#   From: 2010.06.25/outbox.cif.g09.slc.cpg/sg12_160_cif.got.tgz:318553.got - 2010.06.28 00:19:55.
