data_PCOD8087089
_publ_section_title
;
Structure prediction by ZEFSAII (Michael W. Deem and Ramdas Pophale) SiO2 
 PCOD8087089
Probable space group: C 2/M
;
_chemical_formula_sum "Si O2"
_cell_formula_units_Z 64
_cell_length_a 22.511462
_cell_length_b 8.825758
_cell_length_c 21.799901
_cell_angle_alpha 90.000000
_cell_angle_beta 130.904112
_cell_angle_gamma 90.000000
_cell_volume 3273.564084
_symmetry_space_group_name_H-M "C 2/M"
_symmetry_group_IT_number 12
_symmetry_cell_setting 'monoclinic'
loop_
_space_group_symop_operation_xyz
x,y,z
-x,y,-z
-x,-y,-z
x,-y,z
1/2+x,1/2+y,z
1/2-x,1/2+y,-z
1/2-x,1/2-y,-z
1/2+x,1/2-y,z
loop_
_atom_site_type_symbol
_atom_site_label
_atom_site_fract_x
_atom_site_fract_y
_atom_site_fract_z
Si Si1 0.450108 0.668994 0.646172
Si Si2 0.084042 0.674393 0.037603
Si Si3 0.749460 0.675090 0.667013
Si Si4 0.689252 0.177151 0.506461
Si Si5 0.118692 0.819389 0.804210
Si Si6 0.746635 0.178708 0.194149
Si Si7 0.094191 0.169729 0.246437
Si Si8 0.434441 0.825752 0.113734
O O1 0.452535 0.500000 0.619461
O O2 0.400748 0.776334 0.567702
O O3 0.538384 0.731329 0.715496
O O4 0.404767 0.666505 0.679650
O O5 0.078015 0.500000 0.053526
O O6 0.159150 0.749172 0.123486
O O7 0.103874 0.690763 0.979000
O O8 0.000000 0.751243 0.000000
O O9 0.736040 0.500000 0.641283
O O10 0.705816 0.777048 0.587689
O O11 0.719362 0.715122 0.715175
O O12 0.841644 0.710310 0.731642
O O13 0.750000 0.250000 0.500000
O O14 0.699051 0.000000 0.506109
O O15 0.191262 0.757947 0.813251
O O16 0.124472 0.740110 0.874639
O O17 0.118141 0.000000 0.813216
O O18 0.739981 0.000000 0.180145
O O19 0.012391 0.225948 0.164656
O O20 0.111340 0.000000 0.233211
O O21 0.454492 0.000000 0.142497
#
# Coordination Sequence:
#
# PCOD8087089 Si02
#       8
#     8   8   8   8   8   8   8   8
#     4   9  18  33  53  77 106 141 181 226 274 325
#     4   9  17  31  53  83 116 145 181 231 280 331
#     4  11  21  34  56  82 109 142 185 231 279 334
#     4  12  23  35  54  82 115 145 177 223 280 337
#     4   9  19  37  58  78 108 147 190 235 276 324
#     4   9  19  36  57  80 107 148 193 230 275 333
#     4  10  19  32  52  78 112 147 180 223 277 334
#     4  10  19  31  53  83 111 144 188 233 276 325
#
# _framework density 19.550557000000001
#
# number of rings (size 3 to 8) (size 9 to 14) (size 15 to 20)
#    0.000    2.125    1.250    3.750    0.000    4.500 
#    0.000    1.875    0.000   12.750    0.000    0.000 
#    0.000    0.000    0.000    0.000    0.000    0.000 
#
# Total GULP energy -396714.382839 kJ/mol
# GULP energy per Si atom -12397.324464 kJ/mol
# Density = 1.950606 g / cm^3
# Si number density = 19.550557 Si / 1000 Ang^3
#
#
#
# Elastic Constant Matrix: (Units=GPa)
#
#
# Indices 1 2 3 4 5 6 
#
# 1 112.0127 20.5334 42.3988 0.0000 -1.8268 0.0000
# 2 20.5334 72.5154 36.4335 0.0000 -3.6531 0.0000
# 3 42.3988 36.4335 99.5249 0.0000 -5.5776 0.0000
# 4 0.0000 0.0000 0.0000 23.8738 0.0000 -2.9926
# 5 -1.8268 -3.6531 -5.5776 0.0000 22.0422 0.0000
# 6 0.0000 0.0000 0.0000 -2.9926 0.0000 21.6485
#
#
#
# Elastic Compliance Matrix: (Units=1/GPa)
#
#
# Indices 1 2 3 4 5 6 
#
# 1 0.010695 -0.000915 -0.004240 0.000000 -0.000338 0.000000
# 2 -0.000915 0.017011 -0.005765 0.000000 0.001284 0.000000
# 3 -0.004240 -0.005765 0.014091 0.000000 0.002259 0.000000
# 4 0.000000 0.000000 0.000000 0.042625 0.000000 0.005892
# 5 -0.000338 0.001284 0.002259 0.000000 0.046124 0.000000
# 6 0.000000 0.000000 0.000000 0.005892 0.000000 0.047007
#
#
# Mechanical properties :
#
#
# Convention : Reuss Voigt Hill
#
# Bulk Modulus (GPa) = 50.11115 53.64272 51.87693
# Shear Modulus (GPa) = 24.26643 25.82538 25.04591
#
# Velocity S-wave (km/s) = 3.52691 3.63844 3.58311
# Velocity P-wave (km/s) = 6.50174 6.71926 6.61140
#
# Compressibility (1/GPa) = 0.01995564
#
# Stress axis : x y z
#
# Youngs Moduli (GPa) = 93.50407 58.78669 70.96635
#
# Poissons Ratio (x) = 0.05379 0.30090
# Poissons Ratio (y) = 0.08556 0.40915
# Poissons Ratio (z) = 0.39646 0.33893
#
# Static dielectric constant tensor:
#      x y z
#    x 3.609260 0.000000 -0.012480 
#    y 0.000000 3.388180 0.000000 
#    z -0.012480 0.000000 3.653270 
# 
# 
# High freq. dielectric constant tensor:
#      x y z
#    x 1.746800 0.000000 -0.001200 
#    y 0.000000 1.736940 0.000000 
#    z -0.001200 0.000000 1.765750 
# 
# From -- ./inp_files/324332.got.cif
#   From: 2010.06.25/outbox.cif.g09.slc.cpg/sg12_163_cif.got.tgz:324332.got - 2010.06.28 00:19:55.
