data_PCOD8087449
_publ_section_title
;
Structure prediction by ZEFSAII (Michael W. Deem and Ramdas Pophale) SiO2 
 PCOD8087449
Probable space group: C 2/M
;
_chemical_formula_sum "Si O2"
_cell_formula_units_Z 56
_cell_length_a 15.444500
_cell_length_b 9.042369
_cell_length_c 31.738624
_cell_angle_alpha 90.000000
_cell_angle_beta 42.556158
_cell_angle_gamma 90.000000
_cell_volume 2997.723690
_symmetry_space_group_name_H-M "C 2/M"
_symmetry_group_IT_number 12
_symmetry_cell_setting 'monoclinic'
loop_
_space_group_symop_operation_xyz
x,y,z
-x,y,-z
-x,-y,-z
x,-y,z
1/2+x,1/2+y,z
1/2-x,1/2+y,-z
1/2-x,1/2-y,-z
1/2+x,1/2-y,z
loop_
_atom_site_type_symbol
_atom_site_label
_atom_site_fract_x
_atom_site_fract_y
_atom_site_fract_z
Si Si1 0.636220 0.675593 0.132620
Si Si2 0.024464 0.675179 0.423710
Si Si3 0.402562 0.175480 0.000466
Si Si4 0.536864 0.175488 0.868241
Si Si5 0.181201 0.824650 0.210612
Si Si6 0.516550 0.676134 0.648506
Si Si7 0.699888 0.825049 0.435809
O O1 0.622013 0.500000 0.136244
O O2 0.511171 0.749597 0.157391
O O3 0.646987 0.734495 0.176486
O O4 0.760094 0.730922 0.062079
O O5 0.024861 0.500000 0.415994
O O6 0.143250 0.724836 0.410849
O O7 0.038565 0.758473 0.374771
O O8 0.892941 0.727725 0.493257
O O9 0.445367 0.229929 0.939074
O O10 0.408777 0.000000 0.000826
O O11 0.500000 0.242281 0.000000
O O12 0.679851 0.234478 0.825458
O O13 0.533904 0.000000 0.864268
O O14 0.074899 0.767505 0.281347
O O15 0.185300 0.000000 0.207893
O O16 0.517234 0.500000 0.644820
O O17 0.658433 0.739911 0.607439
O O18 0.704395 0.000000 0.434460
#
# Coordination Sequence:
#
# PCOD8087449 Si02
#       7
#     8   8   8   8   8   8   8
#     4  10  19  33  53  75  96 126 167 203 237 288
#     4   9  17  32  52  74  98 127 159 196 243 292
#     4   9  15  28  53  75  94 125 164 199 237 290
#     4  10  19  33  52  73  97 127 161 202 248 288
#     4   9  19  34  50  68  96 134 168 194 233 293
#     4  10  19  32  50  72  97 128 165 202 236 279
#     4   8  16  31  51  72  98 129 160 193 239 294
#
# _framework density 18.68084
#
# number of rings (size 3 to 8) (size 9 to 14) (size 15 to 20)
#    0.000    2.714    1.429    1.714    0.000    1.143 
#    0.000    5.714    0.000    0.857    0.000    0.000 
#    0.000    0.000    0.000    0.000    0.000    0.000 
#
# Total GULP energy -347152.130361 kJ/mol
# GULP energy per Si atom -12398.290370 kJ/mol
# Density = 1.863832 g / cm^3
# Si number density = 18.680840 Si / 1000 Ang^3
#
#
#
# Elastic Constant Matrix: (Units=GPa)
#
#
# Indices 1 2 3 4 5 6 
#
# 1 157.2913 25.5516 68.6959 -0.0004 12.4277 -0.0013
# 2 25.5516 18.5313 20.4335 0.0002 3.2124 0.0001
# 3 68.6959 20.4335 125.3556 -0.0002 13.0072 -0.0006
# 4 -0.0004 0.0002 -0.0002 15.5914 0.0002 5.2535
# 5 12.4277 3.2124 13.0072 0.0002 20.2875 0.0004
# 6 -0.0013 0.0001 -0.0006 5.2535 0.0004 29.5358
#
#
#
# Elastic Compliance Matrix: (Units=1/GPa)
#
#
# Indices 1 2 3 4 5 6 
#
# 1 0.009512 -0.008828 -0.003551 0.000000 -0.002153 0.000000
# 2 -0.008828 0.074254 -0.007078 -0.000001 -0.001812 -0.000001
# 3 -0.003551 -0.007078 0.011500 0.000000 -0.004077 0.000000
# 4 0.000000 -0.000001 0.000000 0.068227 -0.000001 -0.012136
# 5 -0.002153 -0.001812 -0.004077 -0.000001 0.053511 -0.000001
# 6 0.000000 -0.000001 0.000000 -0.012136 -0.000001 0.036016
#
#
# Mechanical properties :
#
#
# Convention : Reuss Voigt Hill
#
# Bulk Modulus (GPa) = 17.74521 58.94893 38.34707
# Shear Modulus (GPa) = 16.09182 25.51611 20.80396
#
# Velocity S-wave (km/s) = 2.93816 3.69981 3.34076
# Velocity P-wave (km/s) = 4.58586 7.06228 5.95424
#
# Compressibility (1/GPa) = 0.05635325
#
# Stress axis : x y z
#
# Youngs Moduli (GPa) = 105.12496 13.46735 86.95790
#
# Poissons Ratio (x) = 0.11889 0.30875
# Poissons Ratio (y) = 0.92804 0.61548
# Poissons Ratio (z) = 0.37325 0.09532
#
# Static dielectric constant tensor:
#      x y z
#    x 3.632890 0.000000 -0.115490 
#    y 0.000000 2.836000 0.000000 
#    z -0.115490 0.000000 3.645270 
# 
# 
# High freq. dielectric constant tensor:
#      x y z
#    x 1.741380 0.000000 0.000260 
#    y 0.000000 1.669730 0.000000 
#    z 0.000260 0.000000 1.726640 
# 
# From -- ./inp_files/304694.got.cif
#   From: 2010.06.25/outbox.cif.g09.slc.cpg/sg12_153_cif.got.tgz:304694.got - 2010.06.28 00:19:55.
