data_PCOD8087036
_publ_section_title
;
Structure prediction by ZEFSAII (Michael W. Deem and Ramdas Pophale) SiO2 
 PCOD8087036
Probable space group: C 2/M
;
_chemical_formula_sum "Si O2"
_cell_formula_units_Z 64
_cell_length_a 23.884505
_cell_length_b 8.780936
_cell_length_c 16.666812
_cell_angle_alpha 90.000000
_cell_angle_beta 85.926827
_cell_angle_gamma 90.000000
_cell_volume 3486.673196
_symmetry_space_group_name_H-M "C 2/M"
_symmetry_group_IT_number 12
_symmetry_cell_setting 'monoclinic'
loop_
_space_group_symop_operation_xyz
x,y,z
-x,y,-z
-x,-y,-z
x,-y,z
1/2+x,1/2+y,z
1/2-x,1/2+y,-z
1/2-x,1/2-y,-z
1/2+x,1/2-y,z
loop_
_atom_site_type_symbol
_atom_site_label
_atom_site_fract_x
_atom_site_fract_y
_atom_site_fract_z
Si Si1 0.618755 0.177325 0.958292
Si Si2 0.526099 0.173786 0.839779
Si Si3 0.812399 0.824230 0.765129
Si Si4 0.875308 0.675698 0.285402
Si Si5 0.328858 0.677269 0.436564
Si Si6 0.297527 0.822363 0.597751
Si Si7 0.203375 0.179230 0.835563
Si Si8 0.088824 0.826061 0.124728
O O1 0.563461 0.218905 0.912981
O O2 0.672000 0.270215 0.919805
O O3 0.632780 0.000000 0.947329
O O4 0.608408 0.217900 0.051038
O O5 0.562089 0.197051 0.755173
O O6 0.473496 0.284889 0.840504
O O7 0.505200 0.000000 0.849907
O O8 0.817054 0.732639 0.682262
O O9 0.763718 0.759223 0.827085
O O10 0.871041 0.800746 0.803948
O O11 0.800076 0.000000 0.747484
O O12 0.856814 0.500000 0.281445
O O13 0.874069 0.734328 0.376961
O O14 0.831670 0.775091 0.239145
O O15 0.342571 0.500000 0.433184
O O16 0.334183 0.736250 0.526852
O O17 0.267728 0.716576 0.407496
O O18 0.309122 0.000000 0.587657
O O19 0.212580 0.000000 0.834622
O O20 0.090191 0.000000 0.094708
#
# Coordination Sequence:
#
# PCOD8087036 Si02
#       8
#     8   8   8   8   8   8   8   8
#     4  10  21  38  59  81 107 140 177 225 277 322
#     4   9  20  37  57  81 107 140 180 223 272 319
#     4  11  23  38  54  75 111 149 181 219 267 324
#     4  10  19  33  55  82 113 144 176 220 271 320
#     4  10  19  31  52  83 114 143 178 218 265 317
#     4  10  20  33  52  80 111 145 181 217 264 318
#     4  11  21  34  54  81 109 141 180 221 270 322
#     4  11  24  38  55  80 106 142 185 225 271 319
#
# _framework density 18.355606000000002
#
# number of rings (size 3 to 8) (size 9 to 14) (size 15 to 20)
#    0.000    1.750    1.250    4.500    0.000    8.000 
#    0.000    0.000    0.000    0.750    0.000    5.250 
#    0.000    0.000    0.000    0.000    0.000    0.000 
#
# Total GULP energy -396963.845801 kJ/mol
# GULP energy per Si atom -12405.120181 kJ/mol
# Density = 1.831383 g / cm^3
# Si number density = 18.355606 Si / 1000 Ang^3
#
#
#
# Elastic Constant Matrix: (Units=GPa)
#
#
# Indices 1 2 3 4 5 6 
#
# 1 48.4038 23.0737 36.4177 0.0000 3.8867 0.0000
# 2 23.0737 58.6976 25.9664 0.0000 0.8799 0.0000
# 3 36.4177 25.9664 100.3023 0.0000 -14.4675 0.0000
# 4 0.0000 0.0000 0.0000 35.9319 0.0000 -5.2616
# 5 3.8867 0.8799 -14.4675 0.0000 20.2767 0.0000
# 6 0.0000 0.0000 0.0000 -5.2616 0.0000 28.5654
#
#
#
# Elastic Compliance Matrix: (Units=1/GPa)
#
#
# Indices 1 2 3 4 5 6 
#
# 1 0.035631 -0.007941 -0.013172 0.000000 -0.015883 0.000000
# 2 -0.007941 0.021455 -0.002882 0.000000 -0.001465 0.000000
# 3 -0.013172 -0.002882 0.017703 0.000000 0.015281 0.000000
# 4 0.000000 0.000000 0.000000 0.028602 0.000000 0.005268
# 5 -0.015883 -0.001465 0.015281 0.000000 0.063329 0.000000
# 6 0.000000 0.000000 0.000000 0.005268 0.000000 0.035978
#
#
# Mechanical properties :
#
#
# Convention : Reuss Voigt Hill
#
# Bulk Modulus (GPa) = 37.31714 42.03549 39.67631
# Shear Modulus (GPa) = 19.25889 25.08454 22.17171
#
# Velocity S-wave (km/s) = 3.24267 3.70075 3.47925
# Velocity P-wave (km/s) = 5.86465 6.41958 6.14838
#
# Compressibility (1/GPa) = 0.02679734
#
# Stress axis : x y z
#
# Youngs Moduli (GPa) = 28.06572 46.60879 56.48872
#
# Poissons Ratio (x) = 0.37013 0.74407
# Poissons Ratio (y) = 0.22287 0.16283
# Poissons Ratio (z) = 0.36968 0.13435
#
# Static dielectric constant tensor:
#      x y z
#    x 3.220920 0.000000 -0.195670 
#    y 0.000000 3.462170 0.000000 
#    z -0.195670 0.000000 3.379650 
# 
# 
# High freq. dielectric constant tensor:
#      x y z
#    x 1.685490 0.000000 -0.020330 
#    y 0.000000 1.727400 0.000000 
#    z -0.020330 0.000000 1.711990 
# 
# From -- ./inp_files/238567.got.cif
#   From: 2010.06.25/outbox.cif.g09.slc.cpg/sg12_120_cif.got.tgz:238567.got - 2010.06.28 00:19:55.
