data_PCOD8087915
_publ_section_title
;
Structure prediction by ZEFSAII (Michael W. Deem and Ramdas Pophale) SiO2 
 PCOD8087915
Probable space group: C 2/M
;
_chemical_formula_sum "Si O2"
_cell_formula_units_Z 56
_cell_length_a 18.833181
_cell_length_b 9.079939
_cell_length_c 31.316789
_cell_angle_alpha 90.000000
_cell_angle_beta 35.185382
_cell_angle_gamma 90.000000
_cell_volume 3085.851642
_symmetry_space_group_name_H-M "C 2/M"
_symmetry_group_IT_number 12
_symmetry_cell_setting 'monoclinic'
loop_
_space_group_symop_operation_xyz
x,y,z
-x,y,-z
-x,-y,-z
x,-y,z
1/2+x,1/2+y,z
1/2-x,1/2+y,-z
1/2-x,1/2-y,-z
1/2+x,1/2-y,z
loop_
_atom_site_type_symbol
_atom_site_label
_atom_site_fract_x
_atom_site_fract_y
_atom_site_fract_z
Si Si1 0.685774 0.666147 0.307447
Si Si2 0.616918 0.170908 0.858134
Si Si3 0.353727 0.667701 0.072390
Si Si4 0.130907 0.673273 0.419336
Si Si5 0.748044 0.331318 0.434542
Si Si6 0.831550 0.675051 0.996926
Si Si7 0.924211 0.164708 0.403745
O O1 0.694847 0.500000 0.321454
O O2 0.808634 0.708783 0.221434
O O3 0.664347 0.780898 0.355344
O O4 0.570860 0.677481 0.331711
O O5 0.681971 0.258865 0.864923
O O6 0.626970 0.000000 0.865441
O O7 0.475175 0.213527 0.918302
O O8 0.304889 0.500000 0.094318
O O9 0.295772 0.757413 0.060886
O O10 0.500000 0.674162 0.000000
O O11 0.130931 0.500000 0.422112
O O12 0.236716 0.737038 0.397442
O O13 0.000000 0.737581 0.500000
O O14 0.758521 0.500000 0.416326
O O15 0.874345 0.282823 0.394857
O O16 0.630820 0.299038 0.522455
O O17 0.807383 0.500000 0.008969
O O18 0.750000 0.750000 0.000000
O O19 0.881257 0.000000 0.411738
#
# Coordination Sequence:
#
# PCOD8087915 Si02
#       7
#     8   8   8   8   8   8   8
#     4  10  20  36  56  77 104 138 176 218 269 321
#     4   9  19  35  55  79 107 139 175 218 264 312
#     4   9  17  31  53  79 106 137 173 210 250 304
#     4  11  22  34  51  76 105 137 177 224 268 315
#     4  10  19  32  52  74  98 129 169 215 261 310
#     4  10  19  33  55  83 112 141 176 216 259 308
#     4   9  18  32  51  74  99 128 164 211 262 312
#
# _framework density 18.14734
#
# number of rings (size 3 to 8) (size 9 to 14) (size 15 to 20)
#    0.000    2.286    1.429    1.714    0.000    4.571 
#    0.000    1.429    0.000    0.000    0.000    0.000 
#    0.000    0.000    0.000    0.000    0.000    0.000 
#
# Total GULP energy -347186.897947 kJ/mol
# GULP energy per Si atom -12399.532070 kJ/mol
# Density = 1.810604 g / cm^3
# Si number density = 18.147340 Si / 1000 Ang^3
#
#
#
# Elastic Constant Matrix: (Units=GPa)
#
#
# Indices 1 2 3 4 5 6 
#
# 1 112.1464 61.1194 40.3953 0.0021 13.6061 0.0221
# 2 61.1194 99.4430 38.1466 -0.0011 13.0470 0.0068
# 3 40.3953 38.1466 73.3596 -0.0015 5.0573 -0.0008
# 4 0.0021 -0.0011 -0.0015 20.7459 -0.0006 6.3599
# 5 13.6061 13.0470 5.0573 -0.0006 20.3556 0.0023
# 6 0.0221 0.0068 -0.0008 6.3599 0.0023 38.4744
#
#
#
# Elastic Compliance Matrix: (Units=1/GPa)
#
#
# Indices 1 2 3 4 5 6 
#
# 1 0.014701 -0.006833 -0.004239 0.000000 -0.004394 -0.000007
# 2 -0.006833 0.016656 -0.004556 0.000001 -0.004977 0.000001
# 3 -0.004239 -0.004556 0.018250 0.000000 0.001219 0.000003
# 4 0.000000 0.000001 0.000000 0.050775 0.000002 -0.008393
# 5 -0.004394 -0.004977 0.001219 0.000002 0.054950 0.000000
# 6 -0.000007 0.000001 0.000003 -0.008393 0.000000 0.027379
#
#
# Mechanical properties :
#
#
# Convention : Reuss Voigt Hill
#
# Bulk Modulus (GPa) = 54.48810 62.69684 58.59247
# Shear Modulus (GPa) = 22.71863 25.60103 24.15983
#
# Velocity S-wave (km/s) = 3.54206 3.76005 3.65268
# Velocity P-wave (km/s) = 6.84243 7.31262 7.08143
#
# Compressibility (1/GPa) = 0.01835263
#
# Stress axis : x y z
#
# Youngs Moduli (GPa) = 68.02392 60.03833 54.79307
#
# Poissons Ratio (x) = 0.41023 0.23227
# Poissons Ratio (y) = 0.46479 0.24961
# Poissons Ratio (z) = 0.28835 0.27350
#
# Static dielectric constant tensor:
#      x y z
#    x 3.304590 -0.000010 0.024070 
#    y -0.000010 3.413570 0.000000 
#    z 0.024070 0.000000 3.177470 
# 
# 
# High freq. dielectric constant tensor:
#      x y z
#    x 1.700390 0.000000 0.007490 
#    y 0.000000 1.710940 0.000000 
#    z 0.007490 0.000000 1.675060 
# 
# From -- ./inp_files/314362.got.cif
#   From: 2010.06.25/outbox.cif.g09.slc.cpg/sg12_158_cif.got.tgz:314362.got - 2010.06.28 00:19:55.
