data_PCOD8087700
_publ_section_title
;
Structure prediction by ZEFSAII (Michael W. Deem and Ramdas Pophale) SiO2 
 PCOD8087700
Probable space group: C 2/M
;
_chemical_formula_sum "Si O2"
_cell_formula_units_Z 56
_cell_length_a 19.763358
_cell_length_b 9.654167
_cell_length_c 29.095281
_cell_angle_alpha 90.000000
_cell_angle_beta 147.828570
_cell_angle_gamma 90.000000
_cell_volume 2955.836513
_symmetry_space_group_name_H-M "C 2/M"
_symmetry_group_IT_number 12
_symmetry_cell_setting 'monoclinic'
loop_
_space_group_symop_operation_xyz
x,y,z
-x,y,-z
-x,-y,-z
x,-y,z
1/2+x,1/2+y,z
1/2-x,1/2+y,-z
1/2-x,1/2-y,-z
1/2+x,1/2-y,z
loop_
_atom_site_type_symbol
_atom_site_label
_atom_site_fract_x
_atom_site_fract_y
_atom_site_fract_z
Si Si1 0.179398 0.348333 0.514948
Si Si2 0.386110 0.151198 0.624565
Si Si3 0.064265 0.340046 0.905533
Si Si4 0.029634 0.156392 0.569670
Si Si5 0.748902 0.839954 0.931255
Si Si6 0.174201 0.337626 0.785317
Si Si7 0.718654 0.840970 0.234295
O O1 0.177715 0.500000 0.538130
O O2 0.301006 0.261533 0.604189
O O3 0.188531 0.370689 0.465829
O O4 0.049314 0.267157 0.447500
O O5 0.527460 0.209507 0.698539
O O6 0.391976 0.000000 0.653267
O O7 0.085112 0.500000 0.930355
O O8 0.122679 0.307121 0.888821
O O9 0.915767 0.300557 0.820210
O O10 0.133188 0.250331 0.984006
O O11 0.177167 0.183089 0.665945
O O12 0.000000 0.184137 0.500000
O O13 0.989652 0.000000 0.560579
O O14 0.724294 0.800408 0.864563
O O15 0.786992 0.000000 0.958179
O O16 0.187332 0.500000 0.781644
O O17 0.255568 0.253208 0.795236
O O18 0.719281 0.000000 0.217943
#
# Coordination Sequence:
#
# PCOD8087700 Si02
#       7
#     8   8   8   8   8   8   8
#     4  10  19  32  51  75 102 135 176 220 265 311
#     4   9  18  32  51  74 102 138 173 213 264 315
#     4   9  19  37  57  79 109 143 180 220 268 322
#     4  10  21  36  54  76 104 142 185 224 267 322
#     4   9  19  36  59  83 107 140 181 223 266 320
#     4  10  20  35  56  83 112 143 180 224 272 321
#     4  10  21  36  56  81 109 143 180 224 273 323
#
# _framework density 18.945567
#
# number of rings (size 3 to 8) (size 9 to 14) (size 15 to 20)
#    0.000    2.429    1.429    0.429    0.000    4.286 
#    0.000    7.143    0.000    3.429    0.000    0.000 
#    0.000    0.000    0.000    0.000    0.000    0.000 
#
# Total GULP energy -347124.948693 kJ/mol
# GULP energy per Si atom -12397.319596 kJ/mol
# Density = 1.890245 g / cm^3
# Si number density = 18.945567 Si / 1000 Ang^3
#
#
#
# Elastic Constant Matrix: (Units=GPa)
#
#
# Indices 1 2 3 4 5 6 
#
# 1 79.7945 48.5641 70.2952 -0.0001 9.2898 0.0000
# 2 48.5641 92.8089 57.6409 0.0000 11.9578 0.0000
# 3 70.2952 57.6409 103.6028 -0.0002 12.2267 0.0000
# 4 -0.0001 0.0000 -0.0002 26.0514 0.0000 2.4510
# 5 9.2898 11.9578 12.2267 0.0000 37.4645 0.0000
# 6 0.0000 0.0000 0.0000 2.4510 0.0000 21.3242
#
#
#
# Elastic Compliance Matrix: (Units=1/GPa)
#
#
# Indices 1 2 3 4 5 6 
#
# 1 0.032652 -0.005067 -0.019314 0.000000 -0.000176 0.000000
# 2 -0.005067 0.017453 -0.005993 0.000000 -0.002358 0.000000
# 3 -0.019314 -0.005993 0.026314 0.000000 -0.001886 0.000000
# 4 0.000000 0.000000 0.000000 0.038805 0.000000 -0.004460
# 5 -0.000176 -0.002358 -0.001886 0.000000 0.028103 0.000000
# 6 0.000000 0.000000 0.000000 -0.004460 0.000000 0.047408
#
#
# Mechanical properties :
#
#
# Convention : Reuss Voigt Hill
#
# Bulk Modulus (GPa) = 63.82388 69.91186 66.86787
# Shear Modulus (GPa) = 19.47733 23.61510 21.54621
#
# Velocity S-wave (km/s) = 3.20983 3.53437 3.37600
# Velocity P-wave (km/s) = 6.89191 7.32374 7.11111
#
# Compressibility (1/GPa) = 0.01566812
#
# Stress axis : x y z
#
# Youngs Moduli (GPa) = 30.62607 57.29794 38.00214
#
# Poissons Ratio (x) = 0.29036 0.73399
# Poissons Ratio (y) = 0.15520 0.22776
# Poissons Ratio (z) = 0.59153 0.34341
#
# Static dielectric constant tensor:
#      x y z
#    x 3.340730 0.000000 0.110200 
#    y 0.000000 3.749710 0.000000 
#    z 0.110200 0.000000 3.413850 
# 
# 
# High freq. dielectric constant tensor:
#      x y z
#    x 1.719620 0.000000 0.012740 
#    y 0.000000 1.740590 0.000000 
#    z 0.012740 0.000000 1.730540 
# 
# From -- ./inp_files/237399.got.cif
#   From: 2010.06.25/outbox.cif.g09.slc.cpg/sg12_119_cif.got.tgz:237399.got - 2010.06.28 00:19:55.
