data_PCOD8087002
_publ_section_title
;
Structure prediction by ZEFSAII (Michael W. Deem and Ramdas Pophale) SiO2 
 PCOD8087002
Probable space group: C 2/M
;
_chemical_formula_sum "Si O2"
_cell_formula_units_Z 64
_cell_length_a 24.964596
_cell_length_b 9.002018
_cell_length_c 33.122474
_cell_angle_alpha 90.000000
_cell_angle_beta 151.298653
_cell_angle_gamma 90.000000
_cell_volume 3574.779363
_symmetry_space_group_name_H-M "C 2/M"
_symmetry_group_IT_number 12
_symmetry_cell_setting 'monoclinic'
loop_
_space_group_symop_operation_xyz
x,y,z
-x,y,-z
-x,-y,-z
x,-y,z
1/2+x,1/2+y,z
1/2-x,1/2+y,-z
1/2-x,1/2-y,-z
1/2+x,1/2-y,z
loop_
_atom_site_type_symbol
_atom_site_label
_atom_site_fract_x
_atom_site_fract_y
_atom_site_fract_z
Si Si1 0.352959 0.174848 0.511623
Si Si2 0.343594 0.172186 0.722886
Si Si3 0.903112 0.827909 0.466414
Si Si4 0.490469 0.326621 0.324838
Si Si5 0.390248 0.670975 0.675625
Si Si6 0.239917 0.676299 0.808880
Si Si7 0.896065 0.324357 0.846942
Si Si8 0.924175 0.163341 0.989017
O O1 0.421775 0.224782 0.517609
O O2 0.400088 0.264182 0.580820
O O3 0.225089 0.225561 0.421038
O O4 0.366466 0.000000 0.527901
O O5 0.213342 0.209149 0.632208
O O6 0.414745 0.245812 0.733809
O O7 0.382529 0.232005 0.792129
O O8 0.368849 0.000000 0.736553
O O9 0.000000 0.784818 0.500000
O O10 0.909381 0.000000 0.483707
O O11 0.476097 0.500000 0.325184
O O12 0.509117 0.300808 0.289248
O O13 0.383909 0.238337 0.270014
O O14 0.377604 0.500000 0.678425
O O15 0.237631 0.500000 0.801034
O O16 0.301168 0.747587 0.811016
O O17 0.303565 0.717953 0.892950
O O18 0.881416 0.500000 0.841264
O O19 0.021010 0.278617 0.943481
O O20 0.915237 0.000000 0.003532
O O21 0.000000 0.150212 0.000000
#
# Coordination Sequence:
#
# PCOD8087002 Si02
#       8
#     8   8   8   8   8   8   8   8
#     4  10  20  34  51  74 100 131 174 214 254 303
#     4   9  19  33  50  75 102 133 171 209 250 299
#     4   9  18  32  49  68  99 140 171 204 252 297
#     4  11  22  35  53  76 102 133 171 216 261 305
#     4   9  20  37  54  73  99 134 175 216 256 299
#     4  10  21  35  51  77 107 136 168 207 259 307
#     4  10  19  31  52  81 109 136 169 207 249 305
#     4   8  16  32  51  72 103 137 168 203 250 307
#
# _framework density 17.903202
#
# number of rings (size 3 to 8) (size 9 to 14) (size 15 to 20)
#    0.000    2.500    0.000    2.625    1.750    5.500 
#    0.000    0.000    0.000    0.750    0.000    0.000 
#    0.000    0.000    0.000    0.000    0.000    0.000 
#
# Total GULP energy -396754.105806 kJ/mol
# GULP energy per Si atom -12398.565806 kJ/mol
# Density = 1.786245 g / cm^3
# Si number density = 17.903202 Si / 1000 Ang^3
#
#
#
# Elastic Constant Matrix: (Units=GPa)
#
#
# Indices 1 2 3 4 5 6 
#
# 1 81.8639 39.9452 38.5439 -0.0022 -18.9900 0.0006
# 2 39.9452 71.2783 37.7489 0.0004 -12.3372 0.0010
# 3 38.5439 37.7489 78.2000 0.0060 -20.8197 0.0002
# 4 -0.0022 0.0004 0.0060 30.0139 -0.0010 -3.5591
# 5 -18.9900 -12.3372 -20.8197 -0.0010 23.1520 -0.0005
# 6 0.0006 0.0010 0.0002 -3.5591 -0.0005 27.7164
#
#
#
# Elastic Compliance Matrix: (Units=1/GPa)
#
#
# Indices 1 2 3 4 5 6 
#
# 1 0.019684 -0.007539 -0.003726 0.000003 0.008778 0.000000
# 2 -0.007539 0.021841 -0.007067 0.000000 -0.000900 -0.000001
# 3 -0.003726 -0.007067 0.021325 -0.000004 0.012355 0.000000
# 4 0.000003 0.000000 -0.000004 0.033833 0.000000 0.004345
# 5 0.008778 -0.000900 0.012355 0.000000 0.061023 0.000001
# 6 0.000000 -0.000001 0.000000 0.004345 0.000001 0.036638
#
#
# Mechanical properties :
#
#
# Convention : Reuss Voigt Hill
#
# Bulk Modulus (GPa) = 38.18730 51.53534 44.86132
# Shear Modulus (GPa) = 20.85615 23.85008 22.35311
#
# Velocity S-wave (km/s) = 3.41682 3.65385 3.53732
# Velocity P-wave (km/s) = 6.07803 6.83000 6.46495
#
# Compressibility (1/GPa) = 0.02618671
#
# Stress axis : x y z
#
# Youngs Moduli (GPa) = 50.80142 45.78486 46.89331
#
# Poissons Ratio (x) = 0.34516 0.17473
# Poissons Ratio (y) = 0.38298 0.33140
# Poissons Ratio (z) = 0.18929 0.32357
#
# Static dielectric constant tensor:
#      x y z
#    x 3.209170 -0.000010 -0.094770 
#    y -0.000010 3.309180 0.000000 
#    z -0.094770 0.000000 3.504640 
# 
# 
# High freq. dielectric constant tensor:
#      x y z
#    x 1.677640 0.000000 -0.008570 
#    y 0.000000 1.697260 0.000000 
#    z -0.008570 0.000000 1.682990 
# 
# From -- ./inp_files/382444.got.cif
#   From: 2010.06.25/outbox.cif.g09.slc.cpg/sg12_192_cif.got.tgz:382444.got - 2010.06.28 00:19:55.
