data_PCOD8087871
_publ_section_title
;
Structure prediction by ZEFSAII (Michael W. Deem and Ramdas Pophale) SiO2 
 PCOD8087871
Probable space group: C 2/M
;
_chemical_formula_sum "Si O2"
_cell_formula_units_Z 56
_cell_length_a 15.330305
_cell_length_b 19.077777
_cell_length_c 11.659378
_cell_angle_alpha 90.000000
_cell_angle_beta 57.747203
_cell_angle_gamma 90.000000
_cell_volume 2883.840164
_symmetry_space_group_name_H-M "C 2/M"
_symmetry_group_IT_number 12
_symmetry_cell_setting 'monoclinic'
loop_
_space_group_symop_operation_xyz
x,y,z
-x,y,-z
-x,-y,-z
x,-y,z
1/2+x,1/2+y,z
1/2-x,1/2+y,-z
1/2-x,1/2-y,-z
1/2+x,1/2-y,z
loop_
_atom_site_type_symbol
_atom_site_label
_atom_site_fract_x
_atom_site_fract_y
_atom_site_fract_z
Si Si1 0.895123 0.774856 0.503432
Si Si2 0.039138 0.713211 0.780752
Si Si3 0.120468 0.074527 0.432473
Si Si4 0.586311 0.339408 0.024048
Si Si5 0.556848 0.922184 0.079573
Si Si6 0.786935 0.886047 0.868732
Si Si7 0.227376 0.747498 0.791710
O O1 0.911271 0.736452 0.373391
O O2 0.852035 0.855109 0.514727
O O3 0.810848 0.731807 0.635992
O O4 0.000000 0.778714 0.500000
O O5 0.131886 0.704405 0.805245
O O6 0.959274 0.770359 0.883185
O O7 0.982503 0.638183 0.805600
O O8 0.174423 0.075110 0.270942
O O9 0.000000 0.072556 0.500000
O O10 0.155086 0.000000 0.467272
O O11 0.626487 0.394241 0.091354
O O12 0.500000 0.373602 0.000000
O O13 0.686717 0.318377 0.878706
O O14 0.527691 0.000000 0.146268
O O15 0.500000 0.907863 0.000000
O O16 0.679819 0.919427 0.982523
O O17 0.778225 0.802752 0.851024
#
# Coordination Sequence:
#
# PCOD8087871 Si02
#       7
#     8   8   8   8   8   8   8
#     4  10  21  32  52  81 111 148 191 234 289 341
#     4  11  19  36  52  82 118 147 191 245 282 336
#     4   9  18  33  51  78 112 145 186 232 283 344
#     4  10  20  32  55  83 115 146 186 237 293 337
#     4  11  22  36  56  86 117 149 190 239 292 340
#     4  11  19  33  57  84 114 148 188 235 289 342
#     4  10  19  32  51  81 112 152 181 241 288 336
#
# _framework density 19.418551999999998
#
# number of rings (size 3 to 8) (size 9 to 14) (size 15 to 20)
#    0.000    1.714    2.857    4.286    2.000    0.000 
#    0.000    0.000    0.000    2.143    0.000    6.000 
#    0.000    4.000    0.000    0.000    0.000    0.000 
#
# Total GULP energy -347030.329374 kJ/mol
# GULP energy per Si atom -12393.940335 kJ/mol
# Density = 1.937435 g / cm^3
# Si number density = 19.418552 Si / 1000 Ang^3
#
#
#
# Elastic Constant Matrix: (Units=GPa)
#
#
# Indices 1 2 3 4 5 6 
#
# 1 79.3620 12.5222 9.0131 0.0000 -2.5485 0.0000
# 2 12.5222 74.1520 37.3411 0.0000 1.3366 0.0000
# 3 9.0131 37.3411 100.4445 0.0000 -15.8497 0.0000
# 4 0.0000 0.0000 0.0000 19.7580 0.0000 -0.2618
# 5 -2.5485 1.3366 -15.8497 0.0000 30.1706 0.0000
# 6 0.0000 0.0000 0.0000 -0.2618 0.0000 13.0518
#
#
#
# Elastic Compliance Matrix: (Units=1/GPa)
#
#
# Indices 1 2 3 4 5 6 
#
# 1 0.012992 -0.002106 -0.000212 0.000000 0.001079 0.000000
# 2 -0.002106 0.017470 -0.007039 0.000000 -0.004650 0.000000
# 3 -0.000212 -0.007039 0.013780 0.000000 0.007533 0.000000
# 4 0.000000 0.000000 0.000000 0.050626 0.000000 0.001016
# 5 0.001079 -0.004650 0.007533 0.000000 0.037400 0.000000
# 6 0.000000 0.000000 0.000000 0.001016 0.000000 0.076638
#
#
# Mechanical properties :
#
#
# Convention : Reuss Voigt Hill
#
# Bulk Modulus (GPa) = 39.17598 41.30126 40.23862
# Shear Modulus (GPa) = 21.17470 25.60156 23.38813
#
# Velocity S-wave (km/s) = 3.30576 3.63493 3.47424
# Velocity P-wave (km/s) = 5.89822 6.23956 6.07129
#
# Compressibility (1/GPa) = 0.02552585
#
# Stress axis : x y z
#
# Youngs Moduli (GPa) = 76.97266 57.24029 72.56636
#
# Poissons Ratio (x) = 0.12057 0.01541
# Poissons Ratio (y) = 0.16214 0.51083
# Poissons Ratio (z) = 0.01635 0.40294
#
# Static dielectric constant tensor:
#      x y z
#    x 3.509610 0.000000 -0.120310 
#    y 0.000000 3.570250 0.000000 
#    z -0.120310 0.000000 3.634650 
# 
# 
# High freq. dielectric constant tensor:
#      x y z
#    x 1.748330 0.000000 -0.026380 
#    y 0.000000 1.726460 0.000000 
#    z -0.026380 0.000000 1.753630 
# 
# From -- ./inp_files/146054.got.cif
#   From: 2010.06.25/outbox.cif.g09.slc.cpg/sg12_74_cif.got.tgz:146054.got - 2010.06.28 00:19:55.
