data_PCOD8087448
_publ_section_title
;
Structure prediction by ZEFSAII (Michael W. Deem and Ramdas Pophale) SiO2 
 PCOD8087448
Probable space group: C 2/M
;
_chemical_formula_sum "Si O2"
_cell_formula_units_Z 56
_cell_length_a 18.672773
_cell_length_b 9.363309
_cell_length_c 17.328991
_cell_angle_alpha 90.000000
_cell_angle_beta 97.692071
_cell_angle_gamma 90.000000
_cell_volume 3002.519684
_symmetry_space_group_name_H-M "C 2/M"
_symmetry_group_IT_number 12
_symmetry_cell_setting 'monoclinic'
loop_
_space_group_symop_operation_xyz
x,y,z
-x,y,-z
-x,-y,-z
x,-y,z
1/2+x,1/2+y,z
1/2-x,1/2+y,-z
1/2-x,1/2-y,-z
1/2+x,1/2-y,z
loop_
_atom_site_type_symbol
_atom_site_label
_atom_site_fract_x
_atom_site_fract_y
_atom_site_fract_z
Si Si1 0.940151 0.666498 0.151672
Si Si2 0.597813 0.168548 0.135945
Si Si3 0.073426 0.662538 0.537374
Si Si4 0.137723 0.667465 0.705374
Si Si5 0.173902 0.669211 0.988585
Si Si6 0.782257 0.669459 0.728942
Si Si7 0.198113 0.339980 0.440856
O O1 0.944737 0.500000 0.134024
O O2 0.923838 0.695649 0.239415
O O3 0.873920 0.725635 0.090349
O O4 0.017875 0.735562 0.140018
O O5 0.654505 0.227647 0.206845
O O6 0.592315 0.000000 0.144734
O O7 0.626821 0.211497 0.056378
O O8 0.055890 0.500000 0.559172
O O9 0.110341 0.731070 0.618890
O O10 0.120035 0.670094 0.467080
O O11 0.000000 0.741762 0.500000
O O12 0.157335 0.500000 0.702156
O O13 0.208519 0.752615 0.741621
O O14 0.189553 0.500000 0.987721
O O15 0.250000 0.750000 0.000000
O O16 0.771243 0.500000 0.735742
O O17 0.805383 0.717322 0.646497
O O18 0.228491 0.500000 0.445475
O O19 0.250000 0.250000 0.500000
#
# Coordination Sequence:
#
# PCOD8087448 Si02
#       7
#     8   8   8   8   8   8   8
#     4   9  18  31  51  77 100 126 166 208 242 282
#     4   9  18  32  51  76 102 129 163 204 246 285
#     4   9  18  30  47  71  96 123 160 205 247 283
#     4  10  19  32  51  73  98 128 163 206 247 287
#     4  10  19  33  54  77 102 132 163 200 243 291
#     4  10  20  32  50  73  99 130 163 200 243 295
#     4  10  19  32  50  72  97 127 163 203 245 290
#
# _framework density 18.651002999999999
#
# number of rings (size 3 to 8) (size 9 to 14) (size 15 to 20)
#    0.000    2.429    1.429    1.286    2.000    1.714 
#    0.000    0.000    0.000    6.000    0.000    0.000 
#    0.000    0.000    0.000    0.000    0.000    0.000 
#
# Total GULP energy -347092.915240 kJ/mol
# GULP energy per Si atom -12396.175544 kJ/mol
# Density = 1.860855 g / cm^3
# Si number density = 18.651003 Si / 1000 Ang^3
#
#
#
# Elastic Constant Matrix: (Units=GPa)
#
#
# Indices 1 2 3 4 5 6 
#
# 1 139.8622 27.2625 45.4604 0.0000 8.8076 0.0000
# 2 27.2625 23.4185 16.1016 0.0000 0.5127 0.0000
# 3 45.4604 16.1016 101.7073 0.0000 2.2900 0.0000
# 4 0.0000 0.0000 0.0000 17.5091 0.0000 2.8257
# 5 8.8076 0.5127 2.2900 0.0000 37.1701 0.0000
# 6 0.0000 0.0000 0.0000 2.8257 0.0000 21.5033
#
#
#
# Elastic Compliance Matrix: (Units=1/GPa)
#
#
# Indices 1 2 3 4 5 6 
#
# 1 0.010134 -0.009729 -0.002942 0.000000 -0.002086 0.000000
# 2 -0.009729 0.057258 -0.004757 0.000000 0.001809 0.000000
# 3 -0.002942 -0.004757 0.011900 0.000000 0.000030 0.000000
# 4 0.000000 0.000000 0.000000 0.058350 0.000000 -0.007668
# 5 -0.002086 0.001809 0.000030 0.000000 0.027371 0.000000
# 6 0.000000 0.000000 0.000000 -0.007668 0.000000 0.047512
#
#
# Mechanical properties :
#
#
# Convention : Reuss Voigt Hill
#
# Bulk Modulus (GPa) = 22.50454 49.18190 35.84322
# Shear Modulus (GPa) = 19.06991 26.98073 23.02532
#
# Velocity S-wave (km/s) = 3.20106 3.80756 3.51741
# Velocity P-wave (km/s) = 5.07491 6.76438 5.97961
#
# Compressibility (1/GPa) = 0.04443548
#
# Stress axis : x y z
#
# Youngs Moduli (GPa) = 98.67759 17.46482 84.03520
#
# Poissons Ratio (x) = 0.16991 0.24727
# Poissons Ratio (y) = 0.96000 0.39975
# Poissons Ratio (z) = 0.29036 0.08308
#
# Static dielectric constant tensor:
#      x y z
#    x 5.461630 0.000000 -0.071720 
#    y 0.000000 2.917150 0.000000 
#    z -0.071720 0.000000 3.579800 
# 
# 
# High freq. dielectric constant tensor:
#      x y z
#    x 1.735230 0.000000 -0.001440 
#    y 0.000000 1.663470 0.000000 
#    z -0.001440 0.000000 1.743410 
# 
# From -- ./inp_files/276059.got.cif
#   From: 2010.06.25/outbox.cif.g09.slc.cpg/sg12_139_cif.got.tgz:276059.got - 2010.06.28 00:19:55.
