data_PCOD8087965
_publ_section_title
;
Structure prediction by ZEFSAII (Michael W. Deem and Ramdas Pophale) SiO2 
 PCOD8087965
Probable space group: C 2/M
;
_chemical_formula_sum "Si O2"
_cell_formula_units_Z 48
_cell_length_a 18.010657
_cell_length_b 9.014888
_cell_length_c 15.897432
_cell_angle_alpha 90.000000
_cell_angle_beta 89.003200
_cell_angle_gamma 90.000000
_cell_volume 2580.780921
_symmetry_space_group_name_H-M "C 2/M"
_symmetry_group_IT_number 12
_symmetry_cell_setting 'monoclinic'
loop_
_space_group_symop_operation_xyz
x,y,z
-x,y,-z
-x,-y,-z
x,-y,z
1/2+x,1/2+y,z
1/2-x,1/2+y,-z
1/2-x,1/2-y,-z
1/2+x,1/2-y,z
loop_
_atom_site_type_symbol
_atom_site_label
_atom_site_fract_x
_atom_site_fract_y
_atom_site_fract_z
Si Si1 0.452279 0.826315 0.247417
Si Si2 0.791633 0.329720 0.924279
Si Si3 0.168488 0.832907 0.332010
Si Si4 0.039263 0.327163 0.414255
Si Si5 0.419584 0.332604 0.839620
Si Si6 0.795911 0.829764 0.246854
O O1 0.484269 0.790569 0.338828
O O2 0.502168 0.749768 0.174512
O O3 0.370535 0.762941 0.243029
O O4 0.450954 0.000000 0.228935
O O5 0.805312 0.500000 0.947909
O O6 0.871695 0.252994 0.910590
O O7 0.742569 0.314229 0.842239
O O8 0.750000 0.250000 0.000000
O O9 0.116719 0.760362 0.404372
O O10 0.124590 0.831333 0.246099
O O11 0.243440 0.737745 0.320605
O O12 0.189292 0.000000 0.358482
O O13 0.059100 0.500000 0.417041
O O14 0.000000 0.272793 0.500000
O O15 0.434373 0.500000 0.870402
O O16 0.812705 0.000000 0.269008
#
# Coordination Sequence:
#
# PCOD8087965 Si02
#       6
#     8   8   8   8   8   8
#     4  10  19  32  52  76 101 130 166 206 246 291
#     4  10  20  34  53  76 101 130 164 203 246 292
#     4   9  17  30  50  74  98 128 167 205 242 291
#     4   9  18  33  52  74 101 132 165 203 248 295
#     4   9  17  31  51  73  99 131 165 201 243 294
#     4  10  20  34  52  74 101 132 165 202 246 294
#
# _framework density 18.599021
#
# number of rings (size 3 to 8) (size 9 to 14) (size 15 to 20)
#    0.000    2.500    0.000    2.500    0.000    7.000 
#    0.000    1.667    0.000    5.000    0.000    0.000 
#    0.000    0.000    0.000    0.000    0.000    0.000 
#
# Total GULP energy -297640.910861 kJ/mol
# GULP energy per Si atom -12401.704619 kJ/mol
# Density = 1.855669 g / cm^3
# Si number density = 18.599021 Si / 1000 Ang^3
#
#
#
# Elastic Constant Matrix: (Units=GPa)
#
#
# Indices 1 2 3 4 5 6 
#
# 1 128.2532 70.2871 35.0628 0.0000 -38.7367 0.0000
# 2 70.2871 145.2998 45.4573 0.0000 -27.1737 0.0000
# 3 35.0628 45.4573 63.1366 0.0000 -37.8334 0.0000
# 4 0.0000 0.0000 0.0000 25.3900 0.0000 -9.2621
# 5 -38.7367 -27.1737 -37.8334 0.0000 36.2780 0.0000
# 6 0.0000 0.0000 0.0000 -9.2621 0.0000 41.5650
#
#
#
# Elastic Compliance Matrix: (Units=1/GPa)
#
#
# Indices 1 2 3 4 5 6 
#
# 1 0.014793 -0.005930 0.007620 0.000000 0.019300 0.000000
# 2 -0.005930 0.011261 -0.009476 0.000000 -0.007780 0.000000
# 3 0.007620 -0.009476 0.050794 0.000000 0.054010 0.000000
# 4 0.000000 0.000000 0.000000 0.042870 0.000000 0.009553
# 5 0.019300 -0.007780 0.054010 0.000000 0.098671 0.000000
# 6 0.000000 0.000000 0.000000 0.009553 0.000000 0.026187
#
#
# Mechanical properties :
#
#
# Convention : Reuss Voigt Hill
#
# Bulk Modulus (GPa) = 16.32006 70.92267 43.62137
# Shear Modulus (GPa) = 17.82049 33.03876 25.42963
#
# Velocity S-wave (km/s) = 3.09874 4.21927 3.70165
# Velocity P-wave (km/s) = 4.64722 7.87094 6.46329
#
# Compressibility (1/GPa) = 0.06127428
#
# Stress axis : x y z
#
# Youngs Moduli (GPa) = 67.59816 88.80440 19.68726
#
# Poissons Ratio (x) = 0.52665 -0.15001
# Poissons Ratio (y) = 0.40089 0.18656
# Poissons Ratio (z) = -0.51507 0.84152
#
# Static dielectric constant tensor:
#      x y z
#    x 3.452070 0.000000 -0.301380 
#    y 0.000000 3.643430 0.000000 
#    z -0.301380 0.000000 3.213740 
# 
# 
# High freq. dielectric constant tensor:
#      x y z
#    x 1.723620 0.000000 -0.029060 
#    y 0.000000 1.738580 0.000000 
#    z -0.029060 0.000000 1.690990 
# 
# From -- ./inp_files/221517.got.cif
#   From: 2010.06.25/outbox.cif.g09.slc.cpg/sg12_111_cif.got.tgz:221517.got - 2010.06.28 00:19:55.
