data_PCOD8087777
_publ_section_title
;
Structure prediction by ZEFSAII (Michael W. Deem and Ramdas Pophale) SiO2 
 PCOD8087777
Probable space group: C 2/M
;
_chemical_formula_sum "Si O2"
_cell_formula_units_Z 64
_cell_length_a 30.228506
_cell_length_b 8.829538
_cell_length_c 23.243456
_cell_angle_alpha 90.000000
_cell_angle_beta 148.291349
_cell_angle_gamma 90.000000
_cell_volume 3260.699759
_symmetry_space_group_name_H-M "C 2/M"
_symmetry_group_IT_number 12
_symmetry_cell_setting 'monoclinic'
loop_
_space_group_symop_operation_xyz
x,y,z
-x,y,-z
-x,-y,-z
x,-y,z
1/2+x,1/2+y,z
1/2-x,1/2+y,-z
1/2-x,1/2-y,-z
1/2+x,1/2-y,z
loop_
_atom_site_type_symbol
_atom_site_label
_atom_site_fract_x
_atom_site_fract_y
_atom_site_fract_z
Si Si1 0.816960 0.678854 0.616497
Si Si2 0.511945 0.677390 0.233504
Si Si3 0.285813 0.334779 0.092572
Si Si4 0.034863 0.178304 0.389880
Si Si5 0.105816 0.322317 0.701192
Si Si6 0.127501 0.665228 0.994845
Si Si7 0.743582 0.319440 0.773439
Si Si8 0.778419 0.178771 0.378561
O O1 0.812886 0.500000 0.604648
O O2 0.750000 0.750000 0.500000
O O3 0.909728 0.735786 0.706504
O O4 0.792466 0.729149 0.654250
O O5 0.528810 0.500000 0.246675
O O6 0.499133 0.722312 0.286492
O O7 0.431537 0.720257 0.105362
O O8 0.326493 0.500000 0.121673
O O9 0.353960 0.220876 0.193218
O O10 0.250000 0.250000 0.000000
O O11 0.212369 0.365979 0.055134
O O12 0.130802 0.236869 0.499140
O O13 0.988402 0.258608 0.392862
O O14 0.027495 0.000000 0.391739
O O15 0.103498 0.500000 0.687760
O O16 0.158672 0.245969 0.708615
O O17 0.082557 0.500000 0.953912
O O18 0.166601 0.732143 0.098062
O O19 0.736336 0.500000 0.768446
O O20 0.745353 0.255606 0.710401
O O21 0.782403 0.000000 0.378513
#
# Coordination Sequence:
#
# PCOD8087777 Si02
#       8
#     8   8   8   8   8   8   8   8
#     4  11  21  38  62  89 117 144 181 229 285 344
#     4  11  22  36  57  86 117 149 185 229 283 339
#     4  10  19  32  51  76 107 145 191 236 284 334
#     4  10  20  36  56  81 112 146 193 238 281 338
#     4  11  22  34  50  78 115 152 190 230 281 337
#     4   9  19  34  53  79 108 143 186 231 278 328
#     4   9  19  39  62  80 107 150 197 238 277 327
#     4   9  19  38  63  85 106 143 193 237 280 339
#
# _framework density 19.627689
#
# number of rings (size 3 to 8) (size 9 to 14) (size 15 to 20)
#    0.000    2.000    1.250    3.750    0.000    6.000 
#    0.000    5.000    0.000    3.750    0.000    0.000 
#    0.000    0.000    0.000    0.000    0.000    0.000 
#
# Total GULP energy -396523.218842 kJ/mol
# GULP energy per Si atom -12391.350589 kJ/mol
# Density = 1.958302 g / cm^3
# Si number density = 19.627689 Si / 1000 Ang^3
#
#
#
# Elastic Constant Matrix: (Units=GPa)
#
#
# Indices 1 2 3 4 5 6 
#
# 1 96.7712 33.6431 29.8211 0.0000 -14.4111 0.0000
# 2 33.6431 72.2021 23.2228 0.0000 -2.3422 0.0000
# 3 29.8211 23.2228 81.4108 0.0000 -15.1881 0.0000
# 4 0.0000 0.0000 0.0000 28.5308 0.0000 4.0757
# 5 -14.4111 -2.3422 -15.1881 0.0000 35.8499 0.0000
# 6 0.0000 0.0000 0.0000 4.0757 0.0000 24.1189
#
#
#
# Elastic Compliance Matrix: (Units=1/GPa)
#
#
# Indices 1 2 3 4 5 6 
#
# 1 0.013622 -0.005342 -0.002725 0.000000 0.003972 0.000000
# 2 -0.005342 0.017372 -0.003461 0.000000 -0.002479 0.000000
# 3 -0.002725 -0.003461 0.015226 0.000000 0.005129 0.000000
# 4 0.000000 0.000000 0.000000 0.035917 0.000000 -0.006069
# 5 0.003972 -0.002479 0.005129 0.000000 0.031502 0.000000
# 6 0.000000 0.000000 0.000000 -0.006069 0.000000 0.042487
#
#
# Mechanical properties :
#
#
# Convention : Reuss Voigt Hill
#
# Bulk Modulus (GPa) = 43.17084 47.08423 45.12754
# Shear Modulus (GPa) = 26.75190 28.61307 27.68248
#
# Velocity S-wave (km/s) = 3.69584 3.82225 3.75958
# Velocity P-wave (km/s) = 6.34468 6.59698 6.47206
#
# Compressibility (1/GPa) = 0.02316378
#
# Stress axis : x y z
#
# Youngs Moduli (GPa) = 73.41002 57.56403 65.67855
#
# Poissons Ratio (x) = 0.30751 0.17897
# Poissons Ratio (y) = 0.39216 0.22732
# Poissons Ratio (z) = 0.20003 0.19923
#
# Static dielectric constant tensor:
#      x y z
#    x 3.651180 0.000000 -0.085900 
#    y 0.000000 3.412910 0.000000 
#    z -0.085900 0.000000 4.234290 
# 
# 
# High freq. dielectric constant tensor:
#      x y z
#    x 1.760740 0.000000 -0.003550 
#    y 0.000000 1.749370 0.000000 
#    z -0.003550 0.000000 1.765480 
# 
# From -- ./inp_files/353579.got.cif
#   From: 2010.06.25/outbox.cif.g09.slc.cpg/sg12_177_cif.got.tgz:353579.got - 2010.06.28 00:19:55.
