data_PCOD8087332
_publ_section_title
;
Structure prediction by ZEFSAII (Michael W. Deem and Ramdas Pophale) SiO2 
 PCOD8087332
Probable space group: C 2/M
;
_chemical_formula_sum "Si O2"
_cell_formula_units_Z 56
_cell_length_a 16.013657
_cell_length_b 14.293658
_cell_length_c 15.555811
_cell_angle_alpha 90.000000
_cell_angle_beta 118.976765
_cell_angle_gamma 90.000000
_cell_volume 3114.894935
_symmetry_space_group_name_H-M "C 2/M"
_symmetry_group_IT_number 12
_symmetry_cell_setting 'monoclinic'
loop_
_space_group_symop_operation_xyz
x,y,z
-x,y,-z
-x,-y,-z
x,-y,z
1/2+x,1/2+y,z
1/2-x,1/2+y,-z
1/2-x,1/2-y,-z
1/2+x,1/2-y,z
loop_
_atom_site_type_symbol
_atom_site_label
_atom_site_fract_x
_atom_site_fract_y
_atom_site_fract_z
Si Si1 0.104681 0.105050 0.529433
Si Si2 0.591505 0.890629 0.225678
Si Si3 0.709865 0.106506 0.117078
Si Si4 0.883849 0.102209 0.667898
Si Si5 0.562953 0.220766 0.947116
Si Si6 0.273733 0.225259 0.609143
Si Si7 0.586310 0.606552 0.846236
O O1 0.122102 0.101813 0.437194
O O2 0.180635 0.178576 0.607414
O O3 0.000000 0.142343 0.500000
O O4 0.119849 0.000000 0.575753
O O5 0.669924 0.869146 0.191181
O O6 0.492671 0.839163 0.153162
O O7 0.637742 0.847999 0.336221
O O8 0.570909 0.000000 0.228301
O O9 0.823508 0.123950 0.171497
O O10 0.683505 0.000000 0.081701
O O11 0.660780 0.168455 0.018843
O O12 0.809410 0.177478 0.671094
O O13 0.991878 0.128271 0.744934
O O14 0.855832 0.000000 0.690549
O O15 0.589873 0.324034 0.928596
O O16 0.500000 0.231123 0.000000
O O17 0.250000 0.250000 0.500000
O O18 0.587028 0.500000 0.881654
#
# Coordination Sequence:
#
# PCOD8087332 Si02
#       7
#     8   8   8   8   8   8   8
#     4   9  18  30  49  77 103 122 153 204 256 300
#     4  10  19  32  52  77 102 129 164 206 255 306
#     4   9  19  32  51  77 103 131 161 207 260 300
#     4   9  18  32  48  69  98 132 165 201 241 290
#     4  10  19  33  51  74 104 134 167 204 247 301
#     4  10  19  32  49  72 101 131 165 198 245 301
#     4  10  19  32  50  72 101 134 170 204 243 293
#
# _framework density 17.978134000000001
#
# number of rings (size 3 to 8) (size 9 to 14) (size 15 to 20)
#    0.000    2.429    1.429    1.286    2.000    2.571 
#    0.000    0.000    0.000    0.429    0.000    4.000 
#    0.000    0.000    0.000    0.000    0.000    0.000 
#
# Total GULP energy -347008.713311 kJ/mol
# GULP energy per Si atom -12393.168333 kJ/mol
# Density = 1.793721 g / cm^3
# Si number density = 17.978134 Si / 1000 Ang^3
#
#
#
# Elastic Constant Matrix: (Units=GPa)
#
#
# Indices 1 2 3 4 5 6 
#
# 1 73.1662 51.0399 15.3703 0.0000 27.8020 0.0000
# 2 51.0399 120.1442 35.6371 0.0000 20.2216 0.0000
# 3 15.3703 35.6371 65.2012 0.0000 19.8763 0.0000
# 4 0.0000 0.0000 0.0000 31.6341 0.0000 8.8887
# 5 27.8020 20.2216 19.8763 0.0000 25.2205 0.0000
# 6 0.0000 0.0000 0.0000 8.8887 0.0000 26.3651
#
#
#
# Elastic Compliance Matrix: (Units=1/GPa)
#
#
# Indices 1 2 3 4 5 6 
#
# 1 0.031819 -0.010380 0.008329 0.000000 -0.033317 0.000000
# 2 -0.010380 0.013793 -0.006856 0.000000 0.005787 0.000000
# 3 0.008329 -0.006856 0.024013 0.000000 -0.022610 0.000000
# 4 0.000000 0.000000 0.000000 0.034919 0.000000 -0.011773
# 5 -0.033317 0.005787 -0.022610 0.000000 0.089557 0.000000
# 6 0.000000 0.000000 0.000000 -0.011773 0.000000 0.041898
#
#
# Mechanical properties :
#
#
# Convention : Reuss Voigt Hill
#
# Bulk Modulus (GPa) = 19.30076 51.40067 35.35072
# Shear Modulus (GPa) = 18.44452 27.07490 22.75971
#
# Velocity S-wave (km/s) = 3.20651 3.88492 3.56190
# Velocity P-wave (km/s) = 4.94651 6.98400 6.05162
#
# Compressibility (1/GPa) = 0.05181142
#
# Stress axis : x y z
#
# Youngs Moduli (GPa) = 31.42768 72.50217 41.64352
#
# Poissons Ratio (x) = 0.75260 -0.34686
# Poissons Ratio (y) = 0.32623 0.28550
# Poissons Ratio (z) = -0.26177 0.49706
#
# Static dielectric constant tensor:
#      x y z
#    x 3.257180 0.000000 0.337140 
#    y 0.000000 3.777260 0.000000 
#    z 0.337140 0.000000 3.294650 
# 
# 
# High freq. dielectric constant tensor:
#      x y z
#    x 1.668920 0.000000 0.033460 
#    y 0.000000 1.705280 0.000000 
#    z 0.033460 0.000000 1.690700 
# 
# From -- ./inp_files/223348.got.cif
#   From: 2010.06.25/outbox.cif.g09.slc.cpg/sg12_112_cif.got.tgz:223348.got - 2010.06.28 00:19:55.
