data_PCOD8087888
_publ_section_title
;
Structure prediction by ZEFSAII (Michael W. Deem and Ramdas Pophale) SiO2 
 PCOD8087888
Probable space group: C 2/M
;
_chemical_formula_sum "Si O2"
_cell_formula_units_Z 64
_cell_length_a 12.799201
_cell_length_b 13.323447
_cell_length_c 22.402362
_cell_angle_alpha 90.000000
_cell_angle_beta 69.292233
_cell_angle_gamma 90.000000
_cell_volume 3573.459184
_symmetry_space_group_name_H-M "C 2/M"
_symmetry_group_IT_number 12
_symmetry_cell_setting 'monoclinic'
loop_
_space_group_symop_operation_xyz
x,y,z
-x,y,-z
-x,-y,-z
x,-y,z
1/2+x,1/2+y,z
1/2-x,1/2+y,-z
1/2-x,1/2-y,-z
1/2+x,1/2-y,z
loop_
_atom_site_type_symbol
_atom_site_label
_atom_site_fract_x
_atom_site_fract_y
_atom_site_fract_z
Si Si1 0.099462 0.883307 0.158174
Si Si2 0.829579 0.320713 0.520031
Si Si3 0.599130 0.725515 0.740052
Si Si4 0.978134 0.717717 0.595751
Si Si5 0.373709 0.389080 0.380690
Si Si6 0.258345 0.278518 0.174858
Si Si7 0.960689 0.116796 0.072228
Si Si8 0.559319 0.117515 0.275048
O O1 0.209324 0.819441 0.151879
O O2 0.998637 0.850379 0.220888
O O3 0.061824 0.862318 0.097685
O O4 0.126967 0.000000 0.163058
O O5 0.750000 0.250000 0.500000
O O6 0.883642 0.261315 0.565421
O O7 0.744849 0.405718 0.561080
O O8 0.927559 0.355229 0.454365
O O9 0.658711 0.667637 0.674019
O O10 0.684908 0.752781 0.774631
O O11 0.551858 0.832609 0.729037
O O12 0.921183 0.661681 0.662819
O O13 0.033220 0.824118 0.602949
O O14 0.424010 0.500000 0.359552
O O15 0.347777 0.326274 0.112318
O O16 0.162514 0.358713 0.210267
O O17 0.930312 0.000000 0.076762
O O18 0.000000 0.156453 0.000000
O O19 0.540905 0.000000 0.282129
#
# Coordination Sequence:
#
# PCOD8087888 Si02
#       8
#     8   8   8   8   8   8   8   8
#     4   9  18  32  50  73 100 131 164 197 239 285
#     4   9  18  33  49  66  94 127 156 195 242 288
#     4   9  19  33  48  71 101 126 157 202 243 281
#     4   9  19  34  49  69  99 125 154 200 245 285
#     4  10  19  32  52  73  93 125 165 199 237 288
#     4  10  19  32  52  75  99 128 162 200 237 281
#     4   9  18  33  52  74 101 131 163 200 239 279
#     4  10  20  33  51  73  96 125 160 197 240 288
#
# _framework density 17.909817
#
# number of rings (size 3 to 8) (size 9 to 14) (size 15 to 20)
#    0.000    2.625    0.000    1.500    0.000    4.500 
#    0.000    6.250    0.000   12.375    0.000    0.000 
#    0.000    0.000    0.000    0.000    0.000    0.000 
#
# Total GULP energy -396564.409859 kJ/mol
# GULP energy per Si atom -12392.637808 kJ/mol
# Density = 1.786905 g / cm^3
# Si number density = 17.909817 Si / 1000 Ang^3
#
#
#
# Elastic Constant Matrix: (Units=GPa)
#
#
# Indices 1 2 3 4 5 6 
#
# 1 89.1018 58.6366 39.1076 0.0000 8.3021 0.0000
# 2 58.6366 115.4944 47.3755 0.0000 2.0964 0.0000
# 3 39.1076 47.3755 101.7857 0.0000 1.4366 0.0000
# 4 0.0000 0.0000 0.0000 18.0652 0.0000 -1.1485
# 5 8.3021 2.0964 1.4366 0.0000 25.7538 0.0000
# 6 0.0000 0.0000 0.0000 -1.1485 0.0000 19.1190
#
#
#
# Elastic Compliance Matrix: (Units=1/GPa)
#
#
# Indices 1 2 3 4 5 6 
#
# 1 0.018315 -0.007847 -0.003313 0.000000 -0.005080 0.000000
# 2 -0.007847 0.014073 -0.003558 0.000000 0.001583 0.000000
# 3 -0.003313 -0.003558 0.012744 0.000000 0.000647 0.000000
# 4 0.000000 0.000000 0.000000 0.055567 0.000000 0.003338
# 5 -0.005080 0.001583 0.000647 0.000000 0.040302 0.000000
# 6 0.000000 0.000000 0.000000 0.003338 0.000000 0.052504
#
#
# Mechanical properties :
#
#
# Convention : Reuss Voigt Hill
#
# Bulk Modulus (GPa) = 63.70681 66.29126 64.99903
# Shear Modulus (GPa) = 21.91324 23.33841 22.62583
#
# Velocity S-wave (km/s) = 3.50170 3.61377 3.55818
# Velocity P-wave (km/s) = 7.21091 7.38287 7.29740
#
# Compressibility (1/GPa) = 0.01569691
#
# Stress axis : x y z
#
# Youngs Moduli (GPa) = 54.60125 71.05765 78.46838
#
# Poissons Ratio (x) = 0.55761 0.25993
# Poissons Ratio (y) = 0.42847 0.27915
# Poissons Ratio (z) = 0.18087 0.25279
#
# Static dielectric constant tensor:
#      x y z
#    x 3.511300 0.000000 -0.069780 
#    y 0.000000 3.095760 0.000000 
#    z -0.069780 0.000000 3.624390 
# 
# 
# High freq. dielectric constant tensor:
#      x y z
#    x 1.696010 0.000000 0.002940 
#    y 0.000000 1.668790 0.000000 
#    z 0.002940 0.000000 1.701870 
# 
# From -- ./inp_files/335630.got.cif
#   From: 2010.06.25/outbox.cif.g09.slc.cpg/sg12_168_cif.got.tgz:335630.got - 2010.06.28 00:19:55.
