data_PCOD8087325
_publ_section_title
;
Structure prediction by ZEFSAII (Michael W. Deem and Ramdas Pophale) SiO2 
 PCOD8087325
Probable space group: C 2/M
;
_chemical_formula_sum "Si O2"
_cell_formula_units_Z 64
_cell_length_a 25.080899
_cell_length_b 8.676701
_cell_length_c 16.976963
_cell_angle_alpha 90.000000
_cell_angle_beta 90.659565
_cell_angle_gamma 90.000000
_cell_volume 3694.272755
_symmetry_space_group_name_H-M "C 2/M"
_symmetry_group_IT_number 12
_symmetry_cell_setting 'monoclinic'
loop_
_space_group_symop_operation_xyz
x,y,z
-x,y,-z
-x,-y,-z
x,-y,z
1/2+x,1/2+y,z
1/2-x,1/2+y,-z
1/2-x,1/2-y,-z
1/2+x,1/2-y,z
loop_
_atom_site_type_symbol
_atom_site_label
_atom_site_fract_x
_atom_site_fract_y
_atom_site_fract_z
Si Si1 0.401904 0.820650 0.686632
Si Si2 0.936815 0.329635 0.992240
Si Si3 0.689581 0.178447 0.577522
Si Si4 0.503929 0.320434 0.408696
Si Si5 0.437851 0.181658 0.165248
Si Si6 0.103762 0.179819 0.682632
Si Si7 0.553103 0.678783 0.163546
Si Si8 0.187811 0.822002 0.413179
O O1 0.448625 0.777759 0.627060
O O2 0.405894 0.725061 0.767633
O O3 0.345099 0.780792 0.648106
O O4 0.404711 0.000000 0.706348
O O5 0.914268 0.500000 0.972809
O O6 0.920238 0.215771 0.921138
O O7 0.916078 0.272715 0.077518
O O8 0.000000 0.337358 0.000000
O O9 0.653358 0.225101 0.650246
O O10 0.750399 0.213747 0.601989
O O11 0.672117 0.278152 0.501993
O O12 0.682065 0.000000 0.556063
O O13 0.500000 0.278043 0.500000
O O14 0.516713 0.500000 0.395865
O O15 0.449151 0.273021 0.365758
O O16 0.402123 0.274520 0.226338
O O17 0.499525 0.225353 0.176805
O O18 0.432616 0.000000 0.179686
O O19 0.115875 0.000000 0.675122
O O20 0.538908 0.500000 0.168211
O O21 0.173174 0.000000 0.400270
#
# Coordination Sequence:
#
# PCOD8087325 Si02
#       8
#     8   8   8   8   8   8   8   8
#     4  12  23  34  52  75 102 136 173 213 255 306
#     4   8  16  30  47  68  97 134 170 206 251 297
#     4  10  21  37  57  78 101 132 172 217 262 306
#     4  10  21  35  49  69 101 137 170 206 253 305
#     4  10  19  32  49  71 103 137 171 211 251 302
#     4  11  21  32  51  76 105 139 172 212 256 303
#     4  11  20  31  48  72 103 136 171 210 253 304
#     4  10  21  38  57  76 101 132 171 220 264 303
#
# _framework density 17.324112
#
# number of rings (size 3 to 8) (size 9 to 14) (size 15 to 20)
#    0.000    1.750    1.250    5.250    0.000    6.000 
#    0.000    0.000    0.000    0.000    0.000    0.875 
#    0.000    0.000    0.000    0.000    0.000    0.000 
#
# Total GULP energy -396887.464192 kJ/mol
# GULP energy per Si atom -12402.733256 kJ/mol
# Density = 1.728468 g / cm^3
# Si number density = 17.324112 Si / 1000 Ang^3
#
#
#
# Elastic Constant Matrix: (Units=GPa)
#
#
# Indices 1 2 3 4 5 6 
#
# 1 59.6954 19.9104 38.5270 0.0000 -0.8516 0.0000
# 2 19.9104 57.9278 24.8527 0.0000 5.4059 0.0000
# 3 38.5270 24.8527 121.4483 0.0000 -2.6170 0.0000
# 4 0.0000 0.0000 0.0000 32.0833 0.0000 -1.1984
# 5 -0.8516 5.4059 -2.6170 0.0000 17.0695 0.0000
# 6 0.0000 0.0000 0.0000 -1.1984 0.0000 22.9721
#
#
#
# Elastic Compliance Matrix: (Units=1/GPa)
#
#
# Indices 1 2 3 4 5 6 
#
# 1 0.022411 -0.005312 -0.005982 0.000000 0.001883 0.000000
# 2 -0.005312 0.020957 -0.002761 0.000000 -0.007325 0.000000
# 3 -0.005982 -0.002761 0.010744 0.000000 0.002223 0.000000
# 4 0.000000 0.000000 0.000000 0.031230 0.000000 0.001629
# 5 0.001883 -0.007325 0.002223 0.000000 0.061339 0.000000
# 6 0.000000 0.000000 0.000000 0.001629 0.000000 0.043616
#
#
# Mechanical properties :
#
#
# Convention : Reuss Voigt Hill
#
# Bulk Modulus (GPa) = 38.45860 45.07241 41.76551
# Shear Modulus (GPa) = 22.01918 24.81041 23.41479
#
# Velocity S-wave (km/s) = 3.56899 3.78846 3.68036
# Velocity P-wave (km/s) = 6.26349 6.72385 6.49775
#
# Compressibility (1/GPa) = 0.02600199
#
# Stress axis : x y z
#
# Youngs Moduli (GPa) = 44.62099 47.71676 93.07100
#
# Poissons Ratio (x) = 0.25349 0.55673
# Poissons Ratio (y) = 0.23704 0.25699
# Poissons Ratio (z) = 0.26691 0.13175
#
# Static dielectric constant tensor:
#      x y z
#    x 2.934440 0.000000 -0.008340 
#    y 0.000000 3.264040 0.000000 
#    z -0.008340 0.000000 3.558880 
# 
# 
# High freq. dielectric constant tensor:
#      x y z
#    x 1.627890 0.000000 -0.001380 
#    y 0.000000 1.680010 0.000000 
#    z -0.001380 0.000000 1.678090 
# 
# From -- ./inp_files/281264.got.cif
#   From: 2010.06.25/outbox.cif.g09.slc.cpg/sg12_141_cif.got.tgz:281264.got - 2010.06.28 00:19:55.
