data_PCOD8087211
_publ_section_title
;
Structure prediction by ZEFSAII (Michael W. Deem and Ramdas Pophale) SiO2 
 PCOD8087211
Probable space group: C 2/M
;
_chemical_formula_sum "Si O2"
_cell_formula_units_Z 56
_cell_length_a 28.567644
_cell_length_b 8.678918
_cell_length_c 17.359874
_cell_angle_alpha 90.000000
_cell_angle_beta 49.935237
_cell_angle_gamma 90.000000
_cell_volume 3294.034646
_symmetry_space_group_name_H-M "C 2/M"
_symmetry_group_IT_number 12
_symmetry_cell_setting 'monoclinic'
loop_
_space_group_symop_operation_xyz
x,y,z
-x,y,-z
-x,-y,-z
x,-y,z
1/2+x,1/2+y,z
1/2-x,1/2+y,-z
1/2-x,1/2-y,-z
1/2+x,1/2-y,z
loop_
_atom_site_type_symbol
_atom_site_label
_atom_site_fract_x
_atom_site_fract_y
_atom_site_fract_z
Si Si1 0.153548 0.679005 0.589235
Si Si2 0.730957 0.320451 0.636622
Si Si3 0.728964 0.680014 0.254782
Si Si4 0.897763 0.324741 0.586202
Si Si5 0.424590 0.174665 0.729425
Si Si6 0.786065 0.682751 0.890529
Si Si7 0.045489 0.820919 0.619169
O O1 0.137336 0.500000 0.609298
O O2 0.202543 0.715600 0.470227
O O3 0.179035 0.731044 0.644489
O O4 0.091882 0.773640 0.637639
O O5 0.715930 0.500000 0.649034
O O6 0.727952 0.259937 0.727112
O O7 0.742796 0.500000 0.238706
O O8 0.659142 0.709620 0.352000
O O9 0.743868 0.751083 0.155619
O O10 0.873609 0.500000 0.599131
O O11 0.934465 0.313974 0.626991
O O12 0.941708 0.278078 0.470617
O O13 0.356833 0.234925 0.822736
O O14 0.475660 0.279933 0.717158
O O15 0.432975 0.000000 0.749238
O O16 0.781153 0.500000 0.892716
O O17 0.750000 0.750000 0.000000
O O18 0.051755 0.000000 0.594726
#
# Coordination Sequence:
#
# PCOD8087211 Si02
#       7
#     8   8   8   8   8   8   8
#     4  10  20  32  48  67  98 138 174 212 251 293
#     4  10  19  32  49  70  99 134 173 213 252 294
#     4  11  20  31  51  76 103 134 170 208 251 302
#     4  10  19  32  47  66  96 135 172 207 247 293
#     4   9  20  35  50  68  96 132 167 203 249 302
#     4  10  21  38  58  79 103 130 164 209 259 305
#     4  12  22  30  45  70 100 134 172 209 246 293
#
# _framework density 17.000427999999999
#
# number of rings (size 3 to 8) (size 9 to 14) (size 15 to 20)
#    0.000    1.714    1.429    5.571    0.000    6.286 
#    0.000    0.000    0.000    0.000    0.000    1.000 
#    0.000    8.000    0.000    0.000    0.000    0.000 
#
# Total GULP energy -347263.662722 kJ/mol
# GULP energy per Si atom -12402.273669 kJ/mol
# Density = 1.696173 g / cm^3
# Si number density = 17.000428 Si / 1000 Ang^3
#
#
#
# Elastic Constant Matrix: (Units=GPa)
#
#
# Indices 1 2 3 4 5 6 
#
# 1 97.3647 32.7871 43.8152 -0.0002 8.7208 0.0000
# 2 32.7871 74.7360 22.8003 0.0015 4.2257 -0.0024
# 3 43.8152 22.8003 79.0260 -0.0004 10.8366 0.0001
# 4 -0.0002 0.0015 -0.0004 24.1887 0.0000 3.1630
# 5 8.7208 4.2257 10.8366 0.0000 17.4616 0.0000
# 6 0.0000 -0.0024 0.0001 3.1630 0.0000 30.2339
#
#
#
# Elastic Compliance Matrix: (Units=1/GPa)
#
#
# Indices 1 2 3 4 5 6 
#
# 1 0.014979 -0.004391 -0.006731 0.000000 -0.002241 0.000000
# 2 -0.004391 0.015975 -0.002126 -0.000001 -0.000354 0.000001
# 3 -0.006731 -0.002126 0.017999 0.000000 -0.007294 0.000000
# 4 0.000000 -0.000001 0.000000 0.041915 0.000000 -0.004385
# 5 -0.002241 -0.000354 -0.007294 0.000000 0.063000 0.000000
# 6 0.000000 0.000001 0.000000 -0.004385 0.000000 0.033534
#
#
# Mechanical properties :
#
#
# Convention : Reuss Voigt Hill
#
# Bulk Modulus (GPa) = 44.52745 49.99244 47.25994
# Shear Modulus (GPa) = 22.58505 24.49180 23.53843
#
# Velocity S-wave (km/s) = 3.64881 3.79972 3.72503
# Velocity P-wave (km/s) = 6.63329 6.98003 6.80887
#
# Compressibility (1/GPa) = 0.02245806
#
# Stress axis : x y z
#
# Youngs Moduli (GPa) = 66.75994 62.59588 55.55712
#
# Poissons Ratio (x) = 0.27488 0.37394
# Poissons Ratio (y) = 0.29316 0.11811
# Poissons Ratio (z) = 0.44934 0.13308
#
# Static dielectric constant tensor:
#      x y z
#    x 3.200730 0.000000 0.107540 
#    y 0.000000 3.198390 0.000000 
#    z 0.107540 0.000000 2.838570 
# 
# 
# High freq. dielectric constant tensor:
#      x y z
#    x 1.656620 0.000000 0.011140 
#    y 0.000000 1.669700 0.000000 
#    z 0.011140 0.000000 1.608110 
# 
# From -- ./inp_files/243654.got.cif
#   From: 2010.06.25/outbox.cif.g09.slc.cpg/sg12_122_cif.got.tgz:243654.got - 2010.06.28 00:19:55.
