data_PCOD8087863
_publ_section_title
;
Structure prediction by ZEFSAII (Michael W. Deem and Ramdas Pophale) SiO2 
 PCOD8087863
Probable space group: C 2/M
;
_chemical_formula_sum "Si O2"
_cell_formula_units_Z 56
_cell_length_a 29.475482
_cell_length_b 8.828275
_cell_length_c 11.342922
_cell_angle_alpha 90.000000
_cell_angle_beta 77.084222
_cell_angle_gamma 90.000000
_cell_volume 2876.951478
_symmetry_space_group_name_H-M "C 2/M"
_symmetry_group_IT_number 12
_symmetry_cell_setting 'monoclinic'
loop_
_space_group_symop_operation_xyz
x,y,z
-x,y,-z
-x,-y,-z
x,-y,z
1/2+x,1/2+y,z
1/2-x,1/2+y,-z
1/2-x,1/2-y,-z
1/2+x,1/2-y,z
loop_
_atom_site_type_symbol
_atom_site_label
_atom_site_fract_x
_atom_site_fract_y
_atom_site_fract_z
Si Si1 0.106134 0.323867 0.185147
Si Si2 0.810372 0.322445 0.695695
Si Si3 0.428518 0.178377 0.261852
Si Si4 0.154832 0.176181 0.560256
Si Si5 0.514199 0.820946 0.365276
Si Si6 0.384447 0.320505 0.068683
Si Si7 0.707519 0.675656 0.760394
O O1 0.099526 0.500000 0.158863
O O2 0.156224 0.291717 0.213334
O O3 0.065829 0.267236 0.297731
O O4 0.101621 0.230015 0.068785
O O5 0.809488 0.500000 0.661964
O O6 0.828234 0.226839 0.576195
O O7 0.758899 0.259592 0.759262
O O8 0.390180 0.227685 0.379096
O O9 0.478252 0.229625 0.284777
O O10 0.422085 0.258285 0.139637
O O11 0.425448 0.000000 0.244784
O O12 0.195852 0.207828 0.630444
O O13 0.141228 0.000000 0.567451
O O14 0.500000 0.748060 0.500000
O O15 0.513245 0.000000 0.379590
O O16 0.384932 0.500000 0.077978
O O17 0.333157 0.253870 0.133328
O O18 0.708705 0.500000 0.787675
#
# Coordination Sequence:
#
# PCOD8087863 Si02
#       7
#     8   8   8   8   8   8   8
#     4  10  21  36  55  79 105 135 177 223 261 306
#     4  10  19  33  54  77 103 139 182 220 256 306
#     4  10  19  34  58  80 102 138 180 218 257 306
#     4  10  19  32  51  79 114 141 168 213 267 317
#     4   9  18  34  56  82 108 133 167 215 264 305
#     4  10  21  38  55  75 108 141 173 216 265 313
#     4   8  17  33  52  75 104 139 175 215 260 307
#
# _framework density 19.465047999999999
#
# number of rings (size 3 to 8) (size 9 to 14) (size 15 to 20)
#    0.000    2.429    0.000    3.429    0.000    4.000 
#    0.000    7.857    0.000    3.000    0.000    0.000 
#    0.000    0.000    0.000    0.000    0.000    0.000 
#
# Total GULP energy -347162.900209 kJ/mol
# GULP energy per Si atom -12398.675007 kJ/mol
# Density = 1.942074 g / cm^3
# Si number density = 19.465048 Si / 1000 Ang^3
#
#
#
# Elastic Constant Matrix: (Units=GPa)
#
#
# Indices 1 2 3 4 5 6 
#
# 1 115.0159 31.1476 33.1786 0.0000 9.7763 0.0000
# 2 31.1476 49.7071 29.1188 0.0000 7.2965 0.0000
# 3 33.1786 29.1188 107.5926 0.0000 14.9175 0.0000
# 4 0.0000 0.0000 0.0000 28.8748 0.0000 0.4809
# 5 9.7763 7.2965 14.9175 0.0000 16.8636 0.0000
# 6 0.0000 0.0000 0.0000 0.4809 0.0000 20.6215
#
#
#
# Elastic Compliance Matrix: (Units=1/GPa)
#
#
# Indices 1 2 3 4 5 6 
#
# 1 0.010844 -0.005547 -0.001486 0.000000 -0.002572 0.000000
# 2 -0.005547 0.027163 -0.005080 0.000000 -0.004043 0.000000
# 3 -0.001486 -0.005080 0.012200 0.000000 -0.007732 0.000000
# 4 0.000000 0.000000 0.000000 0.034646 0.000000 -0.000808
# 5 -0.002572 -0.004043 -0.007732 0.000000 0.069379 0.000000
# 6 0.000000 0.000000 0.000000 -0.000808 0.000000 0.048512
#
#
# Mechanical properties :
#
#
# Convention : Reuss Voigt Hill
#
# Bulk Modulus (GPa) = 38.49130 51.02284 44.75707
# Shear Modulus (GPa) = 21.21964 25.19669 23.20816
#
# Velocity S-wave (km/s) = 3.30531 3.60176 3.45671
# Velocity P-wave (km/s) = 5.86381 6.60048 6.24302
#
# Compressibility (1/GPa) = 0.02597989
#
# Stress axis : x y z
#
# Youngs Moduli (GPa) = 92.21733 36.81442 81.96995
#
# Poissons Ratio (x) = 0.20421 0.12182
# Poissons Ratio (y) = 0.51152 0.41644
# Poissons Ratio (z) = 0.13705 0.18703
#
# Static dielectric constant tensor:
#      x y z
#    x 3.940570 0.000000 -0.139210 
#    y 0.000000 3.274870 0.000000 
#    z -0.139210 0.000000 3.502980 
# 
# 
# High freq. dielectric constant tensor:
#      x y z
#    x 1.768480 0.000000 -0.000500 
#    y 0.000000 1.730610 0.000000 
#    z -0.000500 0.000000 1.755510 
# 
# From -- ./inp_files/186427.got.cif
#   From: 2010.06.25/outbox.cif.g09.slc.cpg/sg12_94_cif.got.tgz:186427.got - 2010.06.28 00:19:55.
