data_PCOD8087571
_publ_section_title
;
Structure prediction by ZEFSAII (Michael W. Deem and Ramdas Pophale) SiO2 
 PCOD8087571
Probable space group: C 2/M
;
_chemical_formula_sum "Si O2"
_cell_formula_units_Z 56
_cell_length_a 19.707653
_cell_length_b 9.028162
_cell_length_c 22.142344
_cell_angle_alpha 90.000000
_cell_angle_beta 47.991396
_cell_angle_gamma 90.000000
_cell_volume 2927.335984
_symmetry_space_group_name_H-M "C 2/M"
_symmetry_group_IT_number 12
_symmetry_cell_setting 'monoclinic'
loop_
_space_group_symop_operation_xyz
x,y,z
-x,y,-z
-x,-y,-z
x,-y,z
1/2+x,1/2+y,z
1/2-x,1/2+y,-z
1/2-x,1/2-y,-z
1/2+x,1/2-y,z
loop_
_atom_site_type_symbol
_atom_site_label
_atom_site_fract_x
_atom_site_fract_y
_atom_site_fract_z
Si Si1 0.961489 0.324449 0.385355
Si Si2 0.822968 0.823569 0.001198
Si Si3 0.895543 0.825486 0.310912
Si Si4 0.653591 0.176202 0.321972
Si Si5 0.316800 0.323753 0.142225
Si Si6 0.689579 0.824664 0.433147
Si Si7 0.471277 0.324385 0.138154
O O1 0.956367 0.500000 0.383004
O O2 0.959953 0.255747 0.319948
O O3 0.879134 0.260391 0.475599
O O4 0.055580 0.270148 0.358061
O O5 0.805531 0.769098 0.080175
O O6 0.814492 0.000000 0.000059
O O7 0.750000 0.750000 0.000000
O O8 0.924842 0.765943 0.924607
O O9 0.792268 0.778229 0.388117
O O10 0.922346 0.769482 0.228389
O O11 0.909726 0.000000 0.307787
O O12 0.731755 0.239661 0.231230
O O13 0.665987 0.241926 0.381601
O O14 0.660965 0.000000 0.319075
O O15 0.317172 0.500000 0.143131
O O16 0.411490 0.266291 0.116587
O O17 0.678473 0.000000 0.436952
O O18 0.473179 0.500000 0.134463
#
# Coordination Sequence:
#
# PCOD8087571 Si02
#       7
#     8   8   8   8   8   8   8
#     4  10  20  30  47  75 104 129 159 206 255 292
#     4  10  21  34  53  80 105 128 157 200 250 295
#     4  10  19  32  51  71  97 134 169 201 241 291
#     4   9  16  28  48  74  99 125 163 208 248 284
#     4   9  16  30  52  75  97 126 168 208 237 278
#     4   9  16  30  49  71  97 129 169 208 244 284
#     4   9  17  32  52  74  98 129 170 207 237 280
#
# _framework density 19.130020999999999
#
# number of rings (size 3 to 8) (size 9 to 14) (size 15 to 20)
#    0.000    2.571    1.429    1.286    2.000    3.429 
#    0.000    0.000    0.000    5.143    0.000    0.000 
#    0.000    0.000    0.000    0.000    0.000    0.000 
#
# Total GULP energy -347116.238188 kJ/mol
# GULP energy per Si atom -12397.008507 kJ/mol
# Density = 1.908648 g / cm^3
# Si number density = 19.130021 Si / 1000 Ang^3
#
#
#
# Elastic Constant Matrix: (Units=GPa)
#
#
# Indices 1 2 3 4 5 6 
#
# 1 139.1532 22.9664 57.7215 0.0000 11.9158 0.0000
# 2 22.9664 11.2090 12.9520 0.0000 1.3888 -0.0002
# 3 57.7215 12.9520 117.9566 0.0000 0.9100 0.0000
# 4 0.0000 0.0000 0.0000 12.2476 0.0000 3.5934
# 5 11.9158 1.3888 0.9100 0.0000 36.4275 0.0000
# 6 0.0000 -0.0002 0.0000 3.5934 0.0000 25.1993
#
#
#
# Elastic Compliance Matrix: (Units=1/GPa)
#
#
# Indices 1 2 3 4 5 6 
#
# 1 0.012457 -0.020744 -0.003793 0.000000 -0.003189 0.000000
# 2 -0.020744 0.137203 -0.004927 0.000000 0.001678 0.000001
# 3 -0.003793 -0.004927 0.010866 0.000000 0.001157 0.000000
# 4 0.000000 0.000000 0.000000 0.085214 0.000000 -0.012152
# 5 -0.003189 0.001678 0.001157 0.000000 0.028402 0.000000
# 6 0.000000 0.000001 0.000000 -0.012152 0.000000 0.041416
#
#
# Mechanical properties :
#
#
# Convention : Reuss Voigt Hill
#
# Bulk Modulus (GPa) = 9.84289 50.62207 30.23248
# Shear Modulus (GPa) = 12.24431 26.42014 19.33222
#
# Velocity S-wave (km/s) = 2.53268 3.72032 3.18239
# Velocity P-wave (km/s) = 3.70257 6.70626 5.41678
#
# Compressibility (1/GPa) = 0.10159619
#
# Stress axis : x y z
#
# Youngs Moduli (GPa) = 80.27903 7.28846 92.03070
#
# Poissons Ratio (x) = 0.15119 0.34909
# Poissons Ratio (y) = 1.66534 0.45345
# Poissons Ratio (z) = 0.30451 0.03591
#
# Static dielectric constant tensor:
#      x y z
#    x 3.637250 0.000000 -0.026060 
#    y 0.000000 2.769520 0.000000 
#    z -0.026060 0.000000 3.836470 
# 
# 
# High freq. dielectric constant tensor:
#      x y z
#    x 1.761320 0.000000 0.000730 
#    y 0.000000 1.666510 0.000000 
#    z 0.000730 0.000000 1.760680 
# 
# From -- ./inp_files/268624.got.cif
#   From: 2010.06.25/outbox.cif.g09.slc.cpg/sg12_135_cif.got.tgz:268624.got - 2010.06.28 00:19:55.
