data_PCOD8087810
_publ_section_title
;
Structure prediction by ZEFSAII (Michael W. Deem and Ramdas Pophale) SiO2 
 PCOD8087810
Probable space group: C 2/M
;
_chemical_formula_sum "Si O2"
_cell_formula_units_Z 64
_cell_length_a 23.880319
_cell_length_b 9.198243
_cell_length_c 28.421835
_cell_angle_alpha 90.000000
_cell_angle_beta 147.795535
_cell_angle_gamma 90.000000
_cell_volume 3327.187234
_symmetry_space_group_name_H-M "C 2/M"
_symmetry_group_IT_number 12
_symmetry_cell_setting 'monoclinic'
loop_
_space_group_symop_operation_xyz
x,y,z
-x,y,-z
-x,-y,-z
x,-y,z
1/2+x,1/2+y,z
1/2-x,1/2+y,-z
1/2-x,1/2-y,-z
1/2+x,1/2-y,z
loop_
_atom_site_type_symbol
_atom_site_label
_atom_site_fract_x
_atom_site_fract_y
_atom_site_fract_z
Si Si1 0.984875 0.827717 0.076505
Si Si2 0.282367 0.327197 0.769638
Si Si3 0.291040 0.671251 0.880336
Si Si4 0.612539 0.669477 0.379456
Si Si5 0.114350 0.837744 0.803562
Si Si6 0.144799 0.162963 0.929645
Si Si7 0.379078 0.827621 0.425332
Si Si8 0.782491 0.171266 0.447258
O O1 0.931397 0.766052 0.085785
O O2 0.101911 0.760679 0.158368
O O3 0.997096 0.000000 0.086785
O O4 0.910818 0.783037 0.979361
O O5 0.285421 0.500000 0.770410
O O6 0.257046 0.272525 0.804528
O O7 0.194430 0.272378 0.670251
O O8 0.281577 0.500000 0.876349
O O9 0.211401 0.734142 0.861847
O O10 0.626449 0.500000 0.376836
O O11 0.491147 0.716080 0.296672
O O12 0.668300 0.760110 0.377101
O O13 0.652635 0.707042 0.459770
O O14 0.085556 0.835514 0.838045
O O15 0.145205 0.000000 0.809052
O O16 0.173809 0.000000 0.966348
O O17 0.250000 0.250000 0.000000
O O18 0.500000 0.785575 0.500000
O O19 0.340186 0.747041 0.444503
O O20 0.368213 0.000000 0.425406
O O21 0.772425 0.000000 0.430022
#
# Coordination Sequence:
#
# PCOD8087810 Si02
#       8
#     8   8   8   8   8   8   8   8
#     4   9  17  31  53  79 105 137 179 228 270 308
#     4   9  19  34  55  80 105 140 186 228 266 318
#     4  10  19  33  55  81 107 138 183 231 270 308
#     4   9  20  38  59  82 109 145 182 220 270 333
#     4  10  21  34  53  80 110 145 179 213 266 331
#     4  10  19  32  51  77 107 140 176 212 263 319
#     4  10  22  38  57  82 112 148 186 224 273 331
#     4  10  21  38  59  84 110 140 181 229 280 323
#
# _framework density 19.235468000000001
#
# number of rings (size 3 to 8) (size 9 to 14) (size 15 to 20)
#    0.000    2.375    1.250    0.750    3.500    2.750 
#    0.000    0.625    0.000    3.000    0.000    0.000 
#    0.000    0.000    0.000    0.000    0.000    0.000 
#
# Total GULP energy -396625.953124 kJ/mol
# GULP energy per Si atom -12394.561035 kJ/mol
# Density = 1.919169 g / cm^3
# Si number density = 19.235468 Si / 1000 Ang^3
#
#
#
# Elastic Constant Matrix: (Units=GPa)
#
#
# Indices 1 2 3 4 5 6 
#
# 1 126.5635 37.6516 57.1694 0.0001 -1.3726 0.0002
# 2 37.6516 41.7032 31.3986 0.0001 1.4410 0.0006
# 3 57.1694 31.3986 134.1391 -0.0005 7.7738 -0.0001
# 4 0.0001 0.0001 -0.0005 17.9187 -0.0001 0.5809
# 5 -1.3726 1.4410 7.7738 -0.0001 27.1381 0.0001
# 6 0.0002 0.0006 -0.0001 0.5809 0.0001 29.5643
#
#
#
# Elastic Compliance Matrix: (Units=1/GPa)
#
#
# Indices 1 2 3 4 5 6 
#
# 1 0.011859 -0.008357 -0.003212 0.000000 0.001964 0.000000
# 2 -0.008357 0.035002 -0.004575 0.000000 -0.000971 -0.000001
# 3 -0.003212 -0.004575 0.010057 0.000000 -0.002800 0.000000
# 4 0.000000 0.000000 0.000000 0.055843 0.000000 -0.001097
# 5 0.001964 -0.000971 -0.002800 0.000000 0.037802 0.000000
# 6 0.000000 -0.000001 0.000000 -0.001097 0.000000 0.033846
#
#
# Mechanical properties :
#
#
# Convention : Reuss Voigt Hill
#
# Bulk Modulus (GPa) = 40.60008 61.64946 51.12477
# Shear Modulus (GPa) = 22.23131 26.66998 24.45064
#
# Velocity S-wave (km/s) = 3.40331 3.72761 3.56915
# Velocity P-wave (km/s) = 6.04947 7.11662 6.60463
#
# Compressibility (1/GPa) = 0.02463049
#
# Stress axis : x y z
#
# Youngs Moduli (GPa) = 84.32084 28.56977 99.43117
#
# Poissons Ratio (x) = 0.23875 0.31939
# Poissons Ratio (y) = 0.70464 0.45492
# Poissons Ratio (z) = 0.27085 0.13071
#
# Static dielectric constant tensor:
#      x y z
#    x 3.755750 0.000000 -0.120040 
#    y 0.000000 3.193310 0.000000 
#    z -0.120040 0.000000 3.813370 
# 
# 
# High freq. dielectric constant tensor:
#      x y z
#    x 1.756370 0.000000 -0.003420 
#    y 0.000000 1.709300 0.000000 
#    z -0.003420 0.000000 1.758750 
# 
# From -- ./inp_files/382403.got.cif
#   From: 2010.06.25/outbox.cif.g09.slc.cpg/sg12_192_cif.got.tgz:382403.got - 2010.06.28 00:19:55.
