data_PCOD8087151
_publ_section_title
;
Structure prediction by ZEFSAII (Michael W. Deem and Ramdas Pophale) SiO2 
 PCOD8087151
Probable space group: C 2/M
;
_chemical_formula_sum "Si O2"
_cell_formula_units_Z 64
_cell_length_a 27.532053
_cell_length_b 14.146175
_cell_length_c 11.827638
_cell_angle_alpha 90.000000
_cell_angle_beta 135.217705
_cell_angle_gamma 90.000000
_cell_volume 3244.921448
_symmetry_space_group_name_H-M "C 2/M"
_symmetry_group_IT_number 12
_symmetry_cell_setting 'monoclinic'
loop_
_space_group_symop_operation_xyz
x,y,z
-x,y,-z
-x,-y,-z
x,-y,z
1/2+x,1/2+y,z
1/2-x,1/2+y,-z
1/2-x,1/2-y,-z
1/2+x,1/2-y,z
loop_
_atom_site_type_symbol
_atom_site_label
_atom_site_fract_x
_atom_site_fract_y
_atom_site_fract_z
Si Si1 0.201999 0.396220 0.935237
Si Si2 0.117435 0.259759 0.928166
Si Si3 0.285503 0.285747 0.719160
Si Si4 0.156257 0.391335 0.615660
Si Si5 0.516909 0.789332 0.394725
Si Si6 0.143376 0.895700 0.810412
Si Si7 0.789034 0.110077 0.496991
Si Si8 0.093563 0.106066 0.485454
O O1 0.195652 0.500000 0.979438
O O2 0.182213 0.322665 0.998319
O O3 0.153768 0.385470 0.746961
O O4 0.279050 0.378945 0.019493
O O5 0.098598 0.177729 0.806705
O O6 0.045736 0.318414 0.796087
O O7 0.143031 0.218140 0.090008
O O8 0.218709 0.328006 0.672044
O O9 0.269854 0.178839 0.651512
O O10 0.303960 0.357139 0.648974
O O11 0.164361 0.500000 0.587438
O O12 0.082018 0.350135 0.457725
O O13 0.500000 0.807272 0.500000
O O14 0.531277 0.678991 0.392694
O O15 0.142212 0.877314 0.674793
O O16 0.116535 0.000000 0.796136
O O17 0.860358 0.123243 0.548473
O O18 0.764473 0.000000 0.451905
O O19 0.062532 0.000000 0.434000
#
# Coordination Sequence:
#
# PCOD8087151 Si02
#       8
#     8   8   8   8   8   8   8   8
#     4  10  20  32  53  86 122 160 198 248 305 355
#     4  12  23  35  57  88 128 158 200 254 293 371
#     4  11  23  40  68  94 117 159 204 263 312 355
#     4  11  22  38  60  88 127 166 207 247 299 365
#     4  12  23  37  55  88 129 172 203 240 299 371
#     4  10  19  31  54  87 119 152 193 253 313 359
#     4  10  22  42  68  93 116 150 205 262 311 363
#     4  10  20  37  59  83 118 160 203 247 306 372
#
# _framework density 19.723127999999999
#
# number of rings (size 3 to 8) (size 9 to 14) (size 15 to 20)
#    0.000    1.250    5.000    1.500    0.000    3.500 
#    0.000    0.625    0.000    1.500    0.000    2.625 
#    0.000    0.000    0.000    0.000    0.000    0.000 
#
# Total GULP energy -396623.265095 kJ/mol
# GULP energy per Si atom -12394.477034 kJ/mol
# Density = 1.967824 g / cm^3
# Si number density = 19.723128 Si / 1000 Ang^3
#
#
#
# Elastic Constant Matrix: (Units=GPa)
#
#
# Indices 1 2 3 4 5 6 
#
# 1 54.6548 20.8754 39.6113 0.0000 -5.7548 0.0000
# 2 20.8754 97.5337 28.1517 0.0000 -2.5439 0.0000
# 3 39.6113 28.1517 103.0409 0.0000 4.1271 0.0000
# 4 0.0000 0.0000 0.0000 21.5599 0.0000 -4.8845
# 5 -5.7548 -2.5439 4.1271 0.0000 20.9829 0.0000
# 6 0.0000 0.0000 0.0000 -4.8845 0.0000 4.7292
#
#
#
# Elastic Compliance Matrix: (Units=1/GPa)
#
#
# Indices 1 2 3 4 5 6 
#
# 1 0.027795 -0.002729 -0.010313 0.000000 0.009320 0.000000
# 2 -0.002729 0.011479 -0.002130 0.000000 0.001062 0.000000
# 3 -0.010313 -0.002130 0.014489 0.000000 -0.005936 0.000000
# 4 0.000000 0.000000 0.000000 0.060551 0.000000 0.062538
# 5 0.009320 0.001062 -0.005936 0.000000 0.051511 0.000000
# 6 0.000000 0.000000 0.000000 0.062538 0.000000 0.276042
#
#
# Mechanical properties :
#
#
# Convention : Reuss Voigt Hill
#
# Bulk Modulus (GPa) = 42.69859 48.05624 45.37742
# Shear Modulus (GPa) = 10.41634 20.56049 15.48841
#
# Velocity S-wave (km/s) = 2.30060 3.23221 2.80535
# Velocity P-wave (km/s) = 5.36218 6.19257 5.79227
#
# Compressibility (1/GPa) = 0.02341998
#
# Stress axis : x y z
#
# Youngs Moduli (GPa) = 35.97831 87.11260 69.01863
#
# Poissons Ratio (x) = 0.23775 0.71176
# Poissons Ratio (y) = 0.09819 0.14698
# Poissons Ratio (z) = 0.37103 0.18552
#
# Static dielectric constant tensor:
#      x y z
#    x 3.338250 0.000000 -0.010690 
#    y 0.000000 3.848550 0.000000 
#    z -0.010690 0.000000 3.489330 
# 
# 
# High freq. dielectric constant tensor:
#      x y z
#    x 1.743720 0.000000 0.008070 
#    y 0.000000 1.783640 0.000000 
#    z 0.008070 0.000000 1.756690 
# 
# From -- ./inp_files/189467.got.cif
#   From: 2010.06.25/outbox.cif.g09.slc.cpg/sg12_95_cif.got.tgz:189467.got - 2010.06.28 00:19:55.
