data_PCOD8087011
_publ_section_title
;
Structure prediction by ZEFSAII (Michael W. Deem and Ramdas Pophale) SiO2 
 PCOD8087011
Probable space group: C 2/M
;
_chemical_formula_sum "Si O2"
_cell_formula_units_Z 64
_cell_length_a 34.093730
_cell_length_b 9.123411
_cell_length_c 18.027087
_cell_angle_alpha 90.000000
_cell_angle_beta 37.174856
_cell_angle_gamma 90.000000
_cell_volume 3388.235698
_symmetry_space_group_name_H-M "C 2/M"
_symmetry_group_IT_number 12
_symmetry_cell_setting 'monoclinic'
loop_
_space_group_symop_operation_xyz
x,y,z
-x,y,-z
-x,-y,-z
x,-y,z
1/2+x,1/2+y,z
1/2-x,1/2+y,-z
1/2-x,1/2-y,-z
1/2+x,1/2-y,z
loop_
_atom_site_type_symbol
_atom_site_label
_atom_site_fract_x
_atom_site_fract_y
_atom_site_fract_z
Si Si1 0.089938 0.330233 0.212872
Si Si2 0.165313 0.669534 0.244519
Si Si3 0.104952 0.331653 0.847841
Si Si4 0.210436 0.170089 0.767729
Si Si5 0.205126 0.672120 0.927968
Si Si6 0.023618 0.173087 0.692170
Si Si7 0.359057 0.167418 0.551814
Si Si8 0.491708 0.168901 0.132878
O O1 0.070839 0.500000 0.234451
O O2 0.112543 0.291694 0.261939
O O3 0.026669 0.234650 0.292291
O O4 0.146719 0.288798 0.070613
O O5 0.187002 0.500000 0.207177
O O6 0.229264 0.765591 0.134900
O O7 0.133887 0.703549 0.371623
O O8 0.126492 0.500000 0.821055
O O9 0.167957 0.229804 0.763186
O O10 0.074088 0.299634 0.813925
O O11 0.052993 0.294314 0.989553
O O12 0.189107 0.255294 0.873578
O O13 0.285685 0.197323 0.635858
O O14 0.196472 0.000000 0.802034
O O15 0.213169 0.500000 0.904305
O O16 0.095554 0.226186 0.563450
O O17 0.004553 0.227441 0.802237
O O18 0.021543 0.000000 0.693843
O O19 0.379236 0.000000 0.505391
O O20 0.493802 0.000000 0.155622
#
# Coordination Sequence:
#
# PCOD8087011 Si02
#       8
#     8   8   8   8   8   8   8   8
#     4  10  21  36  54  77 107 143 177 212 265 328
#     4   9  19  36  57  79 103 137 180 221 264 314
#     4   9  18  34  59  87 111 138 172 210 255 311
#     4  10  20  34  55  81 108 141 179 217 260 312
#     4  10  19  31  52  81 112 143 172 211 264 316
#     4  12  25  37  53  78 105 137 180 226 265 304
#     4   9  20  39  57  72  99 141 181 219 265 314
#     4   9  19  37  58  81 112 145 172 204 257 319
#
# _framework density 18.888887
#
# number of rings (size 3 to 8) (size 9 to 14) (size 15 to 20)
#    0.000    2.250    0.000    4.500    0.000    8.500 
#    0.000    4.375    0.000    0.000    0.000    0.000 
#    0.000    0.000    0.000    0.000    0.000    0.000 
#
# Total GULP energy -396909.376070 kJ/mol
# GULP energy per Si atom -12403.418002 kJ/mol
# Density = 1.884590 g / cm^3
# Si number density = 18.888887 Si / 1000 Ang^3
#
#
#
# Elastic Constant Matrix: (Units=GPa)
#
#
# Indices 1 2 3 4 5 6 
#
# 1 96.5802 37.7801 21.4447 -0.0015 -18.5792 0.0001
# 2 37.7801 87.3800 33.5134 -0.0036 -12.5446 0.0019
# 3 21.4447 33.5134 51.5758 -0.0012 -11.7657 0.0010
# 4 -0.0015 -0.0036 -0.0012 27.8469 0.0003 -5.5953
# 5 -18.5792 -12.5446 -11.7657 0.0003 16.3269 0.0000
# 6 0.0001 0.0019 0.0010 -5.5953 0.0000 35.3234
#
#
#
# Elastic Compliance Matrix: (Units=1/GPa)
#
#
# Indices 1 2 3 4 5 6 
#
# 1 0.014637 -0.004340 -0.000271 0.000000 0.013126 0.000000
# 2 -0.004340 0.016950 -0.008814 0.000001 0.001733 0.000000
# 3 -0.000271 -0.008814 0.028259 0.000000 0.013284 0.000000
# 4 0.000000 0.000001 0.000000 0.037091 0.000001 0.005875
# 5 0.013126 0.001733 0.013284 0.000001 0.087089 0.000000
# 6 0.000000 0.000000 0.000000 0.005875 0.000000 0.029240
#
#
# Mechanical properties :
#
#
# Convention : Reuss Voigt Hill
#
# Bulk Modulus (GPa) = 30.30726 46.77916 38.54321
# Shear Modulus (GPa) = 19.91100 25.41931 22.66515
#
# Velocity S-wave (km/s) = 3.25023 3.67240 3.46774
# Velocity P-wave (km/s) = 5.49228 6.54226 6.04013
#
# Compressibility (1/GPa) = 0.03299539
#
# Stress axis : x y z
#
# Youngs Moduli (GPa) = 68.31915 58.99681 35.38638
#
# Poissons Ratio (x) = 0.25605 0.00961
# Poissons Ratio (y) = 0.29651 0.31190
# Poissons Ratio (z) = 0.01855 0.52001
#
# Static dielectric constant tensor:
#      x y z
#    x 3.621080 0.000000 -0.073920 
#    y 0.000000 3.400410 0.000000 
#    z -0.073920 0.000000 3.265590 
# 
# 
# High freq. dielectric constant tensor:
#      x y z
#    x 1.743050 0.000000 -0.007460 
#    y 0.000000 1.729630 0.000000 
#    z -0.007460 0.000000 1.719910 
# 
# From -- ./inp_files/295440.got.cif
#   From: 2010.06.25/outbox.cif.g09.slc.cpg/sg12_148_cif.got.tgz:295440.got - 2010.06.28 00:19:55.
