data_PCOD8087669
_publ_section_title
;
Structure prediction by ZEFSAII (Michael W. Deem and Ramdas Pophale) SiO2 
 PCOD8087669
Probable space group: C 2/M
;
_chemical_formula_sum "Si O2"
_cell_formula_units_Z 56
_cell_length_a 32.257359
_cell_length_b 9.675179
_cell_length_c 11.145114
_cell_angle_alpha 90.000000
_cell_angle_beta 119.121014
_cell_angle_gamma 90.000000
_cell_volume 3038.658339
_symmetry_space_group_name_H-M "C 2/M"
_symmetry_group_IT_number 12
_symmetry_cell_setting 'monoclinic'
loop_
_space_group_symop_operation_xyz
x,y,z
-x,y,-z
-x,-y,-z
x,-y,z
1/2+x,1/2+y,z
1/2-x,1/2+y,-z
1/2-x,1/2-y,-z
1/2+x,1/2-y,z
loop_
_atom_site_type_symbol
_atom_site_label
_atom_site_fract_x
_atom_site_fract_y
_atom_site_fract_z
Si Si1 0.394913 0.157497 0.616073
Si Si2 0.936754 0.155841 0.145207
Si Si3 0.794208 0.162670 0.832093
Si Si4 0.885139 0.838999 0.827918
Si Si5 0.338701 0.658942 0.136067
Si Si6 0.312485 0.838886 0.324676
Si Si7 0.009266 0.340514 0.379189
O O1 0.404124 0.255716 0.741225
O O2 0.344623 0.194754 0.484808
O O3 0.435594 0.180846 0.574283
O O4 0.395260 0.000000 0.662442
O O5 0.892954 0.175171 0.173200
O O6 0.978447 0.258919 0.238892
O O7 0.956306 0.000000 0.181698
O O8 0.921213 0.187902 0.987534
O O9 0.832816 0.219182 0.791200
O O10 0.741365 0.204516 0.717720
O O11 0.802852 0.000000 0.849795
O O12 0.804830 0.216574 0.981753
O O13 0.883252 0.000000 0.790872
O O14 0.326849 0.500000 0.151336
O O15 0.330761 0.752415 0.239313
O O16 0.315304 0.000000 0.293602
O O17 0.993931 0.500000 0.350064
O O18 0.000000 0.282777 0.500000
#
# Coordination Sequence:
#
# PCOD8087669 Si02
#       7
#     8   8   8   8   8   8   8
#     4  10  22  36  50  74 105 133 167 211 250 291
#     4   9  19  35  55  77 101 132 169 210 252 296
#     4   8  16  32  53  75 101 134 168 206 251 297
#     4   9  19  37  56  74 100 134 171 208 250 298
#     4   9  17  31  51  77 106 130 162 210 256 298
#     4  10  19  32  51  74 103 138 171 204 248 300
#     4  10  21  37  55  76 104 135 165 201 250 304
#
# _framework density 18.429185
#
# number of rings (size 3 to 8) (size 9 to 14) (size 15 to 20)
#    0.000    2.714    0.000    3.000    0.000    4.857 
#    0.000    5.714    0.000    0.000    0.000    0.000 
#    0.000    0.000    0.000    0.000    0.000    0.000 
#
# Total GULP energy -347201.569378 kJ/mol
# GULP energy per Si atom -12400.056049 kJ/mol
# Density = 1.838724 g / cm^3
# Si number density = 18.429185 Si / 1000 Ang^3
#
#
#
# Elastic Constant Matrix: (Units=GPa)
#
#
# Indices 1 2 3 4 5 6 
#
# 1 61.3963 36.7410 49.4877 0.0000 0.1780 0.0000
# 2 36.7410 60.4333 51.6699 0.0000 -2.4340 0.0000
# 3 49.4877 51.6699 97.0873 0.0000 1.1346 0.0000
# 4 0.0000 0.0000 0.0000 32.2654 0.0000 -3.2254
# 5 0.1780 -2.4340 1.1346 0.0000 37.3206 0.0000
# 6 0.0000 0.0000 0.0000 -3.2254 0.0000 27.9405
#
#
#
# Elastic Compliance Matrix: (Units=1/GPa)
#
#
# Indices 1 2 3 4 5 6 
#
# 1 0.030417 -0.009651 -0.010363 0.000000 -0.000459 0.000000
# 2 -0.009651 0.033655 -0.013023 0.000000 0.002637 0.000000
# 3 -0.010363 -0.013023 0.022530 0.000000 -0.001485 0.000000
# 4 0.000000 0.000000 0.000000 0.031355 0.000000 0.003620
# 5 -0.000459 0.002637 -0.001485 0.000000 0.027014 0.000000
# 6 0.000000 0.000000 0.000000 0.003620 0.000000 0.036208
#
#
# Mechanical properties :
#
#
# Convention : Reuss Voigt Hill
#
# Bulk Modulus (GPa) = 48.71016 54.96824 51.83920
# Shear Modulus (GPa) = 19.67769 24.90653 22.29211
#
# Velocity S-wave (km/s) = 3.27118 3.68023 3.48172
# Velocity P-wave (km/s) = 6.38403 6.92461 6.65981
#
# Compressibility (1/GPa) = 0.02052960
#
# Stress axis : x y z
#
# Youngs Moduli (GPa) = 32.87643 29.71330 44.38483
#
# Poissons Ratio (x) = 0.28676 0.45995
# Poissons Ratio (y) = 0.31728 0.57801
# Poissons Ratio (z) = 0.34069 0.38695
#
# Static dielectric constant tensor:
#      x y z
#    x 3.425710 0.000000 0.110290 
#    y 0.000000 3.208280 0.000000 
#    z 0.110290 0.000000 3.293130 
# 
# 
# High freq. dielectric constant tensor:
#      x y z
#    x 1.718340 0.000000 0.006100 
#    y 0.000000 1.696780 0.000000 
#    z 0.006100 0.000000 1.712910 
# 
# From -- ./inp_files/110551.got.cif
#   From: 2010.06.25/outbox.cif.g09.slc.cpg/sg12_56_cif.got.tgz:110551.got - 2010.06.28 00:19:55.
