data_PCOD8087944
_publ_section_title
;
Structure prediction by ZEFSAII (Michael W. Deem and Ramdas Pophale) SiO2 
 PCOD8087944
Probable space group: C 2/M
;
_chemical_formula_sum "Si O2"
_cell_formula_units_Z 64
_cell_length_a 14.629781
_cell_length_b 9.278407
_cell_length_c 26.895690
_cell_angle_alpha 90.000000
_cell_angle_beta 75.255364
_cell_angle_gamma 90.000000
_cell_volume 3530.626222
_symmetry_space_group_name_H-M "C 2/M"
_symmetry_group_IT_number 12
_symmetry_cell_setting 'monoclinic'
loop_
_space_group_symop_operation_xyz
x,y,z
-x,y,-z
-x,-y,-z
x,-y,z
1/2+x,1/2+y,z
1/2-x,1/2+y,-z
1/2-x,1/2-y,-z
1/2+x,1/2-y,z
loop_
_atom_site_type_symbol
_atom_site_label
_atom_site_fract_x
_atom_site_fract_y
_atom_site_fract_z
Si Si1 0.777848 0.668493 0.424680
Si Si2 0.960420 0.164098 0.751648
Si Si3 0.730278 0.668436 0.870949
Si Si4 0.630162 0.830494 0.689848
Si Si5 0.584055 0.329627 0.132542
Si Si6 0.034248 0.167779 0.943409
Si Si7 0.256745 0.166659 0.228995
Si Si8 0.608144 0.168505 0.493361
O O1 0.754322 0.500000 0.426335
O O2 0.820163 0.725411 0.367033
O O3 0.678641 0.749362 0.446455
O O4 0.856720 0.702911 0.455609
O O5 0.969258 0.207204 0.808582
O O6 0.854323 0.190904 0.747928
O O7 0.026870 0.262243 0.708749
O O8 0.991490 0.000000 0.739357
O O9 0.750895 0.500000 0.860370
O O10 0.817663 0.746708 0.884223
O O11 0.644801 0.695347 0.920855
O O12 0.704379 0.736021 0.821178
O O13 0.693206 0.781875 0.727737
O O14 0.616498 0.000000 0.689399
O O15 0.604620 0.500000 0.127343
O O16 0.522218 0.268192 0.095780
O O17 0.010154 0.000000 0.948137
O O18 0.000000 0.240072 0.000000
O O19 0.278209 0.000000 0.213423
O O20 0.500000 0.222330 0.500000
O O21 0.615008 0.000000 0.480247
#
# Coordination Sequence:
#
# PCOD8087944 Si02
#       8
#     8   8   8   8   8   8   8   8
#     4   9  19  34  50  73 102 129 163 203 243 288
#     4   9  18  32  49  70  96 128 163 194 233 292
#     4  10  19  32  52  75  96 123 164 206 239 283
#     4  10  20  33  50  73 102 131 159 201 247 283
#     4   9  18  34  53  71  97 132 164 198 245 295
#     4   9  18  32  50  72  98 129 163 199 245 299
#     4   9  19  35  51  69  98 133 162 192 242 298
#     4   9  18  34  54  73  97 131 167 203 243 286
#
# _framework density 18.127096999999999
#
# number of rings (size 3 to 8) (size 9 to 14) (size 15 to 20)
#    0.000    2.750    0.000    1.875    0.000    5.750 
#    0.000    1.250    0.000    2.625    0.000    0.000 
#    0.000    0.000    0.000    0.000    0.000    0.000 
#
# Total GULP energy -396795.642895 kJ/mol
# GULP energy per Si atom -12399.863840 kJ/mol
# Density = 1.808584 g / cm^3
# Si number density = 18.127097 Si / 1000 Ang^3
#
#
#
# Elastic Constant Matrix: (Units=GPa)
#
#
# Indices 1 2 3 4 5 6 
#
# 1 82.2335 27.3087 36.6508 0.0000 -13.7224 0.0000
# 2 27.3087 40.9409 29.7944 0.0000 -11.7829 0.0000
# 3 36.6508 29.7944 99.7841 0.0000 -21.0515 0.0000
# 4 0.0000 0.0000 0.0000 22.9539 0.0000 -6.5101
# 5 -13.7224 -11.7829 -21.0515 0.0000 23.8225 0.0000
# 6 0.0000 0.0000 0.0000 -6.5101 0.0000 27.4329
#
#
#
# Elastic Compliance Matrix: (Units=1/GPa)
#
#
# Indices 1 2 3 4 5 6 
#
# 1 0.016704 -0.008036 -0.003128 0.000000 0.002883 0.000000
# 2 -0.008036 0.036669 -0.006327 0.000000 0.007917 0.000000
# 3 -0.003128 -0.006327 0.014774 0.000000 0.008124 0.000000
# 4 0.000000 0.000000 0.000000 0.046709 0.000000 0.011085
# 5 0.002883 0.007917 0.008124 0.000000 0.054733 0.000000
# 6 0.000000 0.000000 0.000000 0.011085 0.000000 0.039083
#
#
# Mechanical properties :
#
#
# Convention : Reuss Voigt Hill
#
# Bulk Modulus (GPa) = 30.15247 45.60737 37.87992
# Shear Modulus (GPa) = 19.63028 23.45551 21.54290
#
# Velocity S-wave (km/s) = 3.29435 3.60105 3.45111
# Velocity P-wave (km/s) = 5.58036 6.51955 6.06815
#
# Compressibility (1/GPa) = 0.03316478
#
# Stress axis : x y z
#
# Youngs Moduli (GPa) = 59.86447 27.27125 67.68863
#
# Poissons Ratio (x) = 0.21916 0.21171
# Poissons Ratio (y) = 0.48109 0.42826
# Poissons Ratio (z) = 0.18724 0.17254
#
# Static dielectric constant tensor:
#      x y z
#    x 3.348880 0.000000 0.095470 
#    y 0.000000 3.168500 0.000000 
#    z 0.095470 0.000000 3.470210 
# 
# 
# High freq. dielectric constant tensor:
#      x y z
#    x 1.707840 0.000000 -0.000200 
#    y 0.000000 1.684900 0.000000 
#    z -0.000200 0.000000 1.700780 
# 
# From -- ./inp_files/359694.got.cif
#   From: 2010.06.25/outbox.cif.g09.slc.cpg/sg12_180_cif.got.tgz:359694.got - 2010.06.28 00:19:55.
