data_PCOD8087371
_publ_section_title
;
Structure prediction by ZEFSAII (Michael W. Deem and Ramdas Pophale) SiO2 
 PCOD8087371
Probable space group: C 2/M
;
_chemical_formula_sum "Si O2"
_cell_formula_units_Z 64
_cell_length_a 18.159555
_cell_length_b 30.556923
_cell_length_c 14.628845
_cell_angle_alpha 90.000000
_cell_angle_beta 154.153892
_cell_angle_gamma 90.000000
_cell_volume 3538.889473
_symmetry_space_group_name_H-M "C 2/M"
_symmetry_group_IT_number 12
_symmetry_cell_setting 'monoclinic'
loop_
_space_group_symop_operation_xyz
x,y,z
-x,y,-z
-x,-y,-z
x,-y,z
1/2+x,1/2+y,z
1/2-x,1/2+y,-z
1/2-x,1/2-y,-z
1/2+x,1/2-y,z
loop_
_atom_site_type_symbol
_atom_site_label
_atom_site_fract_x
_atom_site_fract_y
_atom_site_fract_z
Si Si1 0.710459 0.292337 0.396599
Si Si2 0.729400 0.950509 0.336683
Si Si3 0.139345 0.757138 0.016113
Si Si4 0.751104 0.629863 0.944028
Si Si5 0.872942 0.861493 0.552787
Si Si6 0.660512 0.951390 0.054960
Si Si7 0.817316 0.325993 0.828194
Si Si8 0.431007 0.200086 0.242887
O O1 0.750000 0.250000 0.500000
O O2 0.713582 0.336818 0.459530
O O3 0.870626 0.297297 0.505808
O O4 0.526645 0.286393 0.144052
O O5 0.830153 0.913183 0.504003
O O6 0.538438 0.947370 0.155724
O O7 0.798029 0.000000 0.432889
O O8 0.747214 0.939497 0.248869
O O9 0.176213 0.725808 0.143436
O O10 0.307986 0.785973 0.188290
O O11 0.100550 0.730156 0.881062
O O12 0.572578 0.643092 0.787141
O O13 0.763975 0.648054 0.856926
O O14 0.775471 0.578019 0.958106
O O15 0.890108 0.650207 0.167148
O O16 0.818496 0.835361 0.401449
O O17 0.713464 0.000000 0.085768
O O18 0.000000 0.343371 0.000000
#
# Coordination Sequence:
#
# PCOD8087371 Si02
#       8
#     8   8   8   8   8   8   8   8
#     4  10  19  32  50  64  84 119 154 190 240 283
#     4   9  18  31  46  62  85 118 155 194 237 278
#     4   9  18  33  45  63  85 110 149 189 235 276
#     4  11  20  30  44  66  89 115 157 196 232 281
#     4  12  21  31  46  70  91 118 160 198 241 275
#     4   9  17  30  44  59  84 117 149 191 242 275
#     4  11  21  32  44  63  88 116 150 197 235 271
#     4   9  17  31  48  60  83 112 144 193 227 275
#
# _framework density 18.084769000000001
#
# number of rings (size 3 to 8) (size 9 to 14) (size 15 to 20)
#    0.000    2.000    2.500    4.875    1.750    0.500 
#    2.250    1.250    0.000    0.000    0.000    0.000 
#    0.000    0.000    0.000    0.000    0.000   11.250 
#
# Total GULP energy -396596.322950 kJ/mol
# GULP energy per Si atom -12393.635092 kJ/mol
# Density = 1.804361 g / cm^3
# Si number density = 18.084769 Si / 1000 Ang^3
#
#
#
# Elastic Constant Matrix: (Units=GPa)
#
#
# Indices 1 2 3 4 5 6 
#
# 1 23.4857 20.7342 24.2185 0.0005 17.5050 -0.0006
# 2 20.7342 107.1309 34.0979 -0.0001 5.9049 0.0001
# 3 24.2185 34.0979 81.4553 0.0001 32.1496 -0.0004
# 4 0.0005 -0.0001 0.0001 113.0116 0.0005 -97.2738
# 5 17.5050 5.9049 32.1496 0.0005 27.2815 -0.0007
# 6 -0.0006 0.0001 -0.0004 -97.2738 -0.0007 142.5769
#
#
#
# Elastic Compliance Matrix: (Units=1/GPa)
#
#
# Indices 1 2 3 4 5 6 
#
# 1 0.104982 -0.017361 0.002164 0.000000 -0.066153 0.000000
# 2 -0.017361 0.014113 -0.007361 0.000000 0.016759 0.000000
# 3 0.002164 -0.007361 0.027359 0.000000 -0.032036 0.000000
# 4 0.000000 0.000000 0.000000 0.021438 0.000000 0.014626
# 5 -0.066153 0.016759 -0.032036 0.000000 0.113227 0.000000
# 6 0.000000 0.000000 0.000000 0.014626 0.000000 0.016993
#
#
# Mechanical properties :
#
#
# Convention : Reuss Voigt Hill
#
# Bulk Modulus (GPa) = 9.86789 41.13033 25.49911
# Shear Modulus (GPa) = 13.26239 65.44212 39.35225
#
# Velocity S-wave (km/s) = 2.71097 6.02203 4.66981
# Velocity P-wave (km/s) = 3.90736 8.43479 6.57317
#
# Compressibility (1/GPa) = 0.10133884
#
# Stress axis : x y z
#
# Youngs Moduli (GPa) = 9.52548 70.85420 36.55122
#
# Poissons Ratio (x) = 1.23008 -0.07910
# Poissons Ratio (y) = 0.16537 0.26905
# Poissons Ratio (z) = -0.02061 0.52155
#
# Static dielectric constant tensor:
#      x y z
#    x 2.932310 0.000000 0.224710 
#    y 0.000000 3.425690 0.000000 
#    z 0.224710 0.000000 3.040810 
# 
# 
# High freq. dielectric constant tensor:
#      x y z
#    x 1.653770 0.000000 0.044190 
#    y 0.000000 1.695960 0.000000 
#    z 0.044190 0.000000 1.690320 
# 
# From -- ./inp_files/286789.got.cif
#   From: 2010.06.25/outbox.cif.g09.slc.cpg/sg12_144_cif.got.tgz:286789.got - 2010.06.28 00:19:55.
