data_PCOD8087962
_publ_section_title
;
Structure prediction by ZEFSAII (Michael W. Deem and Ramdas Pophale) SiO2 
 PCOD8087962
Probable space group: C 2/M
;
_chemical_formula_sum "Si O2"
_cell_formula_units_Z 64
_cell_length_a 9.012606
_cell_length_b 29.501307
_cell_length_c 25.094054
_cell_angle_alpha 90.000000
_cell_angle_beta 29.125206
_cell_angle_gamma 90.000000
_cell_volume 3247.442142
_symmetry_space_group_name_H-M "C 2/M"
_symmetry_group_IT_number 12
_symmetry_cell_setting 'monoclinic'
loop_
_space_group_symop_operation_xyz
x,y,z
-x,y,-z
-x,-y,-z
x,-y,z
1/2+x,1/2+y,z
1/2-x,1/2+y,-z
1/2-x,1/2-y,-z
1/2+x,1/2-y,z
loop_
_atom_site_type_symbol
_atom_site_label
_atom_site_fract_x
_atom_site_fract_y
_atom_site_fract_z
Si Si1 0.906382 0.712524 0.694687
Si Si2 0.187735 0.949064 0.392053
Si Si3 0.848562 0.051157 0.389424
Si Si4 0.816028 0.373359 0.009326
Si Si5 0.261089 0.869493 0.226036
Si Si6 0.791917 0.228564 0.931842
Si Si7 0.129891 0.624861 0.218968
Si Si8 0.261328 0.796359 0.618412
O O1 0.597802 0.740907 0.804082
O O2 0.915918 0.666991 0.726699
O O3 0.916092 0.702118 0.628433
O O4 0.183822 0.744716 0.625519
O O5 0.482929 0.918891 0.291603
O O6 0.000000 0.928744 0.500000
O O7 0.960092 0.947724 0.414437
O O8 0.301583 0.000000 0.368276
O O9 0.500000 0.067926 0.500000
O O10 0.056953 0.084959 0.289537
O O11 0.874335 0.000000 0.357564
O O12 0.740458 0.324833 0.057178
O O13 0.478996 0.391994 0.101070
O O14 0.000000 0.399123 0.000000
O O15 0.015956 0.372643 0.893831
O O16 0.466525 0.863498 0.214297
O O17 0.042357 0.826501 0.287361
O O18 0.500000 0.253279 0.000000
O O19 0.750000 0.250000 0.000000
O O20 0.500000 0.815752 0.500000
#
# Coordination Sequence:
#
# PCOD8087962 Si02
#       8
#     8   8   8   8   8   8   8   8
#     4  11  23  39  56  80 114 150 192 236 285 340
#     4   9  19  36  59  86 115 148 188 233 281 337
#     4   9  19  36  58  85 114 146 188 235 283 337
#     4  10  21  37  55  79 112 148 188 233 282 339
#     4  11  21  37  59  84 114 149 191 234 287 342
#     4  10  19  32  52  76 100 133 176 226 277 326
#     4  10  22  37  59  86 114 150 187 234 289 341
#     4  12  25  40  57  80 114 155 197 238 284 338
#
# _framework density 19.707818
#
# number of rings (size 3 to 8) (size 9 to 14) (size 15 to 20)
#    0.000    1.750    0.000    5.625    0.000    7.500 
#    0.000    0.625    0.000    3.750    0.000    0.000 
#    0.000    0.000    0.000    0.000    0.000    0.000 
#
# Total GULP energy -396539.301631 kJ/mol
# GULP energy per Si atom -12391.853176 kJ/mol
# Density = 1.966296 g / cm^3
# Si number density = 19.707818 Si / 1000 Ang^3
#
#
#
# Elastic Constant Matrix: (Units=GPa)
#
#
# Indices 1 2 3 4 5 6 
#
# 1 119.6377 38.3094 59.2838 -0.0008 2.8386 0.0000
# 2 38.3094 65.5591 41.6137 0.0013 -5.3938 -0.0001
# 3 59.2838 41.6137 146.4114 -0.0082 4.2062 0.0024
# 4 -0.0008 0.0013 -0.0082 22.7269 0.0009 -0.8747
# 5 2.8386 -5.3938 4.2062 0.0009 40.9561 -0.0004
# 6 0.0000 -0.0001 0.0024 -0.8747 -0.0004 24.4939
#
#
#
# Elastic Compliance Matrix: (Units=1/GPa)
#
#
# Indices 1 2 3 4 5 6 
#
# 1 0.011533 -0.004739 -0.003292 0.000000 -0.001085 0.000000
# 2 -0.004739 0.020934 -0.004132 -0.000003 0.003510 0.000000
# 3 -0.003292 -0.004132 0.009374 0.000004 -0.001279 -0.000001
# 4 0.000000 -0.000003 0.000004 0.044061 -0.000002 0.001573
# 5 -0.001085 0.003510 -0.001279 -0.000002 0.025085 0.000000
# 6 0.000000 0.000000 -0.000001 0.001573 0.000000 0.040883
#
#
# Mechanical properties :
#
#
# Convention : Reuss Voigt Hill
#
# Bulk Modulus (GPa) = 57.09154 67.78021 62.43587
# Shear Modulus (GPa) = 27.46734 30.46215 28.96475
#
# Velocity S-wave (km/s) = 3.73732 3.93579 3.83784
# Velocity P-wave (km/s) = 6.90328 7.42436 7.16856
#
# Compressibility (1/GPa) = 0.01751573
#
# Stress axis : x y z
#
# Youngs Moduli (GPa) = 86.70787 47.76866 106.67775
#
# Poissons Ratio (x) = 0.22638 0.35115
# Poissons Ratio (y) = 0.41093 0.44078
# Poissons Ratio (z) = 0.28541 0.19737
#
# Static dielectric constant tensor:
#      x y z
#    x 3.963300 -0.000030 -0.287070 
#    y -0.000030 3.582500 0.000030 
#    z -0.287070 0.000030 3.845820 
# 
# 
# High freq. dielectric constant tensor:
#      x y z
#    x 1.785360 0.000000 -0.005190 
#    y 0.000000 1.747490 0.000000 
#    z -0.005190 0.000000 1.778080 
# 
# From -- ./inp_files/334349.got.cif
#   From: 2010.06.25/outbox.cif.g09.slc.cpg/sg12_168_cif.got.tgz:334349.got - 2010.06.28 00:19:55.
