data_PCOD8087343
_publ_section_title
;
Structure prediction by ZEFSAII (Michael W. Deem and Ramdas Pophale) SiO2 
 PCOD8087343
Probable space group: C 2/M
;
_chemical_formula_sum "Si O2"
_cell_formula_units_Z 56
_cell_length_a 16.790084
_cell_length_b 14.215135
_cell_length_c 16.635388
_cell_angle_alpha 90.000000
_cell_angle_beta 43.456625
_cell_angle_gamma 90.000000
_cell_volume 2730.877847
_symmetry_space_group_name_H-M "C 2/M"
_symmetry_group_IT_number 12
_symmetry_cell_setting 'monoclinic'
loop_
_space_group_symop_operation_xyz
x,y,z
-x,y,-z
-x,-y,-z
x,-y,z
1/2+x,1/2+y,z
1/2-x,1/2+y,-z
1/2-x,1/2-y,-z
1/2+x,1/2-y,z
loop_
_atom_site_type_symbol
_atom_site_label
_atom_site_fract_x
_atom_site_fract_y
_atom_site_fract_z
Si Si1 0.740400 0.608835 0.685808
Si Si2 0.572890 0.229807 0.367535
Si Si3 0.726963 0.389039 0.215540
Si Si4 0.385035 0.108018 0.247119
Si Si5 0.516105 0.398524 0.081376
Si Si6 0.080164 0.704009 0.019766
Si Si7 0.615500 0.891729 0.572708
O O1 0.760667 0.500000 0.692964
O O2 0.812416 0.669493 0.697003
O O3 0.605449 0.635063 0.790242
O O4 0.781470 0.631502 0.564867
O O5 0.500000 0.251382 0.500000
O O6 0.608104 0.329561 0.301377
O O7 0.496581 0.171759 0.360647
O O8 0.700732 0.500000 0.227553
O O9 0.787567 0.359871 0.255336
O O10 0.804455 0.355191 0.083141
O O11 0.338392 0.128605 0.371057
O O12 0.410387 0.000000 0.212711
O O13 0.509070 0.156816 0.143820
O O14 0.556791 0.500000 0.089254
O O15 0.500000 0.416618 0.000000
O O16 0.607178 0.312680 0.027102
O O17 0.000000 0.705580 0.000000
O O18 0.576417 0.000000 0.591936
#
# Coordination Sequence:
#
# PCOD8087343 Si02
#       7
#     8   8   8   8   8   8   8
#     4   9  16  28  47  71 100 132 164 199 244 299
#     4  10  19  32  49  72  99 133 171 205 245 294
#     4  10  20  34  53  74  97 131 173 211 246 290
#     4   9  17  31  52  77 100 126 166 212 252 291
#     4   9  16  26  44  71 100 127 157 199 248 294
#     4   9  16  29  49  72  97 125 163 208 250 294
#     4   9  18  32  51  76 104 132 164 205 252 297
#
# _framework density 20.506228
#
# number of rings (size 3 to 8) (size 9 to 14) (size 15 to 20)
#    0.000    2.714    0.000    3.429    0.000    3.714 
#    0.000    7.857    0.000    0.857    0.000    0.000 
#    0.000    0.000    0.000    0.000    0.000    0.000 
#
# Total GULP energy -347042.125760 kJ/mol
# GULP energy per Si atom -12394.361634 kJ/mol
# Density = 2.045955 g / cm^3
# Si number density = 20.506228 Si / 1000 Ang^3
#
#
#
# Elastic Constant Matrix: (Units=GPa)
#
#
# Indices 1 2 3 4 5 6 
#
# 1 28.0722 22.7326 25.3661 0.0000 5.0370 0.0000
# 2 22.7326 108.4594 45.4028 0.0000 -10.3268 0.0000
# 3 25.3661 45.4028 91.4160 0.0000 5.2222 0.0000
# 4 0.0000 0.0000 0.0000 20.9672 0.0000 -54.2480
# 5 5.0370 -10.3268 5.2222 0.0000 15.9304 0.0000
# 6 0.0000 0.0000 0.0000 -54.2480 0.0000 -108.7630
#
#
#
# Elastic Compliance Matrix: (Units=1/GPa)
#
#
# Indices 1 2 3 4 5 6 
#
# 1 0.055775 -0.009712 -0.009463 0.000000 -0.020829 0.000000
# 2 -0.009712 0.014984 -0.005582 0.000000 0.014614 0.000000
# 3 -0.009463 -0.005582 0.016685 0.000000 -0.006096 0.000000
# 4 0.000000 0.000000 0.000000 0.020823 0.000000 -0.010386
# 5 -0.020829 0.014614 -0.006096 0.000000 0.080830 0.000000
# 6 0.000000 0.000000 0.000000 -0.010386 0.000000 -0.004014
#
#
# Mechanical properties :
#
#
# Convention : Reuss Voigt Hill
#
# Bulk Modulus (GPa) = 26.36393 46.10564 36.23479
# Shear Modulus (GPa) = 20.22322 -5.41000 7.40661
#
# Velocity S-wave (km/s) = 3.14379 -1.62602 1.90256
# Velocity P-wave (km/s) = 5.10513 4.35973 4.74708
#
# Compressibility (1/GPa) = 0.03793061
#
# Stress axis : x y z
#
# Youngs Moduli (GPa) = 17.92904 66.73933 59.93317
#
# Poissons Ratio (x) = 0.64818 0.56715
# Poissons Ratio (y) = 0.17413 0.33453
# Poissons Ratio (z) = 0.16966 0.37252
#
# Static dielectric constant tensor:
#      x y z
#    x 3.168380 0.000000 0.116850 
#    y 0.000000 4.023570 0.000000 
#    z 0.116850 0.000000 3.866940 
# 
# 
# High freq. dielectric constant tensor:
#      x y z
#    x 1.732120 0.000000 0.010750 
#    y 0.000000 1.823620 0.000000 
#    z 0.010750 0.000000 1.810340 
# 
# From -- ./inp_files/277818.got.cif
#   From: 2010.06.25/outbox.cif.g09.slc.cpg/sg12_139_cif.got.tgz:277818.got - 2010.06.28 00:19:55.
