data_PCOD8087867
_publ_section_title
;
Structure prediction by ZEFSAII (Michael W. Deem and Ramdas Pophale) SiO2 
 PCOD8087867
Probable space group: C 2/M
;
_chemical_formula_sum "Si O2"
_cell_formula_units_Z 64
_cell_length_a 24.313519
_cell_length_b 22.370871
_cell_length_c 12.053317
_cell_angle_alpha 90.000000
_cell_angle_beta 32.262604
_cell_angle_gamma 90.000000
_cell_volume 3499.583075
_symmetry_space_group_name_H-M "C 2/M"
_symmetry_group_IT_number 12
_symmetry_cell_setting 'monoclinic'
loop_
_space_group_symop_operation_xyz
x,y,z
-x,y,-z
-x,-y,-z
x,-y,z
1/2+x,1/2+y,z
1/2-x,1/2+y,-z
1/2-x,1/2-y,-z
1/2+x,1/2-y,z
loop_
_atom_site_type_symbol
_atom_site_label
_atom_site_fract_x
_atom_site_fract_y
_atom_site_fract_z
Si Si1 0.152051 0.177599 0.318676
Si Si2 0.637530 0.432082 0.965089
Si Si3 0.270223 0.565692 0.710843
Si Si4 0.270760 0.639857 0.370375
Si Si5 0.086191 0.934990 0.731721
Si Si6 0.884098 0.632177 0.175230
Si Si7 0.675956 0.752646 0.854018
Si Si8 0.923382 0.175177 0.792080
O O1 0.213405 0.114395 0.220357
O O2 0.220351 0.228269 0.259551
O O3 0.134805 0.194935 0.220476
O O4 0.045165 0.173133 0.566794
O O5 0.660882 0.500000 0.963391
O O6 0.537107 0.428180 0.056754
O O7 0.618876 0.390667 0.104048
O O8 0.732024 0.405434 0.730709
O O9 0.250858 0.500000 0.796350
O O10 0.375084 0.565526 0.460921
O O11 0.173791 0.581068 0.795791
O O12 0.363981 0.620780 0.291464
O O13 0.165235 0.638530 0.618517
O O14 0.291376 0.706808 0.296669
O O15 0.116425 0.000000 0.733306
O O16 0.880978 0.693277 0.110336
O O17 0.000000 0.611812 0.000000
O O18 0.598117 0.722989 0.074659
#
# Coordination Sequence:
#
# PCOD8087867 Si02
#       8
#     8   8   8   8   8   8   8   8
#     4  10  20  36  54  78 106 133 177 219 266 309
#     4  10  19  32  51  80 111 137 167 204 255 319
#     4   9  18  34  54  75 105 138 168 211 260 309
#     4  10  20  32  49  76 102 143 173 207 256 306
#     4   9  16  29  48  73 107 138 164 195 246 314
#     4  10  22  36  52  76 103 138 182 218 251 302
#     4  10  22  36  53  72 108 140 175 219 259 307
#     4  10  21  34  55  80 103 138 174 218 262 312
#
# _framework density 18.287891999999999
#
# number of rings (size 3 to 8) (size 9 to 14) (size 15 to 20)
#    0.000    2.250    1.250    1.500    1.750    4.250 
#    0.000    1.250    0.000    0.000    0.000    0.000 
#    0.000    4.500    0.000    0.000    0.000    0.000 
#
# Total GULP energy -396725.737657 kJ/mol
# GULP energy per Si atom -12397.679302 kJ/mol
# Density = 1.824627 g / cm^3
# Si number density = 18.287892 Si / 1000 Ang^3
#
#
#
# Elastic Constant Matrix: (Units=GPa)
#
#
# Indices 1 2 3 4 5 6 
#
# 1 59.4883 23.7589 28.9973 0.0000 -5.4071 0.0000
# 2 23.7589 98.3655 19.9837 0.0000 1.6454 0.0000
# 3 28.9973 19.9837 87.5800 0.0000 5.4813 0.0000
# 4 0.0000 0.0000 0.0000 15.3441 0.0000 2.5563
# 5 -5.4071 1.6454 5.4813 0.0000 23.3714 0.0000
# 6 0.0000 0.0000 0.0000 2.5563 0.0000 23.1229
#
#
#
# Elastic Compliance Matrix: (Units=1/GPa)
#
#
# Indices 1 2 3 4 5 6 
#
# 1 0.022500 -0.004142 -0.006951 0.000000 0.007127 0.000000
# 2 -0.004142 0.011423 -0.001142 0.000000 -0.001495 0.000000
# 3 -0.006951 -0.001142 0.014285 0.000000 -0.004878 0.000000
# 4 0.000000 0.000000 0.000000 0.066395 0.000000 -0.007340
# 5 0.007127 -0.001495 -0.004878 0.000000 0.045686 0.000000
# 6 0.000000 0.000000 0.000000 -0.007340 0.000000 0.044059
#
#
# Mechanical properties :
#
#
# Convention : Reuss Voigt Hill
#
# Bulk Modulus (GPa) = 42.12195 43.43482 42.77838
# Shear Modulus (GPa) = 21.12117 23.88061 22.50089
#
# Velocity S-wave (km/s) = 3.40211 3.61753 3.51147
# Velocity P-wave (km/s) = 6.20606 6.42268 6.31530
#
# Compressibility (1/GPa) = 0.02374059
#
# Stress axis : x y z
#
# Youngs Moduli (GPa) = 44.44425 87.53887 70.00212
#
# Poissons Ratio (x) = 0.36256 0.48656
# Poissons Ratio (y) = 0.18408 0.07992
# Poissons Ratio (z) = 0.30892 0.09994
#
# Static dielectric constant tensor:
#      x y z
#    x 3.154390 0.000000 0.112250 
#    y 0.000000 3.480030 0.000000 
#    z 0.112250 0.000000 3.307850 
# 
# 
# High freq. dielectric constant tensor:
#      x y z
#    x 1.688990 0.000000 0.013310 
#    y 0.000000 1.715370 0.000000 
#    z 0.013310 0.000000 1.699060 
# 
# From -- ./inp_files/178398.got.cif
#   From: 2010.06.25/outbox.cif.g09.slc.cpg/sg12_90_cif.got.tgz:178398.got - 2010.06.28 00:19:55.
