data_PCOD8087118
_publ_section_title
;
Structure prediction by ZEFSAII (Michael W. Deem and Ramdas Pophale) SiO2 
 PCOD8087118
Probable space group: C 2/M
;
_chemical_formula_sum "Si O2"
_cell_formula_units_Z 56
_cell_length_a 20.723602
_cell_length_b 9.022861
_cell_length_c 23.149089
_cell_angle_alpha 90.000000
_cell_angle_beta 46.493864
_cell_angle_gamma 90.000000
_cell_volume 3139.507179
_symmetry_space_group_name_H-M "C 2/M"
_symmetry_group_IT_number 12
_symmetry_cell_setting 'monoclinic'
loop_
_space_group_symop_operation_xyz
x,y,z
-x,y,-z
-x,-y,-z
x,-y,z
1/2+x,1/2+y,z
1/2-x,1/2+y,-z
1/2-x,1/2-y,-z
1/2+x,1/2-y,z
loop_
_atom_site_type_symbol
_atom_site_label
_atom_site_fract_x
_atom_site_fract_y
_atom_site_fract_z
Si Si1 0.515843 0.824662 0.583129
Si Si2 0.946913 0.824276 0.733026
Si Si3 0.758736 0.326839 0.833637
Si Si4 0.862327 0.675466 0.592103
Si Si5 0.321583 0.672959 0.995770
Si Si6 0.001096 0.824083 0.172017
Si Si7 0.685383 0.676017 0.756654
O O1 0.516446 0.739581 0.643493
O O2 0.603185 0.775198 0.492544
O O3 0.429284 0.770978 0.600894
O O4 0.514706 0.000000 0.595028
O O5 0.848872 0.764190 0.781994
O O6 0.980272 0.768062 0.774729
O O7 0.945110 0.000000 0.730439
O O8 0.783991 0.500000 0.814956
O O9 0.704481 0.275845 0.810635
O O10 0.695766 0.290406 0.926691
O O11 0.862847 0.500000 0.594020
O O12 0.763860 0.737833 0.666359
O O13 0.313874 0.500000 0.987476
O O14 0.419789 0.731404 0.918689
O O15 0.250000 0.750000 0.000000
O O16 0.908288 0.754920 0.206357
O O17 0.995227 0.000000 0.174368
O O18 0.681815 0.500000 0.754485
#
# Coordination Sequence:
#
# PCOD8087118 Si02
#       7
#     8   8   8   8   8   8   8
#     4   9  16  29  50  76  98 122 167 211 240 281
#     4  11  20  31  48  73 103 134 161 197 249 300
#     4  10  19  31  54  77  94 125 171 212 239 279
#     4   8  14  26  49  75  98 124 160 208 248 280
#     4  10  19  32  50  76 102 128 162 203 246 288
#     4   9  19  32  47  71 105 134 159 198 251 298
#     4   9  16  30  51  75  99 127 165 207 246 285
#
# _framework density 17.837195000000001
#
# number of rings (size 3 to 8) (size 9 to 14) (size 15 to 20)
#    0.000    2.571    2.857    1.286    0.000    0.571 
#    0.000    5.000    0.000    2.571    0.000    2.000 
#    0.000    0.000    0.000    0.000    0.000    0.000 
#
# Total GULP energy -347093.154736 kJ/mol
# GULP energy per Si atom -12396.184098 kJ/mol
# Density = 1.779660 g / cm^3
# Si number density = 17.837195 Si / 1000 Ang^3
#
#
#
# Elastic Constant Matrix: (Units=GPa)
#
#
# Indices 1 2 3 4 5 6 
#
# 1 129.7863 22.2602 87.8489 0.0000 -3.1723 0.0002
# 2 22.2602 27.7216 29.6148 0.0000 5.7363 0.0007
# 3 87.8489 29.6148 188.5232 0.0000 2.9148 0.0001
# 4 0.0000 0.0000 0.0000 21.8814 0.0000 3.8035
# 5 -3.1723 5.7363 2.9148 0.0000 33.2792 0.0000
# 6 0.0002 0.0007 0.0001 3.8035 0.0000 18.0557
#
#
#
# Elastic Compliance Matrix: (Units=1/GPa)
#
#
# Indices 1 2 3 4 5 6 
#
# 1 0.011842 -0.004890 -0.004787 0.000000 0.002391 0.000000
# 2 -0.004890 0.047001 -0.004979 0.000000 -0.008132 -0.000002
# 3 -0.004787 -0.004979 0.008322 0.000000 -0.000327 0.000000
# 4 0.000000 0.000000 0.000000 0.047438 0.000000 -0.009993
# 5 0.002391 -0.008132 -0.000327 0.000000 0.031707 0.000000
# 6 0.000000 -0.000002 0.000000 -0.009993 0.000000 0.057489
#
#
# Mechanical properties :
#
#
# Convention : Reuss Voigt Hill
#
# Bulk Modulus (GPa) = 26.41753 69.49766 47.95760
# Shear Modulus (GPa) = 20.34751 28.39708 24.37229
#
# Velocity S-wave (km/s) = 3.38114 3.99433 3.70046
# Velocity P-wave (km/s) = 5.48501 7.76658 6.72328
#
# Compressibility (1/GPa) = 0.03785365
#
# Stress axis : x y z
#
# Youngs Moduli (GPa) = 84.44202 21.27606 120.15850
#
# Poissons Ratio (x) = 0.10404 0.57522
# Poissons Ratio (y) = 0.41292 0.59826
# Poissons Ratio (z) = 0.40424 0.10593
#
# Static dielectric constant tensor:
#      x y z
#    x 3.446480 0.000000 -0.075400 
#    y 0.000000 2.892010 0.000000 
#    z -0.075400 0.000000 3.857480 
# 
# 
# High freq. dielectric constant tensor:
#      x y z
#    x 1.674550 0.000000 0.005290 
#    y 0.000000 1.641940 0.000000 
#    z 0.005290 0.000000 1.713430 
# 
# From -- ./inp_files/315247.got.cif
#   From: 2010.06.25/outbox.cif.g09.slc.cpg/sg12_158_cif.got.tgz:315247.got - 2010.06.28 00:19:55.
