data_PCOD8087524
_publ_section_title
;
Structure prediction by ZEFSAII (Michael W. Deem and Ramdas Pophale) SiO2 
 PCOD8087524
Probable space group: C 2/M
;
_chemical_formula_sum "Si O2"
_cell_formula_units_Z 64
_cell_length_a 20.490273
_cell_length_b 9.452435
_cell_length_c 26.041024
_cell_angle_alpha 90.000000
_cell_angle_beta 45.776288
_cell_angle_gamma 90.000000
_cell_volume 3614.428621
_symmetry_space_group_name_H-M "C 2/M"
_symmetry_group_IT_number 12
_symmetry_cell_setting 'monoclinic'
loop_
_space_group_symop_operation_xyz
x,y,z
-x,y,-z
-x,-y,-z
x,-y,z
1/2+x,1/2+y,z
1/2-x,1/2+y,-z
1/2-x,1/2-y,-z
1/2+x,1/2-y,z
loop_
_atom_site_type_symbol
_atom_site_label
_atom_site_fract_x
_atom_site_fract_y
_atom_site_fract_z
Si Si1 0.642603 0.167823 0.917807
Si Si2 0.738768 0.336453 0.313236
Si Si3 0.997523 0.333111 0.704278
Si Si4 0.056826 0.331867 0.782407
Si Si5 0.010995 0.668257 0.074135
Si Si6 0.601215 0.164855 0.458068
Si Si7 0.677097 0.663572 0.231242
Si Si8 0.840691 0.336019 0.459540
O O1 0.574201 0.227806 0.911891
O O2 0.745505 0.220115 0.851064
O O3 0.641959 0.000000 0.913435
O O4 0.605612 0.216073 0.994478
O O5 0.730749 0.500000 0.333454
O O6 0.670636 0.249338 0.385276
O O7 0.716069 0.313943 0.266427
O O8 0.839928 0.277324 0.268514
O O9 0.979555 0.500000 0.711898
O O10 0.012536 0.276841 0.753975
O O11 0.911717 0.256614 0.726915
O O12 0.086220 0.291317 0.623243
O O13 0.058552 0.500000 0.781607
O O14 0.996178 0.273908 0.863577
O O15 0.005700 0.500000 0.077707
O O16 0.500000 0.215546 0.500000
O O17 0.617839 0.201182 0.508134
O O18 0.614099 0.000000 0.439013
O O19 0.652633 0.500000 0.234626
O O20 0.815764 0.500000 0.468536
O O21 0.750000 0.250000 0.500000
#
# Coordination Sequence:
#
# PCOD8087524 Si02
#       8
#     8   8   8   8   8   8   8   8
#     4   8  13  23  43  73 103 127 156 201 250 286
#     4  10  19  32  53  77  97 120 160 212 254 284
#     4  10  21  35  51  71 100 136 166 195 241 302
#     4   9  16  29  48  72  98 126 164 206 241 282
#     4   8  12  22  44  72 100 127 159 202 246 284
#     4  10  21  36  52  71  98 130 163 200 244 299
#     4  10  19  32  50  76 105 130 161 205 250 290
#     4  10  21  37  55  74  97 130 170 207 246 295
#
# _framework density 17.706810000000001
#
# number of rings (size 3 to 8) (size 9 to 14) (size 15 to 20)
#    0.000    2.625    1.250    2.250    0.000    3.750 
#    0.000    1.250    0.000    0.000    0.000    2.625 
#    0.000    0.000    0.000    0.000    0.000    0.000 
#
# Total GULP energy -396681.441931 kJ/mol
# GULP energy per Si atom -12396.295060 kJ/mol
# Density = 1.766651 g / cm^3
# Si number density = 17.706810 Si / 1000 Ang^3
#
#
#
# Elastic Constant Matrix: (Units=GPa)
#
#
# Indices 1 2 3 4 5 6 
#
# 1 75.3004 28.1057 32.9318 0.0002 -6.3564 0.0000
# 2 28.1057 28.5481 34.9291 0.0004 -2.0220 0.0000
# 3 32.9318 34.9291 127.8003 0.0001 10.4194 -0.0001
# 4 0.0002 0.0004 0.0001 13.8368 -0.0001 -0.1323
# 5 -6.3564 -2.0220 10.4194 -0.0001 20.0803 0.0001
# 6 0.0000 0.0000 -0.0001 -0.1323 0.0001 22.4267
#
#
#
# Elastic Compliance Matrix: (Units=1/GPa)
#
#
# Indices 1 2 3 4 5 6 
#
# 1 0.021436 -0.020287 -0.000382 0.000000 0.004941 0.000000
# 2 -0.020287 0.075478 -0.016182 -0.000002 0.009575 0.000000
# 3 -0.000382 -0.016182 0.013040 0.000000 -0.008517 0.000000
# 4 0.000000 -0.000002 0.000000 0.072275 0.000000 0.000426
# 5 0.004941 0.009575 -0.008517 0.000000 0.056748 0.000000
# 6 0.000000 0.000000 0.000000 0.000426 0.000000 0.044592
#
#
# Mechanical properties :
#
#
# Convention : Reuss Voigt Hill
#
# Bulk Modulus (GPa) = 27.58385 47.06467 37.32426
# Shear Modulus (GPa) = 13.53709 20.31424 16.92566
#
# Velocity S-wave (km/s) = 2.76798 3.39079 3.09509
# Velocity P-wave (km/s) = 5.08208 6.47824 5.82216
#
# Compressibility (1/GPa) = 0.03625310
#
# Stress axis : x y z
#
# Youngs Moduli (GPa) = 46.64988 13.24885 76.68577
#
# Poissons Ratio (x) = 0.26878 0.02930
# Poissons Ratio (y) = 0.94637 1.24093
# Poissons Ratio (z) = 0.01782 0.21439
#
# Static dielectric constant tensor:
#      x y z
#    x 3.351820 0.000000 0.145120 
#    y 0.000000 2.877340 0.000000 
#    z 0.145120 0.000000 3.705980 
# 
# 
# High freq. dielectric constant tensor:
#      x y z
#    x 1.681080 0.000000 0.005950 
#    y 0.000000 1.636460 0.000000 
#    z 0.005950 0.000000 1.706090 
# 
# From -- ./inp_files/365722.got.cif
#   From: 2010.06.25/outbox.cif.g09.slc.cpg/sg12_183_cif.got.tgz:365722.got - 2010.06.28 00:19:55.
