data_PCOD8087782
_publ_section_title
;
Structure prediction by ZEFSAII (Michael W. Deem and Ramdas Pophale) SiO2 
 PCOD8087782
Probable space group: C 2/M
;
_chemical_formula_sum "Si O2"
_cell_formula_units_Z 56
_cell_length_a 24.917094
_cell_length_b 8.827011
_cell_length_c 25.397777
_cell_angle_alpha 90.000000
_cell_angle_beta 145.174308
_cell_angle_gamma 90.000000
_cell_volume 3190.105341
_symmetry_space_group_name_H-M "C 2/M"
_symmetry_group_IT_number 12
_symmetry_cell_setting 'monoclinic'
loop_
_space_group_symop_operation_xyz
x,y,z
-x,y,-z
-x,-y,-z
x,-y,z
1/2+x,1/2+y,z
1/2-x,1/2+y,-z
1/2-x,1/2-y,-z
1/2+x,1/2-y,z
loop_
_atom_site_type_symbol
_atom_site_label
_atom_site_fract_x
_atom_site_fract_y
_atom_site_fract_z
Si Si1 0.851538 0.679218 0.896400
Si Si2 0.964338 0.325874 0.590036
Si Si3 0.307837 0.825815 0.380490
Si Si4 0.148621 0.178288 0.409461
Si Si5 0.667009 0.820971 0.717913
Si Si6 0.370506 0.821061 0.714174
Si Si7 0.975487 0.679032 0.900115
O O1 0.837446 0.500000 0.884034
O O2 0.750490 0.756844 0.821518
O O3 0.900114 0.740630 0.881882
O O4 0.918647 0.729850 0.999277
O O5 0.964290 0.500000 0.609455
O O6 0.906864 0.310848 0.489703
O O7 0.921328 0.220994 0.600315
O O8 0.068803 0.264333 0.662853
O O9 0.321554 0.762220 0.332667
O O10 0.233367 0.722179 0.350647
O O11 0.272868 0.000000 0.352584
O O12 0.250000 0.250000 0.500000
O O13 0.103854 0.237667 0.319137
O O14 0.161893 0.000000 0.417253
O O15 0.669277 0.000000 0.720102
O O16 0.446996 0.765056 0.819035
O O17 0.374684 0.000000 0.708608
O O18 0.969799 0.500000 0.899121
#
# Coordination Sequence:
#
# PCOD8087782 Si02
#       7
#     8   8   8   8   8   8   8
#     4   9  16  31  52  75 105 140 174 211 257 315
#     4  10  21  37  54  73 105 146 181 214 257 311
#     4  10  19  32  51  76 108 143 174 208 257 314
#     4  12  24  38  55  77 104 137 177 221 262 304
#     4  10  20  33  51  79 111 142 174 213 263 312
#     4  11  20  33  55  80 106 137 174 218 261 307
#     4   8  16  30  51  77 105 137 173 212 261 313
#
# _framework density 17.554279000000001
#
# number of rings (size 3 to 8) (size 9 to 14) (size 15 to 20)
#    0.000    2.000    2.857    3.000    0.000    2.286 
#    0.000    2.857    0.000    3.429    0.000    0.000 
#    0.000    0.000    0.000    0.000    0.000    0.000 
#
# Total GULP energy -347199.568076 kJ/mol
# GULP energy per Si atom -12399.984574 kJ/mol
# Density = 1.751432 g / cm^3
# Si number density = 17.554279 Si / 1000 Ang^3
#
#
#
# Elastic Constant Matrix: (Units=GPa)
#
#
# Indices 1 2 3 4 5 6 
#
# 1 83.9699 26.7795 50.3203 0.0000 3.9572 0.0000
# 2 26.7795 53.7152 28.2440 0.0000 -2.1146 0.0000
# 3 50.3203 28.2440 133.9959 0.0000 3.0837 0.0000
# 4 0.0000 0.0000 0.0000 26.2816 0.0000 1.1659
# 5 3.9572 -2.1146 3.0837 0.0000 29.2816 0.0000
# 6 0.0000 0.0000 0.0000 1.1659 0.0000 25.4664
#
#
#
# Elastic Compliance Matrix: (Units=1/GPa)
#
#
# Indices 1 2 3 4 5 6 
#
# 1 0.016916 -0.005854 -0.005069 0.000000 -0.002175 0.000000
# 2 -0.005854 0.023078 -0.002729 0.000000 0.002745 0.000000
# 3 -0.005069 -0.002729 0.009955 0.000000 -0.000560 0.000000
# 4 0.000000 0.000000 0.000000 0.038127 0.000000 -0.001746
# 5 -0.002175 0.002745 -0.000560 0.000000 0.034702 0.000000
# 6 0.000000 0.000000 0.000000 -0.001746 0.000000 0.039347
#
#
# Mechanical properties :
#
#
# Convention : Reuss Voigt Hill
#
# Bulk Modulus (GPa) = 44.15952 53.59652 48.87802
# Shear Modulus (GPa) = 25.38363 27.29505 26.33934
#
# Velocity S-wave (km/s) = 3.80677 3.94749 3.87777
# Velocity P-wave (km/s) = 6.67327 7.16764 6.92487
#
# Compressibility (1/GPa) = 0.02264517
#
# Stress axis : x y z
#
# Youngs Moduli (GPa) = 59.11618 43.33069 100.45663
#
# Poissons Ratio (x) = 0.25365 0.50917
# Poissons Ratio (y) = 0.34606 0.27418
# Poissons Ratio (z) = 0.29963 0.11827
#
# Static dielectric constant tensor:
#      x y z
#    x 3.210240 0.000000 -0.128310 
#    y 0.000000 3.089940 0.000000 
#    z -0.128310 0.000000 3.640230 
# 
# 
# High freq. dielectric constant tensor:
#      x y z
#    x 1.656480 0.000000 -0.003960 
#    y 0.000000 1.664630 0.000000 
#    z -0.003960 0.000000 1.686440 
# 
# From -- ./inp_files/348640.got.cif
#   From: 2010.06.25/outbox.cif.g09.slc.cpg/sg12_175_cif.got.tgz:348640.got - 2010.06.28 00:19:55.
