data_PCOD8087681
_publ_section_title
;
Structure prediction by ZEFSAII (Michael W. Deem and Ramdas Pophale) SiO2 
 PCOD8087681
Probable space group: C 2/M
;
_chemical_formula_sum "Si O2"
_cell_formula_units_Z 48
_cell_length_a 5.206843
_cell_length_b 17.010124
_cell_length_c 28.844599
_cell_angle_alpha 90.000000
_cell_angle_beta 106.105908
_cell_angle_gamma 90.000000
_cell_volume 2454.466515
_symmetry_space_group_name_H-M "C 2/M"
_symmetry_group_IT_number 12
_symmetry_cell_setting 'monoclinic'
loop_
_space_group_symop_operation_xyz
x,y,z
-x,y,-z
-x,-y,-z
x,-y,z
1/2+x,1/2+y,z
1/2-x,1/2+y,-z
1/2-x,1/2-y,-z
1/2+x,1/2-y,z
loop_
_atom_site_type_symbol
_atom_site_label
_atom_site_fract_x
_atom_site_fract_y
_atom_site_fract_z
Si Si1 0.955808 0.093821 0.808267
Si Si2 0.207663 0.406228 0.972450
Si Si3 0.896923 0.799977 0.445353
Si Si4 0.215592 0.906483 0.300505
Si Si5 0.540575 0.906243 0.863433
Si Si6 0.802112 0.906771 0.356682
O O1 0.248318 0.126097 0.835792
O O2 0.871813 0.126908 0.753836
O O3 0.748688 0.126083 0.835970
O O4 0.955002 0.000000 0.807826
O O5 0.207383 0.500000 0.972258
O O6 0.123866 0.373774 0.917939
O O7 0.500000 0.373831 0.000000
O O8 0.000000 0.373834 0.000000
O O9 0.601691 0.764150 0.435524
O O10 0.882595 0.873829 0.410622
O O11 0.000000 0.831804 0.500000
O O12 0.510805 0.875567 0.327240
O O13 0.010085 0.875245 0.328820
O O14 0.212072 0.000000 0.299098
O O15 0.540807 0.000000 0.863664
O O16 0.808669 0.000000 0.360874
#
# Coordination Sequence:
#
# PCOD8087681 Si02
#       6
#     8   8   8   8   8   8
#     4   9  15  23  34  49  71  97 127 166 218 277
#     4   9  15  21  27  36  53  79 117 168 220 263
#     4  10  21  37  55  75 101 132 163 196 237 282
#     4   9  17  28  43  65  91 116 144 186 238 284
#     4   9  15  21  30  43  60  89 127 166 217 276
#     4  10  19  32  51  74  98 125 159 197 240 286
#
# _framework density 19.556184999999999
#
# number of rings (size 3 to 8) (size 9 to 14) (size 15 to 20)
#    0.000    2.667    0.000    3.000    0.000    8.333 
#    0.000    0.000    0.000    6.000    0.000    0.000 
#    0.000    0.000    0.000    0.000    0.000    0.000 
#
# Total GULP energy -297606.671705 kJ/mol
# GULP energy per Si atom -12400.277988 kJ/mol
# Density = 1.951167 g / cm^3
# Si number density = 19.556185 Si / 1000 Ang^3
#
#
#
# Elastic Constant Matrix: (Units=GPa)
#
#
# Indices 1 2 3 4 5 6 
#
# 1 190.7732 12.3548 95.4357 0.0000 -8.2927 0.0000
# 2 12.3548 7.4935 26.3769 0.0000 -1.0091 0.0000
# 3 95.4357 26.3769 198.3727 0.0000 -7.7464 0.0000
# 4 0.0000 0.0000 0.0000 3.7515 0.0000 -0.7246
# 5 -8.2927 -1.0091 -7.7464 0.0000 40.4209 0.0000
# 6 0.0000 0.0000 0.0000 -0.7246 0.0000 5.5319
#
#
#
# Elastic Compliance Matrix: (Units=1/GPa)
#
#
# Indices 1 2 3 4 5 6 
#
# 1 0.006929 0.000578 -0.003380 0.000000 0.000788 0.000000
# 2 0.000578 0.250908 -0.033643 0.000000 -0.000065 0.000000
# 3 -0.003380 -0.033643 0.011164 0.000000 0.000606 0.000000
# 4 0.000000 0.000000 0.000000 0.273478 0.000000 0.035824
# 5 0.000788 -0.000065 0.000606 0.000000 0.025016 0.000000
# 6 0.000000 0.000000 0.000000 0.035824 0.000000 0.185464
#
#
# Mechanical properties :
#
#
# Convention : Reuss Voigt Hill
#
# Bulk Modulus (GPa) = 5.09911 73.88602 39.49256
# Shear Modulus (GPa) = 5.61029 27.43900 16.52465
#
# Velocity S-wave (km/s) = 1.69559 3.74984 2.91001
# Velocity P-wave (km/s) = 2.53899 7.52408 5.61508
#
# Compressibility (1/GPa) = 0.19611262
#
# Stress axis : x y z
#
# Youngs Moduli (GPa) = 144.31238 3.98552 89.57317
#
# Poissons Ratio (x) = -0.00230 0.30274
# Poissons Ratio (y) = -0.08343 3.01351
# Poissons Ratio (z) = 0.48774 0.13408
#
# Static dielectric constant tensor:
#      x y z
#    x 3.897390 0.000000 -0.015630 
#    y 0.000000 2.661310 0.000000 
#    z -0.015630 0.000000 3.797660 
# 
# 
# High freq. dielectric constant tensor:
#      x y z
#    x 1.784740 0.000000 -0.001460 
#    y 0.000000 1.677870 0.000000 
#    z -0.001460 0.000000 1.780230 
# 
# From -- ./inp_files/331014.got.cif
#   From: 2010.06.25/outbox.cif.g09.slc.cpg/sg12_166_cif.got.tgz:331014.got - 2010.06.28 00:19:55.
