data_PCOD8087625
_publ_section_title
;
Structure prediction by ZEFSAII (Michael W. Deem and Ramdas Pophale) SiO2 
 PCOD8087625
Probable space group: C 2/M
;
_chemical_formula_sum "Si O2"
_cell_formula_units_Z 48
_cell_length_a 17.928161
_cell_length_b 8.993621
_cell_length_c 18.910617
_cell_angle_alpha 90.000000
_cell_angle_beta 120.194552
_cell_angle_gamma 90.000000
_cell_volume 2635.432562
_symmetry_space_group_name_H-M "C 2/M"
_symmetry_group_IT_number 12
_symmetry_cell_setting 'monoclinic'
loop_
_space_group_symop_operation_xyz
x,y,z
-x,y,-z
-x,-y,-z
x,-y,z
1/2+x,1/2+y,z
1/2-x,1/2+y,-z
1/2-x,1/2-y,-z
1/2+x,1/2-y,z
loop_
_atom_site_type_symbol
_atom_site_label
_atom_site_fract_x
_atom_site_fract_y
_atom_site_fract_z
Si Si1 0.571341 0.825367 0.590224
Si Si2 0.582499 0.828249 0.081671
Si Si3 0.752528 0.334007 0.165212
Si Si4 0.739552 0.335549 0.326709
Si Si5 0.425241 0.675961 0.258759
Si Si6 0.427737 0.829079 0.757121
O O1 0.500000 0.775751 0.500000
O O2 0.665221 0.788017 0.600634
O O3 0.554951 0.734661 0.653551
O O4 0.565618 0.000000 0.606030
O O5 0.666264 0.741141 0.093251
O O6 0.566334 0.802792 0.156617
O O7 0.598486 0.000000 0.071995
O O8 0.500000 0.766577 0.000000
O O9 0.760943 0.500000 0.137792
O O10 0.746213 0.338634 0.245942
O O11 0.836796 0.240602 0.183868
O O12 0.714791 0.500000 0.343153
O O13 0.667037 0.218768 0.316718
O O14 0.417893 0.500000 0.257491
O O15 0.501976 0.724413 0.244395
O O16 0.443254 0.000000 0.743518
#
# Coordination Sequence:
#
# PCOD8087625 Si02
#       6
#     8   8   8   8   8   8
#     4   9  18  34  55  77 102 131 163 202 248 297
#     4   9  18  33  53  77 103 130 163 206 253 298
#     4   9  17  31  51  73  98 130 168 204 243 296
#     4   8  15  29  49  72  97 126 161 199 240 290
#     4  11  21  33  51  74 101 131 167 208 247 291
#     4  10  19  32  51  73  99 131 166 203 246 296
#
# _framework density 18.213329999999999
#
# number of rings (size 3 to 8) (size 9 to 14) (size 15 to 20)
#    0.000    2.667    0.000    3.500    0.000    5.333 
#    0.000    1.667    0.000    0.000    0.000    0.000 
#    0.000    0.000    0.000    0.000    0.000    0.000 
#
# Total GULP energy -297561.821302 kJ/mol
# GULP energy per Si atom -12398.409221 kJ/mol
# Density = 1.817188 g / cm^3
# Si number density = 18.213330 Si / 1000 Ang^3
#
#
#
# Elastic Constant Matrix: (Units=GPa)
#
#
# Indices 1 2 3 4 5 6 
#
# 1 111.0782 57.3125 48.5130 0.0000 33.4776 0.0000
# 2 57.3125 111.7724 41.2292 0.0000 15.8660 0.0000
# 3 48.5130 41.2292 82.8496 0.0000 38.6368 0.0000
# 4 0.0000 0.0000 0.0000 21.9610 0.0000 6.2465
# 5 33.4776 15.8660 38.6368 0.0000 33.0786 0.0000
# 6 0.0000 0.0000 0.0000 6.2465 0.0000 31.5923
#
#
#
# Elastic Compliance Matrix: (Units=1/GPa)
#
#
# Indices 1 2 3 4 5 6 
#
# 1 0.016433 -0.006463 -0.000211 0.000000 -0.013285 0.000000
# 2 -0.006463 0.013591 -0.006566 0.000000 0.007691 0.000000
# 3 -0.000211 -0.006566 0.030514 0.000000 -0.032279 0.000000
# 4 0.000000 0.000000 0.000000 0.048249 0.000000 -0.009540
# 5 -0.013285 0.007691 -0.032279 0.000000 0.077690 0.000000
# 6 0.000000 0.000000 0.000000 -0.009540 0.000000 0.033540
#
#
# Mechanical properties :
#
#
# Convention : Reuss Voigt Hill
#
# Bulk Modulus (GPa) = 29.36025 66.64551 48.00288
# Shear Modulus (GPa) = 19.39127 27.90275 23.64701
#
# Velocity S-wave (km/s) = 3.26648 3.91832 3.60715
# Velocity P-wave (km/s) = 5.51196 7.55923 6.61527
#
# Compressibility (1/GPa) = 0.03405966
#
# Stress axis : x y z
#
# Youngs Moduli (GPa) = 60.85162 73.57957 32.77199
#
# Poissons Ratio (x) = 0.47553 0.00691
# Poissons Ratio (y) = 0.39327 0.21517
# Poissons Ratio (z) = 0.01283 0.48309
#
# Static dielectric constant tensor:
#      x y z
#    x 3.478450 0.000000 0.457560 
#    y 0.000000 3.451920 0.000000 
#    z 0.457560 0.000000 3.292440 
# 
# 
# High freq. dielectric constant tensor:
#      x y z
#    x 1.706360 0.000000 0.030190 
#    y 0.000000 1.709700 0.000000 
#    z 0.030190 0.000000 1.677200 
# 
# From -- ./inp_files/273615.got.cif
#   From: 2010.06.25/outbox.cif.g09.slc.cpg/sg12_137_cif.got.tgz:273615.got - 2010.06.28 00:19:55.
