data_PCOD8087254
_publ_section_title
;
Structure prediction by ZEFSAII (Michael W. Deem and Ramdas Pophale) SiO2 
 PCOD8087254
Probable space group: C 2/M
;
_chemical_formula_sum "Si O2"
_cell_formula_units_Z 64
_cell_length_a 30.296932
_cell_length_b 8.794877
_cell_length_c 14.971084
_cell_angle_alpha 90.000000
_cell_angle_beta 119.918184
_cell_angle_gamma 90.000000
_cell_volume 3457.560255
_symmetry_space_group_name_H-M "C 2/M"
_symmetry_group_IT_number 12
_symmetry_cell_setting 'monoclinic'
loop_
_space_group_symop_operation_xyz
x,y,z
-x,y,-z
-x,-y,-z
x,-y,z
1/2+x,1/2+y,z
1/2-x,1/2+y,-z
1/2-x,1/2-y,-z
1/2+x,1/2-y,z
loop_
_atom_site_type_symbol
_atom_site_label
_atom_site_fract_x
_atom_site_fract_y
_atom_site_fract_z
Si Si1 0.884227 0.180272 0.777989
Si Si2 0.750878 0.680402 0.902752
Si Si3 0.641407 0.680709 0.724333
Si Si4 0.853005 0.818998 0.939228
Si Si5 0.804538 0.178889 0.556125
Si Si6 0.035711 0.181547 0.281792
Si Si7 0.615186 0.680454 0.504678
Si Si8 0.078353 0.818926 0.827837
O O1 0.879598 0.239251 0.874676
O O2 0.834641 0.236374 0.673978
O O3 0.934963 0.240271 0.778014
O O4 0.886339 0.000000 0.779501
O O5 0.754386 0.500000 0.915118
O O6 0.699603 0.731285 0.799532
O O7 0.797931 0.743092 0.893254
O O8 0.750000 0.750000 0.000000
O O9 0.638435 0.500000 0.720326
O O10 0.619954 0.748721 0.609337
O O11 0.605532 0.745337 0.766660
O O12 0.845784 0.000000 0.933232
O O13 0.889642 0.761892 0.055052
O O14 0.750000 0.250000 0.500000
O O15 0.834834 0.232252 0.498807
O O16 0.798878 0.000000 0.551991
O O17 0.064966 0.238874 0.401006
O O18 0.978713 0.248496 0.224327
O O19 0.034754 0.000000 0.280613
O O20 0.612846 0.500000 0.507366
O O21 0.076739 0.000000 0.824919
#
# Coordination Sequence:
#
# PCOD8087254 Si02
#       8
#     8   8   8   8   8   8   8   8
#     4   8  16  29  44  65  96 128 157 193 238 284
#     4  11  21  34  51  70  99 131 161 197 238 283
#     4   9  17  28  42  65  95 124 153 192 237 281
#     4  10  19  32  48  70 101 130 157 196 239 280
#     4   9  17  29  44  64  90 122 159 195 231 279
#     4   8  14  26  43  66  95 126 157 193 240 287
#     4   8  15  27  42  62  93 125 151 188 240 285
#     4   9  16  26  43  67  94 122 159 199 235 281
#
# _framework density 18.510161
#
# number of rings (size 3 to 8) (size 9 to 14) (size 15 to 20)
#    0.000    3.000    1.250    1.875    1.750    1.000 
#    0.000    5.000    0.000    0.000    0.000    5.250 
#    0.000    1.000    0.000    0.000    0.000    0.000 
#
# Total GULP energy -396602.689246 kJ/mol
# GULP energy per Si atom -12393.834039 kJ/mol
# Density = 1.846803 g / cm^3
# Si number density = 18.510161 Si / 1000 Ang^3
#
#
#
# Elastic Constant Matrix: (Units=GPa)
#
#
# Indices 1 2 3 4 5 6 
#
# 1 179.1572 16.5206 112.7883 0.0000 7.6892 0.0000
# 2 16.5206 15.6325 12.6505 0.0000 0.4107 0.0000
# 3 112.7883 12.6505 152.2608 0.0000 -16.0364 0.0000
# 4 0.0000 0.0000 0.0000 12.0649 0.0000 4.1172
# 5 7.6892 0.4107 -16.0364 0.0000 39.5750 0.0000
# 6 0.0000 0.0000 0.0000 4.1172 0.0000 18.9435
#
#
#
# Elastic Compliance Matrix: (Units=1/GPa)
#
#
# Indices 1 2 3 4 5 6 
#
# 1 0.012076 -0.005204 -0.009145 0.000000 -0.005998 0.000000
# 2 -0.005204 0.071202 -0.002123 0.000000 -0.000588 0.000000
# 3 -0.009145 -0.002123 0.014319 0.000000 0.007601 0.000000
# 4 0.000000 0.000000 0.000000 0.089525 0.000000 -0.019458
# 5 -0.005998 -0.000588 0.007601 0.000000 0.029520 0.000000
# 6 0.000000 0.000000 0.000000 -0.019458 0.000000 0.057018
#
#
# Mechanical properties :
#
#
# Convention : Reuss Voigt Hill
#
# Bulk Modulus (GPa) = 15.46702 70.10771 42.78736
# Shear Modulus (GPa) = 15.23673 27.78942 21.51307
#
# Velocity S-wave (km/s) = 2.87218 3.87887 3.41285
# Velocity P-wave (km/s) = 4.40151 7.61698 6.22060
#
# Compressibility (1/GPa) = 0.06465371
#
# Stress axis : x y z
#
# Youngs Moduli (GPa) = 82.80808 14.04449 69.83891
#
# Poissons Ratio (x) = 0.07309 0.63866
# Poissons Ratio (y) = 0.43095 0.14824
# Poissons Ratio (z) = 0.75726 0.02981
#
# Static dielectric constant tensor:
#      x y z
#    x 3.620990 0.000000 -0.205050 
#    y 0.000000 2.766680 0.000000 
#    z -0.205050 0.000000 3.699490 
# 
# 
# High freq. dielectric constant tensor:
#      x y z
#    x 1.728740 0.000000 -0.002200 
#    y 0.000000 1.647920 0.000000 
#    z -0.002200 0.000000 1.729200 
# 
# From -- ./inp_files/249211.got.cif
#   From: 2010.06.25/outbox.cif.g09.slc.cpg/sg12_125_cif.got.tgz:249211.got - 2010.06.28 00:19:55.
