data_PCOD8087055
_publ_section_title
;
Structure prediction by ZEFSAII (Michael W. Deem and Ramdas Pophale) SiO2 
 PCOD8087055
Probable space group: C 2/M
;
_chemical_formula_sum "Si O2"
_cell_formula_units_Z 64
_cell_length_a 11.234788
_cell_length_b 13.969862
_cell_length_c 22.415371
_cell_angle_alpha 90.000000
_cell_angle_beta 103.415824
_cell_angle_gamma 90.000000
_cell_volume 3422.056138
_symmetry_space_group_name_H-M "C 2/M"
_symmetry_group_IT_number 12
_symmetry_cell_setting 'monoclinic'
loop_
_space_group_symop_operation_xyz
x,y,z
-x,y,-z
-x,-y,-z
x,-y,z
1/2+x,1/2+y,z
1/2-x,1/2+y,-z
1/2-x,1/2-y,-z
1/2+x,1/2-y,z
loop_
_atom_site_type_symbol
_atom_site_label
_atom_site_fract_x
_atom_site_fract_y
_atom_site_fract_z
Si Si1 0.197335 0.608556 0.879047
Si Si2 0.100520 0.389800 0.335212
Si Si3 0.890961 0.706135 0.246783
Si Si4 0.520793 0.390380 0.254810
Si Si5 0.061613 0.609814 0.566994
Si Si6 0.391336 0.764115 0.035805
Si Si7 0.965363 0.892628 0.880731
Si Si8 0.764940 0.204621 0.658124
O O1 0.165560 0.500000 0.858651
O O2 0.165203 0.677590 0.821784
O O3 0.116239 0.638551 0.926536
O O4 0.343441 0.621277 0.906987
O O5 0.140880 0.500000 0.329244
O O6 0.216607 0.318437 0.349775
O O7 0.017342 0.352339 0.270800
O O8 0.032131 0.377672 0.389846
O O9 0.803489 0.677419 0.289632
O O10 0.904128 0.821348 0.247511
O O11 0.483254 0.500000 0.262319
O O12 0.571336 0.375942 0.193050
O O13 0.610795 0.355542 0.318377
O O14 0.098467 0.500000 0.561912
O O15 0.187065 0.667247 0.592988
O O16 0.000000 0.651587 0.500000
O O17 0.428517 0.676617 0.083346
O O18 0.500000 0.777920 0.000000
O O19 0.250000 0.750000 0.000000
O O20 0.016612 0.000000 0.894672
#
# Coordination Sequence:
#
# PCOD8087055 Si02
#       8
#     8   8   8   8   8   8   8   8
#     4  11  22  38  61  85 113 149 189 234 286 344
#     4   9  19  33  50  77 110 145 180 223 279 329
#     4  10  19  33  54  80 112 140 179 223 277 332
#     4  10  19  32  54  83 109 135 178 228 276 330
#     4   9  18  33  52  75 105 143 188 231 272 324
#     4  12  25  42  63  86 118 152 193 241 287 346
#     4  10  21  38  62  86 110 149 190 231 287 347
#     4  10  19  31  53  79 108 144 180 227 274 332
#
# _framework density 18.702206
#
# number of rings (size 3 to 8) (size 9 to 14) (size 15 to 20)
#    0.000    1.875    3.750    0.750    0.000    3.000 
#    0.000    0.000    0.000    2.625    0.000    0.000 
#    0.000    0.000    0.000    0.000    0.000    0.000 
#
# Total GULP energy -396582.880495 kJ/mol
# GULP energy per Si atom -12393.215015 kJ/mol
# Density = 1.865964 g / cm^3
# Si number density = 18.702206 Si / 1000 Ang^3
#
#
#
# Elastic Constant Matrix: (Units=GPa)
#
#
# Indices 1 2 3 4 5 6 
#
# 1 55.9047 29.2393 29.7523 0.0000 16.7042 0.0000
# 2 29.2393 119.5856 45.9913 0.0000 25.0509 0.0000
# 3 29.7523 45.9913 81.9599 0.0000 18.9874 0.0000
# 4 0.0000 0.0000 0.0000 27.0964 0.0000 1.2286
# 5 16.7042 25.0509 18.9874 0.0000 25.0676 0.0000
# 6 0.0000 0.0000 0.0000 1.2286 0.0000 31.8154
#
#
#
# Elastic Compliance Matrix: (Units=1/GPa)
#
#
# Indices 1 2 3 4 5 6 
#
# 1 0.024964 -0.001702 -0.005636 0.000000 -0.010665 0.000000
# 2 -0.001702 0.012056 -0.004389 0.000000 -0.007589 0.000000
# 3 -0.005636 -0.004389 0.017979 0.000000 -0.005476 0.000000
# 4 0.000000 0.000000 0.000000 0.036970 0.000000 -0.001428
# 5 -0.010665 -0.007589 -0.005476 0.000000 0.058731 0.000000
# 6 0.000000 0.000000 0.000000 -0.001428 0.000000 0.031486
#
#
# Mechanical properties :
#
#
# Convention : Reuss Voigt Hill
#
# Bulk Modulus (GPa) = 31.70205 51.93512 41.81859
# Shear Modulus (GPa) = 23.13143 26.96038 25.04590
#
# Velocity S-wave (km/s) = 3.52067 3.80091 3.66347
# Velocity P-wave (km/s) = 5.78918 6.86239 6.34850
#
# Compressibility (1/GPa) = 0.03154370
#
# Stress axis : x y z
#
# Youngs Moduli (GPa) = 40.05748 82.94449 55.62143
#
# Poissons Ratio (x) = 0.14118 0.31351
# Poissons Ratio (y) = 0.06818 0.24413
# Poissons Ratio (z) = 0.22578 0.36406
#
# Static dielectric constant tensor:
#      x y z
#    x 3.321190 0.000000 0.042840 
#    y 0.000000 3.533420 0.000000 
#    z 0.042840 0.000000 3.491960 
# 
# 
# High freq. dielectric constant tensor:
#      x y z
#    x 1.706420 0.000000 0.006220 
#    y 0.000000 1.730240 0.000000 
#    z 0.006220 0.000000 1.722940 
# 
# From -- ./inp_files/335276.got.cif
#   From: 2010.06.25/outbox.cif.g09.slc.cpg/sg12_168_cif.got.tgz:335276.got - 2010.06.28 00:19:55.
