data_PCOD8087150
_publ_section_title
;
Structure prediction by ZEFSAII (Michael W. Deem and Ramdas Pophale) SiO2 
 PCOD8087150
Probable space group: C 2/M
;
_chemical_formula_sum "Si O2"
_cell_formula_units_Z 56
_cell_length_a 22.175740
_cell_length_b 9.004501
_cell_length_c 29.155281
_cell_angle_alpha 90.000000
_cell_angle_beta 151.169086
_cell_angle_gamma 90.000000
_cell_volume 2807.411021
_symmetry_space_group_name_H-M "C 2/M"
_symmetry_group_IT_number 12
_symmetry_cell_setting 'monoclinic'
loop_
_space_group_symop_operation_xyz
x,y,z
-x,y,-z
-x,-y,-z
x,-y,z
1/2+x,1/2+y,z
1/2-x,1/2+y,-z
1/2-x,1/2-y,-z
1/2+x,1/2-y,z
loop_
_atom_site_type_symbol
_atom_site_label
_atom_site_fract_x
_atom_site_fract_y
_atom_site_fract_z
Si Si1 0.722826 0.329975 0.861542
Si Si2 0.738858 0.173534 0.378254
Si Si3 0.142474 0.672880 0.957140
Si Si4 0.466456 0.671074 0.591143
Si Si5 0.247542 0.670911 0.221560
Si Si6 0.382065 0.675354 0.784297
Si Si7 0.969462 0.674099 0.687426
O O1 0.677040 0.500000 0.829552
O O2 0.777425 0.286615 0.848158
O O3 0.601881 0.234056 0.793770
O O4 0.830255 0.304839 0.970645
O O5 0.875139 0.215285 0.488790
O O6 0.721271 0.268862 0.320636
O O7 0.635543 0.221105 0.346415
O O8 0.729349 0.000000 0.359444
O O9 0.135284 0.500000 0.939074
O O10 0.012818 0.749593 0.858174
O O11 0.250000 0.750000 0.000000
O O12 0.447456 0.500000 0.591896
O O13 0.607966 0.701852 0.669561
O O14 0.431164 0.762677 0.612639
O O15 0.211537 0.500000 0.207491
O O16 0.159962 0.776721 0.193025
O O17 0.397103 0.500000 0.792153
O O18 0.980148 0.500000 0.689611
#
# Coordination Sequence:
#
# PCOD8087150 Si02
#       7
#     8   8   8   8   8   8   8
#     4   9  20  38  61  84 110 149 190 228 277 336
#     4  10  21  37  56  81 113 153 195 235 282 337
#     4  11  23  41  64  90 118 148 185 229 278 336
#     4   9  19  36  59  83 111 150 193 233 281 340
#     4   9  19  39  61  81 108 146 191 235 279 334
#     4  12  26  40  56  82 115 151 189 235 286 336
#     4  10  19  31  54  87 119 147 181 230 284 334
#
# _framework density 19.947205
#
# number of rings (size 3 to 8) (size 9 to 14) (size 15 to 20)
#    0.000    2.000    0.000    4.286    0.000    8.571 
#    0.000    5.714    0.000    0.000    0.000    0.000 
#    0.000    0.000    0.000    0.000    0.000    0.000 
#
# Total GULP energy -347323.337935 kJ/mol
# GULP energy per Si atom -12404.404926 kJ/mol
# Density = 1.990180 g / cm^3
# Si number density = 19.947205 Si / 1000 Ang^3
#
#
#
# Elastic Constant Matrix: (Units=GPa)
#
#
# Indices 1 2 3 4 5 6 
#
# 1 81.7583 40.6286 20.9509 0.0004 -1.6303 -0.0002
# 2 40.6286 91.5672 27.3936 0.0003 -1.8334 -0.0017
# 3 20.9509 27.3936 75.2907 0.0000 -14.9675 -0.0001
# 4 0.0004 0.0003 0.0000 28.6704 0.0001 0.1353
# 5 -1.6303 -1.8334 -14.9675 0.0001 26.0962 0.0000
# 6 -0.0002 -0.0017 -0.0001 0.1353 0.0000 35.2540
#
#
#
# Elastic Compliance Matrix: (Units=1/GPa)
#
#
# Indices 1 2 3 4 5 6 
#
# 1 0.015993 -0.006436 -0.002257 0.000000 -0.000748 0.000000
# 2 -0.006436 0.014930 -0.003965 0.000000 -0.001627 0.000001
# 3 -0.002257 -0.003965 0.017234 0.000000 0.009465 0.000000
# 4 0.000000 0.000000 0.000000 0.034880 0.000000 -0.000134
# 5 -0.000748 -0.001627 0.009465 0.000000 0.043587 0.000000
# 6 0.000000 0.000001 0.000000 -0.000134 0.000000 0.028366
#
#
# Mechanical properties :
#
#
# Convention : Reuss Voigt Hill
#
# Bulk Modulus (GPa) = 43.78020 47.39583 45.58802
# Shear Modulus (GPa) = 26.60710 28.64699 27.62705
#
# Velocity S-wave (km/s) = 3.65619 3.79376 3.72561
# Velocity P-wave (km/s) = 6.31025 6.55762 6.43512
#
# Compressibility (1/GPa) = 0.02284138
#
# Stress axis : x y z
#
# Youngs Moduli (GPa) = 62.52785 66.97909 58.02440
#
# Poissons Ratio (x) = 0.43106 0.13098
# Poissons Ratio (y) = 0.40241 0.23005
# Poissons Ratio (z) = 0.14115 0.26555
#
# Static dielectric constant tensor:
#      x y z
#    x 3.599190 0.000000 -0.158850 
#    y 0.000000 3.554370 0.000000 
#    z -0.158850 0.000000 3.838600 
# 
# 
# High freq. dielectric constant tensor:
#      x y z
#    x 1.777910 0.000000 -0.007390 
#    y 0.000000 1.772110 0.000000 
#    z -0.007390 0.000000 1.784240 
# 
# From -- ./inp_files/380561.got.cif
#   From: 2010.06.25/outbox.cif.g09.slc.cpg/sg12_191_cif.got.tgz:380561.got - 2010.06.28 00:19:55.
