data_PCOD8087164
_publ_section_title
;
Structure prediction by ZEFSAII (Michael W. Deem and Ramdas Pophale) SiO2 
 PCOD8087164
Probable space group: C 2/M
;
_chemical_formula_sum "Si O2"
_cell_formula_units_Z 56
_cell_length_a 19.548639
_cell_length_b 7.852820
_cell_length_c 29.056411
_cell_angle_alpha 90.000000
_cell_angle_beta 141.628108
_cell_angle_gamma 90.000000
_cell_volume 2768.918245
_symmetry_space_group_name_H-M "C 2/M"
_symmetry_group_IT_number 12
_symmetry_cell_setting 'monoclinic'
loop_
_space_group_symop_operation_xyz
x,y,z
-x,y,-z
-x,-y,-z
x,-y,z
1/2+x,1/2+y,z
1/2-x,1/2+y,-z
1/2-x,1/2-y,-z
1/2+x,1/2-y,z
loop_
_atom_site_type_symbol
_atom_site_label
_atom_site_fract_x
_atom_site_fract_y
_atom_site_fract_z
Si Si1 0.167107 0.804706 0.859586
Si Si2 0.458380 0.802416 0.118875
Si Si3 0.932881 0.500000 0.529053
Si Si4 0.673971 0.194623 0.286840
Si Si5 0.826563 0.500000 0.381757
Si Si6 0.415556 0.202816 0.994157
Si Si7 0.125712 0.808566 0.440647
Si Si8 0.466503 0.191108 0.698335
O O1 0.291190 0.734172 0.918572
O O2 0.126343 0.787794 0.890856
O O3 0.090193 0.705607 0.783060
O O4 0.162476 0.000000 0.842899
O O5 0.584728 0.773207 0.199957
O O6 0.427130 0.000000 0.104227
O O7 0.447516 0.727455 0.061686
O O8 0.829258 0.500000 0.438993
O O9 0.932131 0.674508 0.556904
O O10 0.048394 0.500000 0.565737
O O11 0.771328 0.329712 0.332012
O O12 0.618031 0.234723 0.305890
O O13 0.718852 0.000000 0.308263
O O14 0.421580 0.000000 0.997671
O O15 0.500000 0.275563 0.000000
O O16 0.250000 0.750000 0.500000
O O17 0.059624 0.815090 0.357606
O O18 0.122155 0.000000 0.459591
O O19 0.448688 0.000000 0.671008
#
# Coordination Sequence:
#
# PCOD8087164 Si02
#       8
#     8   8   4   8   4   8   8   8
#     4  10  19  31  55  86 111 151 200 249 300 354
#     4   9  18  34  56  83 112 149 199 247 300 355
#     4  11  26  44  58  96 121 165 203 238 313 363
#     4   9  20  36  62  92 116 159 202 250 304 353
#     4  11  24  42  66  82 128 163 201 249 290 372
#     4   9  18  34  53  78 114 153 194 245 304 365
#     4  12  23  40  65  93 125 157 200 254 306 360
#     4  10  20  37  60  89 123 152 198 252 306 359
#
# _framework density 20.224506000000002
#
# number of rings (size 3 to 8) (size 9 to 14) (size 15 to 20)
#    0.000    2.000    1.429    3.000    5.000    2.286 
#    2.571    2.143    0.000    3.857    0.000    0.000 
#    0.000    0.000    0.000    0.000    0.000    0.000 
#
# Total GULP energy -347151.045642 kJ/mol
# GULP energy per Si atom -12398.251630 kJ/mol
# Density = 2.017847 g / cm^3
# Si number density = 20.224506 Si / 1000 Ang^3
#
#
#
# Elastic Constant Matrix: (Units=GPa)
#
#
# Indices 1 2 3 4 5 6 
#
# 1 83.4404 22.3307 56.9595 0.0000 4.0893 -0.0009
# 2 22.3307 96.7456 30.9023 -0.0008 4.7863 -0.0002
# 3 56.9595 30.9023 117.1399 0.0000 1.3157 -0.0005
# 4 0.0000 -0.0008 0.0000 25.5995 0.0000 2.0775
# 5 4.0893 4.7863 1.3157 0.0000 29.9742 0.0003
# 6 -0.0009 -0.0002 -0.0005 2.0775 0.0003 23.6105
#
#
#
# Elastic Compliance Matrix: (Units=1/GPa)
#
#
# Indices 1 2 3 4 5 6 
#
# 1 0.018241 -0.001409 -0.008477 0.000000 -0.001891 0.000001
# 2 -0.001409 0.011481 -0.002326 0.000000 -0.001539 0.000000
# 3 -0.008477 -0.002326 0.013262 0.000000 0.000946 0.000000
# 4 0.000000 0.000000 0.000000 0.039344 0.000000 -0.003462
# 5 -0.001891 -0.001539 0.000946 0.000000 0.033824 0.000000
# 6 0.000001 0.000000 0.000000 -0.003462 0.000000 0.042659
#
#
# Mechanical properties :
#
#
# Convention : Reuss Voigt Hill
#
# Bulk Modulus (GPa) = 53.88150 57.52343 55.70247
# Shear Modulus (GPa) = 26.39620 28.31240 27.35430
#
# Velocity S-wave (km/s) = 3.61662 3.74559 3.68167
# Velocity P-wave (km/s) = 6.64375 6.87096 6.75831
#
# Compressibility (1/GPa) = 0.01855924
#
# Stress axis : x y z
#
# Youngs Moduli (GPa) = 54.82174 87.10182 75.40543
#
# Poissons Ratio (x) = 0.12274 0.63919
# Poissons Ratio (y) = 0.07725 0.17541
# Poissons Ratio (z) = 0.46471 0.20262
#
# Static dielectric constant tensor:
#      x y z
#    x 3.586580 0.000000 -0.150040 
#    y 0.000000 4.038920 0.000000 
#    z -0.150040 0.000000 3.923880 
# 
# 
# High freq. dielectric constant tensor:
#      x y z
#    x 1.763910 0.000000 -0.002930 
#    y 0.000000 1.786390 0.000000 
#    z -0.002930 0.000000 1.803460 
# 
# From -- ./inp_files/363258.got.cif
#   From: 2010.06.25/outbox.cif.g09.slc.cpg/sg12_182_cif.got.tgz:363258.got - 2010.06.28 00:19:55.
