data_PCOD8087577
_publ_section_title
;
Structure prediction by ZEFSAII (Michael W. Deem and Ramdas Pophale) SiO2 
 PCOD8087577
Probable space group: C 2/M
;
_chemical_formula_sum "Si O2"
_cell_formula_units_Z 48
_cell_length_a 22.666755
_cell_length_b 8.983822
_cell_length_c 19.901403
_cell_angle_alpha 90.000000
_cell_angle_beta 43.311955
_cell_angle_gamma 90.000000
_cell_volume 2779.965631
_symmetry_space_group_name_H-M "C 2/M"
_symmetry_group_IT_number 12
_symmetry_cell_setting 'monoclinic'
loop_
_space_group_symop_operation_xyz
x,y,z
-x,y,-z
-x,-y,-z
x,-y,z
1/2+x,1/2+y,z
1/2-x,1/2+y,-z
1/2-x,1/2-y,-z
1/2+x,1/2-y,z
loop_
_atom_site_type_symbol
_atom_site_label
_atom_site_fract_x
_atom_site_fract_y
_atom_site_fract_z
Si Si1 0.942338 0.667985 0.981798
Si Si2 0.415917 0.675184 0.209903
Si Si3 0.306447 0.672915 0.172945
Si Si4 0.659834 0.325779 0.587413
Si Si5 0.113851 0.323801 0.364114
Si Si6 0.948686 0.823980 0.452555
O O1 0.925914 0.500000 0.972658
O O2 0.991240 0.751535 0.881001
O O3 0.850395 0.742143 0.074195
O O4 0.000000 0.679851 0.000000
O O5 0.430279 0.500000 0.199750
O O6 0.346971 0.722942 0.210512
O O7 0.380817 0.735412 0.309869
O O8 0.323508 0.500000 0.147357
O O9 0.206091 0.712400 0.255898
O O10 0.677095 0.500000 0.578237
O O11 0.750000 0.250000 0.500000
O O12 0.594113 0.285971 0.582732
O O13 0.098378 0.500000 0.383931
O O14 0.108908 0.249775 0.441599
O O15 0.042970 0.250233 0.374402
O O16 0.956212 0.000000 0.459079
#
# Coordination Sequence:
#
# PCOD8087577 Si02
#       6
#     8   8   8   8   8   8
#     4   9  17  28  44  69  97 122 151 190 236 281
#     4   9  17  31  48  67  95 127 156 189 232 281
#     4   9  17  29  48  71  93 121 157 194 233 278
#     4  10  21  34  50  72  98 129 161 194 234 283
#     4  10  19  32  51  72  94 125 164 200 234 279
#     4  10  20  33  48  70  99 128 158 195 242 283
#
# _framework density 17.266400000000001
#
# number of rings (size 3 to 8) (size 9 to 14) (size 15 to 20)
#    0.000    2.500    0.000    3.500    0.000    6.667 
#    0.000    3.333    0.000    1.000    0.000    0.000 
#    0.000    0.000    0.000    0.000    0.000    0.000 
#
# Total GULP energy -297609.122479 kJ/mol
# GULP energy per Si atom -12400.380103 kJ/mol
# Density = 1.722710 g / cm^3
# Si number density = 17.266400 Si / 1000 Ang^3
#
#
#
# Elastic Constant Matrix: (Units=GPa)
#
#
# Indices 1 2 3 4 5 6 
#
# 1 80.7837 42.1952 67.0067 0.0002 -1.5584 -0.0001
# 2 42.1952 78.4184 65.3526 0.0006 -7.1661 -0.0003
# 3 67.0067 65.3526 173.8993 0.0001 -10.6432 -0.0001
# 4 0.0002 0.0006 0.0001 30.3481 -0.0001 -4.3250
# 5 -1.5584 -7.1661 -10.6432 -0.0001 25.8031 0.0001
# 6 -0.0001 -0.0003 -0.0001 -4.3250 0.0001 20.6956
#
#
#
# Elastic Compliance Matrix: (Units=1/GPa)
#
#
# Indices 1 2 3 4 5 6 
#
# 1 0.020372 -0.006605 -0.005544 0.000000 -0.002891 0.000000
# 2 -0.006605 0.020847 -0.005088 0.000000 0.003292 0.000000
# 3 -0.005544 -0.005088 0.009943 0.000000 0.002353 0.000000
# 4 0.000000 0.000000 0.000000 0.033962 0.000000 0.007098
# 5 -0.002891 0.003292 0.002353 0.000000 0.040466 0.000000
# 6 0.000000 0.000000 0.000000 0.007098 0.000000 0.049803
#
#
# Mechanical properties :
#
#
# Convention : Reuss Voigt Hill
#
# Bulk Modulus (GPa) = 59.92684 75.80115 67.86399
# Shear Modulus (GPa) = 23.20938 25.93914 24.57426
#
# Velocity S-wave (km/s) = 3.67030 3.88014 3.77668
# Velocity P-wave (km/s) = 7.26251 8.00439 7.64246
#
# Compressibility (1/GPa) = 0.01668701
#
# Stress axis : x y z
#
# Youngs Moduli (GPa) = 49.08745 47.96780 100.57456
#
# Poissons Ratio (x) = 0.31684 0.55761
# Poissons Ratio (y) = 0.32424 0.51172
# Poissons Ratio (z) = 0.27215 0.24406
#
# Static dielectric constant tensor:
#      x y z
#    x 3.098340 0.000000 -0.046580 
#    y 0.000000 3.273720 0.000000 
#    z -0.046580 0.000000 3.345890 
# 
# 
# High freq. dielectric constant tensor:
#      x y z
#    x 1.636590 0.000000 -0.009830 
#    y 0.000000 1.672540 0.000000 
#    z -0.009830 0.000000 1.674630 
# 
# From -- ./inp_files/323517.got.cif
#   From: 2010.06.25/outbox.cif.g09.slc.cpg/sg12_162_cif.got.tgz:323517.got - 2010.06.28 00:19:55.
