data_PCOD8087929
_publ_section_title
;
Structure prediction by ZEFSAII (Michael W. Deem and Ramdas Pophale) SiO2 
 PCOD8087929
Probable space group: C 2/M
;
_chemical_formula_sum "Si O2"
_cell_formula_units_Z 64
_cell_length_a 18.533232
_cell_length_b 9.165323
_cell_length_c 22.598939
_cell_angle_alpha 90.000000
_cell_angle_beta 64.910722
_cell_angle_gamma 90.000000
_cell_volume 3476.534141
_symmetry_space_group_name_H-M "C 2/M"
_symmetry_group_IT_number 12
_symmetry_cell_setting 'monoclinic'
loop_
_space_group_symop_operation_xyz
x,y,z
-x,y,-z
-x,-y,-z
x,-y,z
1/2+x,1/2+y,z
1/2-x,1/2+y,-z
1/2-x,1/2-y,-z
1/2+x,1/2-y,z
loop_
_atom_site_type_symbol
_atom_site_label
_atom_site_fract_x
_atom_site_fract_y
_atom_site_fract_z
Si Si1 0.361773 0.168593 0.136846
Si Si2 0.643598 0.330542 0.381701
Si Si3 0.015969 0.169772 0.629782
Si Si4 0.041145 0.332258 0.116093
Si Si5 0.409720 0.664662 0.009959
Si Si6 0.564582 0.169901 0.240576
Si Si7 0.774752 0.671027 0.748209
Si Si8 0.670904 0.671774 0.506937
O O1 0.448638 0.187056 0.134224
O O2 0.356178 0.244425 0.074554
O O3 0.302832 0.247825 0.201887
O O4 0.338111 0.000000 0.137818
O O5 0.664489 0.500000 0.364382
O O6 0.553790 0.295764 0.392715
O O7 0.705624 0.233215 0.323355
O O8 0.650919 0.283919 0.446963
O O9 0.098344 0.226064 0.573194
O O10 0.001498 0.251161 0.696578
O O11 0.020044 0.000000 0.642792
O O12 0.067364 0.500000 0.100431
O O13 0.057699 0.272547 0.176052
O O14 0.095582 0.238800 0.052546
O O15 0.376545 0.500000 0.017764
O O16 0.500000 0.666380 0.000000
O O17 0.652851 0.205946 0.232647
O O18 0.544955 0.000000 0.250668
O O19 0.757272 0.500000 0.749428
O O20 0.682865 0.500000 0.508552
O O21 0.750000 0.750000 0.500000
#
# Coordination Sequence:
#
# PCOD8087929 Si02
#       8
#     8   8   8   8   8   8   8   8
#     4  10  19  32  52  75 100 133 170 205 246 298
#     4   9  18  35  56  73  95 132 173 206 242 295
#     4   9  18  34  55  75  96 129 172 209 242 290
#     4   9  18  33  52  73  98 130 168 206 246 297
#     4   9  17  30  49  74 102 130 164 207 252 295
#     4   9  19  35  53  74 101 132 165 205 252 297
#     4  10  20  34  52  75 103 131 164 208 252 294
#     4  10  21  35  52  77 106 133 163 205 253 296
#
# _framework density 18.409140000000001
#
# number of rings (size 3 to 8) (size 9 to 14) (size 15 to 20)
#    0.000    2.625    0.000    1.500    0.000    6.500 
#    0.000    4.375    0.000    3.750    0.000    0.000 
#    0.000    0.000    0.000    0.000    0.000    0.000 
#
# Total GULP energy -396877.812913 kJ/mol
# GULP energy per Si atom -12402.431654 kJ/mol
# Density = 1.836724 g / cm^3
# Si number density = 18.409140 Si / 1000 Ang^3
#
#
#
# Elastic Constant Matrix: (Units=GPa)
#
#
# Indices 1 2 3 4 5 6 
#
# 1 29.4324 13.8875 7.7756 0.0000 5.3423 0.0004
# 2 13.8875 72.4571 29.3242 0.0000 -1.7722 0.0009
# 3 7.7756 29.3242 64.7691 0.0001 9.8751 0.0000
# 4 0.0000 0.0000 0.0001 38.0850 0.0000 -1.4880
# 5 5.3423 -1.7722 9.8751 0.0000 34.6731 0.0000
# 6 0.0004 0.0009 0.0000 -1.4880 0.0000 25.4809
#
#
#
# Elastic Compliance Matrix: (Units=1/GPa)
#
#
# Indices 1 2 3 4 5 6 
#
# 1 0.038707 -0.007440 -0.000325 0.000000 -0.006251 0.000000
# 2 -0.007440 0.018670 -0.008238 0.000000 0.004447 -0.000001
# 3 -0.000325 -0.008238 0.020139 0.000000 -0.006107 0.000000
# 4 0.000000 0.000000 0.000000 0.026317 0.000000 0.001537
# 5 -0.006251 0.004447 -0.006107 0.000000 0.031771 0.000000
# 6 0.000000 -0.000001 0.000000 0.001537 0.000000 0.039335
#
#
# Mechanical properties :
#
#
# Convention : Reuss Voigt Hill
#
# Bulk Modulus (GPa) = 21.97293 29.84812 25.91053
# Shear Modulus (GPa) = 22.51090 27.35922 24.93506
#
# Velocity S-wave (km/s) = 3.50067 3.85928 3.68434
# Velocity P-wave (km/s) = 5.31990 6.00896 5.67490
#
# Compressibility (1/GPa) = 0.04551054
#
# Stress axis : x y z
#
# Youngs Moduli (GPa) = 25.83492 53.56226 49.65459
#
# Poissons Ratio (x) = 0.39851 0.01615
# Poissons Ratio (y) = 0.19222 0.40903
# Poissons Ratio (z) = 0.00840 0.44122
#
# Static dielectric constant tensor:
#      x y z
#    x 3.209840 0.000000 0.041800 
#    y 0.000000 3.429790 0.000000 
#    z 0.041800 0.000000 3.564430 
# 
# 
# High freq. dielectric constant tensor:
#      x y z
#    x 1.692560 0.000000 0.001300 
#    y 0.000000 1.714570 0.000000 
#    z 0.001300 0.000000 1.727030 
# 
# From -- ./inp_files/319899.got.cif
#   From: 2010.06.25/outbox.cif.g09.slc.cpg/sg12_160_cif.got.tgz:319899.got - 2010.06.28 00:19:55.
