data_PCOD8087323
_publ_section_title
;
Structure prediction by ZEFSAII (Michael W. Deem and Ramdas Pophale) SiO2 
 PCOD8087323
Probable space group: C 2/M
;
_chemical_formula_sum "Si O2"
_cell_formula_units_Z 64
_cell_length_a 23.887483
_cell_length_b 9.485707
_cell_length_c 30.803112
_cell_angle_alpha 90.000000
_cell_angle_beta 150.034097
_cell_angle_gamma 90.000000
_cell_volume 3486.235640
_symmetry_space_group_name_H-M "C 2/M"
_symmetry_group_IT_number 12
_symmetry_cell_setting 'monoclinic'
loop_
_space_group_symop_operation_xyz
x,y,z
-x,y,-z
-x,-y,-z
x,-y,z
1/2+x,1/2+y,z
1/2-x,1/2+y,-z
1/2-x,1/2-y,-z
1/2+x,1/2-y,z
loop_
_atom_site_type_symbol
_atom_site_label
_atom_site_fract_x
_atom_site_fract_y
_atom_site_fract_z
Si Si1 0.769365 0.840153 0.632173
Si Si2 0.350238 0.164286 0.767242
Si Si3 0.804672 0.664259 0.100181
Si Si4 0.836502 0.838566 0.291811
Si Si5 0.103767 0.662816 0.932516
Si Si6 0.013488 0.338900 0.460686
Si Si7 0.840657 0.837687 0.587069
Si Si8 0.594120 0.661091 0.755059
O O1 0.796705 0.741264 0.690522
O O2 0.640946 0.823201 0.531350
O O3 0.841310 0.796549 0.638519
O O4 0.794926 0.000000 0.663981
O O5 0.280692 0.203095 0.763928
O O6 0.478404 0.210522 0.860572
O O7 0.345048 0.000000 0.752826
O O8 0.784134 0.500000 0.095476
O O9 0.877887 0.688859 0.106254
O O10 0.871536 0.730947 0.184775
O O11 0.685048 0.740238 0.015517
O O12 0.826126 0.814470 0.233126
O O13 0.938023 0.746642 0.377138
O O14 0.866583 0.000000 0.322229
O O15 0.126732 0.500000 0.959978
O O16 0.971820 0.500000 0.431827
O O17 0.000000 0.276962 0.500000
O O18 0.750000 0.750000 0.500000
O O19 0.966126 0.808331 0.654392
O O20 0.806063 0.000000 0.558178
O O21 0.604749 0.500000 0.779335
#
# Coordination Sequence:
#
# PCOD8087323 Si02
#       8
#     8   8   8   8   8   8   8   8
#     4  10  20  33  50  74 103 135 172 215 263 310
#     4  10  20  34  53  78 103 132 171 213 257 304
#     4  10  20  35  58  85 105 131 171 209 254 313
#     4  10  21  35  52  75 103 138 180 217 252 302
#     4   9  19  36  57  81 109 133 161 210 264 310
#     4  10  19  32  49  71 102 139 175 213 261 307
#     4  10  21  35  52  75 104 138 175 214 258 305
#     4  10  21  37  54  75 107 143 175 211 258 308
#
# _framework density 18.357908999999999
#
# number of rings (size 3 to 8) (size 9 to 14) (size 15 to 20)
#    0.000    2.125    1.250    1.875    0.000    3.250 
#    0.000    0.625    0.000    3.750    0.000    0.000 
#    0.000    0.000    0.000    0.000    0.000    0.000 
#
# Total GULP energy -396873.468069 kJ/mol
# GULP energy per Si atom -12402.295877 kJ/mol
# Density = 1.831613 g / cm^3
# Si number density = 18.357909 Si / 1000 Ang^3
#
#
#
# Elastic Constant Matrix: (Units=GPa)
#
#
# Indices 1 2 3 4 5 6 
#
# 1 102.7833 37.9356 43.8150 0.0003 11.4059 0.0000
# 2 37.9356 76.2722 56.0111 0.0001 -3.8051 -0.0002
# 3 43.8150 56.0111 95.9674 0.0006 2.7802 0.0002
# 4 0.0003 0.0001 0.0006 36.6394 0.0001 -5.0292
# 5 11.4059 -3.8051 2.7802 0.0001 25.6831 0.0001
# 6 0.0000 -0.0002 0.0002 -5.0292 0.0001 23.7798
#
#
#
# Elastic Compliance Matrix: (Units=1/GPa)
#
#
# Indices 1 2 3 4 5 6 
#
# 1 0.013550 -0.004634 -0.003298 0.000000 -0.006347 0.000000
# 2 -0.004634 0.025153 -0.012772 0.000000 0.007167 0.000000
# 3 -0.003298 -0.012772 0.019454 0.000000 -0.002534 0.000000
# 4 0.000000 0.000000 0.000000 0.028109 0.000000 0.005945
# 5 -0.006347 0.007167 -0.002534 0.000000 0.043091 0.000000
# 6 0.000000 0.000000 0.000000 0.005945 0.000000 0.043310
#
#
# Mechanical properties :
#
#
# Convention : Reuss Voigt Hill
#
# Bulk Modulus (GPa) = 59.70856 61.17180 60.44018
# Shear Modulus (GPa) = 22.76280 26.37120 24.56700
#
# Velocity S-wave (km/s) = 3.52511 3.79423 3.66214
# Velocity P-wave (km/s) = 7.01169 7.25183 7.13277
#
# Compressibility (1/GPa) = 0.01674802
#
# Stress axis : x y z
#
# Youngs Moduli (GPa) = 73.80243 39.75703 51.40432
#
# Poissons Ratio (x) = 0.18424 0.16951
# Poissons Ratio (y) = 0.34202 0.65654
# Poissons Ratio (z) = 0.24337 0.50778
#
# Static dielectric constant tensor:
#      x y z
#    x 3.610480 0.000000 0.203940 
#    y 0.000000 3.377740 0.000000 
#    z 0.203940 0.000000 3.167780 
# 
# 
# High freq. dielectric constant tensor:
#      x y z
#    x 1.719830 0.000000 0.009560 
#    y 0.000000 1.710320 0.000000 
#    z 0.009560 0.000000 1.697830 
# 
# From -- ./inp_files/382408.got.cif
#   From: 2010.06.25/outbox.cif.g09.slc.cpg/sg12_192_cif.got.tgz:382408.got - 2010.06.28 00:19:55.
