data_PCOD8087815
_publ_section_title
;
Structure prediction by ZEFSAII (Michael W. Deem and Ramdas Pophale) SiO2 
 PCOD8087815
Probable space group: C 2/M
;
_chemical_formula_sum "Si O2"
_cell_formula_units_Z 64
_cell_length_a 31.030999
_cell_length_b 9.146078
_cell_length_c 15.981224
_cell_angle_alpha 90.000000
_cell_angle_beta 45.746181
_cell_angle_gamma 90.000000
_cell_volume 3248.692644
_symmetry_space_group_name_H-M "C 2/M"
_symmetry_group_IT_number 12
_symmetry_cell_setting 'monoclinic'
loop_
_space_group_symop_operation_xyz
x,y,z
-x,y,-z
-x,-y,-z
x,-y,z
1/2+x,1/2+y,z
1/2-x,1/2+y,-z
1/2-x,1/2-y,-z
1/2+x,1/2-y,z
loop_
_atom_site_type_symbol
_atom_site_label
_atom_site_fract_x
_atom_site_fract_y
_atom_site_fract_z
Si Si1 0.949502 0.331718 0.163108
Si Si2 0.392021 0.834352 0.406912
Si Si3 0.919872 0.672392 0.023114
Si Si4 0.219547 0.325954 0.120937
Si Si5 0.094993 0.827503 0.320885
Si Si6 0.257494 0.828922 0.579240
Si Si7 0.199066 0.172537 0.831130
Si Si8 0.530702 0.329558 0.574112
O O1 0.959077 0.500000 0.128066
O O2 0.897787 0.303853 0.300399
O O3 0.925611 0.262700 0.109745
O O4 0.015985 0.280300 0.105170
O O5 0.324311 0.798045 0.523895
O O6 0.441313 0.731784 0.380242
O O7 0.409094 0.000000 0.406526
O O8 0.906218 0.500000 0.035095
O O9 0.864074 0.755360 0.056121
O O10 0.219729 0.500000 0.107381
O O11 0.151673 0.268240 0.217945
O O12 0.252887 0.282530 0.162540
O O13 0.250000 0.250000 0.000000
O O14 0.069861 0.769112 0.443580
O O15 0.040214 0.792528 0.331373
O O16 0.111478 0.000000 0.298526
O O17 0.250000 0.750000 0.500000
O O18 0.217248 0.772367 0.712167
O O19 0.247388 0.000000 0.575635
O O20 0.191744 0.000000 0.839471
O O21 0.539173 0.500000 0.559455
#
# Coordination Sequence:
#
# PCOD8087815 Si02
#       8
#     8   8   8   8   8   8   8   8
#     4   8  16  31  51  76 104 133 171 222 267 306
#     4  10  19  32  51  77 108 138 174 221 270 321
#     4   9  17  33  56  76  98 136 182 219 258 313
#     4  11  24  41  60  82 111 148 188 232 280 330
#     4   9  19  38  59  79 107 140 177 223 275 330
#     4  10  21  36  55  81 113 147 182 222 269 322
#     4  10  22  38  54  78 113 145 176 222 274 320
#     4   9  19  35  56  81 108 139 174 220 277 330
#
# _framework density 19.700233000000001
#
# number of rings (size 3 to 8) (size 9 to 14) (size 15 to 20)
#    0.000    2.500    0.000    3.375    0.000    6.000 
#    0.000    6.250    0.000    0.000    0.000    0.000 
#    0.000    0.000    0.000    0.000    0.000    0.000 
#
# Total GULP energy -396513.420103 kJ/mol
# GULP energy per Si atom -12391.044378 kJ/mol
# Density = 1.965539 g / cm^3
# Si number density = 19.700233 Si / 1000 Ang^3
#
#
#
# Elastic Constant Matrix: (Units=GPa)
#
#
# Indices 1 2 3 4 5 6 
#
# 1 83.8218 28.3192 27.2100 -0.0001 -4.2772 0.0001
# 2 28.3192 29.9892 34.3003 -0.0001 -3.1620 0.0006
# 3 27.2100 34.3003 90.5175 0.0000 -13.9480 0.0000
# 4 -0.0001 -0.0001 0.0000 28.5254 0.0001 -4.3158
# 5 -4.2772 -3.1620 -13.9480 0.0001 28.3131 -0.0002
# 6 0.0001 0.0006 0.0000 -4.3158 -0.0002 34.1820
#
#
#
# Elastic Compliance Matrix: (Units=1/GPa)
#
#
# Indices 1 2 3 4 5 6 
#
# 1 0.017748 -0.019010 0.002115 0.000000 0.001600 0.000000
# 2 -0.019010 0.079817 -0.025539 0.000000 -0.006539 -0.000001
# 3 0.002115 -0.025539 0.021317 0.000000 0.007969 0.000000
# 4 0.000000 0.000000 0.000000 0.035739 0.000000 0.004512
# 5 0.001600 -0.006539 0.007969 0.000000 0.038757 0.000000
# 6 0.000000 -0.000001 0.000000 0.004512 0.000000 0.029825
#
#
# Mechanical properties :
#
#
# Convention : Reuss Voigt Hill
#
# Bulk Modulus (GPa) = 29.39865 42.66528 36.03196
# Shear Modulus (GPa) = 15.65396 25.83734 20.74565
#
# Velocity S-wave (km/s) = 2.82194 3.62543 3.24862
# Velocity P-wave (km/s) = 5.05699 6.26332 5.69220
#
# Compressibility (1/GPa) = 0.03401517
#
# Stress axis : x y z
#
# Youngs Moduli (GPa) = 56.34585 12.52864 46.91013
#
# Poissons Ratio (x) = 0.23816 -0.09921
# Poissons Ratio (y) = 1.07111 1.19803
# Poissons Ratio (z) = -0.11917 0.31997
#
# Static dielectric constant tensor:
#      x y z
#    x 3.641440 0.000000 -0.039690 
#    y 0.000000 3.318990 0.000000 
#    z -0.039690 0.000000 3.671940 
# 
# 
# High freq. dielectric constant tensor:
#      x y z
#    x 1.768610 0.000000 -0.009810 
#    y 0.000000 1.741890 0.000000 
#    z -0.009810 0.000000 1.777790 
# 
# From -- ./inp_files/295462.got.cif
#   From: 2010.06.25/outbox.cif.g09.slc.cpg/sg12_148_cif.got.tgz:295462.got - 2010.06.28 00:19:55.
