data_PCOD8087893
_publ_section_title
;
Structure prediction by ZEFSAII (Michael W. Deem and Ramdas Pophale) SiO2 
 PCOD8087893
Probable space group: C 2/M
;
_chemical_formula_sum "Si O2"
_cell_formula_units_Z 64
_cell_length_a 25.127904
_cell_length_b 9.065964
_cell_length_c 19.331225
_cell_angle_alpha 90.000000
_cell_angle_beta 117.964267
_cell_angle_gamma 90.000000
_cell_volume 3889.631539
_symmetry_space_group_name_H-M "C 2/M"
_symmetry_group_IT_number 12
_symmetry_cell_setting 'monoclinic'
loop_
_space_group_symop_operation_xyz
x,y,z
-x,y,-z
-x,-y,-z
x,-y,z
1/2+x,1/2+y,z
1/2-x,1/2+y,-z
1/2-x,1/2-y,-z
1/2+x,1/2-y,z
loop_
_atom_site_type_symbol
_atom_site_label
_atom_site_fract_x
_atom_site_fract_y
_atom_site_fract_z
Si Si1 0.581998 0.328649 0.417215
Si Si2 0.192583 0.672577 0.997950
Si Si3 0.140385 0.328168 0.828385
Si Si4 0.296296 0.671669 0.578082
Si Si5 0.731335 0.328984 0.144832
Si Si6 0.958670 0.324448 0.335569
Si Si7 0.615697 0.672857 0.594435
Si Si8 0.759253 0.329166 0.312453
O O1 0.564838 0.500000 0.399600
O O2 0.635571 0.282168 0.397986
O O3 0.525673 0.230142 0.361115
O O4 0.603163 0.291097 0.507250
O O5 0.204661 0.500000 0.012951
O O6 0.181712 0.742260 0.067631
O O7 0.250000 0.750000 0.000000
O O8 0.137732 0.702699 0.909975
O O9 0.140917 0.500000 0.813162
O O10 0.202251 0.265406 0.833291
O O11 0.082674 0.263180 0.753049
O O12 0.287423 0.500000 0.559085
O O13 0.250000 0.750000 0.500000
O O14 0.282955 0.715461 0.649157
O O15 0.725725 0.500000 0.121920
O O16 0.719975 0.300777 0.219206
O O17 0.958223 0.500000 0.341665
O O18 0.935210 0.255559 0.392695
O O19 0.612078 0.500000 0.608039
O O20 0.681492 0.730420 0.654004
O O21 0.779619 0.500000 0.328654
#
# Coordination Sequence:
#
# PCOD8087893 Si02
#       8
#     8   8   8   8   8   8   8   8
#     4  10  22  37  48  68 100 129 160 207 253 284
#     4   9  16  27  43  65  94 127 156 188 235 289
#     4   8  15  28  44  64  94 124 152 193 235 273
#     4  10  20  35  54  72  95 127 164 205 250 291
#     4   9  16  29  45  67  98 124 154 198 237 281
#     4  11  21  34  51  71  95 130 170 201 234 293
#     4  11  21  33  49  70 100 131 159 203 251 286
#     4  10  19  32  52  73  96 130 167 200 240 291
#
# _framework density 16.454000000000001
#
# number of rings (size 3 to 8) (size 9 to 14) (size 15 to 20)
#    0.000    2.250    2.500    2.250    0.000    3.500 
#    0.000    1.875    0.000    0.000    0.000    0.875 
#    0.000    7.000    0.000    0.000    0.000    0.000 
#
# Total GULP energy -396659.531553 kJ/mol
# GULP energy per Si atom -12395.610361 kJ/mol
# Density = 1.641655 g / cm^3
# Si number density = 16.454000 Si / 1000 Ang^3
#
#
#
# Elastic Constant Matrix: (Units=GPa)
#
#
# Indices 1 2 3 4 5 6 
#
# 1 78.8509 29.0276 38.8618 0.0000 -14.5372 0.0000
# 2 29.0276 58.6254 41.4034 0.0000 -3.0043 0.0000
# 3 38.8618 41.4034 121.5629 0.0000 -13.2239 0.0000
# 4 0.0000 0.0000 0.0000 26.3350 0.0000 2.8555
# 5 -14.5372 -3.0043 -13.2239 0.0000 14.7441 0.0000
# 6 0.0000 0.0000 0.0000 2.8555 0.0000 21.4471
#
#
#
# Elastic Compliance Matrix: (Units=1/GPa)
#
#
# Indices 1 2 3 4 5 6 
#
# 1 0.019246 -0.007356 -0.001935 0.000000 0.015742 0.000000
# 2 -0.007356 0.025357 -0.007216 0.000000 -0.008558 0.000000
# 3 -0.001935 -0.007216 0.012117 0.000000 0.007490 0.000000
# 4 0.000000 0.000000 0.000000 0.038528 0.000000 -0.005130
# 5 0.015742 -0.008558 0.007490 0.000000 0.088319 0.000000
# 6 0.000000 0.000000 0.000000 -0.005130 0.000000 0.047309
#
#
# Mechanical properties :
#
#
# Convention : Reuss Voigt Hill
#
# Bulk Modulus (GPa) = 42.18200 53.06939 47.62570
# Shear Modulus (GPa) = 18.39635 22.48833 20.44234
#
# Velocity S-wave (km/s) = 3.34735 3.70095 3.52858
# Velocity P-wave (km/s) = 6.37429 7.11238 6.75343
#
# Compressibility (1/GPa) = 0.02370680
#
# Stress axis : x y z
#
# Youngs Moduli (GPa) = 51.95874 39.43632 82.52806
#
# Poissons Ratio (x) = 0.29011 0.15967
# Poissons Ratio (y) = 0.38223 0.59550
# Poissons Ratio (z) = 0.10052 0.28456
#
# Static dielectric constant tensor:
#      x y z
#    x 2.939170 0.000000 -0.039370 
#    y 0.000000 3.115860 0.000000 
#    z -0.039370 0.000000 3.604870 
# 
# 
# High freq. dielectric constant tensor:
#      x y z
#    x 1.591810 0.000000 -0.001270 
#    y 0.000000 1.630160 0.000000 
#    z -0.001270 0.000000 1.645800 
# 
# From -- ./inp_files/287768.got.cif
#   From: 2010.06.25/outbox.cif.g09.slc.cpg/sg12_144_cif.got.tgz:287768.got - 2010.06.28 00:19:55.
