data_PCOD8087078
_publ_section_title
;
Structure prediction by ZEFSAII (Michael W. Deem and Ramdas Pophale) SiO2 
 PCOD8087078
Probable space group: C 2/M
;
_chemical_formula_sum "Si O2"
_cell_formula_units_Z 48
_cell_length_a 20.546260
_cell_length_b 9.303726
_cell_length_c 14.905850
_cell_angle_alpha 90.000000
_cell_angle_beta 69.170454
_cell_angle_gamma 90.000000
_cell_volume 2663.127331
_symmetry_space_group_name_H-M "C 2/M"
_symmetry_group_IT_number 12
_symmetry_cell_setting 'monoclinic'
loop_
_space_group_symop_operation_xyz
x,y,z
-x,y,-z
-x,-y,-z
x,-y,z
1/2+x,1/2+y,z
1/2-x,1/2+y,-z
1/2-x,1/2-y,-z
1/2+x,1/2-y,z
loop_
_atom_site_type_symbol
_atom_site_label
_atom_site_fract_x
_atom_site_fract_y
_atom_site_fract_z
Si Si1 0.316041 0.333874 0.786238
Si Si2 0.654931 0.333250 0.615768
Si Si3 0.934612 0.668423 0.211710
Si Si4 0.211041 0.163685 0.399518
Si Si5 0.404874 0.831577 0.880631
Si Si6 0.839174 0.329493 0.096336
O O1 0.323307 0.500000 0.809437
O O2 0.329020 0.310062 0.673967
O O3 0.374591 0.244881 0.808201
O O4 0.239488 0.275755 0.850524
O O5 0.650025 0.500000 0.642891
O O6 0.587548 0.251625 0.687062
O O7 0.724067 0.270125 0.627376
O O8 0.657436 0.308538 0.507161
O O9 0.923101 0.500000 0.233391
O O10 0.888067 0.728062 0.152370
O O11 0.014023 0.704484 0.150469
O O12 0.240113 0.000000 0.388820
O O13 0.391725 0.000000 0.876363
O O14 0.366973 0.769936 0.987867
O O15 0.843610 0.500000 0.094965
#
# Coordination Sequence:
#
# PCOD8087078 Si02
#       6
#     8   8   8   8   8   8
#     4  10  19  34  55  76 104 139 169 208 261 314
#     4  10  19  31  53  82 105 128 169 221 259 297
#     4  10  19  35  55  75 105 141 174 210 256 310
#     4   9  18  34  54  77 104 136 171 207 257 313
#     4  10  21  34  52  78 106 137 175 217 255 299
#     4   9  17  33  56  77  98 136 182 213 249 306
#
# _framework density 18.023921999999999
#
# number of rings (size 3 to 8) (size 9 to 14) (size 15 to 20)
#    0.000    2.333    1.667    1.500    0.000    4.000 
#    0.000    1.667    0.000    7.000    0.000    0.000 
#    0.000    0.000    0.000    0.000    0.000    0.000 
#
# Total GULP energy -297635.502701 kJ/mol
# GULP energy per Si atom -12401.479279 kJ/mol
# Density = 1.798290 g / cm^3
# Si number density = 18.023922 Si / 1000 Ang^3
#
#
#
# Elastic Constant Matrix: (Units=GPa)
#
#
# Indices 1 2 3 4 5 6 
#
# 1 74.2961 32.0072 28.1916 0.0000 14.5982 0.0000
# 2 32.0072 51.4661 37.9143 0.0000 2.3304 0.0000
# 3 28.1916 37.9143 110.7882 0.0000 10.8218 0.0000
# 4 0.0000 0.0000 0.0000 28.3843 0.0000 -0.0268
# 5 14.5982 2.3304 10.8218 0.0000 20.0191 0.0000
# 6 0.0000 0.0000 0.0000 -0.0268 0.0000 28.8028
#
#
#
# Elastic Compliance Matrix: (Units=1/GPa)
#
#
# Indices 1 2 3 4 5 6 
#
# 1 0.021890 -0.013238 0.000389 0.000000 -0.014632 0.000000
# 2 -0.013238 0.034053 -0.009334 0.000000 0.010735 0.000000
# 3 0.000389 -0.009334 0.012714 0.000000 -0.006070 0.000000
# 4 0.000000 0.000000 0.000000 0.035231 0.000000 0.000033
# 5 -0.014632 0.010735 -0.006070 0.000000 0.062654 0.000000
# 6 0.000000 0.000000 0.000000 0.000033 0.000000 0.034719
#
#
# Mechanical properties :
#
#
# Convention : Reuss Voigt Hill
#
# Bulk Modulus (GPa) = 41.16456 48.08629 44.62542
# Shear Modulus (GPa) = 19.70661 24.67041 22.18851
#
# Velocity S-wave (km/s) = 3.31018 3.70369 3.51245
# Velocity P-wave (km/s) = 6.12358 6.71020 6.42359
#
# Compressibility (1/GPa) = 0.02429274
#
# Stress axis : x y z
#
# Youngs Moduli (GPa) = 45.68348 29.36616 78.65144
#
# Poissons Ratio (x) = 0.38874 -0.03062
# Poissons Ratio (y) = 0.60474 0.73411
# Poissons Ratio (z) = -0.01779 0.27409
#
# Static dielectric constant tensor:
#      x y z
#    x 3.118950 0.000000 -0.013720 
#    y 0.000000 3.141080 0.000000 
#    z -0.013720 0.000000 3.635050 
# 
# 
# High freq. dielectric constant tensor:
#      x y z
#    x 1.678820 0.000000 0.000090 
#    y 0.000000 1.678020 0.000000 
#    z 0.000090 0.000000 1.714300 
# 
# From -- ./inp_files/229850.got.cif
#   From: 2010.06.25/outbox.cif.g09.slc.cpg/sg12_115_cif.got.tgz:229850.got - 2010.06.28 00:19:55.
