data_PCOD8087536
_publ_section_title
;
Structure prediction by ZEFSAII (Michael W. Deem and Ramdas Pophale) SiO2 
 PCOD8087536
Probable space group: C 2/M
;
_chemical_formula_sum "Si O2"
_cell_formula_units_Z 56
_cell_length_a 18.980855
_cell_length_b 8.901401
_cell_length_c 28.167859
_cell_angle_alpha 90.000000
_cell_angle_beta 39.243182
_cell_angle_gamma 90.000000
_cell_volume 3010.691160
_symmetry_space_group_name_H-M "C 2/M"
_symmetry_group_IT_number 12
_symmetry_cell_setting 'monoclinic'
loop_
_space_group_symop_operation_xyz
x,y,z
-x,y,-z
-x,-y,-z
x,-y,z
1/2+x,1/2+y,z
1/2-x,1/2+y,-z
1/2-x,1/2-y,-z
1/2+x,1/2-y,z
loop_
_atom_site_type_symbol
_atom_site_label
_atom_site_fract_x
_atom_site_fract_y
_atom_site_fract_z
Si Si1 0.806609 0.175015 0.899164
Si Si2 0.858710 0.173369 0.189540
Si Si3 0.895791 0.173653 0.955658
Si Si4 0.866285 0.176868 0.702975
Si Si5 0.537497 0.176881 0.258127
Si Si6 0.400986 0.174116 0.585534
Si Si7 0.154129 0.171269 0.694545
O O1 0.869251 0.215752 0.915151
O O2 0.865336 0.263129 0.826418
O O3 0.811833 0.000000 0.884568
O O4 0.677930 0.226859 0.970206
O O5 0.760757 0.274463 0.219084
O O6 0.876521 0.210532 0.235438
O O7 0.974209 0.207858 0.102100
O O8 0.823053 0.000000 0.202385
O O9 0.867472 0.000000 0.979583
O O10 0.949401 0.252525 0.696808
O O11 0.903658 0.227523 0.631372
O O12 0.875885 0.000000 0.702301
O O13 0.415154 0.220078 0.303286
O O14 0.547454 0.000000 0.256535
O O15 0.500000 0.228935 0.500000
O O16 0.285377 0.198246 0.617603
O O17 0.414254 0.000000 0.593183
O O18 0.119783 0.000000 0.701160
#
# Coordination Sequence:
#
# PCOD8087536 Si02
#       7
#     8   8   8   8   8   8   8
#     4  10  19  32  50  76 109 143 181 230 280 321
#     4   9  17  34  56  78 108 144 184 227 273 327
#     4   9  17  31  51  77 107 142 182 226 276 326
#     4  11  23  37  56  82 113 145 181 226 274 321
#     4  12  23  36  54  78 110 148 189 227 272 327
#     4   9  19  39  65  89 114 144 176 213 263 324
#     4   9  17  33  57  84 111 141 178 222 268 316
#
# _framework density 18.600380000000001
#
# number of rings (size 3 to 8) (size 9 to 14) (size 15 to 20)
#    0.000    2.143    1.429    3.857    0.000    3.714 
#    0.000    1.429    0.000    4.286    0.000    0.000 
#    0.000    0.000    0.000    0.000    0.000    0.000 
#
# Total GULP energy -347257.442782 kJ/mol
# GULP energy per Si atom -12402.051528 kJ/mol
# Density = 1.855804 g / cm^3
# Si number density = 18.600380 Si / 1000 Ang^3
#
#
#
# Elastic Constant Matrix: (Units=GPa)
#
#
# Indices 1 2 3 4 5 6 
#
# 1 89.1002 54.2475 39.6830 0.0000 -4.4472 -0.0002
# 2 54.2475 116.5861 37.2408 0.0000 -0.2606 -0.0002
# 3 39.6830 37.2408 90.5393 0.0001 -17.6228 -0.0001
# 4 0.0000 0.0000 0.0001 27.8627 0.0000 -1.7576
# 5 -4.4472 -0.2606 -17.6228 0.0000 19.2317 0.0000
# 6 -0.0002 -0.0002 -0.0001 -1.7576 0.0000 31.1522
#
#
#
# Elastic Compliance Matrix: (Units=1/GPa)
#
#
# Indices 1 2 3 4 5 6 
#
# 1 0.017399 -0.006464 -0.005113 0.000000 -0.000749 0.000000
# 2 -0.006464 0.012587 -0.003167 0.000000 -0.004226 0.000000
# 3 -0.005113 -0.003167 0.017465 0.000000 0.014779 0.000000
# 4 0.000000 0.000000 0.000000 0.036018 0.000000 0.002032
# 5 -0.000749 -0.004226 0.014779 0.000000 0.065309 0.000000
# 6 0.000000 0.000000 0.000000 0.002032 0.000000 0.032215
#
#
# Mechanical properties :
#
#
# Convention : Reuss Voigt Hill
#
# Bulk Modulus (GPa) = 55.66849 62.06314 58.86581
# Shear Modulus (GPa) = 23.09805 26.65295 24.87550
#
# Velocity S-wave (km/s) = 3.52775 3.78951 3.66097
# Velocity P-wave (km/s) = 6.82547 7.25163 7.04177
#
# Compressibility (1/GPa) = 0.01796348
#
# Stress axis : x y z
#
# Youngs Moduli (GPa) = 57.47597 79.44580 57.25761
#
# Poissons Ratio (x) = 0.51354 0.29274
# Poissons Ratio (y) = 0.37153 0.18132
# Poissons Ratio (z) = 0.29386 0.25159
#
# Static dielectric constant tensor:
#      x y z
#    x 3.348600 0.000000 -0.226940 
#    y 0.000000 3.345560 0.000000 
#    z -0.226940 0.000000 3.489730 
# 
# 
# High freq. dielectric constant tensor:
#      x y z
#    x 1.707900 0.000000 -0.014930 
#    y 0.000000 1.719480 0.000000 
#    z -0.014930 0.000000 1.714400 
# 
# From -- ./inp_files/342614.got.cif
#   From: 2010.06.25/outbox.cif.g09.slc.cpg/sg12_172_cif.got.tgz:342614.got - 2010.06.28 00:19:55.
