data_PCOD8087071
_publ_section_title
;
Structure prediction by ZEFSAII (Michael W. Deem and Ramdas Pophale) SiO2 
 PCOD8087071
Probable space group: C 2/M
;
_chemical_formula_sum "Si O2"
_cell_formula_units_Z 64
_cell_length_a 24.199579
_cell_length_b 9.016517
_cell_length_c 20.489143
_cell_angle_alpha 90.000000
_cell_angle_beta 127.941420
_cell_angle_gamma 90.000000
_cell_volume 3525.730414
_symmetry_space_group_name_H-M "C 2/M"
_symmetry_group_IT_number 12
_symmetry_cell_setting 'monoclinic'
loop_
_space_group_symop_operation_xyz
x,y,z
-x,y,-z
-x,-y,-z
x,-y,z
1/2+x,1/2+y,z
1/2-x,1/2+y,-z
1/2-x,1/2-y,-z
1/2+x,1/2-y,z
loop_
_atom_site_type_symbol
_atom_site_label
_atom_site_fract_x
_atom_site_fract_y
_atom_site_fract_z
Si Si1 0.682487 0.326563 0.370085
Si Si2 0.818638 0.174022 0.127993
Si Si3 0.320759 0.329033 0.482428
Si Si4 0.451212 0.825961 0.772622
Si Si5 0.460677 0.172671 0.038053
Si Si6 0.952074 0.324946 0.276531
Si Si7 0.675692 0.673736 0.018819
Si Si8 0.526046 0.670770 0.446992
O O1 0.680643 0.500000 0.356803
O O2 0.667111 0.281903 0.433740
O O3 0.758785 0.266124 0.404903
O O4 0.623654 0.253689 0.282112
O O5 0.877625 0.245195 0.216202
O O6 0.744851 0.244762 0.095090
O O7 0.815150 0.000000 0.138395
O O8 0.836274 0.212009 0.065807
O O9 0.298593 0.500000 0.462298
O O10 0.391316 0.294875 0.494302
O O11 0.489667 0.777924 0.866650
O O12 0.497553 0.771297 0.745281
O O13 0.437826 0.000000 0.759704
O O14 0.441041 0.000000 0.029551
O O15 0.500000 0.209943 0.000000
O O16 0.389668 0.266589 0.987596
O O17 0.940321 0.500000 0.265724
O O18 0.985544 0.278655 0.369103
O O19 0.684755 0.500000 0.037077
O O20 0.500000 0.706623 0.500000
O O21 0.511939 0.500000 0.416681
#
# Coordination Sequence:
#
# PCOD8087071 Si02
#       8
#     8   8   8   8   8   8   8   8
#     4  10  19  31  53  81 107 137 175 222 270 317
#     4  10  20  34  56  83 112 145 184 229 277 333
#     4   9  18  33  52  77 108 139 175 219 265 317
#     4  10  20  34  54  81 110 141 180 226 271 320
#     4  10  21  38  58  80 111 151 189 224 271 335
#     4  11  21  34  56  84 113 142 181 232 277 322
#     4  10  20  34  55  83 114 145 181 231 283 328
#     4  10  21  38  58  80 110 148 185 221 270 332
#
# _framework density 18.152267999999999
#
# number of rings (size 3 to 8) (size 9 to 14) (size 15 to 20)
#    0.000    2.000    2.500    1.500    0.000    3.500 
#    0.000    1.250    0.000    3.000    0.000    0.000 
#    0.000    0.000    0.000    0.000    0.000    0.000 
#
# Total GULP energy -396969.625776 kJ/mol
# GULP energy per Si atom -12405.300805 kJ/mol
# Density = 1.811095 g / cm^3
# Si number density = 18.152268 Si / 1000 Ang^3
#
#
#
# Elastic Constant Matrix: (Units=GPa)
#
#
# Indices 1 2 3 4 5 6 
#
# 1 118.8938 47.9982 63.5501 0.0000 14.3540 0.0000
# 2 47.9982 74.1588 48.6672 0.0000 13.6732 0.0000
# 3 63.5501 48.6672 106.0034 0.0000 18.0183 0.0000
# 4 0.0000 0.0000 0.0000 32.6304 0.0000 7.2479
# 5 14.3540 13.6732 18.0183 0.0000 30.5102 0.0000
# 6 0.0000 0.0000 0.0000 7.2479 0.0000 28.5211
#
#
#
# Elastic Compliance Matrix: (Units=1/GPa)
#
#
# Indices 1 2 3 4 5 6 
#
# 1 0.013538 -0.004834 -0.005761 0.000000 -0.000801 0.000000
# 2 -0.004834 0.021430 -0.006330 0.000000 -0.003591 0.000000
# 3 -0.005761 -0.006330 0.016508 0.000000 -0.004202 0.000000
# 4 0.000000 0.000000 0.000000 0.032480 0.000000 -0.008254
# 5 -0.000801 -0.003591 -0.004202 0.000000 0.037243 0.000000
# 6 0.000000 0.000000 0.000000 -0.008254 0.000000 0.037159
#
#
# Mechanical properties :
#
#
# Convention : Reuss Voigt Hill
#
# Bulk Modulus (GPa) = 56.73560 68.83186 62.78373
# Shear Modulus (GPa) = 25.24188 27.58840 26.41514
#
# Velocity S-wave (km/s) = 3.73307 3.90273 3.81884
# Velocity P-wave (km/s) = 7.06430 7.63609 7.35575
#
# Compressibility (1/GPa) = 0.01762562
#
# Stress axis : x y z
#
# Youngs Moduli (GPa) = 73.86392 46.66419 60.57778
#
# Poissons Ratio (x) = 0.22559 0.34898
# Poissons Ratio (y) = 0.35708 0.38345
# Poissons Ratio (z) = 0.42552 0.29538
#
# Static dielectric constant tensor:
#      x y z
#    x 3.278520 0.000000 0.157870 
#    y 0.000000 3.301490 0.000000 
#    z 0.157870 0.000000 3.236670 
# 
# 
# High freq. dielectric constant tensor:
#      x y z
#    x 1.694280 0.000000 0.022020 
#    y 0.000000 1.707130 0.000000 
#    z 0.022020 0.000000 1.695970 
# 
# From -- ./inp_files/324259.got.cif
#   From: 2010.06.25/outbox.cif.g09.slc.cpg/sg12_163_cif.got.tgz:324259.got - 2010.06.28 00:19:55.
