data_PCOD8087908
_publ_section_title
;
Structure prediction by ZEFSAII (Michael W. Deem and Ramdas Pophale) SiO2 
 PCOD8087908
Probable space group: C 2/M
;
_chemical_formula_sum "Si O2"
_cell_formula_units_Z 56
_cell_length_a 20.452646
_cell_length_b 9.217037
_cell_length_c 16.881481
_cell_angle_alpha 90.000000
_cell_angle_beta 90.308764
_cell_angle_gamma 90.000000
_cell_volume 3182.328957
_symmetry_space_group_name_H-M "C 2/M"
_symmetry_group_IT_number 12
_symmetry_cell_setting 'monoclinic'
loop_
_space_group_symop_operation_xyz
x,y,z
-x,y,-z
-x,-y,-z
x,-y,z
1/2+x,1/2+y,z
1/2-x,1/2+y,-z
1/2-x,1/2-y,-z
1/2+x,1/2-y,z
loop_
_atom_site_type_symbol
_atom_site_label
_atom_site_fract_x
_atom_site_fract_y
_atom_site_fract_z
Si Si1 0.992266 0.327871 0.409399
Si Si2 0.670088 0.171912 0.154799
Si Si3 0.757652 0.334243 0.580338
Si Si4 0.181674 0.832110 0.832375
Si Si5 0.379629 0.171935 0.678694
Si Si6 0.875516 0.833786 0.326397
Si Si7 0.318414 0.669701 0.994345
O O1 0.987164 0.500000 0.405021
O O2 0.053476 0.268451 0.358763
O O3 0.000000 0.275606 0.500000
O O4 0.926959 0.263180 0.372729
O O5 0.744221 0.229651 0.169522
O O6 0.625893 0.218835 0.229332
O O7 0.641123 0.254428 0.076710
O O8 0.668323 0.000000 0.139073
O O9 0.772504 0.500000 0.558809
O O10 0.750000 0.250000 0.500000
O O11 0.818315 0.265606 0.629198
O O12 0.693523 0.318907 0.631827
O O13 0.134979 0.768685 0.762885
O O14 0.189594 0.000000 0.811190
O O15 0.148043 0.808580 0.918667
O O16 0.377019 0.000000 0.673829
O O17 0.900299 0.000000 0.326027
O O18 0.308349 0.500000 0.976361
O O19 0.250000 0.750000 0.000000
#
# Coordination Sequence:
#
# PCOD8087908 Si02
#       7
#     8   8   8   8   8   8   8
#     4  10  21  36  52  72  99 132 169 207 249 299
#     4   9  15  28  49  71  96 128 166 202 242 292
#     4  10  19  32  52  74  96 125 163 206 252 297
#     4   8  14  27  47  70  96 126 159 194 239 293
#     4   9  17  32  53  71  95 134 170 199 245 307
#     4  10  19  33  53  74  97 128 166 204 244 296
#     4   9  16  26  44  71 102 131 159 196 243 293
#
# _framework density 17.597176000000001
#
# number of rings (size 3 to 8) (size 9 to 14) (size 15 to 20)
#    0.000    2.714    1.429    2.143    0.000    2.000 
#    0.000    5.714    0.000    0.857    0.000    6.000 
#    0.000    0.000    0.000    0.000    0.000    0.000 
#
# Total GULP energy -346996.394919 kJ/mol
# GULP energy per Si atom -12392.728390 kJ/mol
# Density = 1.755712 g / cm^3
# Si number density = 17.597176 Si / 1000 Ang^3
#
#
#
# Elastic Constant Matrix: (Units=GPa)
#
#
# Indices 1 2 3 4 5 6 
#
# 1 44.1103 14.4644 23.9591 0.0000 0.4189 0.0000
# 2 14.4644 42.3655 41.7694 0.0000 -0.6761 0.0000
# 3 23.9591 41.7694 153.6665 0.0000 -5.9426 0.0000
# 4 0.0000 0.0000 0.0000 29.1002 0.0000 -0.6745
# 5 0.4189 -0.6761 -5.9426 0.0000 27.6709 0.0000
# 6 0.0000 0.0000 0.0000 -0.6745 0.0000 18.9199
#
#
#
# Elastic Compliance Matrix: (Units=1/GPa)
#
#
# Indices 1 2 3 4 5 6 
#
# 1 0.026116 -0.006665 -0.002301 0.000000 -0.001052 0.000000
# 2 -0.006665 0.033980 -0.008230 0.000000 -0.000836 0.000000
# 3 -0.002301 -0.008230 0.009173 0.000000 0.001804 0.000000
# 4 0.000000 0.000000 0.000000 0.034392 0.000000 0.001226
# 5 -0.001052 -0.000836 0.001804 0.000000 0.036522 0.000000
# 6 0.000000 0.000000 0.000000 0.001226 0.000000 0.052898
#
#
# Mechanical properties :
#
#
# Convention : Reuss Voigt Hill
#
# Bulk Modulus (GPa) = 28.67106 44.50314 36.58710
# Shear Modulus (GPa) = 20.91195 25.80149 23.35672
#
# Velocity S-wave (km/s) = 3.45101 3.83329 3.64716
# Velocity P-wave (km/s) = 5.67518 6.70351 6.21066
#
# Compressibility (1/GPa) = 0.03487838
#
# Stress axis : x y z
#
# Youngs Moduli (GPa) = 38.29120 29.42908 109.01459
#
# Poissons Ratio (x) = 0.19613 0.25084
# Poissons Ratio (y) = 0.25519 0.89715
# Poissons Ratio (z) = 0.08811 0.24219
#
# Static dielectric constant tensor:
#      x y z
#    x -0.049560 0.000000 7.572780 
#    y 0.000000 3.149990 0.000000 
#    z 7.572780 0.000000 -14.980740 
# 
# 
# High freq. dielectric constant tensor:
#      x y z
#    x 1.644790 0.000000 -0.007910 
#    y 0.000000 1.649220 0.000000 
#    z -0.007910 0.000000 1.705750 
# 
# From -- ./inp_files/280408.got.cif
#   From: 2010.06.25/outbox.cif.g09.slc.cpg/sg12_141_cif.got.tgz:280408.got - 2010.06.28 00:19:55.
