data_PCOD8087162
_publ_section_title
;
Structure prediction by ZEFSAII (Michael W. Deem and Ramdas Pophale) SiO2 
 PCOD8087162
Probable space group: C 2/M
;
_chemical_formula_sum "Si O2"
_cell_formula_units_Z 48
_cell_length_a 20.403108
_cell_length_b 9.411271
_cell_length_c 24.594140
_cell_angle_alpha 90.000000
_cell_angle_beta 145.726985
_cell_angle_gamma 90.000000
_cell_volume 2659.440293
_symmetry_space_group_name_H-M "C 2/M"
_symmetry_group_IT_number 12
_symmetry_cell_setting 'monoclinic'
loop_
_space_group_symop_operation_xyz
x,y,z
-x,y,-z
-x,-y,-z
x,-y,z
1/2+x,1/2+y,z
1/2-x,1/2+y,-z
1/2-x,1/2-y,-z
1/2+x,1/2-y,z
loop_
_atom_site_type_symbol
_atom_site_label
_atom_site_fract_x
_atom_site_fract_y
_atom_site_fract_z
Si Si1 0.707333 0.337914 0.393863
Si Si2 0.429528 0.164416 0.612341
Si Si3 0.854508 0.164490 0.096611
Si Si4 0.596131 0.336523 0.207111
Si Si5 0.355380 0.664789 0.222535
Si Si6 0.386944 0.166727 0.890111
O O1 0.666625 0.500000 0.378728
O O2 0.626315 0.233078 0.372342
O O3 0.842410 0.316136 0.501678
O O4 0.692349 0.306534 0.319661
O O5 0.549984 0.242580 0.679535
O O6 0.454256 0.000000 0.641504
O O7 0.869817 0.205844 0.169698
O O8 0.970711 0.205894 0.144469
O O9 0.823894 0.000000 0.069931
O O10 0.750000 0.250000 0.000000
O O11 0.598587 0.500000 0.190373
O O12 0.625754 0.240242 0.176465
O O13 0.380860 0.500000 0.251242
O O14 0.225980 0.706327 0.152203
O O15 0.398320 0.000000 0.887458
O O16 0.500000 0.223598 0.000000
#
# Coordination Sequence:
#
# PCOD8087162 Si02
#       6
#     8   8   8   8   8   8
#     4   9  18  35  55  79 113 146 176 218 277 326
#     4  10  19  31  55  86 110 139 181 226 267 320
#     4  10  20  34  54  78 104 138 178 224 274 320
#     4  10  20  36  57  79 107 143 179 222 274 323
#     4  10  20  37  56  76 110 148 177 219 278 328
#     4  10  22  39  58  78 106 147 187 224 270 323
#
# _framework density 18.048911
#
# number of rings (size 3 to 8) (size 9 to 14) (size 15 to 20)
#    0.000    2.167    1.667    1.500    0.000    5.000 
#    0.000    0.833    0.000    5.000    0.000    0.000 
#    0.000    0.000    0.000    0.000    0.000    0.000 
#
# Total GULP energy -297656.943367 kJ/mol
# GULP energy per Si atom -12402.372640 kJ/mol
# Density = 1.800783 g / cm^3
# Si number density = 18.048911 Si / 1000 Ang^3
#
#
#
# Elastic Constant Matrix: (Units=GPa)
#
#
# Indices 1 2 3 4 5 6 
#
# 1 62.5288 37.9177 28.0794 0.0000 1.4649 0.0000
# 2 37.9177 70.1448 59.3676 0.0000 3.1013 0.0000
# 3 28.0794 59.3676 123.5794 -0.0001 5.5035 0.0000
# 4 0.0000 0.0000 -0.0001 35.7569 0.0000 0.8483
# 5 1.4649 3.1013 5.5035 0.0000 29.2438 0.0000
# 6 0.0000 0.0000 0.0000 0.8483 0.0000 31.3082
#
#
#
# Elastic Compliance Matrix: (Units=1/GPa)
#
#
# Indices 1 2 3 4 5 6 
#
# 1 0.023916 -0.014036 0.001307 0.000000 0.000045 0.000000
# 2 -0.014036 0.032266 -0.012293 0.000000 -0.000405 0.000000
# 3 0.001307 -0.012293 0.013761 0.000000 -0.001351 0.000000
# 4 0.000000 0.000000 0.000000 0.027985 0.000000 -0.000758
# 5 0.000045 -0.000405 -0.001351 0.000000 0.034490 0.000000
# 6 0.000000 0.000000 0.000000 -0.000758 0.000000 0.031961
#
#
# Mechanical properties :
#
#
# Convention : Reuss Voigt Hill
#
# Bulk Modulus (GPa) = 50.25663 56.33136 53.29399
# Shear Modulus (GPa) = 22.61848 27.98767 25.30308
#
# Velocity S-wave (km/s) = 3.54386 3.94211 3.74828
# Velocity P-wave (km/s) = 6.68210 7.21100 6.95158
#
# Compressibility (1/GPa) = 0.01989787
#
# Stress axis : x y z
#
# Youngs Moduli (GPa) = 41.81225 30.99209 72.66939
#
# Poissons Ratio (x) = 0.43502 -0.09497
# Poissons Ratio (y) = 0.58689 0.89335
# Poissons Ratio (z) = -0.05464 0.38100
#
# Static dielectric constant tensor:
#      x y z
#    x 3.071440 0.000000 0.136330 
#    y 0.000000 3.332890 0.000000 
#    z 0.136330 0.000000 3.371520 
# 
# 
# High freq. dielectric constant tensor:
#      x y z
#    x 1.679170 0.000000 0.000910 
#    y 0.000000 1.697990 0.000000 
#    z 0.000910 0.000000 1.714610 
# 
# From -- ./inp_files/221646.got.cif
#   From: 2010.06.25/outbox.cif.g09.slc.cpg/sg12_111_cif.got.tgz:221646.got - 2010.06.28 00:19:55.
