data_PCOD8087395
_publ_section_title
;
Structure prediction by ZEFSAII (Michael W. Deem and Ramdas Pophale) SiO2 
 PCOD8087395
Probable space group: C 2/M
;
_chemical_formula_sum "Si O2"
_cell_formula_units_Z 64
_cell_length_a 26.693674
_cell_length_b 12.513029
_cell_length_c 25.884400
_cell_angle_alpha 90.000000
_cell_angle_beta 25.503829
_cell_angle_gamma 90.000000
_cell_volume 3722.666229
_symmetry_space_group_name_H-M "C 2/M"
_symmetry_group_IT_number 12
_symmetry_cell_setting 'monoclinic'
loop_
_space_group_symop_operation_xyz
x,y,z
-x,y,-z
-x,-y,-z
x,-y,z
1/2+x,1/2+y,z
1/2-x,1/2+y,-z
1/2-x,1/2-y,-z
1/2+x,1/2-y,z
loop_
_atom_site_type_symbol
_atom_site_label
_atom_site_fract_x
_atom_site_fract_y
_atom_site_fract_z
Si Si1 0.069888 0.243792 0.174274
Si Si2 0.150033 0.372927 0.459345
Si Si3 0.992860 0.883864 0.082703
Si Si4 0.376061 0.618250 0.301392
Si Si5 0.251367 0.626187 0.258199
Si Si6 0.731333 0.723438 0.862728
Si Si7 0.265983 0.126127 0.050440
Si Si8 0.563388 0.122052 0.278223
O O1 0.153587 0.151790 0.119835
O O2 0.035720 0.328004 0.249198
O O3 0.947121 0.193266 0.273431
O O4 0.127312 0.305238 0.072248
O O5 0.161476 0.500000 0.446457
O O6 0.248827 0.331562 0.407541
O O7 0.174430 0.332871 0.378229
O O8 0.024343 0.331833 0.595962
O O9 0.943673 0.891010 0.185264
O O10 0.888929 0.855042 0.140086
O O11 0.045238 0.000000 0.018614
O O12 0.094558 0.797670 0.987081
O O13 0.364964 0.500000 0.336591
O O14 0.226939 0.500000 0.268454
O O15 0.216820 0.705751 0.243177
O O16 0.751157 0.837935 0.873066
O O17 0.801862 0.639517 0.832767
O O18 0.291323 0.000000 0.025190
O O19 0.534709 0.000000 0.298046
#
# Coordination Sequence:
#
# PCOD8087395 Si02
#       8
#     8   8   8   8   8   8   8   8
#     4  10  19  32  50  71  88 128 165 188 236 282
#     4   8  17  32  46  69 101 126 151 194 240 273
#     4   9  16  27  45  72 100 120 152 196 232 276
#     4   9  16  29  49  70  95 126 157 191 232 277
#     4   9  17  29  48  73  99 126 155 192 236 279
#     4  11  19  29  47  71  94 128 158 182 237 291
#     4  10  21  34  46  69 102 124 152 198 239 284
#     4  10  20  31  45  69 101 127 156 194 232 283
#
# _framework density 17.191977999999999
#
# number of rings (size 3 to 8) (size 9 to 14) (size 15 to 20)
#    0.000    2.500    1.250    3.750    0.000    2.000 
#    0.000    1.875    0.000    1.500    0.000    8.750 
#    0.000    0.000    0.000    0.000    0.000    0.000 
#
# Total GULP energy -396496.566088 kJ/mol
# GULP energy per Si atom -12390.517690 kJ/mol
# Density = 1.715285 g / cm^3
# Si number density = 17.191978 Si / 1000 Ang^3
#
#
#
# Elastic Constant Matrix: (Units=GPa)
#
#
# Indices 1 2 3 4 5 6 
#
# 1 92.3143 33.5245 17.0736 -0.0001 10.3106 0.0000
# 2 33.5245 52.8892 20.8644 -0.0003 6.2766 -0.0001
# 3 17.0736 20.8644 55.8236 -0.0007 4.9335 0.0000
# 4 -0.0001 -0.0003 -0.0007 14.7314 0.0001 0.5031
# 5 10.3106 6.2766 4.9335 0.0001 14.2079 0.0001
# 6 0.0000 -0.0001 0.0000 0.5031 0.0001 18.3365
#
#
#
# Elastic Compliance Matrix: (Units=1/GPa)
#
#
# Indices 1 2 3 4 5 6 
#
# 1 0.014721 -0.008196 -0.000841 0.000000 -0.006770 0.000000
# 2 -0.008196 0.027465 -0.007440 0.000000 -0.003602 0.000000
# 3 -0.000841 -0.007440 0.021260 0.000001 -0.003485 0.000000
# 4 0.000000 0.000000 0.000001 0.067946 -0.000001 -0.001864
# 5 -0.006770 -0.003602 -0.003485 -0.000001 0.078098 0.000000
# 6 0.000000 0.000000 0.000000 -0.001864 0.000000 0.054587
#
#
# Mechanical properties :
#
#
# Convention : Reuss Voigt Hill
#
# Bulk Modulus (GPa) = 32.79579 38.21691 35.50635
# Shear Modulus (GPa) = 16.27643 18.09281 17.18462
#
# Velocity S-wave (km/s) = 3.08026 3.24759 3.16503
# Velocity P-wave (km/s) = 5.63634 6.02828 5.83560
#
# Compressibility (1/GPa) = 0.03049172
#
# Stress axis : x y z
#
# Youngs Moduli (GPa) = 67.93230 36.40993 47.03774
#
# Poissons Ratio (x) = 0.29841 0.03955
# Poissons Ratio (y) = 0.55675 0.34997
# Poissons Ratio (z) = 0.05711 0.27090
#
# Static dielectric constant tensor:
#      x y z
#    x 3.384640 0.000000 0.015730 
#    y 0.000000 3.033440 0.000000 
#    z 0.015730 0.000000 3.347070 
# 
# 
# High freq. dielectric constant tensor:
#      x y z
#    x 1.672790 0.000000 0.000430 
#    y 0.000000 1.608400 0.000000 
#    z 0.000430 0.000000 1.664180 
# 
# From -- ./inp_files/349362.got.cif
#   From: 2010.06.25/outbox.cif.g09.slc.cpg/sg12_175_cif.got.tgz:349362.got - 2010.06.28 00:19:55.
