data_PCOD8087419
_publ_section_title
;
Structure prediction by ZEFSAII (Michael W. Deem and Ramdas Pophale) SiO2 
 PCOD8087419
Probable space group: C 2/M
;
_chemical_formula_sum "Si O2"
_cell_formula_units_Z 64
_cell_length_a 10.665834
_cell_length_b 27.273785
_cell_length_c 12.153096
_cell_angle_alpha 90.000000
_cell_angle_beta 80.659610
_cell_angle_gamma 90.000000
_cell_volume 3488.434537
_symmetry_space_group_name_H-M "C 2/M"
_symmetry_group_IT_number 12
_symmetry_cell_setting 'monoclinic'
loop_
_space_group_symop_operation_xyz
x,y,z
-x,y,-z
-x,-y,-z
x,-y,z
1/2+x,1/2+y,z
1/2-x,1/2+y,-z
1/2-x,1/2-y,-z
1/2+x,1/2-y,z
loop_
_atom_site_type_symbol
_atom_site_label
_atom_site_fract_x
_atom_site_fract_y
_atom_site_fract_z
Si Si1 0.208577 0.942646 0.630641
Si Si2 0.291697 0.223242 0.385726
Si Si3 0.020730 0.787876 0.365811
Si Si4 0.808587 0.057232 0.899495
Si Si5 0.546508 0.395907 0.308863
Si Si6 0.286052 0.942000 0.859080
Si Si7 0.933954 0.556593 0.210416
Si Si8 0.296925 0.110127 0.411892
O O1 0.236511 0.922369 0.749368
O O2 0.296977 0.912319 0.534140
O O3 0.060798 0.932125 0.629374
O O4 0.238612 0.000000 0.612738
O O5 0.250000 0.250000 0.500000
O O6 0.169454 0.226521 0.320447
O O7 0.421277 0.249589 0.323894
O O8 0.324457 0.167677 0.411678
O O9 0.993772 0.840491 0.314911
O O10 0.000000 0.791757 0.500000
O O11 0.914304 0.088506 0.820399
O O12 0.670716 0.066667 0.866796
O O13 0.846431 0.000000 0.886892
O O14 0.800420 0.076753 0.026558
O O15 0.662914 0.402179 0.375028
O O16 0.431520 0.925341 0.856601
O O17 0.277732 0.000000 0.862468
O O18 0.938975 0.500000 0.243515
O O19 0.908739 0.585709 0.326336
#
# Coordination Sequence:
#
# PCOD8087419 Si02
#       8
#     8   8   8   8   8   8   8   8
#     4  11  21  31  45  70 108 144 165 197 248 300
#     4   9  17  32  49  71 101 128 166 210 252 304
#     4   9  17  32  51  72 103 128 164 212 258 307
#     4   9  17  31  53  73  94 132 177 213 241 287
#     4  10  19  32  50  72 100 131 169 209 250 293
#     4   9  19  33  46  68 103 137 171 210 248 282
#     4   9  17  32  51  72  99 133 171 205 245 295
#     4  10  20  33  49  73 104 131 169 204 245 303
#
# _framework density 18.346337999999999
#
# number of rings (size 3 to 8) (size 9 to 14) (size 15 to 20)
#    0.000    2.500    0.000    3.750    0.000    4.500 
#    9.000    3.750    0.000    0.000    0.000    0.875 
#   18.750    0.125    0.000    0.000    0.000    0.000 
#
# Total GULP energy -396659.696664 kJ/mol
# GULP energy per Si atom -12395.615521 kJ/mol
# Density = 1.830458 g / cm^3
# Si number density = 18.346338 Si / 1000 Ang^3
#
#
#
# Elastic Constant Matrix: (Units=GPa)
#
#
# Indices 1 2 3 4 5 6 
#
# 1 52.2203 34.1858 14.1147 0.0000 -5.1167 0.0000
# 2 34.1858 84.7158 41.4015 0.0000 -5.4281 0.0000
# 3 14.1147 41.4015 110.5762 0.0000 -9.1947 0.0000
# 4 0.0000 0.0000 0.0000 8.2068 0.0000 -3.9503
# 5 -5.1167 -5.4281 -9.1947 0.0000 19.3394 0.0000
# 6 0.0000 0.0000 0.0000 -3.9503 0.0000 28.9456
#
#
#
# Elastic Compliance Matrix: (Units=1/GPa)
#
#
# Indices 1 2 3 4 5 6 
#
# 1 0.026436 -0.010911 0.001080 0.000000 0.004446 0.000000
# 2 -0.010911 0.018996 -0.005743 0.000000 -0.000286 0.000000
# 3 0.001080 -0.005743 0.011396 0.000000 0.004092 0.000000
# 4 0.000000 0.000000 0.000000 0.130417 0.000000 0.017798
# 5 0.004446 -0.000286 0.004092 0.000000 0.054749 0.000000
# 6 0.000000 0.000000 0.000000 0.017798 0.000000 0.036977
#
#
# Mechanical properties :
#
#
# Convention : Reuss Voigt Hill
#
# Bulk Modulus (GPa) = 38.94051 47.43515 43.18783
# Shear Modulus (GPa) = 15.68978 21.81906 18.75442
#
# Velocity S-wave (km/s) = 2.92755 3.45234 3.20072
# Velocity P-wave (km/s) = 5.71828 6.46553 6.10335
#
# Compressibility (1/GPa) = 0.02568020
#
# Stress axis : x y z
#
# Youngs Moduli (GPa) = 37.82710 52.64352 87.74811
#
# Poissons Ratio (x) = 0.57440 -0.09481
# Poissons Ratio (y) = 0.41274 0.50396
# Poissons Ratio (z) = -0.04087 0.30235
#
# Static dielectric constant tensor:
#      x y z
#    x 3.779170 0.000000 -0.101850 
#    y 0.000000 3.199110 0.000000 
#    z -0.101850 0.000000 3.410690 
# 
# 
# High freq. dielectric constant tensor:
#      x y z
#    x 1.719120 0.000000 -0.009080 
#    y 0.000000 1.686350 0.000000 
#    z -0.009080 0.000000 1.687720 
# 
# From -- ./inp_files/135334.got.cif
#   From: 2010.06.25/outbox.cif.g09.slc.cpg/sg12_68_cif.got.tgz:135334.got - 2010.06.28 00:19:55.
