data_PCOD8087429
_publ_section_title
;
Structure prediction by ZEFSAII (Michael W. Deem and Ramdas Pophale) SiO2 
 PCOD8087429
Probable space group: C 2/M
;
_chemical_formula_sum "Si O2"
_cell_formula_units_Z 64
_cell_length_a 32.077209
_cell_length_b 9.117362
_cell_length_c 24.590557
_cell_angle_alpha 90.000000
_cell_angle_beta 150.684572
_cell_angle_gamma 90.000000
_cell_volume 3521.201301
_symmetry_space_group_name_H-M "C 2/M"
_symmetry_group_IT_number 12
_symmetry_cell_setting 'monoclinic'
loop_
_space_group_symop_operation_xyz
x,y,z
-x,y,-z
-x,-y,-z
x,-y,z
1/2+x,1/2+y,z
1/2-x,1/2+y,-z
1/2-x,1/2-y,-z
1/2+x,1/2-y,z
loop_
_atom_site_type_symbol
_atom_site_label
_atom_site_fract_x
_atom_site_fract_y
_atom_site_fract_z
Si Si1 0.220648 0.169470 0.519546
Si Si2 0.767320 0.829153 0.934268
Si Si3 0.062135 0.827922 0.409967
Si Si4 0.763144 0.328720 0.815472
Si Si5 0.191305 0.840769 0.296189
Si Si6 0.872933 0.830421 0.157959
Si Si7 0.348843 0.164017 0.396030
Si Si8 0.900874 0.658737 0.884807
O O1 0.250000 0.250000 0.500000
O O2 0.130248 0.222843 0.441508
O O3 0.294517 0.211789 0.645181
O O4 0.219407 0.000000 0.505423
O O5 0.779710 0.741656 0.892862
O O6 0.682024 0.773760 0.866264
O O7 0.756927 0.000000 0.908829
O O8 0.848116 0.802136 0.066468
O O9 0.076948 0.746169 0.484834
O O10 0.970918 0.789165 0.280559
O O11 0.072988 0.000000 0.434193
O O12 0.741493 0.500000 0.797686
O O13 0.681946 0.254519 0.692234
O O14 0.852216 0.301796 0.885371
O O15 0.269489 0.851343 0.344793
O O16 0.109925 0.789706 0.170052
O O17 0.174098 0.000000 0.303748
O O18 0.854887 0.000000 0.152457
O O19 0.380312 0.000000 0.414747
O O20 0.862791 0.500000 0.822474
O O21 0.000000 0.641206 0.000000
#
# Coordination Sequence:
#
# PCOD8087429 Si02
#       8
#     8   8   8   8   8   8   8   8
#     4  10  19  32  50  72 102 136 173 213 258 307
#     4  10  20  35  56  80 107 138 174 218 265 312
#     4   9  18  34  55  77 103 137 175 213 261 318
#     4  10  19  33  54  77 104 140 178 214 260 317
#     4   9  17  30  48  69  95 130 171 207 252 307
#     4   9  19  37  58  78 104 139 176 214 263 320
#     4   9  17  30  51  77 104 132 167 211 257 305
#     4   9  18  33  51  72 102 136 173 214 259 307
#
# _framework density 18.175615000000001
#
# number of rings (size 3 to 8) (size 9 to 14) (size 15 to 20)
#    0.000    2.625    0.000    1.875    0.000    5.250 
#    2.250    0.625    0.000    3.750    0.000    0.000 
#    0.000    0.000    0.000    0.000    0.000    0.000 
#
# Total GULP energy -396494.256106 kJ/mol
# GULP energy per Si atom -12390.445503 kJ/mol
# Density = 1.813425 g / cm^3
# Si number density = 18.175615 Si / 1000 Ang^3
#
#
#
# Elastic Constant Matrix: (Units=GPa)
#
#
# Indices 1 2 3 4 5 6 
#
# 1 81.1671 45.6375 54.8269 0.0000 -15.0375 0.0000
# 2 45.6375 97.0232 59.6547 0.0000 -9.2608 0.0000
# 3 54.8269 59.6547 121.2863 0.0000 -14.2274 0.0000
# 4 0.0000 0.0000 0.0000 27.3945 0.0000 -8.1608
# 5 -15.0375 -9.2608 -14.2274 0.0000 20.0731 0.0000
# 6 0.0000 0.0000 0.0000 -8.1608 0.0000 31.9761
#
#
#
# Elastic Compliance Matrix: (Units=1/GPa)
#
#
# Indices 1 2 3 4 5 6 
#
# 1 0.020940 -0.005472 -0.005705 0.000000 0.009119 0.000000
# 2 -0.005472 0.016266 -0.005592 0.000000 -0.000558 0.000000
# 3 -0.005705 -0.005592 0.013928 0.000000 0.003018 0.000000
# 4 0.000000 0.000000 0.000000 0.039507 0.000000 0.010083
# 5 0.009119 -0.000558 0.003018 0.000000 0.058531 0.000000
# 6 0.000000 0.000000 0.000000 0.010083 0.000000 0.033847
#
#
# Mechanical properties :
#
#
# Convention : Reuss Voigt Hill
#
# Bulk Modulus (GPa) = 56.83016 68.85721 62.84369
# Shear Modulus (GPa) = 22.47982 25.17924 23.82953
#
# Velocity S-wave (km/s) = 3.52065 3.72604 3.62480
# Velocity P-wave (km/s) = 6.91822 7.51517 7.22287
#
# Compressibility (1/GPa) = 0.01759629
#
# Stress axis : x y z
#
# Youngs Moduli (GPa) = 47.75637 61.47915 71.79528
#
# Poissons Ratio (x) = 0.33638 0.40958
# Poissons Ratio (y) = 0.26130 0.40151
# Poissons Ratio (z) = 0.27244 0.34382
#
# Static dielectric constant tensor:
#      x y z
#    x 2.735490 0.000000 0.265120 
#    y 0.000000 3.727190 0.000000 
#    z 0.265120 0.000000 2.956520 
# 
# 
# High freq. dielectric constant tensor:
#      x y z
#    x 1.682370 0.000000 -0.014600 
#    y 0.000000 1.718780 0.000000 
#    z -0.014600 0.000000 1.698350 
# 
# From -- ./inp_files/353530.got.cif
#   From: 2010.06.25/outbox.cif.g09.slc.cpg/sg12_177_cif.got.tgz:353530.got - 2010.06.28 00:19:55.
