data_PCOD8087295
_publ_section_title
;
Structure prediction by ZEFSAII (Michael W. Deem and Ramdas Pophale) SiO2 
 PCOD8087295
Probable space group: C 2/M
;
_chemical_formula_sum "Si O2"
_cell_formula_units_Z 48
_cell_length_a 25.387002
_cell_length_b 8.833573
_cell_length_c 12.509315
_cell_angle_alpha 90.000000
_cell_angle_beta 93.742439
_cell_angle_gamma 90.000000
_cell_volume 2799.330953
_symmetry_space_group_name_H-M "C 2/M"
_symmetry_group_IT_number 12
_symmetry_cell_setting 'monoclinic'
loop_
_space_group_symop_operation_xyz
x,y,z
-x,y,-z
-x,-y,-z
x,-y,z
1/2+x,1/2+y,z
1/2-x,1/2+y,-z
1/2-x,1/2-y,-z
1/2+x,1/2-y,z
loop_
_atom_site_type_symbol
_atom_site_label
_atom_site_fract_x
_atom_site_fract_y
_atom_site_fract_z
Si Si1 0.547426 0.177933 0.237215
Si Si2 0.149154 0.177080 0.636139
Si Si3 0.433731 0.319745 0.204555
Si Si4 0.762938 0.677724 0.614257
Si Si5 0.561878 0.333214 0.028098
Si Si6 0.132830 0.179553 0.393091
O O1 0.488185 0.237634 0.238689
O O2 0.574105 0.218650 0.126241
O O3 0.579722 0.255634 0.336163
O O4 0.548549 0.000000 0.252571
O O5 0.109996 0.246193 0.719663
O O6 0.210262 0.210121 0.678238
O O7 0.135709 0.239704 0.515908
O O8 0.139040 0.000000 0.631195
O O9 0.442641 0.500000 0.214743
O O10 0.413298 0.278723 0.081743
O O11 0.773087 0.500000 0.603674
O O12 0.750000 0.750000 0.500000
O O13 0.816085 0.756657 0.665793
O O14 0.583357 0.500000 0.063007
O O15 0.500000 0.343132 0.000000
O O16 0.133121 0.000000 0.385642
#
# Coordination Sequence:
#
# PCOD8087295 Si02
#       6
#     8   8   8   8   8   8
#     4  11  21  31  45  68  97 125 154 192 234 273
#     4   8  16  30  50  72  93 121 153 187 228 275
#     4   9  17  32  51  70  93 122 155 187 226 278
#     4   9  16  29  48  70  94 122 157 191 226 269
#     4   8  15  29  49  68  87 117 156 192 225 270
#     4  10  19  32  49  69  94 125 159 192 230 274
#
# _framework density 17.146954999999998
#
# number of rings (size 3 to 8) (size 9 to 14) (size 15 to 20)
#    0.000    2.833    0.000    4.500    0.000    3.667 
#    0.000    8.333    0.000    1.000    0.000    0.000 
#    0.000    0.000    0.000    0.000    0.000    0.000 
#
# Total GULP energy -297378.921672 kJ/mol
# GULP energy per Si atom -12390.788403 kJ/mol
# Density = 1.710793 g / cm^3
# Si number density = 17.146955 Si / 1000 Ang^3
#
#
#
# Elastic Constant Matrix: (Units=GPa)
#
#
# Indices 1 2 3 4 5 6 
#
# 1 85.9923 32.3473 44.6575 0.0000 -25.0348 0.0000
# 2 32.3473 76.7399 23.6255 0.0000 -10.1139 0.0000
# 3 44.6575 23.6255 78.5178 0.0000 -25.6874 0.0000
# 4 0.0000 0.0000 0.0000 17.4094 0.0000 5.4115
# 5 -25.0348 -10.1139 -25.6874 0.0000 16.2784 0.0000
# 6 0.0000 0.0000 0.0000 5.4115 0.0000 25.6426
#
#
#
# Elastic Compliance Matrix: (Units=1/GPa)
#
#
# Indices 1 2 3 4 5 6 
#
# 1 0.023153 -0.005293 -0.002073 0.000000 0.029049 0.000000
# 2 -0.005293 0.015722 -0.002455 0.000000 -0.002246 0.000000
# 3 -0.002073 -0.002455 0.027104 0.000000 0.038058 0.000000
# 4 0.000000 0.000000 0.000000 0.061473 0.000000 -0.012973
# 5 0.029049 -0.002246 0.038058 0.000000 0.164765 0.000000
# 6 0.000000 0.000000 0.000000 -0.012973 0.000000 0.041735
#
#
# Mechanical properties :
#
#
# Convention : Reuss Voigt Hill
#
# Bulk Modulus (GPa) = 21.58045 49.16782 35.37414
# Shear Modulus (GPa) = 13.54868 21.24073 17.39471
#
# Velocity S-wave (km/s) = 2.81401 3.52340 3.18850
# Velocity P-wave (km/s) = 4.81364 6.72972 5.85065
#
# Compressibility (1/GPa) = 0.04633824
#
# Stress axis : x y z
#
# Youngs Moduli (GPa) = 43.19064 63.60551 36.89469
#
# Poissons Ratio (x) = 0.33666 0.07646
# Poissons Ratio (y) = 0.22861 0.09058
# Poissons Ratio (z) = 0.08951 0.15615
#
# Static dielectric constant tensor:
#      x y z
#    x 3.485210 0.000000 -0.295390 
#    y 0.000000 3.141450 0.000000 
#    z -0.295390 0.000000 3.491620 
# 
# 
# High freq. dielectric constant tensor:
#      x y z
#    x 1.651100 0.000000 -0.007470 
#    y 0.000000 1.652160 0.000000 
#    z -0.007470 0.000000 1.643410 
# 
# From -- ./inp_files/179203.got.cif
#   From: 2010.06.25/outbox.cif.g09.slc.cpg/sg12_90_cif.got.tgz:179203.got - 2010.06.28 00:19:55.
