data_PCOD8087372
_publ_section_title
;
Structure prediction by ZEFSAII (Michael W. Deem and Ramdas Pophale) SiO2 
 PCOD8087372
Probable space group: C 2/M
;
_chemical_formula_sum "Si O2"
_cell_formula_units_Z 56
_cell_length_a 20.755670
_cell_length_b 9.117241
_cell_length_c 22.783620
_cell_angle_alpha 90.000000
_cell_angle_beta 47.839561
_cell_angle_gamma 90.000000
_cell_volume 3195.937688
_symmetry_space_group_name_H-M "C 2/M"
_symmetry_group_IT_number 12
_symmetry_cell_setting 'monoclinic'
loop_
_space_group_symop_operation_xyz
x,y,z
-x,y,-z
-x,-y,-z
x,-y,z
1/2+x,1/2+y,z
1/2-x,1/2+y,-z
1/2-x,1/2-y,-z
1/2+x,1/2-y,z
loop_
_atom_site_type_symbol
_atom_site_label
_atom_site_fract_x
_atom_site_fract_y
_atom_site_fract_z
Si Si1 0.073316 0.174127 0.579422
Si Si2 0.557191 0.671097 0.152578
Si Si3 0.702629 0.325546 0.400040
Si Si4 0.617955 0.674831 0.332324
Si Si5 0.621376 0.328423 0.679362
Si Si6 0.189816 0.829063 0.168940
Si Si7 0.179324 0.671793 0.003237
O O1 0.146173 0.230537 0.489685
O O2 0.096862 0.231946 0.629814
O O3 0.979759 0.235771 0.616459
O O4 0.068836 0.000000 0.582718
O O5 0.574702 0.500000 0.131696
O O6 0.457205 0.703145 0.227798
O O7 0.616254 0.733774 0.169824
O O8 0.585536 0.756205 0.075232
O O9 0.709935 0.500000 0.395111
O O10 0.657300 0.264685 0.368776
O O11 0.797814 0.259135 0.345058
O O12 0.616997 0.500000 0.335283
O O13 0.677190 0.735893 0.242043
O O14 0.643464 0.500000 0.662861
O O15 0.169864 0.000000 0.185583
O O16 0.287699 0.800304 0.084167
O O17 0.176405 0.500000 0.018955
O O18 0.250000 0.750000 0.000000
#
# Coordination Sequence:
#
# PCOD8087372 Si02
#       7
#     8   8   8   8   8   8   8
#     4   9  16  29  49  71  92 121 162 199 232 273
#     4   9  16  28  46  67  89 120 160 194 227 271
#     4  10  20  30  46  74  99 119 152 201 243 272
#     4   9  15  27  48  71  95 121 155 197 233 273
#     4  10  19  32  50  67  93 132 162 187 230 291
#     4   8  13  24  43  67  91 116 150 187 228 274
#     4   9  16  25  42  69  97 121 148 189 235 277
#
# _framework density 17.522244000000001
#
# number of rings (size 3 to 8) (size 9 to 14) (size 15 to 20)
#    0.000    2.857    1.429    2.143    0.000    2.286 
#    0.000    0.000    0.000    7.714    0.000    6.000 
#    0.000    0.000    0.000    0.000    0.000    0.000 
#
# Total GULP energy -346989.864218 kJ/mol
# GULP energy per Si atom -12392.495151 kJ/mol
# Density = 1.748236 g / cm^3
# Si number density = 17.522244 Si / 1000 Ang^3
#
#
#
# Elastic Constant Matrix: (Units=GPa)
#
#
# Indices 1 2 3 4 5 6 
#
# 1 97.0955 20.2380 45.9611 0.0000 -12.7399 0.0000
# 2 20.2380 32.8641 35.6741 0.0000 -7.5727 -0.0001
# 3 45.9611 35.6741 137.1994 0.0000 -23.2990 0.0001
# 4 0.0000 0.0000 0.0000 22.5999 0.0000 -6.8928
# 5 -12.7399 -7.5727 -23.2990 0.0000 15.2453 0.0000
# 6 0.0000 -0.0001 0.0001 -6.8928 0.0000 19.9389
#
#
#
# Elastic Compliance Matrix: (Units=1/GPa)
#
#
# Indices 1 2 3 4 5 6 
#
# 1 0.012978 -0.004232 -0.002380 0.000000 0.005105 0.000000
# 2 -0.004232 0.044142 -0.009369 0.000000 0.004073 0.000000
# 3 -0.002380 -0.009369 0.012686 0.000000 0.012746 0.000000
# 4 0.000000 0.000000 0.000000 0.049463 0.000000 0.017099
# 5 0.005105 0.004073 0.012746 0.000000 0.091362 0.000000
# 6 0.000000 0.000000 0.000000 0.017099 0.000000 0.056064
#
#
# Mechanical properties :
#
#
# Convention : Reuss Voigt Hill
#
# Bulk Modulus (GPa) = 26.42314 52.32284 39.37299
# Shear Modulus (GPa) = 16.06312 22.57587 19.31949
#
# Velocity S-wave (km/s) = 3.03104 3.59334 3.32410
# Velocity P-wave (km/s) = 5.23088 6.86599 6.10343
#
# Compressibility (1/GPa) = 0.03784562
#
# Stress axis : x y z
#
# Youngs Moduli (GPa) = 77.05509 22.65402 78.82423
#
# Poissons Ratio (x) = 0.09587 0.18762
# Poissons Ratio (y) = 0.32607 0.73847
# Poissons Ratio (z) = 0.18340 0.21224
#
# Static dielectric constant tensor:
#      x y z
#    x 3.071370 0.000000 0.015070 
#    y 0.000000 2.896640 0.000000 
#    z 0.015070 0.000000 3.864240 
# 
# 
# High freq. dielectric constant tensor:
#      x y z
#    x 1.643470 0.000000 -0.007610 
#    y 0.000000 1.630800 0.000000 
#    z -0.007610 0.000000 1.702240 
# 
# From -- ./inp_files/280165.got.cif
#   From: 2010.06.25/outbox.cif.g09.slc.cpg/sg12_141_cif.got.tgz:280165.got - 2010.06.28 00:19:55.
