data_PCOD8087260
_publ_section_title
;
Structure prediction by ZEFSAII (Michael W. Deem and Ramdas Pophale) SiO2 
 PCOD8087260
Probable space group: C 2/M
;
_chemical_formula_sum "Si O2"
_cell_formula_units_Z 44
_cell_length_a 16.984264
_cell_length_b 10.982356
_cell_length_c 16.999043
_cell_angle_alpha 90.000000
_cell_angle_beta 45.008694
_cell_angle_gamma 90.000000
_cell_volume 2242.423383
_symmetry_space_group_name_H-M "C 2/M"
_symmetry_group_IT_number 12
_symmetry_cell_setting 'monoclinic'
loop_
_space_group_symop_operation_xyz
x,y,z
-x,y,-z
-x,-y,-z
x,-y,z
1/2+x,1/2+y,z
1/2-x,1/2+y,-z
1/2-x,1/2-y,-z
1/2+x,1/2-y,z
loop_
_atom_site_type_symbol
_atom_site_label
_atom_site_fract_x
_atom_site_fract_y
_atom_site_fract_z
Si Si1 0.490891 0.634445 0.878904
Si Si2 0.854615 0.365150 0.491271
Si Si3 0.317465 0.362502 0.127349
Si Si4 0.779615 0.132219 0.728065
Si Si5 0.355103 0.787482 0.319836
Si Si6 0.000000 0.210158 0.500000
O O1 0.478957 0.500000 0.850400
O O2 0.589418 0.635184 0.872308
O O3 0.524331 0.729009 0.786929
O O4 0.374742 0.669632 0.003198
O O5 0.863533 0.500000 0.518600
O O6 0.732216 0.319632 0.600325
O O7 0.872162 0.368111 0.384990
O O8 0.951516 0.289330 0.463277
O O9 0.262429 0.500000 0.163183
O O10 0.232474 0.251479 0.206957
O O11 0.689972 0.133119 0.720736
O O12 0.903122 0.128238 0.605012
O O13 0.762360 0.000000 0.783383
#
# Coordination Sequence:
#
# PCOD8087260 Si02
#       6
#     8   8   8   8   8   4
#     4   8  13  26  46  71  99 129 161 197 239 290
#     4  10  19  32  48  72 100 129 166 209 246 286
#     4   8  15  27  47  72 100 129 163 200 237 284
#     4  10  19  33  50  73 102 132 162 201 248 295
#     4   9  18  30  49  74 100 129 161 199 249 297
#     4  10  22  34  50  68  93 132 171 200 241 296
#
# _framework density 19.621628000000001
#
# number of rings (size 3 to 8) (size 9 to 14) (size 15 to 20)
#    0.000    2.909    0.000    2.727    0.000    5.091 
#    0.000   10.909    0.000    1.091    0.000    0.000 
#    0.000    0.000    0.000    0.000    0.000    0.000 
#
# Total GULP energy -272581.601594 kJ/mol
# GULP energy per Si atom -12390.072800 kJ/mol
# Density = 1.957697 g / cm^3
# Si number density = 19.621628 Si / 1000 Ang^3
#
#
#
# Elastic Constant Matrix: (Units=GPa)
#
#
# Indices 1 2 3 4 5 6 
#
# 1 37.7509 9.6071 7.1713 0.0000 -0.5685 0.0000
# 2 9.6071 144.7843 56.2048 0.0000 -5.1098 0.0000
# 3 7.1713 56.2048 101.4840 0.0000 -3.1000 0.0000
# 4 0.0000 0.0000 0.0000 19.9236 0.0000 5.4812
# 5 -0.5685 -5.1098 -3.1000 0.0000 15.9410 0.0000
# 6 0.0000 0.0000 0.0000 5.4812 0.0000 -7.5509
#
#
#
# Elastic Compliance Matrix: (Units=1/GPa)
#
#
# Indices 1 2 3 4 5 6 
#
# 1 0.027054 -0.001332 -0.001164 0.000000 0.000311 0.000000
# 2 -0.001332 0.008921 -0.004789 0.000000 0.001881 0.000000
# 3 -0.001164 -0.004789 0.012615 0.000000 0.000877 0.000000
# 4 0.000000 0.000000 0.000000 0.041837 0.000000 0.030369
# 5 0.000311 0.001881 0.000877 0.000000 0.063516 0.000000
# 6 0.000000 0.000000 0.000000 0.030369 0.000000 -0.110389
#
#
# Mechanical properties :
#
#
# Convention : Reuss Voigt Hill
#
# Bulk Modulus (GPa) = 29.39535 47.77617 38.58576
# Shear Modulus (GPa) = 71.97924 19.73179 45.85551
#
# Velocity S-wave (km/s) = 6.06327 3.17458 4.83949
# Velocity P-wave (km/s) = 8.00196 6.15133 7.13688
#
# Compressibility (1/GPa) = 0.03401899
#
# Stress axis : x y z
#
# Youngs Moduli (GPa) = 36.96260 112.09965 79.27025
#
# Poissons Ratio (x) = 0.14933 0.09231
# Poissons Ratio (y) = 0.04924 0.37962
# Poissons Ratio (z) = 0.04304 0.53684
#
# Static dielectric constant tensor:
#      x y z
#    x 3.133100 0.000000 0.106740 
#    y 0.000000 3.652690 0.000000 
#    z 0.106740 0.000000 3.824810 
# 
# 
# High freq. dielectric constant tensor:
#      x y z
#    x 1.711890 0.000000 0.005080 
#    y 0.000000 1.765340 0.000000 
#    z 0.005080 0.000000 1.763180 
# 
# From -- ./inp_files/276878.got.cif
#   From: 2010.06.25/outbox.cif.g09.slc.cpg/sg12_139_cif.got.tgz:276878.got - 2010.06.28 00:19:55.
