data_PCOD8087145
_publ_section_title
;
Structure prediction by ZEFSAII (Michael W. Deem and Ramdas Pophale) SiO2 
 PCOD8087145
Probable space group: C 2/M
;
_chemical_formula_sum "Si O2"
_cell_formula_units_Z 48
_cell_length_a 28.001138
_cell_length_b 8.987499
_cell_length_c 17.306462
_cell_angle_alpha 90.000000
_cell_angle_beta 143.432666
_cell_angle_gamma 90.000000
_cell_volume 2594.772722
_symmetry_space_group_name_H-M "C 2/M"
_symmetry_group_IT_number 12
_symmetry_cell_setting 'monoclinic'
loop_
_space_group_symop_operation_xyz
x,y,z
-x,y,-z
-x,-y,-z
x,-y,z
1/2+x,1/2+y,z
1/2-x,1/2+y,-z
1/2-x,1/2-y,-z
1/2+x,1/2-y,z
loop_
_atom_site_type_symbol
_atom_site_label
_atom_site_fract_x
_atom_site_fract_y
_atom_site_fract_z
Si Si1 0.624909 0.173595 0.359389
Si Si2 0.264215 0.672457 0.234301
Si Si3 0.945353 0.823568 0.496754
Si Si4 0.485697 0.675876 0.252786
Si Si5 0.760744 0.671162 0.627096
Si Si6 0.302385 0.675918 0.001379
O O1 0.538266 0.251992 0.252423
O O2 0.684809 0.231471 0.503446
O O3 0.661279 0.211599 0.322237
O O4 0.612876 0.000000 0.355626
O O5 0.260419 0.500000 0.203601
O O6 0.354961 0.726469 0.364313
O O7 0.218065 0.698828 0.255492
O O8 0.225488 0.774357 0.119153
O O9 0.000000 0.755685 0.500000
O O10 0.977844 0.761488 0.619969
O O11 0.952295 0.000000 0.507243
O O12 0.492372 0.500000 0.254077
O O13 0.394026 0.728336 0.129137
O O14 0.734821 0.500000 0.580645
O O15 0.293999 0.500000 0.998861
O O16 0.250000 0.750000 0.000000
#
# Coordination Sequence:
#
# PCOD8087145 Si02
#       6
#     8   8   8   8   8   8
#     4  10  19  31  54  86 115 142 182 235 280 321
#     4  10  19  35  58  80 109 147 186 229 274 327
#     4   9  16  29  53  79 100 133 184 228 266 323
#     4  10  20  37  57  78 108 149 189 223 275 339
#     4   9  18  34  55  81 113 152 186 218 277 343
#     4  11  24  40  59  81 111 150 188 228 278 334
#
# _framework density 18.498729999999998
#
# number of rings (size 3 to 8) (size 9 to 14) (size 15 to 20)
#    0.000    2.167    1.667    2.000    0.000    5.333 
#    0.000    0.833    0.000    7.000    0.000    0.000 
#    0.000    0.000    0.000    0.000    0.000    0.000 
#
# Total GULP energy -297614.511293 kJ/mol
# GULP energy per Si atom -12400.604637 kJ/mol
# Density = 1.845663 g / cm^3
# Si number density = 18.498730 Si / 1000 Ang^3
#
#
#
# Elastic Constant Matrix: (Units=GPa)
#
#
# Indices 1 2 3 4 5 6 
#
# 1 153.2912 45.1313 72.3642 0.0000 12.7798 0.0000
# 2 45.1313 49.4347 42.4265 0.0000 8.7572 0.0000
# 3 72.3642 42.4265 126.9340 0.0000 9.1465 0.0000
# 4 0.0000 0.0000 0.0000 29.1279 0.0000 0.5701
# 5 12.7798 8.7572 9.1465 0.0000 34.1537 0.0000
# 6 0.0000 0.0000 0.0000 0.5701 0.0000 30.5359
#
#
#
# Elastic Compliance Matrix: (Units=1/GPa)
#
#
# Indices 1 2 3 4 5 6 
#
# 1 0.010095 -0.005788 -0.003727 0.000000 -0.001295 0.000000
# 2 -0.005788 0.032487 -0.007254 0.000000 -0.004221 0.000000
# 3 -0.003727 -0.007254 0.012433 0.000000 -0.000075 0.000000
# 4 0.000000 0.000000 0.000000 0.034344 0.000000 -0.000641
# 5 -0.001295 -0.004221 -0.000075 0.000000 0.030866 0.000000
# 6 0.000000 0.000000 0.000000 -0.000641 0.000000 0.032760
#
#
# Mechanical properties :
#
#
# Convention : Reuss Voigt Hill
#
# Bulk Modulus (GPa) = 46.56485 72.16709 59.36597
# Shear Modulus (GPa) = 25.81529 30.07934 27.94732
#
# Velocity S-wave (km/s) = 3.73971 4.03677 3.89108
# Velocity P-wave (km/s) = 6.62373 7.79897 7.23525
#
# Compressibility (1/GPa) = 0.02147543
#
# Stress axis : x y z
#
# Youngs Moduli (GPa) = 99.05782 30.78181 80.43035
#
# Poissons Ratio (x) = 0.17817 0.29978
# Poissons Ratio (y) = 0.57335 0.58348
# Poissons Ratio (z) = 0.36921 0.22331
#
# Static dielectric constant tensor:
#      x y z
#    x 3.742750 0.000000 0.037950 
#    y 0.000000 3.208070 0.000000 
#    z 0.037950 0.000000 3.309140 
# 
# 
# High freq. dielectric constant tensor:
#      x y z
#    x 1.738020 0.000000 0.003500 
#    y 0.000000 1.698620 0.000000 
#    z 0.003500 0.000000 1.699770 
# 
# From -- ./inp_files/280069.got.cif
#   From: 2010.06.25/outbox.cif.g09.slc.cpg/sg12_141_cif.got.tgz:280069.got - 2010.06.28 00:19:55.
