data_PCOD8087345
_publ_section_title
;
Structure prediction by ZEFSAII (Michael W. Deem and Ramdas Pophale) SiO2 
 PCOD8087345
Probable space group: C 2/M
;
_chemical_formula_sum "Si O2"
_cell_formula_units_Z 48
_cell_length_a 29.813680
_cell_length_b 8.708994
_cell_length_c 23.041312
_cell_angle_alpha 90.000000
_cell_angle_beta 153.496693
_cell_angle_gamma 90.000000
_cell_volume 2669.737068
_symmetry_space_group_name_H-M "C 2/M"
_symmetry_group_IT_number 12
_symmetry_cell_setting 'monoclinic'
loop_
_space_group_symop_operation_xyz
x,y,z
-x,y,-z
-x,-y,-z
x,-y,z
1/2+x,1/2+y,z
1/2-x,1/2+y,-z
1/2-x,1/2-y,-z
1/2+x,1/2-y,z
loop_
_atom_site_type_symbol
_atom_site_label
_atom_site_fract_x
_atom_site_fract_y
_atom_site_fract_z
Si Si1 0.445434 0.818883 0.143829
Si Si2 0.649662 0.317454 0.410100
Si Si3 0.109422 0.319014 0.609930
Si Si4 0.740388 0.682338 0.117986
Si Si5 0.901113 0.826183 0.520566
Si Si6 0.379823 0.676679 0.186758
O O1 0.556038 0.746700 0.264771
O O2 0.397814 0.771938 0.149734
O O3 0.453829 0.000000 0.147639
O O4 0.372232 0.752015 0.008701
O O5 0.647638 0.500000 0.403926
O O6 0.750000 0.250000 0.500000
O O7 0.641576 0.262774 0.467745
O O8 0.104386 0.500000 0.608790
O O9 0.194679 0.256344 0.752376
O O10 0.141382 0.272937 0.581864
O O11 0.000000 0.249165 0.500000
O O12 0.735467 0.500000 0.110728
O O13 0.788673 0.744346 0.114517
O O14 0.021522 0.814210 0.659044
O O15 0.865165 0.000000 0.469817
O O16 0.354626 0.500000 0.141990
#
# Coordination Sequence:
#
# PCOD8087345 Si02
#       6
#     8   8   8   8   8   8
#     4  11  22  35  52  76 105 139 177 220 269 319
#     4  10  21  39  61  86 108 134 172 219 274 323
#     4  10  20  33  50  75 107 146 187 220 256 309
#     4  11  21  33  49  72 107 146 181 220 261 314
#     4   9  19  33  52  78 108 139 177 219 260 312
#     4  10  19  32  49  73 105 142 180 219 263 316
#
# _framework density 17.979299000000001
#
# number of rings (size 3 to 8) (size 9 to 14) (size 15 to 20)
#    0.000    1.833    1.667    4.500    0.000    5.000 
#    0.000    0.000    0.000    1.000    0.000    7.000 
#    0.000    0.000    0.000    0.000    0.000    0.000 
#
# Total GULP energy -297608.416018 kJ/mol
# GULP energy per Si atom -12400.350667 kJ/mol
# Density = 1.793838 g / cm^3
# Si number density = 17.979299 Si / 1000 Ang^3
#
#
#
# Elastic Constant Matrix: (Units=GPa)
#
#
# Indices 1 2 3 4 5 6 
#
# 1 68.5105 25.6086 58.9668 0.0000 12.1026 0.0000
# 2 25.6086 75.0551 45.2779 0.0000 5.9179 0.0000
# 3 58.9668 45.2779 150.7863 0.0000 4.8318 0.0000
# 4 0.0000 0.0000 0.0000 30.5778 0.0000 0.2891
# 5 12.1026 5.9179 4.8318 0.0000 25.0703 0.0000
# 6 0.0000 0.0000 0.0000 0.2891 0.0000 27.8866
#
#
#
# Elastic Compliance Matrix: (Units=1/GPa)
#
#
# Indices 1 2 3 4 5 6 
#
# 1 0.024596 -0.002462 -0.008570 0.000000 -0.009641 0.000000
# 2 -0.002462 0.016732 -0.003998 0.000000 -0.001991 0.000000
# 3 -0.008570 -0.003998 0.011090 0.000000 0.002944 0.000000
# 4 0.000000 0.000000 0.000000 0.032707 0.000000 -0.000339
# 5 -0.009641 -0.001991 0.002944 0.000000 0.044444 0.000000
# 6 0.000000 0.000000 0.000000 -0.000339 0.000000 0.035863
#
#
# Mechanical properties :
#
#
# Convention : Reuss Voigt Hill
#
# Bulk Modulus (GPa) = 44.72700 61.56205 53.14452
# Shear Modulus (GPa) = 24.63725 27.67352 26.15539
#
# Velocity S-wave (km/s) = 3.70579 3.92750 3.81826
# Velocity P-wave (km/s) = 6.57582 7.40823 7.00440
#
# Compressibility (1/GPa) = 0.02235786
#
# Stress axis : x y z
#
# Youngs Moduli (GPa) = 40.65686 59.76500 90.17442
#
# Poissons Ratio (x) = 0.14712 0.77284
# Poissons Ratio (y) = 0.10009 0.36050
# Poissons Ratio (z) = 0.34845 0.23893
#
# Static dielectric constant tensor:
#      x y z
#    x 3.036890 0.000000 -0.055360 
#    y 0.000000 3.275680 0.000000 
#    z -0.055360 0.000000 3.630140 
# 
# 
# High freq. dielectric constant tensor:
#      x y z
#    x 1.658820 0.000000 -0.008150 
#    y 0.000000 1.701990 0.000000 
#    z -0.008150 0.000000 1.703800 
# 
# From -- ./inp_files/172419.got.cif
#   From: 2010.06.25/outbox.cif.g09.slc.cpg/sg12_87_cif.got.tgz:172419.got - 2010.06.28 00:19:55.
