data_PCOD8087479
_publ_section_title
;
Structure prediction by ZEFSAII (Michael W. Deem and Ramdas Pophale) SiO2 
 PCOD8087479
Probable space group: C 2/M
;
_chemical_formula_sum "Si O2"
_cell_formula_units_Z 64
_cell_length_a 24.508781
_cell_length_b 9.043652
_cell_length_c 16.416729
_cell_angle_alpha 90.000000
_cell_angle_beta 88.360945
_cell_angle_gamma 90.000000
_cell_volume 3637.260907
_symmetry_space_group_name_H-M "C 2/M"
_symmetry_group_IT_number 12
_symmetry_cell_setting 'monoclinic'
loop_
_space_group_symop_operation_xyz
x,y,z
-x,y,-z
-x,-y,-z
x,-y,z
1/2+x,1/2+y,z
1/2-x,1/2+y,-z
1/2-x,1/2-y,-z
1/2+x,1/2-y,z
loop_
_atom_site_type_symbol
_atom_site_label
_atom_site_fract_x
_atom_site_fract_y
_atom_site_fract_z
Si Si1 0.545994 0.671687 0.228875
Si Si2 0.630045 0.827042 0.121100
Si Si3 0.806989 0.823986 0.019739
Si Si4 0.790984 0.672089 0.733352
Si Si5 0.675994 0.324413 0.796826
Si Si6 0.125687 0.829286 0.373475
Si Si7 0.429028 0.324009 0.292072
Si Si8 0.441777 0.323602 0.473212
O O1 0.549293 0.500000 0.203901
O O2 0.571758 0.768976 0.155499
O O3 0.577277 0.700824 0.311802
O O4 0.483976 0.725842 0.243583
O O5 0.675944 0.792118 0.186091
O O6 0.626320 0.000000 0.101147
O O7 0.645249 0.736517 0.039921
O O8 0.823607 0.774276 0.109627
O O9 0.801249 0.000000 0.011782
O O10 0.750000 0.750000 0.000000
O O11 0.790232 0.500000 0.715206
O O12 0.729985 0.735328 0.748348
O O13 0.818900 0.747069 0.654174
O O14 0.675911 0.500000 0.792477
O O15 0.622659 0.258554 0.754576
O O16 0.105161 0.770554 0.462037
O O17 0.140686 0.000000 0.376950
O O18 0.427063 0.500000 0.295428
O O19 0.427889 0.261321 0.384230
O O20 0.500000 0.259869 0.500000
O O21 0.444812 0.500000 0.472689
#
# Coordination Sequence:
#
# PCOD8087479 Si02
#       8
#     8   8   8   8   8   8   8   8
#     4   9  16  28  48  75  99 125 162 202 243 286
#     4  10  19  32  50  73  99 129 163 203 246 289
#     4  11  20  33  52  75 100 125 164 210 247 289
#     4   9  17  31  47  66  96 129 162 197 239 289
#     4   9  18  32  48  69  97 129 164 200 241 294
#     4   9  16  26  45  74 101 121 155 203 242 278
#     4   9  16  28  49  73  99 131 164 200 244 289
#     4   9  14  24  44  73 103 125 155 203 246 280
#
# _framework density 17.595658
#
# number of rings (size 3 to 8) (size 9 to 14) (size 15 to 20)
#    0.000    2.625    2.500    0.750    0.000    0.500 
#    0.000    1.250    0.000    7.125    0.000    0.000 
#    0.000    0.000    0.000    0.000    0.000    0.000 
#
# Total GULP energy -396746.178969 kJ/mol
# GULP energy per Si atom -12398.318093 kJ/mol
# Density = 1.755561 g / cm^3
# Si number density = 17.595658 Si / 1000 Ang^3
#
#
#
# Elastic Constant Matrix: (Units=GPa)
#
#
# Indices 1 2 3 4 5 6 
#
# 1 144.7157 32.8466 88.8344 0.0000 -18.5401 0.0000
# 2 32.8466 36.8464 38.0639 0.0000 -7.1511 0.0000
# 3 88.8344 38.0639 144.5835 0.0000 -19.2099 0.0000
# 4 0.0000 0.0000 0.0000 19.1036 0.0000 -8.1865
# 5 -18.5401 -7.1511 -19.2099 0.0000 33.5260 0.0000
# 6 0.0000 0.0000 0.0000 -8.1865 0.0000 20.5021
#
#
#
# Elastic Compliance Matrix: (Units=1/GPa)
#
#
# Indices 1 2 3 4 5 6 
#
# 1 0.011678 -0.003941 -0.005836 0.000000 0.002274 0.000000
# 2 -0.003941 0.038805 -0.007560 0.000000 0.001766 0.000000
# 3 -0.005836 -0.007560 0.012826 0.000000 0.002509 0.000000
# 4 0.000000 0.000000 0.000000 0.063152 0.000000 0.025216
# 5 0.002274 0.001766 0.002509 0.000000 0.032899 0.000000
# 6 0.000000 0.000000 0.000000 0.025216 0.000000 0.058844
#
#
# Mechanical properties :
#
#
# Convention : Reuss Voigt Hill
#
# Bulk Modulus (GPa) = 34.92103 71.73725 53.32914
# Shear Modulus (GPa) = 19.05317 25.71973 22.38645
#
# Velocity S-wave (km/s) = 3.29421 3.82738 3.57076
# Velocity P-wave (km/s) = 5.86162 7.77111 6.88290
#
# Compressibility (1/GPa) = 0.02863604
#
# Stress axis : x y z
#
# Youngs Moduli (GPa) = 85.63070 25.76957 77.96848
#
# Poissons Ratio (x) = 0.10155 0.45500
# Poissons Ratio (y) = 0.33744 0.58947
# Poissons Ratio (z) = 0.49971 0.19483
#
# Static dielectric constant tensor:
#      x y z
#    x 3.391450 0.000000 -0.155080 
#    y 0.000000 2.923460 0.000000 
#    z -0.155080 0.000000 3.435600 
# 
# 
# High freq. dielectric constant tensor:
#      x y z
#    x 1.673390 0.000000 -0.022900 
#    y 0.000000 1.641060 0.000000 
#    z -0.022900 0.000000 1.681220 
# 
# From -- ./inp_files/287613.got.cif
#   From: 2010.06.25/outbox.cif.g09.slc.cpg/sg12_144_cif.got.tgz:287613.got - 2010.06.28 00:19:55.
