data_PCOD8087662
_publ_section_title
;
Structure prediction by ZEFSAII (Michael W. Deem and Ramdas Pophale) SiO2 
 PCOD8087662
Probable space group: C 2/M
;
_chemical_formula_sum "Si O2"
_cell_formula_units_Z 48
_cell_length_a 22.480489
_cell_length_b 8.976381
_cell_length_c 13.838452
_cell_angle_alpha 90.000000
_cell_angle_beta 102.018370
_cell_angle_gamma 90.000000
_cell_volume 2731.299450
_symmetry_space_group_name_H-M "C 2/M"
_symmetry_group_IT_number 12
_symmetry_cell_setting 'monoclinic'
loop_
_space_group_symop_operation_xyz
x,y,z
-x,y,-z
-x,-y,-z
x,-y,z
1/2+x,1/2+y,z
1/2-x,1/2+y,-z
1/2-x,1/2-y,-z
1/2+x,1/2-y,z
loop_
_atom_site_type_symbol
_atom_site_label
_atom_site_fract_x
_atom_site_fract_y
_atom_site_fract_z
Si Si1 0.330479 0.672026 0.442729
Si Si2 0.051007 0.325083 0.594371
Si Si3 0.892418 0.173887 0.827299
Si Si4 0.066985 0.668127 0.979368
Si Si5 0.210214 0.828313 0.356957
Si Si6 0.478613 0.324571 0.214572
O O1 0.342897 0.500000 0.421711
O O2 0.384383 0.773601 0.423126
O O3 0.268696 0.723124 0.369331
O O4 0.325520 0.698046 0.555461
O O5 0.052467 0.500000 0.614716
O O6 0.036112 0.241696 0.687300
O O7 0.000000 0.280488 0.500000
O O8 0.834173 0.218356 0.744621
O O9 0.952638 0.221278 0.789069
O O10 0.894611 0.000000 0.851181
O O11 0.887277 0.259211 0.927499
O O12 0.087971 0.500000 0.966035
O O13 0.068582 0.758518 0.879740
O O14 0.000000 0.675863 0.000000
O O15 0.230778 0.000000 0.355913
O O16 0.469600 0.500000 0.214633
#
# Coordination Sequence:
#
# PCOD8087662 Si02
#       6
#     8   8   8   8   8   8
#     4  10  20  34  52  74 100 132 169 205 245 293
#     4  11  23  36  51  73 102 134 166 202 246 295
#     4   9  17  30  50  75 101 131 167 205 247 293
#     4   9  17  29  46  71 102 132 164 204 248 292
#     4   9  18  33  52  74 101 131 165 207 249 290
#     4  10  19  32  51  74 102 134 167 204 246 294
#
# _framework density 17.574051999999998
#
# number of rings (size 3 to 8) (size 9 to 14) (size 15 to 20)
#    0.000    2.333    0.000    3.000    0.000    6.667 
#    0.000    0.000    0.000    1.000    0.000    0.000 
#    0.000    0.000    0.000    0.000    0.000    0.000 
#
# Total GULP energy -297660.507479 kJ/mol
# GULP energy per Si atom -12402.521145 kJ/mol
# Density = 1.753405 g / cm^3
# Si number density = 17.574052 Si / 1000 Ang^3
#
#
#
# Elastic Constant Matrix: (Units=GPa)
#
#
# Indices 1 2 3 4 5 6 
#
# 1 56.4363 27.8602 43.7359 0.0000 8.5403 0.0000
# 2 27.8602 73.1839 58.3894 0.0000 6.1100 0.0000
# 3 43.7359 58.3894 138.9473 0.0000 19.5305 0.0000
# 4 0.0000 0.0000 0.0000 34.8941 0.0000 0.2856
# 5 8.5403 6.1100 19.5305 0.0000 24.7565 0.0000
# 6 0.0000 0.0000 0.0000 0.2856 0.0000 29.3973
#
#
#
# Elastic Compliance Matrix: (Units=1/GPa)
#
#
# Indices 1 2 3 4 5 6 
#
# 1 0.024713 -0.004953 -0.005254 0.000000 -0.003158 0.000000
# 2 -0.004953 0.021634 -0.007897 0.000000 0.002600 0.000000
# 3 -0.005254 -0.007897 0.013092 0.000000 -0.006567 0.000000
# 4 0.000000 0.000000 0.000000 0.028660 0.000000 -0.000278
# 5 -0.003158 0.002600 -0.006567 0.000000 0.046022 0.000000
# 6 0.000000 0.000000 0.000000 -0.000278 0.000000 0.034019
#
#
# Mechanical properties :
#
#
# Convention : Reuss Voigt Hill
#
# Bulk Modulus (GPa) = 43.04481 58.72649 50.88565
# Shear Modulus (GPa) = 23.57454 27.04839 25.31146
#
# Velocity S-wave (km/s) = 3.66654 3.92740 3.79921
# Velocity P-wave (km/s) = 6.51700 7.35222 6.94717
#
# Compressibility (1/GPa) = 0.02323161
#
# Stress axis : x y z
#
# Youngs Moduli (GPa) = 40.46387 46.22453 76.37967
#
# Poissons Ratio (x) = 0.22894 0.40128
# Poissons Ratio (y) = 0.20041 0.60321
# Poissons Ratio (z) = 0.21259 0.36506
#
# Static dielectric constant tensor:
#      x y z
#    x 3.029040 0.000000 0.147360 
#    y 0.000000 3.362180 0.000000 
#    z 0.147360 0.000000 3.375180 
# 
# 
# High freq. dielectric constant tensor:
#      x y z
#    x 1.649970 0.000000 0.012870 
#    y 0.000000 1.690700 0.000000 
#    z 0.012870 0.000000 1.686190 
# 
# From -- ./inp_files/172296.got.cif
#   From: 2010.06.25/outbox.cif.g09.slc.cpg/sg12_87_cif.got.tgz:172296.got - 2010.06.28 00:19:55.
