data_PCOD8087219
_publ_section_title
;
Structure prediction by ZEFSAII (Michael W. Deem and Ramdas Pophale) SiO2 
 PCOD8087219
Probable space group: C 2/M
;
_chemical_formula_sum "Si O2"
_cell_formula_units_Z 56
_cell_length_a 30.051980
_cell_length_b 9.225363
_cell_length_c 12.466280
_cell_angle_alpha 90.000000
_cell_angle_beta 74.416467
_cell_angle_gamma 90.000000
_cell_volume 3329.107797
_symmetry_space_group_name_H-M "C 2/M"
_symmetry_group_IT_number 12
_symmetry_cell_setting 'monoclinic'
loop_
_space_group_symop_operation_xyz
x,y,z
-x,y,-z
-x,-y,-z
x,-y,z
1/2+x,1/2+y,z
1/2-x,1/2+y,-z
1/2-x,1/2-y,-z
1/2+x,1/2-y,z
loop_
_atom_site_type_symbol
_atom_site_label
_atom_site_fract_x
_atom_site_fract_y
_atom_site_fract_z
Si Si1 0.296061 0.331916 0.731195
Si Si2 0.305474 0.170002 0.126536
Si Si3 0.350748 0.669153 0.905297
Si Si4 0.205372 0.329672 0.483704
Si Si5 0.633432 0.168509 0.713176
Si Si6 0.548339 0.671354 0.836861
Si Si7 0.947282 0.828758 0.923218
O O1 0.295950 0.500000 0.695716
O O2 0.246538 0.287696 0.809912
O O3 0.334823 0.299545 0.794989
O O4 0.308389 0.231816 0.622905
O O5 0.338298 0.223868 0.201440
O O6 0.310483 0.000000 0.103870
O O7 0.317597 0.249749 0.009102
O O8 0.347304 0.500000 0.935373
O O9 0.403654 0.725899 0.881955
O O10 0.216056 0.500000 0.470443
O O11 0.250000 0.250000 0.500000
O O12 0.162461 0.296750 0.588534
O O13 0.584905 0.252275 0.734911
O O14 0.622719 0.000000 0.730585
O O15 0.554234 0.500000 0.820940
O O16 0.496093 0.723056 0.840409
O O17 0.558416 0.726318 0.951285
O O18 0.949370 0.000000 0.926687
#
# Coordination Sequence:
#
# PCOD8087219 Si02
#       7
#     8   8   8   8   8   8   8
#     4  10  21  36  51  72 103 136 171 209 246 291
#     4  10  19  32  47  70 107 136 159 201 251 298
#     4  10  19  32  52  75 102 135 170 204 245 300
#     4  11  22  37  55  73  99 133 170 212 251 291
#     4  10  20  33  49  72 103 130 158 206 254 291
#     4   9  16  29  50  73  99 129 164 203 246 300
#     4   8  15  28  47  74 102 127 160 205 249 287
#
# _framework density 16.821324000000001
#
# number of rings (size 3 to 8) (size 9 to 14) (size 15 to 20)
#    0.000    2.286    2.857    1.714    0.000    2.286 
#    0.000    2.143    0.000    0.857    0.000    6.000 
#    0.000    0.000    0.000    0.000    0.000    0.000 
#
# Total GULP energy -347174.726030 kJ/mol
# GULP energy per Si atom -12399.097358 kJ/mol
# Density = 1.678304 g / cm^3
# Si number density = 16.821324 Si / 1000 Ang^3
#
#
#
# Elastic Constant Matrix: (Units=GPa)
#
#
# Indices 1 2 3 4 5 6 
#
# 1 122.3124 38.5915 62.0785 0.0000 -15.2205 0.0000
# 2 38.5915 51.0983 51.1096 0.0000 -9.2172 0.0000
# 3 62.0785 51.1096 101.6954 0.0000 -5.9870 0.0000
# 4 0.0000 0.0000 0.0000 31.1509 0.0000 -3.2042
# 5 -15.2205 -9.2172 -5.9870 0.0000 25.9249 0.0000
# 6 0.0000 0.0000 0.0000 -3.2042 0.0000 22.4922
#
#
#
# Elastic Compliance Matrix: (Units=1/GPa)
#
#
# Indices 1 2 3 4 5 6 
#
# 1 0.012770 -0.002449 -0.006260 0.000000 0.005181 0.000000
# 2 -0.002449 0.042302 -0.019226 0.000000 0.009162 0.000000
# 3 -0.006260 -0.019226 0.023011 0.000000 -0.005196 0.000000
# 4 0.000000 0.000000 0.000000 0.032579 0.000000 0.004641
# 5 0.005181 0.009162 -0.005196 0.000000 0.043672 0.000000
# 6 0.000000 0.000000 0.000000 0.004641 0.000000 0.045121
#
#
# Mechanical properties :
#
#
# Convention : Reuss Voigt Hill
#
# Bulk Modulus (GPa) = 45.01520 64.29613 54.65566
# Shear Modulus (GPa) = 19.03098 24.13538 21.58318
#
# Velocity S-wave (km/s) = 3.36722 3.79200 3.58590
# Velocity P-wave (km/s) = 6.47584 7.58144 7.05034
#
# Compressibility (1/GPa) = 0.02221472
#
# Stress axis : x y z
#
# Youngs Moduli (GPa) = 78.30720 23.63927 43.45790
#
# Poissons Ratio (x) = 0.05790 0.27202
# Poissons Ratio (y) = 0.19179 0.83551
# Poissons Ratio (z) = 0.49016 0.45448
#
# Static dielectric constant tensor:
#      x y z
#    x 3.447170 0.000000 -0.044720 
#    y 0.000000 3.000050 0.000000 
#    z -0.044720 0.000000 3.050040 
# 
# 
# High freq. dielectric constant tensor:
#      x y z
#    x 1.653270 0.000000 -0.008970 
#    y 0.000000 1.634270 0.000000 
#    z -0.008970 0.000000 1.631150 
# 
# From -- ./inp_files/186478.got.cif
#   From: 2010.06.25/outbox.cif.g09.slc.cpg/sg12_94_cif.got.tgz:186478.got - 2010.06.28 00:19:55.
