data_PCOD8087066
_publ_section_title
;
Structure prediction by ZEFSAII (Michael W. Deem and Ramdas Pophale) SiO2 
 PCOD8087066
Probable space group: C 2/M
;
_chemical_formula_sum "Si O2"
_cell_formula_units_Z 56
_cell_length_a 21.686706
_cell_length_b 9.284315
_cell_length_c 15.234044
_cell_angle_alpha 90.000000
_cell_angle_beta 97.079775
_cell_angle_gamma 90.000000
_cell_volume 3043.930281
_symmetry_space_group_name_H-M "C 2/M"
_symmetry_group_IT_number 12
_symmetry_cell_setting 'monoclinic'
loop_
_space_group_symop_operation_xyz
x,y,z
-x,y,-z
-x,-y,-z
x,-y,z
1/2+x,1/2+y,z
1/2-x,1/2+y,-z
1/2-x,1/2-y,-z
1/2+x,1/2-y,z
loop_
_atom_site_type_symbol
_atom_site_label
_atom_site_fract_x
_atom_site_fract_y
_atom_site_fract_z
Si Si1 0.303888 0.827581 0.452888
Si Si2 0.781872 0.167102 0.926393
Si Si3 0.580342 0.339606 0.743646
Si Si4 0.098413 0.338545 0.040561
Si Si5 0.069030 0.835817 0.536113
Si Si6 0.301557 0.834550 0.250069
Si Si7 0.515108 0.840237 0.861147
O O1 0.250000 0.750000 0.500000
O O2 0.372821 0.762198 0.488061
O O3 0.286702 0.792421 0.348400
O O4 0.304561 0.000000 0.471324
O O5 0.852179 0.216028 0.933695
O O6 0.754964 0.201133 0.824824
O O7 0.776905 0.000000 0.947443
O O8 0.750000 0.250000 0.000000
O O9 0.588863 0.500000 0.780313
O O10 0.568648 0.334526 0.639614
O O11 0.641678 0.253448 0.780225
O O12 0.521532 0.269240 0.781741
O O13 0.126976 0.500000 0.035956
O O14 0.054820 0.334482 0.117635
O O15 0.061516 0.296114 0.946975
O O16 0.000000 0.775280 0.500000
O O17 0.077607 0.000000 0.501834
O O18 0.321080 0.000000 0.249632
O O19 0.531081 0.000000 0.830224
#
# Coordination Sequence:
#
# PCOD8087066 Si02
#       7
#     8   8   8   8   8   8   8
#     4  10  20  37  60  83 109 145 185 227 275 329
#     4  11  22  35  52  76 105 138 174 214 260 307
#     4  10  19  31  53  81 102 129 173 216 255 304
#     4   9  19  35  52  71  99 137 175 210 252 305
#     4   9  19  37  57  79 110 144 177 220 273 327
#     4   9  20  37  54  74 105 143 176 209 260 321
#     4   9  18  34  53  71  99 138 172 206 258 312
#
# _framework density 18.397268
#
# number of rings (size 3 to 8) (size 9 to 14) (size 15 to 20)
#    0.000    2.429    0.000    3.000    0.000    7.143 
#    2.571    1.429    0.000    0.000    0.000    0.000 
#    0.000    0.000    0.000    0.000    0.000    0.000 
#
# Total GULP energy -347062.282377 kJ/mol
# GULP energy per Si atom -12395.081513 kJ/mol
# Density = 1.835540 g / cm^3
# Si number density = 18.397268 Si / 1000 Ang^3
#
#
#
# Elastic Constant Matrix: (Units=GPa)
#
#
# Indices 1 2 3 4 5 6 
#
# 1 118.6879 61.8131 42.4281 0.0000 2.4369 0.0000
# 2 61.8131 93.9359 42.9302 0.0000 -5.1759 0.0000
# 3 42.4281 42.9302 50.2724 0.0000 -6.1062 0.0000
# 4 0.0000 0.0000 0.0000 29.3075 0.0000 -3.4430
# 5 2.4369 -5.1759 -6.1062 0.0000 29.9229 0.0000
# 6 0.0000 0.0000 0.0000 -3.4430 0.0000 37.5011
#
#
#
# Elastic Compliance Matrix: (Units=1/GPa)
#
#
# Indices 1 2 3 4 5 6 
#
# 1 0.014391 -0.006425 -0.007112 0.000000 -0.003735 0.000000
# 2 -0.006425 0.020328 -0.011737 0.000000 0.001644 0.000000
# 3 -0.007112 -0.011737 0.036649 0.000000 0.006028 0.000000
# 4 0.000000 0.000000 0.000000 0.034493 0.000000 0.003167
# 5 -0.003735 0.001644 0.006028 0.000000 0.035238 0.000000
# 6 0.000000 0.000000 0.000000 0.003167 0.000000 0.026957
#
#
# Mechanical properties :
#
#
# Convention : Reuss Voigt Hill
#
# Bulk Modulus (GPa) = 48.03211 61.91546 54.97378
# Shear Modulus (GPa) = 22.16865 27.06127 24.61496
#
# Velocity S-wave (km/s) = 3.47507 3.83944 3.66179
# Velocity P-wave (km/s) = 6.50127 7.30636 6.91554
#
# Compressibility (1/GPa) = 0.02081941
#
# Stress axis : x y z
#
# Youngs Moduli (GPa) = 69.48894 49.19313 27.28580
#
# Poissons Ratio (x) = 0.31607 0.19406
# Poissons Ratio (y) = 0.44647 0.32025
# Poissons Ratio (z) = 0.49422 0.57738
#
# Static dielectric constant tensor:
#      x y z
#    x 3.509410 0.000000 -0.026400 
#    y 0.000000 3.719900 0.000000 
#    z -0.026400 0.000000 3.358330 
# 
# 
# High freq. dielectric constant tensor:
#      x y z
#    x 1.711350 0.000000 -0.006260 
#    y 0.000000 1.719110 0.000000 
#    z -0.006260 0.000000 1.705870 
# 
# From -- ./inp_files/287086.got.cif
#   From: 2010.06.25/outbox.cif.g09.slc.cpg/sg12_144_cif.got.tgz:287086.got - 2010.06.28 00:19:55.
