data_PCOD8087532
_publ_section_title
;
Structure prediction by ZEFSAII (Michael W. Deem and Ramdas Pophale) SiO2 
 PCOD8087532
Probable space group: C 2/M
;
_chemical_formula_sum "Si O2"
_cell_formula_units_Z 64
_cell_length_a 10.726934
_cell_length_b 27.293030
_cell_length_c 12.425661
_cell_angle_alpha 90.000000
_cell_angle_beta 107.389619
_cell_angle_gamma 90.000000
_cell_volume 3471.596805
_symmetry_space_group_name_H-M "C 2/M"
_symmetry_group_IT_number 12
_symmetry_cell_setting 'monoclinic'
loop_
_space_group_symop_operation_xyz
x,y,z
-x,y,-z
-x,-y,-z
x,-y,z
1/2+x,1/2+y,z
1/2-x,1/2+y,-z
1/2-x,1/2-y,-z
1/2+x,1/2-y,z
loop_
_atom_site_type_symbol
_atom_site_label
_atom_site_fract_x
_atom_site_fract_y
_atom_site_fract_z
Si Si1 0.020502 0.555066 0.623268
Si Si2 0.177882 0.945390 0.248718
Si Si3 0.263626 0.777202 0.113359
Si Si4 0.454334 0.786786 0.864845
Si Si5 0.235338 0.888753 0.061958
Si Si6 0.463264 0.895002 0.816919
Si Si7 0.727585 0.443377 0.848108
Si Si8 0.987460 0.942433 0.376880
O O1 0.960534 0.500000 0.615955
O O2 0.171908 0.553252 0.685312
O O3 0.000000 0.577282 0.500000
O O4 0.949565 0.591148 0.687865
O O5 0.153641 0.915245 0.134116
O O6 0.101717 0.921075 0.329519
O O7 0.122529 0.000000 0.214310
O O8 0.420185 0.774737 0.181054
O O9 0.168403 0.751234 0.178085
O O10 0.212444 0.831646 0.077308
O O11 0.250000 0.750000 0.000000
O O12 0.404794 0.840720 0.819582
O O13 0.500000 0.787769 0.000000
O O14 0.389130 0.900652 0.104607
O O15 0.179872 0.908338 0.933744
O O16 0.379225 0.933323 0.863852
O O17 0.708510 0.500000 0.876782
O O18 0.648631 0.430346 0.718350
O O19 0.000000 0.918423 0.500000
O O20 0.007820 0.000000 0.395634
#
# Coordination Sequence:
#
# PCOD8087532 Si02
#       8
#     8   8   8   8   8   8   8   8
#     4   9  18  30  50  77 101 134 181 220 250 298
#     4   9  18  34  51  69 103 142 172 209 256 304
#     4   9  17  32  50  72 103 135 169 209 256 317
#     4   9  17  32  51  72 103 133 168 210 260 315
#     4  10  20  34  50  77 112 135 163 210 267 317
#     4  10  19  32  50  76 108 138 165 212 266 312
#     4  11  21  31  49  76 107 143 176 207 252 312
#     4   9  20  36  50  66  97 144 186 218 248 284
#
# _framework density 18.435320000000001
#
# number of rings (size 3 to 8) (size 9 to 14) (size 15 to 20)
#    0.000    2.500    0.000    3.375    1.750    2.500 
#    9.000    1.875    0.000    0.000    0.000    8.750 
#    0.000    0.000    0.000    0.000    0.000    0.000 
#
# Total GULP energy -396536.586511 kJ/mol
# GULP energy per Si atom -12391.768328 kJ/mol
# Density = 1.839336 g / cm^3
# Si number density = 18.435320 Si / 1000 Ang^3
#
#
#
# Elastic Constant Matrix: (Units=GPa)
#
#
# Indices 1 2 3 4 5 6 
#
# 1 75.9291 46.2515 29.8753 0.0000 -22.2040 0.0000
# 2 46.2515 86.7319 39.2977 0.0000 -9.3334 0.0000
# 3 29.8753 39.2977 110.2974 0.0000 -16.7083 0.0000
# 4 0.0000 0.0000 0.0000 12.0965 0.0000 -5.9713
# 5 -22.2040 -9.3334 -16.7083 0.0000 20.8683 0.0000
# 6 0.0000 0.0000 0.0000 -5.9713 0.0000 27.8015
#
#
#
# Elastic Compliance Matrix: (Units=1/GPa)
#
#
# Indices 1 2 3 4 5 6 
#
# 1 0.027562 -0.012365 0.000620 0.000000 0.024292 0.000000
# 2 -0.012365 0.019415 -0.004832 0.000000 -0.008341 0.000000
# 3 0.000620 -0.004832 0.011827 0.000000 0.007968 0.000000
# 4 0.000000 0.000000 0.000000 0.092473 0.000000 0.019862
# 5 0.024292 -0.008341 0.007968 0.000000 0.076415 0.000000
# 6 0.000000 0.000000 0.000000 0.019862 0.000000 0.040235
#
#
# Mechanical properties :
#
#
# Convention : Reuss Voigt Hill
#
# Bulk Modulus (GPa) = 38.98533 55.97858 47.48196
# Shear Modulus (GPa) = 16.14827 22.65554 19.40190
#
# Velocity S-wave (km/s) = 2.96284 3.50940 3.24764
# Velocity P-wave (km/s) = 5.73564 6.84485 6.31465
#
# Compressibility (1/GPa) = 0.02565067
#
# Stress axis : x y z
#
# Youngs Moduli (GPa) = 36.28216 51.50641 84.55205
#
# Poissons Ratio (x) = 0.63685 -0.05240
# Poissons Ratio (y) = 0.44861 0.40854
# Poissons Ratio (z) = -0.02249 0.24887
#
# Static dielectric constant tensor:
#      x y z
#    x 4.014150 0.000000 -0.277200 
#    y 0.000000 3.353840 0.000000 
#    z -0.277200 0.000000 3.380750 
# 
# 
# High freq. dielectric constant tensor:
#      x y z
#    x 1.724450 0.000000 -0.014980 
#    y 0.000000 1.690620 0.000000 
#    z -0.014980 0.000000 1.687270 
# 
# From -- ./inp_files/136699.got.cif
#   From: 2010.06.25/outbox.cif.g09.slc.cpg/sg12_69_cif.got.tgz:136699.got - 2010.06.28 00:19:55.
