data_PCOD8087933
_publ_section_title
;
Structure prediction by ZEFSAII (Michael W. Deem and Ramdas Pophale) SiO2 
 PCOD8087933
Probable space group: C 2/M
;
_chemical_formula_sum "Si O2"
_cell_formula_units_Z 64
_cell_length_a 19.423810
_cell_length_b 8.778332
_cell_length_c 21.281807
_cell_angle_alpha 90.000000
_cell_angle_beta 62.923927
_cell_angle_gamma 90.000000
_cell_volume 3231.033947
_symmetry_space_group_name_H-M "C 2/M"
_symmetry_group_IT_number 12
_symmetry_cell_setting 'monoclinic'
loop_
_space_group_symop_operation_xyz
x,y,z
-x,y,-z
-x,-y,-z
x,-y,z
1/2+x,1/2+y,z
1/2-x,1/2+y,-z
1/2-x,1/2-y,-z
1/2+x,1/2-y,z
loop_
_atom_site_type_symbol
_atom_site_label
_atom_site_fract_x
_atom_site_fract_y
_atom_site_fract_z
Si Si1 0.356171 0.319359 0.186954
Si Si2 0.600978 0.180997 0.342439
Si Si3 0.173968 0.819062 0.062880
Si Si4 0.668089 0.180274 0.443256
Si Si5 0.428191 0.819535 0.400141
Si Si6 0.834471 0.179491 0.335828
Si Si7 0.296639 0.819211 0.816660
Si Si8 0.985185 0.818772 0.935742
O O1 0.357439 0.500000 0.188043
O O2 0.331617 0.257904 0.265771
O O3 0.291974 0.270025 0.162017
O O4 0.441495 0.256737 0.134660
O O5 0.632788 0.249937 0.394182
O O6 0.514251 0.241271 0.373632
O O7 0.650958 0.238158 0.262857
O O8 0.605824 0.000000 0.342391
O O9 0.171466 0.767190 0.135906
O O10 0.096033 0.759230 0.059784
O O11 0.178672 0.000000 0.056428
O O12 0.250000 0.750000 0.000000
O O13 0.625612 0.249512 0.521971
O O14 0.757837 0.225685 0.406174
O O15 0.656631 0.000000 0.447497
O O16 0.404472 0.759288 0.342048
O O17 0.424453 0.000000 0.402157
O O18 0.847217 0.000000 0.330164
O O19 0.302822 0.000000 0.825250
O O20 0.983804 0.000000 0.936114
O O21 0.000000 0.757437 0.000000
#
# Coordination Sequence:
#
# PCOD8087933 Si02
#       8
#     8   8   8   8   8   8   8   8
#     4   9  17  32  55  78 102 139 183 222 256 304
#     4   9  17  31  52  78 104 139 183 223 266 318
#     4  11  23  38  59  86 114 141 173 213 260 311
#     4   9  16  31  52  75 100 137 188 230 263 313
#     4  10  20  31  49  76 108 139 175 227 279 322
#     4  10  19  32  52  75 102 139 184 225 264 317
#     4  10  19  35  59  81 106 140 181 224 264 310
#     4   9  18  33  55  82 106 133 174 214 249 297
#
# _framework density 19.807898999999999
#
# number of rings (size 3 to 8) (size 9 to 14) (size 15 to 20)
#    0.000    2.375    1.250    1.875    1.750    3.500 
#    0.000    0.625    0.000    9.750    0.000    0.000 
#    0.000    0.000    0.000    0.000    0.000    0.000 
#
# Total GULP energy -396694.122220 kJ/mol
# GULP energy per Si atom -12396.691319 kJ/mol
# Density = 1.976282 g / cm^3
# Si number density = 19.807899 Si / 1000 Ang^3
#
#
#
# Elastic Constant Matrix: (Units=GPa)
#
#
# Indices 1 2 3 4 5 6 
#
# 1 150.3819 23.6895 64.2432 0.0000 5.5005 -0.0002
# 2 23.6895 18.2639 14.0331 0.0001 -1.0453 -0.0008
# 3 64.2432 14.0331 117.9154 0.0001 -2.4647 0.0001
# 4 0.0000 0.0001 0.0001 18.4429 0.0001 6.8382
# 5 5.5005 -1.0453 -2.4647 0.0001 42.1284 0.0001
# 6 -0.0002 -0.0008 0.0001 6.8382 0.0001 23.5427
#
#
#
# Elastic Compliance Matrix: (Units=1/GPa)
#
#
# Indices 1 2 3 4 5 6 
#
# 1 0.010152 -0.009898 -0.004391 0.000000 -0.001828 0.000000
# 2 -0.009898 0.069963 -0.002874 -0.000001 0.002860 0.000003
# 3 -0.004391 -0.002874 0.011239 0.000000 0.001160 0.000000
# 4 0.000000 -0.000001 0.000000 0.060765 0.000000 -0.017650
# 5 -0.001828 0.002860 0.001160 0.000000 0.024114 0.000000
# 6 0.000000 0.000003 0.000000 -0.017650 0.000000 0.047603
#
#
# Mechanical properties :
#
#
# Convention : Reuss Voigt Hill
#
# Bulk Modulus (GPa) = 17.53522 54.49921 36.01722
# Shear Modulus (GPa) = 18.03932 29.12916 23.58424
#
# Velocity S-wave (km/s) = 3.02108 3.83898 3.45432
# Velocity P-wave (km/s) = 4.58705 6.87197 5.84230
#
# Compressibility (1/GPa) = 0.05702807
#
# Stress axis : x y z
#
# Youngs Moduli (GPa) = 98.50528 14.29323 88.97349
#
# Poissons Ratio (x) = 0.14148 0.39070
# Poissons Ratio (y) = 0.97502 0.25569
# Poissons Ratio (z) = 0.43255 0.04108
#
# Static dielectric constant tensor:
#      x y z
#    x 3.857720 0.000000 -0.048890 
#    y 0.000000 2.966540 0.000000 
#    z -0.048890 0.000000 3.919880 
# 
# 
# High freq. dielectric constant tensor:
#      x y z
#    x 1.789940 0.000000 -0.000030 
#    y 0.000000 1.706440 0.000000 
#    z -0.000030 0.000000 1.788060 
# 
# From -- ./inp_files/319972.got.cif
#   From: 2010.06.25/outbox.cif.g09.slc.cpg/sg12_160_cif.got.tgz:319972.got - 2010.06.28 00:19:55.
