data_PCOD8087551
_publ_section_title
;
Structure prediction by ZEFSAII (Michael W. Deem and Ramdas Pophale) SiO2 
 PCOD8087551
Probable space group: C 2/M
;
_chemical_formula_sum "Si O2"
_cell_formula_units_Z 40
_cell_length_a 20.338961
_cell_length_b 7.826454
_cell_length_c 30.581913
_cell_angle_alpha 90.000000
_cell_angle_beta 26.808686
_cell_angle_gamma 90.000000
_cell_volume 2195.570393
_symmetry_space_group_name_H-M "C 2/M"
_symmetry_group_IT_number 12
_symmetry_cell_setting 'monoclinic'
loop_
_space_group_symop_operation_xyz
x,y,z
-x,y,-z
-x,-y,-z
x,-y,z
1/2+x,1/2+y,z
1/2-x,1/2+y,-z
1/2-x,1/2-y,-z
1/2+x,1/2-y,z
loop_
_atom_site_type_symbol
_atom_site_label
_atom_site_fract_x
_atom_site_fract_y
_atom_site_fract_z
Si Si1 0.217245 0.500000 0.900122
Si Si2 0.268044 0.191811 0.751953
Si Si3 0.792759 0.194860 0.426407
Si Si4 0.916736 0.500000 0.116213
Si Si5 0.489167 0.697408 0.455135
Si Si6 0.896522 0.310053 0.769671
O O1 0.142710 0.500000 0.897377
O O2 0.314526 0.670582 0.848298
O O3 0.092575 0.500000 0.011331
O O4 0.137421 0.329386 0.826648
O O5 0.373334 0.209859 0.648093
O O6 0.363502 0.226251 0.738452
O O7 0.201559 0.000000 0.791743
O O8 0.750000 0.250000 0.500000
O O9 0.659867 0.218609 0.472351
O O10 0.929745 0.301845 0.327255
O O11 0.842986 0.000000 0.397711
O O12 0.500000 0.725313 0.500000
O O13 0.491409 0.500000 0.440145
O O14 0.843499 0.500000 0.814947
#
# Coordination Sequence:
#
# PCOD8087551 Si02
#       6
#     4   8   8   4   8   8
#     4   9  18  32  50  76 107 142 174 231 278 316
#     4  10  19  32  52  76 107 145 181 221 268 328
#     4  12  22  33  53  80 110 149 187 220 270 331
#     4   9  18  32  51  74 108 140 181 223 278 326
#     4  11  23  37  53  78 115 149 184 229 273 327
#     4  10  19  32  50  78 110 140 180 224 267 324
#
# _framework density 18.218499999999999
#
# number of rings (size 3 to 8) (size 9 to 14) (size 15 to 20)
#    0.000    1.600    4.000    2.400    0.000    2.400 
#    0.000    4.000    0.000    0.000    0.000    1.400 
#    0.000    0.000    0.000    0.000    0.000    0.000 
#
# Total GULP energy -248046.627586 kJ/mol
# GULP energy per Si atom -12402.331379 kJ/mol
# Density = 1.817703 g / cm^3
# Si number density = 18.218500 Si / 1000 Ang^3
#
#
#
# Elastic Constant Matrix: (Units=GPa)
#
#
# Indices 1 2 3 4 5 6 
#
# 1 43.8412 20.0018 23.7043 -0.0361 -1.7304 0.0607
# 2 20.0018 148.1587 63.7564 -0.0101 -2.5172 0.1690
# 3 23.7043 63.7564 141.8223 -0.0029 -13.8850 0.0292
# 4 -0.0361 -0.0101 -0.0029 26.5657 -0.0082 -2.9354
# 5 -1.7304 -2.5172 -13.8850 -0.0082 14.0059 0.0310
# 6 0.0607 0.1690 0.0292 -2.9354 0.0310 18.2777
#
#
#
# Elastic Compliance Matrix: (Units=1/GPa)
#
#
# Indices 1 2 3 4 5 6 
#
# 1 0.025549 -0.001979 -0.003440 0.000027 -0.000610 -0.000056
# 2 -0.001979 0.008599 -0.003774 -0.000008 -0.002440 -0.000064
# 3 -0.003440 -0.003774 0.010205 -0.000001 0.009014 0.000015
# 4 0.000027 -0.000008 -0.000001 0.038323 0.000010 0.006154
# 5 -0.000610 -0.002440 0.009014 0.000010 0.079821 -0.000124
# 6 -0.000056 -0.000064 0.000015 0.006154 -0.000124 0.055701
#
#
# Mechanical properties :
#
#
# Convention : Reuss Voigt Hill
#
# Bulk Modulus (GPa) = 38.51090 60.97194 49.74142
# Shear Modulus (GPa) = 20.38823 26.86050 23.62436
#
# Velocity S-wave (km/s) = 3.34892 3.84390 3.60491
# Velocity P-wave (km/s) = 6.01148 7.29660 6.68499
#
# Compressibility (1/GPa) = 0.02596668
#
# Stress axis : x y z
#
# Youngs Moduli (GPa) = 39.14112 116.28799 97.98960
#
# Poissons Ratio (x) = 0.23013 0.33711
# Poissons Ratio (y) = 0.07746 0.36981
# Poissons Ratio (z) = 0.13465 0.43887
#
# Static dielectric constant tensor:
#      x y z
#    x 2.975740 -0.000250 -0.121630 
#    y -0.000250 3.650740 0.000060 
#    z -0.121630 0.000060 3.405720 
# 
# 
# High freq. dielectric constant tensor:
#      x y z
#    x 1.651730 -0.000020 -0.009110 
#    y -0.000020 1.730040 0.000000 
#    z -0.009110 0.000000 1.699440 
# 
# From -- ./inp_files/362606.got.cif
#   From: 2010.06.25/outbox.cif.g09.slc.cpg/sg12_182_cif.got.tgz:362606.got - 2010.06.28 00:19:55.
