data_PCOD8087569
_publ_section_title
;
Structure prediction by ZEFSAII (Michael W. Deem and Ramdas Pophale) SiO2 
 PCOD8087569
Probable space group: C 2/M
;
_chemical_formula_sum "Si O2"
_cell_formula_units_Z 56
_cell_length_a 30.700470
_cell_length_b 9.211284
_cell_length_c 19.254468
_cell_angle_alpha 90.000000
_cell_angle_beta 143.128912
_cell_angle_gamma 90.000000
_cell_volume 3267.081744
_symmetry_space_group_name_H-M "C 2/M"
_symmetry_group_IT_number 12
_symmetry_cell_setting 'monoclinic'
loop_
_space_group_symop_operation_xyz
x,y,z
-x,y,-z
-x,-y,-z
x,-y,z
1/2+x,1/2+y,z
1/2-x,1/2+y,-z
1/2-x,1/2-y,-z
1/2+x,1/2-y,z
loop_
_atom_site_type_symbol
_atom_site_label
_atom_site_fract_x
_atom_site_fract_y
_atom_site_fract_z
Si Si1 0.710327 0.328719 0.250912
Si Si2 0.316004 0.667527 0.118428
Si Si3 0.596306 0.170946 0.871215
Si Si4 0.446047 0.829754 0.740341
Si Si5 0.292077 0.830516 0.493036
Si Si6 0.231532 0.335061 0.141716
Si Si7 0.076232 0.665523 0.134535
O O1 0.702964 0.500000 0.236233
O O2 0.762577 0.281037 0.380699
O O3 0.744034 0.269497 0.222690
O O4 0.631267 0.261077 0.160377
O O5 0.315816 0.500000 0.094979
O O6 0.388681 0.745696 0.182677
O O7 0.303712 0.680260 0.185745
O O8 0.250000 0.750000 0.000000
O O9 0.519763 0.233773 0.801460
O O10 0.593848 0.000000 0.852320
O O11 0.658642 0.208525 0.006726
O O12 0.377611 0.791747 0.604246
O O13 0.431193 0.765647 0.798055
O O14 0.458195 0.000000 0.764816
O O15 0.250000 0.750000 0.500000
O O16 0.279504 0.000000 0.489702
O O17 0.223106 0.500000 0.157453
O O18 0.105091 0.500000 0.174504
O O19 0.000000 0.673111 0.000000
#
# Coordination Sequence:
#
# PCOD8087569 Si02
#       7
#     8   8   8   8   8   8   8
#     4  11  22  32  47  73 101 127 163 210 251 286
#     4   9  17  30  49  74 102 131 162 197 240 295
#     4   9  17  31  52  77 100 126 163 203 245 294
#     4   9  17  31  51  71  95 128 164 203 242 290
#     4  10  20  35  52  70  94 129 172 210 246 290
#     4   9  18  32  50  72 100 132 164 194 237 303
#     4  10  19  32  51  71  94 130 167 195 238 301
#
# _framework density 17.140678999999999
#
# number of rings (size 3 to 8) (size 9 to 14) (size 15 to 20)
#    0.000    2.429    1.429    2.571    0.000    6.000 
#    0.000    1.429    0.000    0.857    0.000    6.000 
#    0.000    0.000    0.000    0.000    0.000    0.000 
#
# Total GULP energy -347129.735995 kJ/mol
# GULP energy per Si atom -12397.490571 kJ/mol
# Density = 1.710167 g / cm^3
# Si number density = 17.140679 Si / 1000 Ang^3
#
#
#
# Elastic Constant Matrix: (Units=GPa)
#
#
# Indices 1 2 3 4 5 6 
#
# 1 121.6541 47.0725 39.8271 0.0000 -12.1959 0.0000
# 2 47.0725 65.2172 31.7347 0.0000 -11.5889 0.0000
# 3 39.8271 31.7347 75.2735 0.0000 -10.1428 0.0000
# 4 0.0000 0.0000 0.0000 11.9688 0.0000 -6.1365
# 5 -12.1959 -11.5889 -10.1428 0.0000 18.2862 0.0000
# 6 0.0000 0.0000 0.0000 -6.1365 0.0000 32.0773
#
#
#
# Elastic Compliance Matrix: (Units=1/GPa)
#
#
# Indices 1 2 3 4 5 6 
#
# 1 0.012124 -0.006807 -0.003282 0.000000 0.001952 0.000000
# 2 -0.006807 0.024365 -0.005622 0.000000 0.007783 0.000000
# 3 -0.003282 -0.005622 0.017959 0.000000 0.004209 0.000000
# 4 0.000000 0.000000 0.000000 0.092636 0.000000 0.017722
# 5 0.001952 0.007783 0.004209 0.000000 0.063255 0.000000
# 6 0.000000 0.000000 0.000000 0.017722 0.000000 0.034565
#
#
# Mechanical properties :
#
#
# Convention : Reuss Voigt Hill
#
# Bulk Modulus (GPa) = 43.42884 55.49037 49.45961
# Shear Modulus (GPa) = 17.60554 22.03385 19.81969
#
# Velocity S-wave (km/s) = 3.20835 3.58924 3.40412
# Velocity P-wave (km/s) = 6.25431 7.04419 6.66097
#
# Compressibility (1/GPa) = 0.02302617
#
# Stress axis : x y z
#
# Youngs Moduli (GPa) = 82.48056 41.04208 55.68327
#
# Poissons Ratio (x) = 0.27938 0.18275
# Poissons Ratio (y) = 0.56145 0.31304
# Poissons Ratio (z) = 0.27070 0.23073
#
# Static dielectric constant tensor:
#      x y z
#    x 3.679540 0.000000 -0.016280 
#    y 0.000000 3.176830 0.000000 
#    z -0.016280 0.000000 3.106450 
# 
# 
# High freq. dielectric constant tensor:
#      x y z
#    x 1.670600 0.000000 -0.002860 
#    y 0.000000 1.649900 0.000000 
#    z -0.002860 0.000000 1.635720 
# 
# From -- ./inp_files/287408.got.cif
#   From: 2010.06.25/outbox.cif.g09.slc.cpg/sg12_144_cif.got.tgz:287408.got - 2010.06.28 00:19:55.
