data_PCOD8087694
_publ_section_title
;
Structure prediction by ZEFSAII (Michael W. Deem and Ramdas Pophale) SiO2 
 PCOD8087694
Probable space group: C 2/M
;
_chemical_formula_sum "Si O2"
_cell_formula_units_Z 64
_cell_length_a 14.380898
_cell_length_b 8.822832
_cell_length_c 26.769027
_cell_angle_alpha 90.000000
_cell_angle_beta 90.343069
_cell_angle_gamma 90.000000
_cell_volume 3396.399874
_symmetry_space_group_name_H-M "C 2/M"
_symmetry_group_IT_number 12
_symmetry_cell_setting 'monoclinic'
loop_
_space_group_symop_operation_xyz
x,y,z
-x,y,-z
-x,-y,-z
x,-y,z
1/2+x,1/2+y,z
1/2-x,1/2+y,-z
1/2-x,1/2-y,-z
1/2+x,1/2-y,z
loop_
_atom_site_type_symbol
_atom_site_label
_atom_site_fract_x
_atom_site_fract_y
_atom_site_fract_z
Si Si1 0.361573 0.180505 0.133395
Si Si2 0.848381 0.175702 0.506085
Si Si3 0.615452 0.678629 0.598820
Si Si4 0.500393 0.680606 0.208966
Si Si5 0.523657 0.320668 0.320527
Si Si6 0.312073 0.676049 0.612509
Si Si7 0.997029 0.178890 0.057113
Si Si8 0.347506 0.321870 0.867551
O O1 0.410769 0.245780 0.182853
O O2 0.411831 0.236855 0.083426
O O3 0.256188 0.247076 0.132291
O O4 0.364081 0.000000 0.135228
O O5 0.750000 0.250000 0.500000
O O6 0.911500 0.231982 0.458802
O O7 0.879338 0.206420 0.563562
O O8 0.834603 0.000000 0.496615
O O9 0.604354 0.500000 0.603491
O O10 0.548376 0.753666 0.640053
O O11 0.720868 0.722492 0.612058
O O12 0.489387 0.500000 0.206721
O O13 0.506520 0.745147 0.265276
O O14 0.594364 0.732521 0.180761
O O15 0.511507 0.500000 0.318775
O O16 0.627807 0.279796 0.338848
O O17 0.282271 0.500000 0.613003
O O18 0.094786 0.226710 0.082890
O O19 0.980011 0.000000 0.062548
O O20 0.000000 0.231728 0.000000
O O21 0.336464 0.500000 0.865994
#
# Coordination Sequence:
#
# PCOD8087694 Si02
#       8
#     8   8   8   8   8   8   8   8
#     4  10  19  32  51  75 100 127 162 203 242 275
#     4   8  14  25  43  64  89 118 149 186 229 281
#     4   9  17  30  46  67  94 122 151 191 240 283
#     4   9  18  35  52  66  91 127 163 199 240 290
#     4   9  18  31  49  70  91 119 158 199 240 286
#     4   9  17  30  47  68  91 120 156 190 231 290
#     4   9  18  34  54  76 105 139 168 192 226 279
#     4   8  16  31  50  70  95 128 161 193 234 278
#
# _framework density 18.843482999999999
#
# number of rings (size 3 to 8) (size 9 to 14) (size 15 to 20)
#    0.000    3.125    0.000    1.125    0.000    2.250 
#    0.000   10.625    0.000    0.000    0.000    8.750 
#    0.000    0.000    0.000    0.000    0.000    0.000 
#
# Total GULP energy -396417.744931 kJ/mol
# GULP energy per Si atom -12388.054529 kJ/mol
# Density = 1.880059 g / cm^3
# Si number density = 18.843483 Si / 1000 Ang^3
#
#
#
# Elastic Constant Matrix: (Units=GPa)
#
#
# Indices 1 2 3 4 5 6 
#
# 1 92.0778 7.5962 45.8553 0.0000 0.1275 0.0000
# 2 7.5962 15.6403 15.4813 0.0000 0.0893 0.0000
# 3 45.8553 15.4813 149.1043 0.0000 11.1017 0.0000
# 4 0.0000 0.0000 0.0000 19.1601 0.0000 1.2596
# 5 0.1275 0.0893 11.1017 0.0000 21.4869 0.0000
# 6 0.0000 0.0000 0.0000 1.2596 0.0000 21.5150
#
#
#
# Elastic Compliance Matrix: (Units=1/GPa)
#
#
# Indices 1 2 3 4 5 6 
#
# 1 0.012996 -0.002479 -0.003884 0.000000 0.001940 0.000000
# 2 -0.002479 0.072013 -0.006961 0.000000 0.003312 0.000000
# 3 -0.003884 -0.006961 0.008965 0.000000 -0.004580 0.000000
# 4 0.000000 0.000000 0.000000 0.052393 0.000000 -0.003067
# 5 0.001940 0.003312 -0.004580 0.000000 0.048881 0.000000
# 6 0.000000 0.000000 0.000000 -0.003067 0.000000 0.046659
#
#
# Mechanical properties :
#
#
# Convention : Reuss Voigt Hill
#
# Bulk Modulus (GPa) = 14.85305 43.85424 29.35364
# Shear Modulus (GPa) = 17.18226 24.95836 21.07031
#
# Velocity S-wave (km/s) = 3.02295 3.64333 3.34754
# Velocity P-wave (km/s) = 4.48149 6.40483 5.52746
#
# Compressibility (1/GPa) = 0.06732624
#
# Stress axis : x y z
#
# Youngs Moduli (GPa) = 76.94422 13.88640 111.54514
#
# Poissons Ratio (x) = 0.03442 0.43324
# Poissons Ratio (y) = 0.19072 0.77650
# Poissons Ratio (z) = 0.29885 0.09667
#
# Static dielectric constant tensor:
#      x y z
#    x 3.457640 0.000000 -0.032490 
#    y 0.000000 3.060170 0.000000 
#    z -0.032490 0.000000 3.933190 
# 
# 
# High freq. dielectric constant tensor:
#      x y z
#    x 1.725980 0.000000 0.000350 
#    y 0.000000 1.694090 0.000000 
#    z 0.000350 0.000000 1.744070 
# 
# From -- ./inp_files/359856.got.cif
#   From: 2010.06.25/outbox.cif.g09.slc.cpg/sg12_180_cif.got.tgz:359856.got - 2010.06.28 00:19:55.
