data_PCOD8087291
_publ_section_title
;
Structure prediction by ZEFSAII (Michael W. Deem and Ramdas Pophale) SiO2 
 PCOD8087291
Probable space group: C 2/M
;
_chemical_formula_sum "Si O2"
_cell_formula_units_Z 64
_cell_length_a 24.418730
_cell_length_b 8.976179
_cell_length_c 18.355176
_cell_angle_alpha 90.000000
_cell_angle_beta 120.033526
_cell_angle_gamma 90.000000
_cell_volume 3483.027836
_symmetry_space_group_name_H-M "C 2/M"
_symmetry_group_IT_number 12
_symmetry_cell_setting 'monoclinic'
loop_
_space_group_symop_operation_xyz
x,y,z
-x,y,-z
-x,-y,-z
x,-y,z
1/2+x,1/2+y,z
1/2-x,1/2+y,-z
1/2-x,1/2-y,-z
1/2+x,1/2-y,z
loop_
_atom_site_type_symbol
_atom_site_label
_atom_site_fract_x
_atom_site_fract_y
_atom_site_fract_z
Si Si1 0.030950 0.326286 0.594962
Si Si2 0.514840 0.339122 0.928656
Si Si3 0.504109 0.323672 0.280666
Si Si4 0.086632 0.675225 0.224517
Si Si5 0.620987 0.170800 0.846560
Si Si6 0.829533 0.328318 0.272599
Si Si7 0.858399 0.669347 0.982629
Si Si8 0.704362 0.825284 0.207137
O O1 0.016962 0.500000 0.597576
O O2 0.106090 0.295725 0.640510
O O3 0.000000 0.267060 0.500000
O O4 0.999518 0.239119 0.640493
O O5 0.508929 0.500000 0.881715
O O6 0.468281 0.211584 0.869273
O O7 0.585165 0.282211 0.976280
O O8 0.500000 0.377015 0.000000
O O9 0.504482 0.500000 0.285561
O O10 0.569512 0.264404 0.287347
O O11 0.444405 0.266696 0.191520
O O12 0.088421 0.500000 0.241843
O O13 0.152320 0.731060 0.231186
O O14 0.661622 0.228114 0.804975
O O15 0.665567 0.179183 0.948718
O O16 0.599362 0.000000 0.817181
O O17 0.811057 0.500000 0.261956
O O18 0.772238 0.242013 0.272858
O O19 0.879935 0.500000 0.979173
O O20 0.811020 0.722099 0.887227
O O21 0.709725 0.000000 0.216952
#
# Coordination Sequence:
#
# PCOD8087291 Si02
#       8
#     8   8   8   8   8   8   8   8
#     4   9  19  39  66  90 110 136 168 202 253 325
#     4  11  21  30  44  71 102 132 179 239 285 309
#     4  11  21  32  52  85 115 136 168 220 275 312
#     4  11  21  34  51  71 102 146 189 222 261 316
#     4   9  18  33  52  72 100 142 185 225 269 317
#     4   9  19  35  54  78 106 137 172 214 265 316
#     4  10  19  32  49  68  97 142 192 229 264 314
#     4  10  22  35  49  72 102 146 193 225 261 310
#
# _framework density 18.374817
#
# number of rings (size 3 to 8) (size 9 to 14) (size 15 to 20)
#    0.000    2.000    2.500    2.625    0.000    4.750 
#    0.000    0.000    0.000    0.750    0.000    0.000 
#    0.000    0.000    0.000    0.000    0.000    0.000 
#
# Total GULP energy -396521.529006 kJ/mol
# GULP energy per Si atom -12391.297781 kJ/mol
# Density = 1.833299 g / cm^3
# Si number density = 18.374817 Si / 1000 Ang^3
#
#
#
# Elastic Constant Matrix: (Units=GPa)
#
#
# Indices 1 2 3 4 5 6 
#
# 1 112.1089 43.7873 45.9190 0.0000 5.3367 0.0000
# 2 43.7873 65.4873 30.8727 0.0000 -2.8055 0.0000
# 3 45.9190 30.8727 95.1412 0.0000 -9.8592 0.0000
# 4 0.0000 0.0000 0.0000 15.5765 0.0000 3.1894
# 5 5.3367 -2.8055 -9.8592 0.0000 19.4033 0.0000
# 6 0.0000 0.0000 0.0000 3.1894 0.0000 29.0506
#
#
#
# Elastic Compliance Matrix: (Units=1/GPa)
#
#
# Indices 1 2 3 4 5 6 
#
# 1 0.014372 -0.007430 -0.005327 0.000000 -0.007734 0.000000
# 2 -0.007430 0.021871 -0.003137 0.000000 0.003612 0.000000
# 3 -0.005327 -0.003137 0.014994 0.000000 0.008630 0.000000
# 4 0.000000 0.000000 0.000000 0.065676 0.000000 -0.007210
# 5 -0.007734 0.003612 0.008630 0.000000 0.058572 0.000000
# 6 0.000000 0.000000 0.000000 -0.007210 0.000000 0.035214
#
#
# Mechanical properties :
#
#
# Convention : Reuss Voigt Hill
#
# Bulk Modulus (GPa) = 51.41380 57.09948 54.25664
# Shear Modulus (GPa) = 20.08275 22.94997 21.51636
#
# Velocity S-wave (km/s) = 3.30957 3.53794 3.42566
# Velocity P-wave (km/s) = 6.53036 6.91604 6.72597
#
# Compressibility (1/GPa) = 0.01945003
#
# Stress axis : x y z
#
# Youngs Moduli (GPa) = 69.58092 45.72174 66.69327
#
# Poissons Ratio (x) = 0.33969 0.35527
# Poissons Ratio (y) = 0.51695 0.20922
# Poissons Ratio (z) = 0.37066 0.14343
#
# Static dielectric constant tensor:
#      x y z
#    x 3.482170 0.000000 -0.202220 
#    y 0.000000 3.332350 0.000000 
#    z -0.202220 0.000000 3.238610 
# 
# 
# High freq. dielectric constant tensor:
#      x y z
#    x 1.707730 0.000000 -0.018100 
#    y 0.000000 1.714130 0.000000 
#    z -0.018100 0.000000 1.680550 
# 
# From -- ./inp_files/323737.got.cif
#   From: 2010.06.25/outbox.cif.g09.slc.cpg/sg12_162_cif.got.tgz:323737.got - 2010.06.28 00:19:55.
