data_PCOD8087469
_publ_section_title
;
Structure prediction by ZEFSAII (Michael W. Deem and Ramdas Pophale) SiO2 
 PCOD8087469
Probable space group: C 2/M
;
_chemical_formula_sum "Si O2"
_cell_formula_units_Z 48
_cell_length_a 22.674548
_cell_length_b 8.826646
_cell_length_c 34.026598
_cell_angle_alpha 90.000000
_cell_angle_beta 156.387904
_cell_angle_gamma 90.000000
_cell_volume 2727.730515
_symmetry_space_group_name_H-M "C 2/M"
_symmetry_group_IT_number 12
_symmetry_cell_setting 'monoclinic'
loop_
_space_group_symop_operation_xyz
x,y,z
-x,y,-z
-x,-y,-z
x,-y,z
1/2+x,1/2+y,z
1/2-x,1/2+y,-z
1/2-x,1/2-y,-z
1/2+x,1/2-y,z
loop_
_atom_site_type_symbol
_atom_site_label
_atom_site_fract_x
_atom_site_fract_y
_atom_site_fract_z
Si Si1 0.915066 0.826145 0.556697
Si Si2 0.073545 0.676898 0.811975
Si Si3 0.586015 0.822899 0.591689
Si Si4 0.402241 0.820917 0.783637
Si Si5 0.428573 0.824650 0.645445
Si Si6 0.155292 0.822973 0.976204
O O1 0.741098 0.804055 0.446860
O O2 0.971322 0.773462 0.633688
O O3 0.987204 0.719877 0.568355
O O4 0.961425 0.000000 0.578312
O O5 0.038532 0.500000 0.789288
O O6 0.975022 0.743226 0.787700
O O7 0.023708 0.744465 0.739667
O O8 0.248946 0.707197 0.925600
O O9 0.500000 0.775203 0.500000
O O10 0.735766 0.730272 0.684977
O O11 0.621896 0.000000 0.614303
O O12 0.494109 0.754178 0.877161
O O13 0.411559 0.000000 0.791643
O O14 0.465197 0.000000 0.659030
O O15 0.136769 0.000000 0.957298
O O16 0.250000 0.750000 0.000000
#
# Coordination Sequence:
#
# PCOD8087469 Si02
#       6
#     8   8   8   8   8   8
#     4  10  20  33  50  73 100 131 164 199 243 290
#     4   8  15  28  49  74  98 128 164 200 241 289
#     4  11  23  36  51  73 100 130 164 201 242 291
#     4  10  19  32  50  73 102 134 165 200 247 297
#     4   9  17  32  52  72  97 129 165 203 240 284
#     4   9  16  28  46  71 101 131 166 205 247 292
#
# _framework density 17.597045999999999
#
# number of rings (size 3 to 8) (size 9 to 14) (size 15 to 20)
#    0.000    2.500    0.000    4.000    0.000    3.333 
#    0.000    5.000    0.000    1.000    0.000    7.000 
#    0.000    0.000    0.000    0.000    0.000    0.000 
#
# Total GULP energy -297502.970425 kJ/mol
# GULP energy per Si atom -12395.957101 kJ/mol
# Density = 1.755699 g / cm^3
# Si number density = 17.597046 Si / 1000 Ang^3
#
#
#
# Elastic Constant Matrix: (Units=GPa)
#
#
# Indices 1 2 3 4 5 6 
#
# 1 77.8707 22.3147 49.6547 0.0007 -16.8785 -0.0004
# 2 22.3147 63.2471 43.9974 0.0011 -6.9447 -0.0010
# 3 49.6547 43.9974 123.1885 0.0046 -25.0911 -0.0045
# 4 0.0007 0.0011 0.0046 26.5467 0.0007 0.5253
# 5 -16.8785 -6.9447 -25.0911 0.0007 28.4194 0.0002
# 6 -0.0004 -0.0010 -0.0045 0.5253 0.0002 21.5810
#
#
#
# Elastic Compliance Matrix: (Units=1/GPa)
#
#
# Indices 1 2 3 4 5 6 
#
# 1 0.018074 -0.001971 -0.005478 0.000000 0.005416 -0.000001
# 2 -0.001971 0.021330 -0.007316 0.000000 -0.002418 -0.000001
# 3 -0.005478 -0.007316 0.014524 -0.000002 0.007782 0.000003
# 4 0.000000 0.000000 -0.000002 0.037688 -0.000003 -0.000917
# 5 0.005416 -0.002418 0.007782 -0.000003 0.044683 0.000001
# 6 -0.000001 -0.000001 0.000003 -0.000917 0.000001 0.046359
#
#
# Mechanical properties :
#
#
# Convention : Reuss Voigt Hill
#
# Bulk Modulus (GPa) = 40.98868 55.13778 48.06323
# Shear Modulus (GPa) = 22.69418 25.19873 23.94645
#
# Velocity S-wave (km/s) = 3.59508 3.78826 3.69293
# Velocity P-wave (km/s) = 6.36995 7.10888 6.74953
#
# Compressibility (1/GPa) = 0.02439698
#
# Stress axis : x y z
#
# Youngs Moduli (GPa) = 55.32922 46.88132 68.85349
#
# Poissons Ratio (x) = 0.09242 0.37717
# Poissons Ratio (y) = 0.10907 0.50374
# Poissons Ratio (z) = 0.30309 0.34299
#
# Static dielectric constant tensor:
#      x y z
#    x 3.115080 0.000000 -0.308720 
#    y 0.000000 3.285050 0.000000 
#    z -0.308720 0.000000 3.699840 
# 
# 
# High freq. dielectric constant tensor:
#      x y z
#    x 1.649170 0.000000 -0.016830 
#    y 0.000000 1.678020 0.000000 
#    z -0.016830 0.000000 1.690560 
# 
# From -- ./inp_files/281820.got.cif
#   From: 2010.06.25/outbox.cif.g09.slc.cpg/sg12_141_cif.got.tgz:281820.got - 2010.06.28 00:19:55.
