data_PCOD8087105
_publ_section_title
;
Structure prediction by ZEFSAII (Michael W. Deem and Ramdas Pophale) SiO2 
 PCOD8087105
Probable space group: C 2/M
;
_chemical_formula_sum "Si O2"
_cell_formula_units_Z 48
_cell_length_a 14.002715
_cell_length_b 13.199635
_cell_length_c 13.436396
_cell_angle_alpha 90.000000
_cell_angle_beta 71.221151
_cell_angle_gamma 90.000000
_cell_volume 2351.259761
_symmetry_space_group_name_H-M "C 2/M"
_symmetry_group_IT_number 12
_symmetry_cell_setting 'monoclinic'
loop_
_space_group_symop_operation_xyz
x,y,z
-x,y,-z
-x,-y,-z
x,-y,z
1/2+x,1/2+y,z
1/2-x,1/2+y,-z
1/2-x,1/2-y,-z
1/2+x,1/2-y,z
loop_
_atom_site_type_symbol
_atom_site_label
_atom_site_fract_x
_atom_site_fract_y
_atom_site_fract_z
Si Si1 0.611152 0.113855 0.422031
Si Si2 0.005723 0.383555 0.112456
Si Si3 0.730163 0.383513 0.473682
Si Si4 0.925756 0.882973 0.312059
Si Si5 0.614989 0.751903 0.227406
Si Si6 0.691676 0.210081 0.747929
O O1 0.500000 0.114578 0.500000
O O2 0.686307 0.163487 0.478448
O O3 0.610867 0.170787 0.319183
O O4 0.649707 0.000000 0.388458
O O5 0.038573 0.500000 0.113280
O O6 0.896981 0.369306 0.200686
O O7 0.088407 0.311375 0.135539
O O8 0.000000 0.350531 0.000000
O O9 0.755780 0.500000 0.443986
O O10 0.619419 0.371745 0.560853
O O11 0.738724 0.325397 0.367230
O O12 0.856182 0.820546 0.257909
O O13 0.039486 0.841471 0.272222
O O14 0.926021 0.000000 0.278007
O O15 0.731315 0.713748 0.183765
#
# Coordination Sequence:
#
# PCOD8087105 Si02
#       6
#     8   8   8   8   8   8
#     4  10  19  31  53  84 117 153 197 237 274 333
#     4  10  23  44  65  87 114 143 189 253 309 348
#     4  10  20  35  55  82 122 160 192 230 279 335
#     4  10  22  37  52  81 125 162 188 229 277 335
#     4  11  23  35  62  87 114 154 196 238 280 353
#     4  11  22  37  62  85 116 154 197 240 283 347
#
# _framework density 20.414587999999998
#
# number of rings (size 3 to 8) (size 9 to 14) (size 15 to 20)
#    0.000    1.667    1.667    3.500    2.333    4.000 
#    0.000    1.667    0.000    8.000    0.000    0.000 
#    0.000    0.000    0.000    0.000    0.000    0.000 
#
# Total GULP energy -297591.125373 kJ/mol
# GULP energy per Si atom -12399.630224 kJ/mol
# Density = 2.036812 g / cm^3
# Si number density = 20.414588 Si / 1000 Ang^3
#
#
#
# Elastic Constant Matrix: (Units=GPa)
#
#
# Indices 1 2 3 4 5 6 
#
# 1 105.7746 22.2656 12.5945 0.0000 16.5210 0.0000
# 2 22.2656 61.6670 22.7764 0.0000 9.9914 0.0000
# 3 12.5945 22.7764 60.0863 0.0000 18.8259 0.0000
# 4 0.0000 0.0000 0.0000 27.9759 0.0000 0.2554
# 5 16.5210 9.9914 18.8259 0.0000 25.9582 0.0000
# 6 0.0000 0.0000 0.0000 0.2554 0.0000 19.2883
#
#
#
# Elastic Compliance Matrix: (Units=1/GPa)
#
#
# Indices 1 2 3 4 5 6 
#
# 1 0.011042 -0.003294 0.000956 0.000000 -0.006453 0.000000
# 2 -0.003294 0.019985 -0.006641 0.000000 -0.000779 0.000000
# 3 0.000956 -0.006641 0.023745 0.000000 -0.015273 0.000000
# 4 0.000000 0.000000 0.000000 0.035749 0.000000 -0.000473
# 5 -0.006453 -0.000779 -0.015273 0.000000 0.054007 0.000000
# 6 0.000000 0.000000 0.000000 -0.000473 0.000000 0.051851
#
#
# Mechanical properties :
#
#
# Convention : Reuss Voigt Hill
#
# Bulk Modulus (GPa) = 27.16416 38.08900 32.62658
# Shear Modulus (GPa) = 22.06461 25.97058 24.01759
#
# Velocity S-wave (km/s) = 3.29116 3.57060 3.43372
# Velocity P-wave (km/s) = 5.27043 5.97471 5.63359
#
# Compressibility (1/GPa) = 0.03681321
#
# Stress axis : x y z
#
# Youngs Moduli (GPa) = 90.56713 50.03865 42.11439
#
# Poissons Ratio (x) = 0.16484 -0.04027
# Poissons Ratio (y) = 0.29836 0.27967
# Poissons Ratio (z) = -0.08659 0.33229
#
# Static dielectric constant tensor:
#      x y z
#    x 2.103660 0.000000 -0.357260 
#    y 0.000000 3.899900 0.000000 
#    z -0.357260 0.000000 3.330370 
# 
# 
# High freq. dielectric constant tensor:
#      x y z
#    x 1.805040 0.000000 0.001850 
#    y 0.000000 1.812280 0.000000 
#    z 0.001850 0.000000 1.760210 
# 
# From -- ./inp_files/142731.got.cif
#   From: 2010.06.25/outbox.cif.g09.slc.cpg/sg12_72_cif.got.tgz:142731.got - 2010.06.28 00:19:55.
