data_PCOD8087896
_publ_section_title
;
Structure prediction by ZEFSAII (Michael W. Deem and Ramdas Pophale) SiO2 
 PCOD8087896
Probable space group: C 2/M
;
_chemical_formula_sum "Si O2"
_cell_formula_units_Z 40
_cell_length_a 13.518755
_cell_length_b 13.574083
_cell_length_c 16.747938
_cell_angle_alpha 90.000000
_cell_angle_beta 42.619938
_cell_angle_gamma 90.000000
_cell_volume 2081.047202
_symmetry_space_group_name_H-M "C 2/M"
_symmetry_group_IT_number 12
_symmetry_cell_setting 'monoclinic'
loop_
_space_group_symop_operation_xyz
x,y,z
-x,y,-z
-x,-y,-z
x,-y,z
1/2+x,1/2+y,z
1/2-x,1/2+y,-z
1/2-x,1/2-y,-z
1/2+x,1/2-y,z
loop_
_atom_site_type_symbol
_atom_site_label
_atom_site_fract_x
_atom_site_fract_y
_atom_site_fract_z
Si Si1 0.816936 0.386233 0.545181
Si Si2 0.111265 0.300152 0.332899
Si Si3 0.510415 0.389225 0.660154
Si Si4 0.717997 0.609508 0.070995
Si Si5 0.341750 0.698176 0.059983
O O1 0.809756 0.500000 0.575837
O O2 0.814115 0.318978 0.626134
O O3 0.679702 0.359397 0.571036
O O4 0.965848 0.366322 0.407946
O O5 0.066029 0.184812 0.356472
O O6 0.222241 0.328324 0.197316
O O7 0.494859 0.500000 0.635063
O O8 0.435020 0.380084 0.791575
O O9 0.784190 0.500000 0.043121
O O10 0.833803 0.687914 0.036658
O O11 0.686995 0.626473 0.996668
O O12 0.500000 0.676105 0.000000
#
# Coordination Sequence:
#
# PCOD8087896 Si02
#       5
#     8   8   8   8   8
#     4  10  20  34  52  74  99 128 163 201 244 291
#     4  10  19  32  52  74 100 128 163 203 241 285
#     4   9  18  34  54  73  97 130 162 197 245 293
#     4   9  19  34  51  74 101 127 161 202 242 289
#     4  10  20  33  51  74  99 130 165 200 240 287
#
# _framework density 19.221091999999999
#
# number of rings (size 3 to 8) (size 9 to 14) (size 15 to 20)
#    0.000    2.400    0.000    3.000    0.000    2.400 
#    0.000    2.000    0.000    2.400    0.000    0.000 
#    0.000    0.000    0.000    0.000    0.000    0.000 
#
# Total GULP energy -248005.045740 kJ/mol
# GULP energy per Si atom -12400.252287 kJ/mol
# Density = 1.917734 g / cm^3
# Si number density = 19.221092 Si / 1000 Ang^3
#
#
#
# Elastic Constant Matrix: (Units=GPa)
#
#
# Indices 1 2 3 4 5 6 
#
# 1 63.0592 29.3872 31.3647 0.0000 2.6080 0.0000
# 2 29.3872 96.2939 29.6083 0.0000 7.8013 0.0000
# 3 31.3647 29.6083 89.8580 -0.0001 5.3463 0.0001
# 4 0.0000 0.0000 -0.0001 27.9899 0.0000 1.3637
# 5 2.6080 7.8013 5.3463 0.0000 20.9462 0.0000
# 6 0.0000 0.0000 0.0001 1.3637 0.0000 25.1550
#
#
#
# Elastic Compliance Matrix: (Units=1/GPa)
#
#
# Indices 1 2 3 4 5 6 
#
# 1 0.020877 -0.004639 -0.005795 0.000000 0.000607 0.000000
# 2 -0.004639 0.012827 -0.002394 0.000000 -0.003589 0.000000
# 3 -0.005795 -0.002394 0.014058 0.000000 -0.001975 0.000000
# 4 0.000000 0.000000 0.000000 0.035822 0.000000 -0.001942
# 5 0.000607 -0.003589 -0.001975 0.000000 0.049506 0.000000
# 6 0.000000 0.000000 0.000000 -0.001942 0.000000 0.039859
#
#
# Mechanical properties :
#
#
# Convention : Reuss Voigt Hill
#
# Bulk Modulus (GPa) = 45.23427 47.77017 46.50222
# Shear Modulus (GPa) = 24.27504 25.40829 24.84167
#
# Velocity S-wave (km/s) = 3.55764 3.63973 3.59892
# Velocity P-wave (km/s) = 6.36086 6.52461 6.44325
#
# Compressibility (1/GPa) = 0.02210713
#
# Stress axis : x y z
#
# Youngs Moduli (GPa) = 47.89961 77.95824 71.13578
#
# Poissons Ratio (x) = 0.36163 0.41221
# Poissons Ratio (y) = 0.22219 0.17030
# Poissons Ratio (z) = 0.27757 0.18663
#
# Static dielectric constant tensor:
#      x y z
#    x 3.264520 0.000000 -0.100350 
#    y 0.000000 3.684000 0.000000 
#    z -0.100350 0.000000 3.596700 
# 
# 
# High freq. dielectric constant tensor:
#      x y z
#    x 1.729430 0.000000 -0.005900 
#    y 0.000000 1.754070 0.000000 
#    z -0.005900 0.000000 1.749910 
# 
# From -- ./inp_files/129124.got.cif
#   From: 2010.06.25/outbox.cif.g09.slc.cpg/sg12_65_cif.got.tgz:129124.got - 2010.06.28 00:19:55.
