data_PCOD8087652
_publ_section_title
;
Structure prediction by ZEFSAII (Michael W. Deem and Ramdas Pophale) SiO2 
 PCOD8087652
Probable space group: C 2/M
;
_chemical_formula_sum "Si O2"
_cell_formula_units_Z 48
_cell_length_a 18.123931
_cell_length_b 8.991338
_cell_length_c 24.582798
_cell_angle_alpha 90.000000
_cell_angle_beta 137.626340
_cell_angle_gamma 90.000000
_cell_volume 2699.877031
_symmetry_space_group_name_H-M "C 2/M"
_symmetry_group_IT_number 12
_symmetry_cell_setting 'monoclinic'
loop_
_space_group_symop_operation_xyz
x,y,z
-x,y,-z
-x,-y,-z
x,-y,z
1/2+x,1/2+y,z
1/2-x,1/2+y,-z
1/2-x,1/2-y,-z
1/2+x,1/2-y,z
loop_
_atom_site_type_symbol
_atom_site_label
_atom_site_fract_x
_atom_site_fract_y
_atom_site_fract_z
Si Si1 0.916525 0.827750 0.839346
Si Si2 0.835284 0.174915 0.006896
Si Si3 0.187306 0.824404 0.515172
Si Si4 0.975971 0.336684 0.423578
Si Si5 0.251354 0.173384 0.341139
Si Si6 0.871750 0.333315 0.919719
O O1 0.862884 0.793275 0.751486
O O2 0.850087 0.737379 0.848966
O O3 0.043591 0.781469 0.906090
O O4 0.905095 0.000000 0.848714
O O5 0.816485 0.000000 0.996303
O O6 0.750000 0.250000 0.000000
O O7 0.813286 0.236325 0.934361
O O8 0.250000 0.750000 0.500000
O O9 0.242660 0.771371 0.601418
O O10 0.059059 0.779075 0.441068
O O11 0.196731 0.000000 0.515907
O O12 0.992332 0.500000 0.405504
O O13 0.848918 0.285303 0.351353
O O14 0.000000 0.347394 0.500000
O O15 0.261644 0.000000 0.363498
O O16 0.823701 0.500000 0.894925
O O17 0.000000 0.332754 0.000000
#
# Coordination Sequence:
#
# PCOD8087652 Si02
#       6
#     8   8   8   8   8   8
#     4   9  18  33  53  75  99 129 164 205 250 294
#     4  10  19  32  51  74 101 133 169 205 246 296
#     4  11  21  33  51  74 101 132 167 203 242 292
#     4   8  15  30  51  72  95 124 157 194 238 289
#     4   9  18  34  54  75 100 128 161 204 252 296
#     4   9  17  30  49  72  97 126 162 201 240 288
#
# _framework density 17.778587999999999
#
# number of rings (size 3 to 8) (size 9 to 14) (size 15 to 20)
#    0.000    2.667    0.000    3.500    0.000    6.333 
#    0.000    1.667    0.000    0.000    0.000    0.000 
#    0.000    0.000    0.000    0.000    0.000    0.000 
#
# Total GULP energy -297512.195368 kJ/mol
# GULP energy per Si atom -12396.341474 kJ/mol
# Density = 1.773812 g / cm^3
# Si number density = 17.778588 Si / 1000 Ang^3
#
#
#
# Elastic Constant Matrix: (Units=GPa)
#
#
# Indices 1 2 3 4 5 6 
#
# 1 127.3642 73.2685 43.2104 0.0000 -8.0817 0.0000
# 2 73.2685 123.8030 42.7517 0.0000 -8.1510 0.0000
# 3 43.2104 42.7517 73.5512 0.0000 -0.2765 0.0000
# 4 0.0000 0.0000 0.0000 21.8503 0.0000 -4.9103
# 5 -8.0817 -8.1510 -0.2765 0.0000 18.6241 0.0000
# 6 0.0000 0.0000 0.0000 -4.9103 0.0000 34.8907
#
#
#
# Elastic Compliance Matrix: (Units=1/GPa)
#
#
# Indices 1 2 3 4 5 6 
#
# 1 0.012879 -0.006034 -0.004048 0.000000 0.002888 0.000000
# 2 -0.006034 0.013296 -0.004171 0.000000 0.003139 0.000000
# 3 -0.004048 -0.004171 0.018386 0.000000 -0.003309 0.000000
# 4 0.000000 0.000000 0.000000 0.047261 0.000000 0.006651
# 5 0.002888 0.003139 -0.003309 0.000000 0.056272 0.000000
# 6 0.000000 0.000000 0.000000 0.006651 0.000000 0.029597
#
#
# Mechanical properties :
#
#
# Convention : Reuss Voigt Hill
#
# Bulk Modulus (GPa) = 62.28995 71.46441 66.87718
# Shear Modulus (GPa) = 23.63517 26.10554 24.87035
#
# Velocity S-wave (km/s) = 3.65007 3.83609 3.74424
# Velocity P-wave (km/s) = 7.27163 7.73983 7.50938
#
# Compressibility (1/GPa) = 0.01605395
#
# Stress axis : x y z
#
# Youngs Moduli (GPa) = 77.64302 75.21332 54.38811
#
# Poissons Ratio (x) = 0.45385 0.22018
# Poissons Ratio (y) = 0.46851 0.22687
# Poissons Ratio (z) = 0.31432 0.31373
#
# Static dielectric constant tensor:
#      x y z
#    x 3.420400 0.000000 0.267430 
#    y 0.000000 3.374370 0.000000 
#    z 0.267430 0.000000 3.448090 
# 
# 
# High freq. dielectric constant tensor:
#      x y z
#    x 1.678310 0.000000 0.001860 
#    y 0.000000 1.691230 0.000000 
#    z 0.001860 0.000000 1.667070 
# 
# From -- ./inp_files/273701.got.cif
#   From: 2010.06.25/outbox.cif.g09.slc.cpg/sg12_137_cif.got.tgz:273701.got - 2010.06.28 00:19:55.
