data_PCOD8087943
_publ_section_title
;
Structure prediction by ZEFSAII (Michael W. Deem and Ramdas Pophale) SiO2 
 PCOD8087943
Probable space group: C 2/M
;
_chemical_formula_sum "Si O2"
_cell_formula_units_Z 56
_cell_length_a 27.858097
_cell_length_b 13.698653
_cell_length_c 15.440407
_cell_angle_alpha 90.000000
_cell_angle_beta 145.732820
_cell_angle_gamma 90.000000
_cell_volume 3317.700218
_symmetry_space_group_name_H-M "C 2/M"
_symmetry_group_IT_number 12
_symmetry_cell_setting 'monoclinic'
loop_
_space_group_symop_operation_xyz
x,y,z
-x,y,-z
-x,-y,-z
x,-y,z
1/2+x,1/2+y,z
1/2-x,1/2+y,-z
1/2-x,1/2-y,-z
1/2+x,1/2-y,z
loop_
_atom_site_type_symbol
_atom_site_label
_atom_site_fract_x
_atom_site_fract_y
_atom_site_fract_z
Si Si1 0.096368 0.612548 0.988421
Si Si2 0.677512 0.611067 0.897769
Si Si3 0.402326 0.885618 0.667885
Si Si4 0.659848 0.735078 0.558551
Si Si5 0.239344 0.734155 0.120567
Si Si6 0.302846 0.887420 0.689354
Si Si7 0.987259 0.110965 0.577696
O O1 0.109680 0.500000 0.981319
O O2 0.150120 0.679592 0.003454
O O3 0.126489 0.630194 0.131460
O O4 0.998503 0.644032 0.835074
O O5 0.710602 0.500000 0.947641
O O6 0.699180 0.659175 0.837703
O O7 0.576388 0.615291 0.761591
O O8 0.724827 0.667719 0.045000
O O9 0.372315 0.832163 0.536394
O O10 0.342984 0.852696 0.658922
O O11 0.394693 0.000000 0.638581
O O12 0.715757 0.766642 0.724107
O O13 0.716875 0.672268 0.577870
O O14 0.578895 0.673011 0.466475
O O15 0.276220 0.000000 0.646055
O O16 0.000000 0.153737 0.500000
O O17 0.952876 0.000000 0.519486
#
# Coordination Sequence:
#
# PCOD8087943 Si02
#       7
#     8   8   8   8   8   8   8
#     4   9  17  31  52  73  96 125 162 201 239 282
#     4  10  20  34  50  68  96 127 162 202 241 284
#     4  10  20  33  49  72 103 134 161 195 241 291
#     4  11  20  32  51  74 102 129 161 200 243 292
#     4  10  20  32  49  72  94 127 164 198 239 288
#     4   9  18  32  52  76  98 125 164 206 244 281
#     4  10  19  32  52  75  96 121 157 205 252 284
#
# _framework density 16.879161
#
# number of rings (size 3 to 8) (size 9 to 14) (size 15 to 20)
#    0.000    2.143    1.429    2.571    0.000    3.429 
#    0.000    0.000    0.000    0.429    0.000    0.000 
#    0.000   20.571    0.000    0.000    0.000    0.000 
#
# Total GULP energy -347276.516431 kJ/mol
# GULP energy per Si atom -12402.732730 kJ/mol
# Density = 1.684074 g / cm^3
# Si number density = 16.879161 Si / 1000 Ang^3
#
#
#
# Elastic Constant Matrix: (Units=GPa)
#
#
# Indices 1 2 3 4 5 6 
#
# 1 111.5497 48.5989 49.0479 0.0000 7.4297 0.0000
# 2 48.5989 78.8661 49.3579 0.0000 -0.6125 0.0000
# 3 49.0479 49.3579 76.5955 0.0000 4.2381 0.0000
# 4 0.0000 0.0000 0.0000 24.4980 0.0000 -1.6311
# 5 7.4297 -0.6125 4.2381 0.0000 26.1718 0.0000
# 6 0.0000 0.0000 0.0000 -1.6311 0.0000 26.4609
#
#
#
# Elastic Compliance Matrix: (Units=1/GPa)
#
#
# Indices 1 2 3 4 5 6 
#
# 1 0.013766 -0.005196 -0.005291 0.000000 -0.003173 0.000000
# 2 -0.005196 0.023407 -0.011975 0.000000 0.003962 0.000000
# 3 -0.005291 -0.011975 0.024311 0.000000 -0.002715 0.000000
# 4 0.000000 0.000000 0.000000 0.040988 0.000000 0.002527
# 5 -0.003173 0.003962 -0.002715 0.000000 0.039642 0.000000
# 6 0.000000 0.000000 0.000000 0.002527 0.000000 0.037947
#
#
# Mechanical properties :
#
#
# Convention : Reuss Voigt Hill
#
# Bulk Modulus (GPa) = 60.39090 62.33563 61.36327
# Shear Modulus (GPa) = 21.69130 23.42658 22.55894
#
# Velocity S-wave (km/s) = 3.58871 3.72949 3.65978
# Velocity P-wave (km/s) = 7.28202 7.45360 7.36831
#
# Compressibility (1/GPa) = 0.01655879
#
# Stress axis : x y z
#
# Youngs Moduli (GPa) = 72.64103 42.72193 41.13369
#
# Poissons Ratio (x) = 0.22199 0.21765
# Poissons Ratio (y) = 0.37746 0.49259
# Poissons Ratio (z) = 0.38437 0.51161
#
# Static dielectric constant tensor:
#      x y z
#    x 3.233870 0.000000 0.072320 
#    y 0.000000 3.009500 0.000000 
#    z 0.072320 0.000000 3.068250 
# 
# 
# High freq. dielectric constant tensor:
#      x y z
#    x 1.658890 0.000000 0.007920 
#    y 0.000000 1.638910 0.000000 
#    z 0.007920 0.000000 1.649650 
# 
# From -- ./inp_files/223115.got.cif
#   From: 2010.06.25/outbox.cif.g09.slc.cpg/sg12_112_cif.got.tgz:223115.got - 2010.06.28 00:19:55.
