data_PCOD8087245
_publ_section_title
;
Structure prediction by ZEFSAII (Michael W. Deem and Ramdas Pophale) SiO2 
 PCOD8087245
Probable space group: C 2/M
;
_chemical_formula_sum "Si O2"
_cell_formula_units_Z 48
_cell_length_a 27.790720
_cell_length_b 9.243653
_cell_length_c 21.069849
_cell_angle_alpha 90.000000
_cell_angle_beta 32.293311
_cell_angle_gamma 90.000000
_cell_volume 2891.694217
_symmetry_space_group_name_H-M "C 2/M"
_symmetry_group_IT_number 12
_symmetry_cell_setting 'monoclinic'
loop_
_space_group_symop_operation_xyz
x,y,z
-x,y,-z
-x,-y,-z
x,-y,z
1/2+x,1/2+y,z
1/2-x,1/2+y,-z
1/2-x,1/2-y,-z
1/2+x,1/2-y,z
loop_
_atom_site_type_symbol
_atom_site_label
_atom_site_fract_x
_atom_site_fract_y
_atom_site_fract_z
Si Si1 0.111841 0.335045 0.037200
Si Si2 0.984639 0.166334 0.091171
Si Si3 0.707749 0.333370 0.105582
Si Si4 0.951559 0.666914 0.751549
Si Si5 0.674448 0.168229 0.668015
Si Si6 0.652359 0.165968 0.545917
O O1 0.083895 0.500000 0.052388
O O2 0.070784 0.291614 0.151050
O O3 0.072152 0.229878 0.028586
O O4 0.221142 0.318660 0.915647
O O5 0.895066 0.252993 0.208639
O O6 0.972703 0.000000 0.124561
O O7 0.000000 0.183645 0.000000
O O8 0.693838 0.500000 0.102830
O O9 0.610039 0.261403 0.228228
O O10 0.750000 0.250000 0.000000
O O11 0.928577 0.500000 0.765107
O O12 0.056154 0.700418 0.621191
O O13 0.644216 0.197731 0.629776
O O14 0.773951 0.232181 0.569045
O O15 0.675932 0.000000 0.683409
O O16 0.680663 0.000000 0.503396
#
# Coordination Sequence:
#
# PCOD8087245 Si02
#       6
#     8   8   8   8   8   8
#     4   9  17  31  46  64  92 124 158 195 231 275
#     4  11  23  35  48  68  93 124 163 202 238 278
#     4   9  17  27  41  64  93 122 154 189 228 278
#     4   9  16  28  45  68  97 125 153 185 228 280
#     4  10  19  32  48  68  93 124 160 194 233 280
#     4   9  17  30  47  69  98 126 153 190 232 278
#
# _framework density 16.599266
#
# number of rings (size 3 to 8) (size 9 to 14) (size 15 to 20)
#    0.000    2.500    1.667    2.500    0.000    6.000 
#    0.000    0.000    0.000    0.000    0.000    1.167 
#    0.000    9.333    0.000    0.000    0.000    0.000 
#
# Total GULP energy -297531.990416 kJ/mol
# GULP energy per Si atom -12397.166267 kJ/mol
# Density = 1.656148 g / cm^3
# Si number density = 16.599266 Si / 1000 Ang^3
#
#
#
# Elastic Constant Matrix: (Units=GPa)
#
#
# Indices 1 2 3 4 5 6 
#
# 1 72.2864 57.2508 45.5143 -0.0010 -25.8446 -0.0003
# 2 57.2508 121.1868 61.1955 -0.0087 -18.8472 0.0038
# 3 45.5143 61.1955 78.2994 -0.0095 -24.4137 0.0020
# 4 -0.0010 -0.0087 -0.0095 28.0281 -0.0001 -9.1135
# 5 -25.8446 -18.8472 -24.4137 -0.0001 27.2036 0.0008
# 6 -0.0003 0.0038 0.0020 -9.1135 0.0008 28.3165
#
#
#
# Elastic Compliance Matrix: (Units=1/GPa)
#
#
# Indices 1 2 3 4 5 6 
#
# 1 0.030855 -0.009177 -0.005007 -0.000003 0.018463 0.000000
# 2 -0.009177 0.016362 -0.009216 0.000001 -0.005654 -0.000001
# 3 -0.005007 -0.009216 0.026953 0.000006 0.013047 0.000001
# 4 -0.000003 0.000001 0.000006 0.039849 0.000003 0.012825
# 5 0.018463 -0.005654 0.013047 0.000003 0.062092 -0.000001
# 6 0.000000 -0.000001 0.000001 0.012825 -0.000001 0.039443
#
#
# Mechanical properties :
#
#
# Convention : Reuss Voigt Hill
#
# Bulk Modulus (GPa) = 36.53606 66.63266 51.58436
# Shear Modulus (GPa) = 18.41786 23.89712 21.15749
#
# Velocity S-wave (km/s) = 3.33462 3.79839 3.57403
# Velocity P-wave (km/s) = 6.07327 7.71142 6.94085
#
# Compressibility (1/GPa) = 0.02737022
#
# Stress axis : x y z
#
# Youngs Moduli (GPa) = 32.40919 61.11897 37.10221
#
# Poissons Ratio (x) = 0.56089 0.18576
# Poissons Ratio (y) = 0.29742 0.34193
# Poissons Ratio (z) = 0.16227 0.56326
#
# Static dielectric constant tensor:
#      x y z
#    x 3.208130 0.000000 -0.552820 
#    y 0.000000 3.303330 0.000000 
#    z -0.552820 0.000000 3.041940 
# 
# 
# High freq. dielectric constant tensor:
#      x y z
#    x 1.615150 0.000000 -0.044540 
#    y 0.000000 1.651110 0.000000 
#    z -0.044540 0.000000 1.612220 
# 
# From -- ./inp_files/291695.got.cif
#   From: 2010.06.25/outbox.cif.g09.slc.cpg/sg12_146_cif.got.tgz:291695.got - 2010.06.28 00:19:55.
