data_PCOD8087836
_publ_section_title
;
Structure prediction by ZEFSAII (Michael W. Deem and Ramdas Pophale) SiO2 
 PCOD8087836
Probable space group: C 2/M
;
_chemical_formula_sum "Si O2"
_cell_formula_units_Z 56
_cell_length_a 19.206876
_cell_length_b 8.839755
_cell_length_c 28.173754
_cell_angle_alpha 90.000000
_cell_angle_beta 39.127408
_cell_angle_gamma 90.000000
_cell_volume 3018.584665
_symmetry_space_group_name_H-M "C 2/M"
_symmetry_group_IT_number 12
_symmetry_cell_setting 'monoclinic'
loop_
_space_group_symop_operation_xyz
x,y,z
-x,y,-z
-x,-y,-z
x,-y,z
1/2+x,1/2+y,z
1/2-x,1/2+y,-z
1/2-x,1/2-y,-z
1/2+x,1/2-y,z
loop_
_atom_site_type_symbol
_atom_site_label
_atom_site_fract_x
_atom_site_fract_y
_atom_site_fract_z
Si Si1 0.279203 0.820361 0.265775
Si Si2 0.144211 0.822981 0.579367
Si Si3 0.560394 0.821445 0.899532
Si Si4 0.886372 0.323404 0.811263
Si Si5 0.416785 0.177718 0.686239
Si Si6 0.888039 0.824023 0.294238
Si Si7 0.335569 0.178833 0.057963
O O1 0.379610 0.760204 0.179297
O O2 0.164361 0.755489 0.307987
O O3 0.300093 0.759523 0.307368
O O4 0.272111 0.000000 0.269862
O O5 0.250000 0.750000 0.500000
O O6 0.149427 0.790060 0.632544
O O7 0.037530 0.744709 0.612886
O O8 0.139555 0.000000 0.570777
O O9 0.623965 0.760398 0.912224
O O10 0.568225 0.000000 0.897762
O O11 0.430766 0.775551 0.969507
O O12 0.901513 0.500000 0.812147
O O13 0.877975 0.282758 0.760035
O O14 0.776881 0.264842 0.895721
O O15 0.990220 0.240593 0.779804
O O16 0.419237 0.000000 0.675704
O O17 0.888368 0.000000 0.282159
O O18 0.313249 0.000000 0.070005
#
# Coordination Sequence:
#
# PCOD8087836 Si02
#       7
#     8   8   8   8   8   8   8
#     4  11  20  34  55  81 111 143 182 225 268 317
#     4  10  21  39  63  87 111 139 174 215 261 315
#     4   8  16  28  48  75 104 140 180 224 273 319
#     4  10  19  32  51  78 106 138 183 231 269 312
#     4  10  20  34  55  82 112 144 179 218 262 316
#     4  10  22  38  56  79 109 145 177 213 267 324
#     4   9  15  29  50  73 102 139 183 227 273 321
#
# _framework density 18.551741
#
# number of rings (size 3 to 8) (size 9 to 14) (size 15 to 20)
#    0.000    2.286    1.429    3.000    0.000    2.857 
#    0.000    4.286    0.000    4.286    0.000    0.000 
#    0.000    0.000    0.000    0.000    0.000    0.000 
#
# Total GULP energy -347217.662162 kJ/mol
# GULP energy per Si atom -12400.630791 kJ/mol
# Density = 1.850952 g / cm^3
# Si number density = 18.551741 Si / 1000 Ang^3
#
#
#
# Elastic Constant Matrix: (Units=GPa)
#
#
# Indices 1 2 3 4 5 6 
#
# 1 117.7020 55.0106 51.3239 -0.0002 -19.8494 0.0008
# 2 55.0106 88.4188 50.8362 -0.0004 -12.1439 0.0017
# 3 51.3239 50.8362 124.4879 0.0000 -26.3459 0.0000
# 4 -0.0002 -0.0004 0.0000 29.8202 0.0000 -5.8741
# 5 -19.8494 -12.1439 -26.3459 0.0000 23.5980 -0.0001
# 6 0.0008 0.0017 0.0000 -5.8741 -0.0001 30.7975
#
#
#
# Elastic Compliance Matrix: (Units=1/GPa)
#
#
# Indices 1 2 3 4 5 6 
#
# 1 0.013230 -0.006534 -0.001496 0.000000 0.006096 0.000000
# 2 -0.006534 0.018030 -0.005065 0.000000 -0.001872 -0.000001
# 3 -0.001496 -0.005065 0.012963 0.000000 0.010607 0.000000
# 4 0.000000 0.000000 0.000000 0.034843 0.000000 0.006646
# 5 0.006096 -0.001872 0.010607 0.000000 0.058383 0.000000
# 6 0.000000 -0.000001 0.000000 0.006646 0.000000 0.033738
#
#
# Mechanical properties :
#
#
# Convention : Reuss Voigt Hill
#
# Bulk Modulus (GPa) = 55.45555 71.66111 63.55833
# Shear Modulus (GPa) = 24.58346 28.40569 26.49458
#
# Velocity S-wave (km/s) = 3.64418 3.91725 3.78318
# Velocity P-wave (km/s) = 6.90391 7.69229 7.30874
#
# Compressibility (1/GPa) = 0.01803246
#
# Stress axis : x y z
#
# Youngs Moduli (GPa) = 75.58484 55.46332 77.14150
#
# Poissons Ratio (x) = 0.36238 0.11543
# Poissons Ratio (y) = 0.49385 0.39074
# Poissons Ratio (z) = 0.11310 0.28094
#
# Static dielectric constant tensor:
#      x y z
#    x 3.274500 0.000000 -0.061690 
#    y 0.000000 3.299750 0.000000 
#    z -0.061690 0.000000 3.483340 
# 
# 
# High freq. dielectric constant tensor:
#      x y z
#    x 1.705080 0.000000 -0.016260 
#    y 0.000000 1.717240 0.000000 
#    z -0.016260 0.000000 1.715060 
# 
# From -- ./inp_files/342211.got.cif
#   From: 2010.06.25/outbox.cif.g09.slc.cpg/sg12_172_cif.got.tgz:342211.got - 2010.06.28 00:19:55.
