data_PCOD8087587
_publ_section_title
;
Structure prediction by ZEFSAII (Michael W. Deem and Ramdas Pophale) SiO2 
 PCOD8087587
Probable space group: C 2/M
;
_chemical_formula_sum "Si O2"
_cell_formula_units_Z 64
_cell_length_a 16.282343
_cell_length_b 13.347205
_cell_length_c 28.998763
_cell_angle_alpha 90.000000
_cell_angle_beta 34.082161
_cell_angle_gamma 90.000000
_cell_volume 3531.589541
_symmetry_space_group_name_H-M "C 2/M"
_symmetry_group_IT_number 12
_symmetry_cell_setting 'monoclinic'
loop_
_space_group_symop_operation_xyz
x,y,z
-x,y,-z
-x,-y,-z
x,-y,z
1/2+x,1/2+y,z
1/2-x,1/2+y,-z
1/2-x,1/2-y,-z
1/2+x,1/2-y,z
loop_
_atom_site_type_symbol
_atom_site_label
_atom_site_fract_x
_atom_site_fract_y
_atom_site_fract_z
Si Si1 0.250941 0.201365 0.320035
Si Si2 0.004365 0.114096 0.611180
Si Si3 0.771883 0.611393 0.724842
Si Si4 0.626883 0.381475 0.975484
Si Si5 0.079678 0.271910 0.175681
Si Si6 0.432141 0.611409 0.894986
Si Si7 0.983556 0.721283 0.692130
Si Si8 0.274863 0.616359 0.571475
O O1 0.164689 0.128830 0.325138
O O2 0.212242 0.317948 0.327525
O O3 0.424565 0.178878 0.231944
O O4 0.192517 0.181196 0.398358
O O5 0.039819 0.181860 0.638547
O O6 0.110250 0.149080 0.520720
O O7 0.033727 0.000000 0.611577
O O8 0.836799 0.500000 0.684571
O O9 0.604941 0.601596 0.816071
O O10 0.846758 0.665010 0.733371
O O11 0.613596 0.500000 0.981672
O O12 0.789340 0.351712 0.883605
O O13 0.500000 0.337863 0.000000
O O14 0.610887 0.341271 0.035415
O O15 0.123029 0.180614 0.121589
O O16 0.056596 0.235687 0.238865
O O17 0.363084 0.500000 0.920279
O O18 0.110394 0.638194 0.632014
O O19 0.292310 0.500000 0.575810
#
# Coordination Sequence:
#
# PCOD8087587 Si02
#       8
#     8   8   8   8   8   8   8   8
#     4   9  19  32  50  76  98 125 166 204 246 297
#     4  10  20  34  51  70  97 132 166 205 251 297
#     4   9  17  32  52  73 101 133 164 203 248 290
#     4  10  20  33  52  77 100 125 160 200 242 290
#     4  10  20  33  51  74 100 130 159 200 247 286
#     4   9  18  33  52  73  99 131 163 196 240 293
#     4  10  20  32  49  74 100 128 168 208 245 294
#     4  10  19  32  51  72  96 129 166 208 254 293
#
# _framework density 18.122150000000001
#
# number of rings (size 3 to 8) (size 9 to 14) (size 15 to 20)
#    0.000    2.375    0.000    2.625    0.000    5.500 
#    0.000    1.875    0.000    7.125    0.000    0.000 
#    0.000    0.000    0.000    0.000    0.000    0.000 
#
# Total GULP energy -396677.267720 kJ/mol
# GULP energy per Si atom -12396.164616 kJ/mol
# Density = 1.808090 g / cm^3
# Si number density = 18.122150 Si / 1000 Ang^3
#
#
#
# Elastic Constant Matrix: (Units=GPa)
#
#
# Indices 1 2 3 4 5 6 
#
# 1 90.1313 31.0677 41.0253 -0.0001 13.3179 -0.0001
# 2 31.0677 68.1634 40.1992 -0.0002 16.8188 -0.0001
# 3 41.0253 40.1992 96.3463 -0.0006 22.9676 -0.0001
# 4 -0.0001 -0.0002 -0.0006 27.9556 0.0002 1.3232
# 5 13.3179 16.8188 22.9676 0.0002 26.3669 0.0001
# 6 -0.0001 -0.0001 -0.0001 1.3232 0.0001 22.2962
#
#
#
# Elastic Compliance Matrix: (Units=1/GPa)
#
#
# Indices 1 2 3 4 5 6 
#
# 1 0.014545 -0.003786 -0.004339 0.000000 -0.001152 0.000000
# 2 -0.003786 0.021442 -0.005717 0.000000 -0.006785 0.000000
# 3 -0.004339 -0.005717 0.016685 0.000000 -0.008696 0.000000
# 4 0.000000 0.000000 0.000000 0.035872 -0.000001 -0.002129
# 5 -0.001152 -0.006785 -0.008696 -0.000001 0.050411 0.000000
# 6 0.000000 0.000000 0.000000 -0.002129 0.000000 0.044977
#
#
# Mechanical properties :
#
#
# Convention : Reuss Voigt Hill
#
# Bulk Modulus (GPa) = 40.01906 53.24728 46.63317
# Shear Modulus (GPa) = 22.73290 24.81365 23.77327
#
# Velocity S-wave (km/s) = 3.54563 3.70434 3.62586
# Velocity P-wave (km/s) = 6.23642 6.90959 6.58162
#
# Compressibility (1/GPa) = 0.02498810
#
# Stress axis : x y z
#
# Youngs Moduli (GPa) = 68.75072 46.63767 59.93394
#
# Poissons Ratio (x) = 0.17658 0.26006
# Poissons Ratio (y) = 0.26031 0.34262
# Poissons Ratio (z) = 0.29832 0.26661
#
# Static dielectric constant tensor:
#      x y z
#    x 3.471310 0.000000 0.031790 
#    y 0.000000 3.355210 0.000000 
#    z 0.031790 0.000000 3.367710 
# 
# 
# High freq. dielectric constant tensor:
#      x y z
#    x 1.707720 0.000000 0.000310 
#    y 0.000000 1.688120 0.000000 
#    z 0.000310 0.000000 1.699970 
# 
# From -- ./inp_files/315714.got.cif
#   From: 2010.06.25/outbox.cif.g09.slc.cpg/sg12_158_cif.got.tgz:315714.got - 2010.06.28 00:19:55.
