data_PCOD8087001
_publ_section_title
;
Structure prediction by ZEFSAII (Michael W. Deem and Ramdas Pophale) SiO2 
 PCOD8087001
Probable space group: C 2/M
;
_chemical_formula_sum "Si O2"
_cell_formula_units_Z 48
_cell_length_a 8.294470
_cell_length_b 19.751644
_cell_length_c 17.489877
_cell_angle_alpha 90.000000
_cell_angle_beta 117.829453
_cell_angle_gamma 90.000000
_cell_volume 2533.952446
_symmetry_space_group_name_H-M "C 2/M"
_symmetry_group_IT_number 12
_symmetry_cell_setting 'monoclinic'
loop_
_space_group_symop_operation_xyz
x,y,z
-x,y,-z
-x,-y,-z
x,-y,z
1/2+x,1/2+y,z
1/2-x,1/2+y,-z
1/2-x,1/2-y,-z
1/2+x,1/2-y,z
loop_
_atom_site_type_symbol
_atom_site_label
_atom_site_fract_x
_atom_site_fract_y
_atom_site_fract_z
Si Si1 0.129320 0.421865 0.741810
Si Si2 0.363779 0.165646 0.765603
Si Si3 0.119075 0.341554 0.598268
Si Si4 0.155295 0.576839 0.096506
Si Si5 0.015721 0.771112 0.319596
Si Si6 0.019697 0.080303 0.090203
O O1 0.117484 0.500000 0.754878
O O2 0.163217 0.407054 0.659985
O O3 0.296778 0.390461 0.829101
O O4 0.935043 0.390011 0.721582
O O5 0.411915 0.134288 0.858873
O O6 0.456978 0.237422 0.759873
O O7 0.146900 0.174820 0.715977
O O8 0.308834 0.310929 0.612136
O O9 0.000000 0.364575 0.500000
O O10 0.011841 0.286963 0.624593
O O11 0.175447 0.500000 0.135991
O O12 0.345412 0.601309 0.101858
O O13 0.000000 0.573866 0.000000
O O14 0.033355 0.000000 0.088432
O O15 0.000000 0.110463 0.000000
#
# Coordination Sequence:
#
# PCOD8087001 Si02
#       6
#     8   8   8   8   8   8
#     4  10  20  33  52  79 108 139 171 211 266 316
#     4  10  19  35  54  74 104 136 173 220 261 306
#     4  10  19  34  56  78 104 136 173 217 260 311
#     4  10  19  31  52  81 108 137 172 211 259 313
#     4   9  20  35  54  77  99 133 178 218 258 302
#     4   9  17  30  49  75 106 136 168 205 246 300
#
# _framework density 18.942737999999999
#
# number of rings (size 3 to 8) (size 9 to 14) (size 15 to 20)
#    0.000    2.333    0.000    3.000    0.000    3.000 
#    0.000    1.667    0.000    8.000    0.000    0.000 
#    0.000    0.000    0.000    0.000    0.000    0.000 
#
# Total GULP energy -297393.737541 kJ/mol
# GULP energy per Si atom -12391.405731 kJ/mol
# Density = 1.889962 g / cm^3
# Si number density = 18.942738 Si / 1000 Ang^3
#
#
#
# Elastic Constant Matrix: (Units=GPa)
#
#
# Indices 1 2 3 4 5 6 
#
# 1 120.2875 34.5075 43.6167 0.0000 12.6341 0.0000
# 2 34.5075 43.2133 35.0482 0.0000 11.6488 0.0000
# 3 43.6167 35.0482 122.6382 0.0000 2.4656 0.0000
# 4 0.0000 0.0000 0.0000 20.8186 0.0000 2.4851
# 5 12.6341 11.6488 2.4656 0.0000 24.0962 0.0000
# 6 0.0000 0.0000 0.0000 2.4851 0.0000 27.3923
#
#
#
# Elastic Compliance Matrix: (Units=1/GPa)
#
#
# Indices 1 2 3 4 5 6 
#
# 1 0.011217 -0.006635 -0.002043 0.000000 -0.002464 0.000000
# 2 -0.006635 0.039366 -0.008595 0.000000 -0.014672 0.000000
# 3 -0.002043 -0.008595 0.011255 0.000000 0.004075 0.000000
# 4 0.000000 0.000000 0.000000 0.048560 0.000000 -0.004406
# 5 -0.002464 -0.014672 0.004075 0.000000 0.049468 0.000000
# 6 0.000000 0.000000 0.000000 -0.004406 0.000000 0.036906
#
#
# Mechanical properties :
#
#
# Convention : Reuss Voigt Hill
#
# Bulk Modulus (GPa) = 36.64379 56.94263 46.79321
# Shear Modulus (GPa) = 20.79715 25.99252 23.39484
#
# Velocity S-wave (km/s) = 3.31705 3.70829 3.51811
# Velocity P-wave (km/s) = 5.83583 6.96139 6.42331
#
# Compressibility (1/GPa) = 0.02728975
#
# Stress axis : x y z
#
# Youngs Moduli (GPa) = 89.15254 25.40261 88.84686
#
# Poissons Ratio (x) = 0.16856 0.18155
# Poissons Ratio (y) = 0.59156 0.76367
# Poissons Ratio (z) = 0.18218 0.21834
#
# Static dielectric constant tensor:
#      x y z
#    x 3.776640 0.000000 -0.058160 
#    y 0.000000 3.403140 0.000000 
#    z -0.058160 0.000000 3.402880 
# 
# 
# High freq. dielectric constant tensor:
#      x y z
#    x 1.756270 0.000000 -0.001960 
#    y 0.000000 1.711680 0.000000 
#    z -0.001960 0.000000 1.716930 
# 
# From -- ./inp_files/121971.got.cif
#   From: 2010.06.25/outbox.cif.g09.slc.cpg/sg12_61_cif.got.tgz:121971.got - 2010.06.28 00:19:55.
