data_PCOD8087816
_publ_section_title
;
Structure prediction by ZEFSAII (Michael W. Deem and Ramdas Pophale) SiO2 
 PCOD8087816
Probable space group: C 2/M
;
_chemical_formula_sum "Si O2"
_cell_formula_units_Z 64
_cell_length_a 32.702887
_cell_length_b 8.893999
_cell_length_c 25.002763
_cell_angle_alpha 90.000000
_cell_angle_beta 153.286006
_cell_angle_gamma 90.000000
_cell_volume 3269.164652
_symmetry_space_group_name_H-M "C 2/M"
_symmetry_group_IT_number 12
_symmetry_cell_setting 'monoclinic'
loop_
_space_group_symop_operation_xyz
x,y,z
-x,y,-z
-x,-y,-z
x,-y,z
1/2+x,1/2+y,z
1/2-x,1/2+y,-z
1/2-x,1/2-y,-z
1/2+x,1/2-y,z
loop_
_atom_site_type_symbol
_atom_site_label
_atom_site_fract_x
_atom_site_fract_y
_atom_site_fract_z
Si Si1 0.229514 0.322249 0.419498
Si Si2 0.068615 0.177324 0.037256
Si Si3 0.065059 0.678822 0.739578
Si Si4 0.360667 0.179129 0.485208
Si Si5 0.522017 0.169652 0.163334
Si Si6 0.210413 0.678540 0.825295
Si Si7 0.123339 0.328561 0.921965
Si Si8 0.270163 0.821621 0.271078
O O1 0.243681 0.500000 0.439628
O O2 0.250000 0.250000 0.500000
O O3 0.293527 0.254776 0.448817
O O4 0.126055 0.278622 0.285367
O O5 0.035290 0.217940 0.939709
O O6 0.070429 0.000000 0.045466
O O7 0.169286 0.242795 0.164788
O O8 0.000000 0.250578 0.000000
O O9 0.061460 0.500000 0.736376
O O10 0.125036 0.738363 0.760022
O O11 0.112038 0.737870 0.848972
O O12 0.962404 0.739608 0.614260
O O13 0.335270 0.231568 0.395203
O O14 0.352493 0.000000 0.481961
O O15 0.477318 0.180701 0.169790
O O16 0.513860 0.000000 0.131603
O O17 0.214120 0.500000 0.830577
O O18 0.197100 0.738506 0.748874
O O19 0.304569 0.733925 0.960330
O O20 0.158134 0.500000 0.961079
O O21 0.267327 0.000000 0.265419
#
# Coordination Sequence:
#
# PCOD8087816 Si02
#       8
#     8   8   8   8   8   8   8   8
#     4  11  23  39  58  83 113 147 187 230 274 329
#     4  10  19  32  51  77 108 140 177 224 274 324
#     4   9  19  34  56  81 108 144 186 232 282 330
#     4  10  20  38  59  80 111 151 187 230 280 329
#     4  10  21  35  53  77 107 142 180 220 269 330
#     4  10  19  34  55  82 111 142 184 233 280 332
#     4  10  19  34  53  78 109 142 180 226 281 337
#     4   9  18  32  53  81 112 143 184 232 278 328
#
# _framework density 19.576867
#
# number of rings (size 3 to 8) (size 9 to 14) (size 15 to 20)
#    0.000    2.125    1.250    2.250    0.000    4.750 
#    0.000    6.250    0.000    0.000    0.000    1.750 
#    0.000    0.000    0.000    0.000    0.000    0.000 
#
# Total GULP energy -396752.155665 kJ/mol
# GULP energy per Si atom -12398.504865 kJ/mol
# Density = 1.953231 g / cm^3
# Si number density = 19.576867 Si / 1000 Ang^3
#
#
#
# Elastic Constant Matrix: (Units=GPa)
#
#
# Indices 1 2 3 4 5 6 
#
# 1 154.8344 21.4416 61.1896 0.0000 -4.3726 0.0000
# 2 21.4416 24.6070 20.3994 0.0000 0.6019 0.0000
# 3 61.1896 20.3994 119.5814 0.0000 -3.7361 0.0000
# 4 0.0000 0.0000 0.0000 21.6934 0.0000 -2.1227
# 5 -4.3726 0.6019 -3.7361 0.0000 41.9354 0.0000
# 6 0.0000 0.0000 0.0000 -2.1227 0.0000 23.2291
#
#
#
# Elastic Compliance Matrix: (Units=1/GPa)
#
#
# Indices 1 2 3 4 5 6 
#
# 1 0.008506 -0.004467 -0.003571 0.000000 0.000633 0.000000
# 2 -0.004467 0.049761 -0.006257 0.000000 -0.001737 0.000000
# 3 -0.003571 -0.006257 0.011280 0.000000 0.000722 0.000000
# 4 0.000000 0.000000 0.000000 0.046513 0.000000 0.004250
# 5 0.000633 -0.001737 0.000722 0.000000 0.024001 0.000000
# 6 0.000000 0.000000 0.000000 0.004250 0.000000 0.043438
#
#
# Mechanical properties :
#
#
# Convention : Reuss Voigt Hill
#
# Bulk Modulus (GPa) = 24.41605 56.12045 40.26825
# Shear Modulus (GPa) = 22.14922 30.43773 26.29347
#
# Velocity S-wave (km/s) = 3.36727 3.94735 3.66879
# Velocity P-wave (km/s) = 5.25519 7.03593 6.20972
#
# Compressibility (1/GPa) = 0.04095666
#
# Stress axis : x y z
#
# Youngs Moduli (GPa) = 117.56188 20.09599 88.65549
#
# Poissons Ratio (x) = 0.08977 0.31657
# Poissons Ratio (y) = 0.52518 0.55473
# Poissons Ratio (z) = 0.41978 0.12574
#
# Static dielectric constant tensor:
#      x y z
#    x 4.036200 0.000000 0.041590 
#    y 0.000000 3.216210 0.000000 
#    z 0.041590 0.000000 3.708510 
# 
# 
# High freq. dielectric constant tensor:
#      x y z
#    x 1.781880 0.000000 0.001530 
#    y 0.000000 1.723270 0.000000 
#    z 0.001530 0.000000 1.767360 
# 
# From -- ./inp_files/243836.got.cif
#   From: 2010.06.25/outbox.cif.g09.slc.cpg/sg12_122_cif.got.tgz:243836.got - 2010.06.28 00:19:55.
