data_PCOD8087745
_publ_section_title
;
Structure prediction by ZEFSAII (Michael W. Deem and Ramdas Pophale) SiO2 
 PCOD8087745
Probable space group: C 2/M
;
_chemical_formula_sum "Si O2"
_cell_formula_units_Z 64
_cell_length_a 13.771125
_cell_length_b 28.979763
_cell_length_c 9.105050
_cell_angle_alpha 90.000000
_cell_angle_beta 100.389738
_cell_angle_gamma 90.000000
_cell_volume 3574.100638
_symmetry_space_group_name_H-M "C 2/M"
_symmetry_group_IT_number 12
_symmetry_cell_setting 'monoclinic'
loop_
_space_group_symop_operation_xyz
x,y,z
-x,y,-z
-x,-y,-z
x,-y,z
1/2+x,1/2+y,z
1/2-x,1/2+y,-z
1/2-x,1/2-y,-z
1/2+x,1/2-y,z
loop_
_atom_site_type_symbol
_atom_site_label
_atom_site_fract_x
_atom_site_fract_y
_atom_site_fract_z
Si Si1 0.966463 0.274996 0.839622
Si Si2 0.584395 0.375281 0.290424
Si Si3 0.140805 0.129054 0.870149
Si Si4 0.137432 0.250914 0.689533
Si Si5 0.800524 0.848759 0.411152
Si Si6 0.405452 0.827082 0.551527
Si Si7 0.889028 0.050595 0.919854
Si Si8 0.185596 0.801758 0.126104
O O1 0.927910 0.316304 0.727381
O O2 0.883966 0.241386 0.876524
O O3 0.043084 0.243158 0.768087
O O4 0.000000 0.299486 0.000000
O O5 0.473574 0.364352 0.207728
O O6 0.606572 0.368654 0.469472
O O7 0.613190 0.426836 0.243509
O O8 0.659790 0.340167 0.237030
O O9 0.203628 0.121322 0.739199
O O10 0.162683 0.084919 0.978070
O O11 0.176231 0.176147 0.960594
O O12 0.182321 0.203886 0.637246
O O13 0.108526 0.279134 0.536945
O O14 0.206335 0.282392 0.811796
O O15 0.697977 0.855268 0.473933
O O16 0.500000 0.853390 0.500000
O O17 0.837132 0.000000 0.901657
O O18 0.000000 0.043986 0.000000
#
# Coordination Sequence:
#
# PCOD8087745 Si02
#       8
#     8   8   8   8   8   8   8   8
#     4  11  22  32  46  65  92 130 182 223 246 289
#     4  10  19  32  51  76 103 132 170 206 245 298
#     4  10  22  31  50  80 103 133 166 214 250 295
#     4  11  22  33  49  66  94 145 177 216 257 290
#     4  12  20  33  50  71 102 134 175 216 257 292
#     4  10  22  37  46  62  92 136 178 215 258 291
#     4   8  16  35  56  75 106 139 159 187 248 316
#     4  11  19  34  47  69  98 134 181 214 247 289
#
# _framework density 17.906600999999998
#
# number of rings (size 3 to 8) (size 9 to 14) (size 15 to 20)
#    0.000    1.625    2.500    4.875    1.750    3.000 
#    0.000    0.625    0.000    3.000    0.000    0.000 
#    0.000    3.000    0.000    0.000    0.000    0.000 
#
# Total GULP energy -396483.770546 kJ/mol
# GULP energy per Si atom -12390.117830 kJ/mol
# Density = 1.786584 g / cm^3
# Si number density = 17.906601 Si / 1000 Ang^3
#
#
#
# Elastic Constant Matrix: (Units=GPa)
#
#
# Indices 1 2 3 4 5 6 
#
# 1 54.9835 4.9154 14.5041 0.0000 3.8370 0.0000
# 2 4.9154 54.6081 20.4011 0.0000 8.2079 0.0000
# 3 14.5041 20.4011 117.0375 0.0000 4.3891 0.0000
# 4 0.0000 0.0000 0.0000 8.8210 0.0000 -0.5840
# 5 3.8370 8.2079 4.3891 0.0000 25.6314 0.0000
# 6 0.0000 0.0000 0.0000 -0.5840 0.0000 4.5029
#
#
#
# Elastic Compliance Matrix: (Units=1/GPa)
#
#
# Indices 1 2 3 4 5 6 
#
# 1 0.018969 -0.000553 -0.002168 0.000000 -0.002291 0.000000
# 2 -0.000553 0.020476 -0.003279 0.000000 -0.005913 0.000000
# 3 -0.002168 -0.003279 0.009393 0.000000 -0.000234 0.000000
# 4 0.000000 0.000000 0.000000 0.114347 0.000000 0.014831
# 5 -0.002291 -0.005913 -0.000234 0.000000 0.041291 0.000000
# 6 0.000000 0.000000 0.000000 0.014831 0.000000 0.224003
#
#
# Mechanical properties :
#
#
# Convention : Reuss Voigt Hill
#
# Bulk Modulus (GPa) = 27.14653 34.03004 30.58828
# Shear Modulus (GPa) = 11.04341 20.24496 15.64418
#
# Velocity S-wave (km/s) = 2.48608 3.36607 2.95897
# Velocity P-wave (km/s) = 4.84085 5.84403 5.36593
#
# Compressibility (1/GPa) = 0.03683712
#
# Stress axis : x y z
#
# Youngs Moduli (GPa) = 52.71871 48.83831 106.45859
#
# Poissons Ratio (x) = 0.02700 0.23085
# Poissons Ratio (y) = 0.02915 0.34907
# Poissons Ratio (z) = 0.11432 0.16014
#
# Static dielectric constant tensor:
#      x y z
#    x 3.452950 0.000000 0.056800 
#    y 0.000000 3.232280 0.000000 
#    z 0.056800 0.000000 3.833240 
# 
# 
# High freq. dielectric constant tensor:
#      x y z
#    x 1.681470 0.000000 -0.004270 
#    y 0.000000 1.630420 0.000000 
#    z -0.004270 0.000000 1.717510 
# 
# From -- ./inp_files/67000.got.cif
#   From: 2010.06.25/outbox.cif.g09.slc.cpg/sg12_34_cif.got.tgz:67000.got - 2010.06.28 00:19:55.
