data_PCOD8087363
_publ_section_title
;
Structure prediction by ZEFSAII (Michael W. Deem and Ramdas Pophale) SiO2 
 PCOD8087363
Probable space group: C 2/M
;
_chemical_formula_sum "Si O2"
_cell_formula_units_Z 48
_cell_length_a 9.419654
_cell_length_b 23.107528
_cell_length_c 12.731917
_cell_angle_alpha 90.000000
_cell_angle_beta 104.673496
_cell_angle_gamma 90.000000
_cell_volume 2680.906091
_symmetry_space_group_name_H-M "C 2/M"
_symmetry_group_IT_number 12
_symmetry_cell_setting 'monoclinic'
loop_
_space_group_symop_operation_xyz
x,y,z
-x,y,-z
-x,-y,-z
x,-y,z
1/2+x,1/2+y,z
1/2-x,1/2+y,-z
1/2-x,1/2-y,-z
1/2+x,1/2-y,z
loop_
_atom_site_type_symbol
_atom_site_label
_atom_site_fract_x
_atom_site_fract_y
_atom_site_fract_z
Si Si1 0.017023 0.368739 0.188965
Si Si2 0.571996 0.067021 0.624285
Si Si3 0.258265 0.067335 0.052302
Si Si4 0.904648 0.247816 0.082226
Si Si5 0.116779 0.934446 0.249084
Si Si6 0.157520 0.132451 0.831801
O O1 0.190097 0.371442 0.201206
O O2 0.996009 0.388305 0.305126
O O3 0.927671 0.412272 0.096007
O O4 0.954868 0.304903 0.153922
O O5 0.500000 0.081021 0.500000
O O6 0.747208 0.077408 0.646805
O O7 0.543709 0.000000 0.654281
O O8 0.172009 0.081473 0.142807
O O9 0.256410 0.000000 0.023331
O O10 0.175037 0.102530 0.947686
O O11 0.900305 0.197635 0.167817
O O12 0.750000 0.250000 0.000000
O O13 0.000000 0.232589 0.000000
O O14 0.973853 0.898348 0.256576
O O15 0.064949 0.000000 0.244506
#
# Coordination Sequence:
#
# PCOD8087363 Si02
#       6
#     8   8   8   8   8   8
#     4  11  22  35  52  82 109 144 192 230 276 329
#     4   9  20  41  64  82 106 144 188 235 289 341
#     4  10  19  32  49  75 115 152 179 214 268 338
#     4  12  22  37  53  80 117 158 195 222 266 331
#     4   9  19  33  53  81 107 143 185 222 278 337
#     4  12  22  32  52  80 117 148 183 228 271 329
#
# _framework density 17.904394
#
# number of rings (size 3 to 8) (size 9 to 14) (size 15 to 20)
#    0.000    1.500    3.333    4.000    2.333    4.667 
#    0.000    0.833    0.000    7.000    0.000    0.000 
#    0.000    0.000    0.000    0.000    0.000    0.000 
#
# Total GULP energy -297505.562689 kJ/mol
# GULP energy per Si atom -12396.065112 kJ/mol
# Density = 1.786364 g / cm^3
# Si number density = 17.904394 Si / 1000 Ang^3
#
#
#
# Elastic Constant Matrix: (Units=GPa)
#
#
# Indices 1 2 3 4 5 6 
#
# 1 141.3583 59.0076 41.8383 0.0000 23.3303 0.0000
# 2 59.0076 96.4716 35.6766 0.0000 9.2155 0.0000
# 3 41.8383 35.6766 83.4012 0.0000 22.6447 0.0000
# 4 0.0000 0.0000 0.0000 13.2568 0.0000 3.9939
# 5 23.3303 9.2155 22.6447 0.0000 20.3812 0.0000
# 6 0.0000 0.0000 0.0000 3.9939 0.0000 30.6623
#
#
#
# Elastic Compliance Matrix: (Units=1/GPa)
#
#
# Indices 1 2 3 4 5 6 
#
# 1 0.011225 -0.005738 -0.000561 0.000000 -0.009631 0.000000
# 2 -0.005738 0.015250 -0.005092 0.000000 0.005331 0.000000
# 3 -0.000561 -0.005092 0.019547 0.000000 -0.018773 0.000000
# 4 0.000000 0.000000 0.000000 0.078514 0.000000 -0.010227
# 5 -0.009631 0.005331 -0.018773 0.000000 0.078537 0.000000
# 6 0.000000 0.000000 0.000000 -0.010227 0.000000 0.033945
#
#
# Mechanical properties :
#
#
# Convention : Reuss Voigt Hill
#
# Bulk Modulus (GPa) = 43.03263 66.03069 54.53166
# Shear Modulus (GPa) = 18.68817 25.17397 21.93107
#
# Velocity S-wave (km/s) = 3.23426 3.75376 3.50365
# Velocity P-wave (km/s) = 6.16718 7.46641 6.84768
#
# Compressibility (1/GPa) = 0.02323818
#
# Stress axis : x y z
#
# Youngs Moduli (GPa) = 89.08387 65.57563 51.15782
#
# Poissons Ratio (x) = 0.37630 0.02872
# Poissons Ratio (y) = 0.51120 0.26050
# Poissons Ratio (z) = 0.05002 0.33392
#
# Static dielectric constant tensor:
#      x y z
#    x 3.407310 0.000000 0.234270 
#    y 0.000000 3.252250 0.000000 
#    z 0.234270 0.000000 3.062430 
# 
# 
# High freq. dielectric constant tensor:
#      x y z
#    x 1.703720 0.000000 0.022560 
#    y 0.000000 1.699170 0.000000 
#    z 0.022560 0.000000 1.655660 
# 
# From -- ./inp_files/121845.got.cif
#   From: 2010.06.25/outbox.cif.g09.slc.cpg/sg12_61_cif.got.tgz:121845.got - 2010.06.28 00:19:55.
