data_PCOD8087087
_publ_section_title
;
Structure prediction by ZEFSAII (Michael W. Deem and Ramdas Pophale) SiO2 
 PCOD8087087
Probable space group: C 2/M
;
_chemical_formula_sum "Si O2"
_cell_formula_units_Z 64
_cell_length_a 23.077188
_cell_length_b 9.250408
_cell_length_c 16.095722
_cell_angle_alpha 90.000000
_cell_angle_beta 93.493560
_cell_angle_gamma 90.000000
_cell_volume 3429.623280
_symmetry_space_group_name_H-M "C 2/M"
_symmetry_group_IT_number 12
_symmetry_cell_setting 'monoclinic'
loop_
_space_group_symop_operation_xyz
x,y,z
-x,y,-z
-x,-y,-z
x,-y,z
1/2+x,1/2+y,z
1/2-x,1/2+y,-z
1/2-x,1/2-y,-z
1/2+x,1/2-y,z
loop_
_atom_site_type_symbol
_atom_site_label
_atom_site_fract_x
_atom_site_fract_y
_atom_site_fract_z
Si Si1 0.757924 0.331567 0.086876
Si Si2 0.918460 0.829678 0.674704
Si Si3 0.830529 0.666518 0.565372
Si Si4 0.720700 0.833438 0.615708
Si Si5 0.152859 0.328329 0.771083
Si Si6 0.137366 0.834344 0.156617
Si Si7 0.477843 0.165945 0.246432
Si Si8 0.461760 0.835706 0.923456
O O1 0.762793 0.500000 0.065975
O O2 0.814812 0.275312 0.141775
O O3 0.704406 0.301489 0.144535
O O4 0.750000 0.250000 0.000000
O O5 0.888896 0.753104 0.593223
O O6 0.878382 0.790079 0.750664
O O7 0.982946 0.764294 0.689994
O O8 0.923322 0.000000 0.659789
O O9 0.836488 0.500000 0.593026
O O10 0.776775 0.735070 0.609646
O O11 0.822313 0.681406 0.466105
O O12 0.687073 0.773968 0.692987
O O13 0.741040 0.000000 0.628661
O O14 0.151751 0.500000 0.771592
O O15 0.087247 0.269377 0.760718
O O16 0.099117 0.746055 0.087663
O O17 0.121486 0.000000 0.140821
O O18 0.501436 0.177974 0.156181
O O19 0.479231 0.000000 0.278117
O O20 0.446290 0.000000 0.944525
O O21 0.500000 0.765666 0.000000
#
# Coordination Sequence:
#
# PCOD8087087 Si02
#       8
#     8   8   8   8   8   8   8   8
#     4  10  21  35  52  75 101 133 171 209 254 305
#     4  10  19  34  55  76 102 137 173 212 260 307
#     4  10  19  31  53  83 110 132 168 218 261 303
#     4   9  18  34  55  80 106 139 175 209 254 307
#     4   9  18  35  57  74 100 141 177 208 250 310
#     4   9  19  34  50  71  98 131 170 207 248 304
#     4   9  18  33  52  75 100 133 176 216 255 304
#     4   9  18  30  49  75  98 124 164 214 262 300
#
# _framework density 18.660941000000001
#
# number of rings (size 3 to 8) (size 9 to 14) (size 15 to 20)
#    0.000    2.625    0.000    1.500    1.750    3.750 
#    0.000    3.750    0.000    3.750    0.000    0.000 
#    0.000    0.000    0.000    0.000    0.000    0.000 
#
# Total GULP energy -396811.473984 kJ/mol
# GULP energy per Si atom -12400.358562 kJ/mol
# Density = 1.861847 g / cm^3
# Si number density = 18.660941 Si / 1000 Ang^3
#
#
#
# Elastic Constant Matrix: (Units=GPa)
#
#
# Indices 1 2 3 4 5 6 
#
# 1 121.7290 48.7617 48.9750 0.0000 24.1339 0.0000
# 2 48.7617 73.3784 37.2893 0.0000 16.8994 0.0000
# 3 48.9750 37.2893 78.2191 0.0000 19.2413 0.0000
# 4 0.0000 0.0000 0.0000 25.3492 0.0000 5.8447
# 5 24.1339 16.8994 19.2413 0.0000 32.6111 0.0000
# 6 0.0000 0.0000 0.0000 5.8447 0.0000 29.6011
#
#
#
# Elastic Compliance Matrix: (Units=1/GPa)
#
#
# Indices 1 2 3 4 5 6 
#
# 1 0.013035 -0.005380 -0.004573 0.000000 -0.004160 0.000000
# 2 -0.005380 0.020926 -0.005755 0.000000 -0.003467 0.000000
# 3 -0.004573 -0.005755 0.019682 0.000000 -0.005246 0.000000
# 4 0.000000 0.000000 0.000000 0.041331 0.000000 -0.008161
# 5 -0.004160 -0.003467 -0.005246 0.000000 0.038635 0.000000
# 6 0.000000 0.000000 0.000000 -0.008161 0.000000 0.035394
#
#
# Mechanical properties :
#
#
# Convention : Reuss Voigt Hill
#
# Bulk Modulus (GPa) = 44.98981 60.37537 52.68259
# Shear Modulus (GPa) = 24.05849 26.73232 25.39541
#
# Velocity S-wave (km/s) = 3.59450 3.78898 3.69302
# Velocity P-wave (km/s) = 6.43340 7.18094 6.81743
#
# Compressibility (1/GPa) = 0.02222726
#
# Stress axis : x y z
#
# Youngs Moduli (GPa) = 76.71820 47.78780 50.80774
#
# Poissons Ratio (x) = 0.25708 0.23236
# Poissons Ratio (y) = 0.41272 0.29238
# Poissons Ratio (z) = 0.35086 0.27500
#
# Static dielectric constant tensor:
#      x y z
#    x 3.548730 0.000000 0.157290 
#    y 0.000000 3.336340 0.000000 
#    z 0.157290 0.000000 3.431710 
# 
# 
# High freq. dielectric constant tensor:
#      x y z
#    x 1.726710 0.000000 0.016080 
#    y 0.000000 1.706760 0.000000 
#    z 0.016080 0.000000 1.719440 
# 
# From -- ./inp_files/238653.got.cif
#   From: 2010.06.25/outbox.cif.g09.slc.cpg/sg12_120_cif.got.tgz:238653.got - 2010.06.28 00:19:55.
