data_PCOD8087195
_publ_section_title
;
Structure prediction by ZEFSAII (Michael W. Deem and Ramdas Pophale) SiO2 
 PCOD8087195
Probable space group: C 2/M
;
_chemical_formula_sum "Si O2"
_cell_formula_units_Z 52
_cell_length_a 21.685721
_cell_length_b 23.875159
_cell_length_c 5.210014
_cell_angle_alpha 90.000000
_cell_angle_beta 103.901352
_cell_angle_gamma 90.000000
_cell_volume 2618.477799
_symmetry_space_group_name_H-M "C 2/M"
_symmetry_group_IT_number 12
_symmetry_cell_setting 'monoclinic'
loop_
_space_group_symop_operation_xyz
x,y,z
-x,y,-z
-x,-y,-z
x,-y,z
1/2+x,1/2+y,z
1/2-x,1/2+y,-z
1/2-x,1/2-y,-z
1/2+x,1/2-y,z
loop_
_atom_site_type_symbol
_atom_site_label
_atom_site_fract_x
_atom_site_fract_y
_atom_site_fract_z
Si Si1 0.542095 0.564225 0.792095
Si Si2 0.162661 0.145016 0.912661
Si Si3 0.041623 0.624200 0.291623
Si Si4 0.540777 0.000000 0.290777
Si Si5 0.826867 0.609982 0.576867
Si Si6 0.280833 0.062863 0.030833
Si Si7 0.211370 0.807234 0.461370
O O1 0.500000 0.575207 0.500000
O O2 0.568042 0.500000 0.818042
O O3 0.500000 0.575207 0.000000
O O4 0.598678 0.608874 0.848678
O O5 0.220476 0.102462 0.970476
O O6 0.166678 0.185485 0.165851
O O7 0.166678 0.185485 0.667505
O O8 0.073673 0.560807 0.323673
O O9 0.111085 0.653320 0.361085
O O10 0.000000 0.638137 0.500000
O O11 0.000000 0.638137 0.000000
O O12 0.500000 0.000000 0.500000
O O13 0.500000 0.000000 0.000000
O O14 0.825981 0.572056 0.320970
O O15 0.763351 0.645089 0.513351
O O16 0.825981 0.572056 0.830993
O O17 0.254594 0.000000 0.004593
O O18 0.250000 0.750000 0.500000
#
# Coordination Sequence:
#
# PCOD8087195 Si02
#       7
#     8   8   8   4   8   8   8
#     4  10  20  34  56  87 124 164 192 218 271 352
#     4  10  20  36  57  83 112 144 183 229 278 329
#     4  10  19  32  46  65  95 132 166 204 243 297
#     4   8  16  26  38  58  82 118 158 182 218 270
#     4  10  21  34  51  75  99 134 176 214 268 320
#     4  10  20  32  50  76 107 137 168 216 265 316
#     4  10  21  38  60  82 103 137 186 239 289 327
#
# _framework density 19.858865999999999
#
# number of rings (size 3 to 8) (size 9 to 14) (size 15 to 20)
#    0.000    2.154    0.000    3.231    2.154    0.000 
#    2.769    4.615    0.000    5.538    0.000    0.000 
#    0.000    0.000    0.000    0.000    0.000    0.000 
#
# Total GULP energy -322091.841240 kJ/mol
# GULP energy per Si atom -12388.147740 kJ/mol
# Density = 1.981367 g / cm^3
# Si number density = 19.858866 Si / 1000 Ang^3
#
#
#
# Elastic Constant Matrix: (Units=GPa)
#
#
# Indices 1 2 3 4 5 6 
#
# 1 96.8715 17.8816 64.2151 0.0000 -5.9625 0.0000
# 2 17.8816 67.4127 41.0379 0.0000 -8.6993 0.0000
# 3 64.2151 41.0379 186.0891 0.0000 -27.5548 0.0000
# 4 0.0000 0.0000 0.0000 20.2301 0.0000 2.5946
# 5 -5.9625 -8.6993 -27.5548 0.0000 32.3755 0.0000
# 6 0.0000 0.0000 0.0000 2.5946 0.0000 27.1364
#
#
#
# Elastic Compliance Matrix: (Units=1/GPa)
#
#
# Indices 1 2 3 4 5 6 
#
# 1 0.013516 -0.000942 -0.004720 0.000000 -0.001781 0.000000
# 2 -0.000942 0.017272 -0.003229 0.000000 0.001719 0.000000
# 3 -0.004720 -0.003229 0.008533 0.000000 0.005525 0.000000
# 4 0.000000 0.000000 0.000000 0.050045 0.000000 -0.004785
# 5 -0.001781 0.001719 0.005525 0.000000 0.035724 0.000000
# 6 0.000000 0.000000 0.000000 -0.004785 0.000000 0.037308
#
#
# Mechanical properties :
#
#
# Convention : Reuss Voigt Hill
#
# Bulk Modulus (GPa) = 46.42933 66.29360 56.36147
# Shear Modulus (GPa) = 26.68663 31.09764 28.89214
#
# Velocity S-wave (km/s) = 3.66978 3.96148 3.81842
# Velocity P-wave (km/s) = 6.43326 7.37423 6.91976
#
# Compressibility (1/GPa) = 0.02153811
#
# Stress axis : x y z
#
# Youngs Moduli (GPa) = 73.98584 57.89878 117.19317
#
# Poissons Ratio (x) = 0.05452 0.55317
# Poissons Ratio (y) = 0.06967 0.37846
# Poissons Ratio (z) = 0.34923 0.18698
#
# Static dielectric constant tensor:
#      x y z
#    x 3.570220 0.000000 -0.212780 
#    y 0.000000 3.667740 0.000000 
#    z -0.212780 0.000000 4.136610 
# 
# 
# High freq. dielectric constant tensor:
#      x y z
#    x 1.777930 0.000000 -0.008590 
#    y 0.000000 1.737590 0.000000 
#    z -0.008590 0.000000 1.800810 
# 
# From -- ./inp_files/21717.got.cif
#   From: 2010.06.25/outbox.cif.g09.slc.cpg/sg12_11_cif.got.tgz:21717.got - 2010.06.28 00:19:55.
