data_PCOD8087000
_publ_section_title
;
Structure prediction by ZEFSAII (Michael W. Deem and Ramdas Pophale) SiO2 
 PCOD8087000
Probable space group: C 2/M
;
_chemical_formula_sum "Si O2"
_cell_formula_units_Z 64
_cell_length_a 33.257852
_cell_length_b 9.016794
_cell_length_c 11.470700
_cell_angle_alpha 90.000000
_cell_angle_beta 95.426314
_cell_angle_gamma 90.000000
_cell_volume 3424.409249
_symmetry_space_group_name_H-M "C 2/M"
_symmetry_group_IT_number 12
_symmetry_cell_setting 'monoclinic'
loop_
_space_group_symop_operation_xyz
x,y,z
-x,y,-z
-x,-y,-z
x,-y,z
1/2+x,1/2+y,z
1/2-x,1/2+y,-z
1/2-x,1/2-y,-z
1/2+x,1/2-y,z
loop_
_atom_site_type_symbol
_atom_site_label
_atom_site_fract_x
_atom_site_fract_y
_atom_site_fract_z
Si Si1 0.882237 0.825372 0.823757
Si Si2 0.279480 0.170652 0.169141
Si Si3 0.115196 0.174981 0.433416
Si Si4 0.913590 0.329056 0.216687
Si Si5 0.453806 0.674262 0.008422
Si Si6 0.454997 0.831135 0.467742
Si Si7 0.341902 0.675808 0.324882
Si Si8 0.806224 0.827798 0.945687
O O1 0.876327 0.756829 0.692468
O O2 0.846466 0.764024 0.895847
O O3 0.876600 0.000000 0.814344
O O4 0.926371 0.785898 0.887943
O O5 0.297399 0.262090 0.283485
O O6 0.231227 0.192386 0.153613
O O7 0.291346 0.000000 0.187267
O O8 0.299545 0.229646 0.056845
O O9 0.071115 0.225298 0.458788
O O10 0.147235 0.228936 0.540450
O O11 0.115378 0.000000 0.426348
O O12 0.902631 0.500000 0.189598
O O13 0.934919 0.260160 0.111013
O O14 0.945258 0.311889 0.329600
O O15 0.872708 0.242383 0.237979
O O16 0.452289 0.500000 0.035515
O O17 0.500000 0.726351 0.000000
O O18 0.500000 0.776774 0.500000
O O19 0.448253 0.000000 0.506648
O O20 0.343055 0.500000 0.314460
O O21 0.810363 0.000000 0.984267
#
# Coordination Sequence:
#
# PCOD8087000 Si02
#       8
#     8   8   8   8   8   8   8   8
#     4   9  18  35  54  72 102 138 172 211 258 308
#     4  10  19  31  52  81 108 133 173 218 257 307
#     4   9  19  34  53  75  96 131 178 215 250 304
#     4  10  20  34  52  74 101 132 171 215 256 306
#     4  10  21  34  51  77 106 137 171 211 261 313
#     4   9  19  34  51  72 100 132 166 210 264 309
#     4  10  19  33  53  76 102 133 169 213 264 308
#     4   9  18  33  54  78 105 142 176 210 258 308
#
# _framework density 18.689354999999999
#
# number of rings (size 3 to 8) (size 9 to 14) (size 15 to 20)
#    0.000    2.500    0.000    1.875    1.750    3.000 
#    0.000    1.875    0.000    0.000    0.000    0.000 
#    0.000    0.000    0.000    0.000    0.000    0.000 
#
# Total GULP energy -396749.181498 kJ/mol
# GULP energy per Si atom -12398.411922 kJ/mol
# Density = 1.864682 g / cm^3
# Si number density = 18.689355 Si / 1000 Ang^3
#
#
#
# Elastic Constant Matrix: (Units=GPa)
#
#
# Indices 1 2 3 4 5 6 
#
# 1 102.2414 24.7790 44.8374 0.0000 17.0382 0.0000
# 2 24.7790 44.2359 25.5183 0.0000 5.3106 0.0000
# 3 44.8374 25.5183 89.8250 0.0000 -0.2795 0.0000
# 4 0.0000 0.0000 0.0000 14.3214 0.0000 6.0940
# 5 17.0382 5.3106 -0.2795 0.0000 26.8927 0.0000
# 6 0.0000 0.0000 0.0000 6.0940 0.0000 25.3043
#
#
#
# Elastic Compliance Matrix: (Units=1/GPa)
#
#
# Indices 1 2 3 4 5 6 
#
# 1 0.014964 -0.003583 -0.006479 0.000000 -0.008840 0.000000
# 2 -0.003583 0.028708 -0.006378 0.000000 -0.003465 0.000000
# 3 -0.006479 -0.006378 0.016196 0.000000 0.005533 0.000000
# 4 0.000000 0.000000 0.000000 0.077798 0.000000 -0.018736
# 5 -0.008840 -0.003465 0.005533 0.000000 0.043527 0.000000
# 6 0.000000 0.000000 0.000000 -0.018736 0.000000 0.044031
#
#
# Mechanical properties :
#
#
# Convention : Reuss Voigt Hill
#
# Bulk Modulus (GPa) = 37.05358 47.39687 42.22523
# Shear Modulus (GPa) = 18.71953 22.71486 20.71719
#
# Velocity S-wave (km/s) = 3.16826 3.49003 3.33303
# Velocity P-wave (km/s) = 5.76654 6.45413 6.12000
#
# Compressibility (1/GPa) = 0.02698794
#
# Stress axis : x y z
#
# Youngs Moduli (GPa) = 66.82867 34.83296 61.74412
#
# Poissons Ratio (x) = 0.12482 0.40003
# Poissons Ratio (y) = 0.23946 0.39380
# Poissons Ratio (z) = 0.43297 0.22216
#
# Static dielectric constant tensor:
#      x y z
#    x 3.608790 0.000000 0.213920 
#    y 0.000000 3.309490 0.000000 
#    z 0.213920 0.000000 3.620810 
# 
# 
# High freq. dielectric constant tensor:
#      x y z
#    x 1.725800 0.000000 0.018290 
#    y 0.000000 1.712870 0.000000 
#    z 0.018290 0.000000 1.724150 
# 
# From -- ./inp_files/187417.got.cif
#   From: 2010.06.25/outbox.cif.g09.slc.cpg/sg12_94_cif.got.tgz:187417.got - 2010.06.28 00:19:55.
