data_PCOD8087821
_publ_section_title
;
Structure prediction by ZEFSAII (Michael W. Deem and Ramdas Pophale) SiO2 
 PCOD8087821
Probable space group: C 2/M
;
_chemical_formula_sum "Si O2"
_cell_formula_units_Z 56
_cell_length_a 19.189733
_cell_length_b 8.556124
_cell_length_c 28.486700
_cell_angle_alpha 90.000000
_cell_angle_beta 141.136398
_cell_angle_gamma 90.000000
_cell_volume 2934.810745
_symmetry_space_group_name_H-M "C 2/M"
_symmetry_group_IT_number 12
_symmetry_cell_setting 'monoclinic'
loop_
_space_group_symop_operation_xyz
x,y,z
-x,y,-z
-x,-y,-z
x,-y,z
1/2+x,1/2+y,z
1/2-x,1/2+y,-z
1/2-x,1/2-y,-z
1/2+x,1/2-y,z
loop_
_atom_site_type_symbol
_atom_site_label
_atom_site_fract_x
_atom_site_fract_y
_atom_site_fract_z
Si Si1 0.809790 0.181364 0.101331
Si Si2 0.875608 0.683080 0.811151
Si Si3 0.903327 0.817526 0.047990
Si Si4 0.829646 0.818117 0.688068
Si Si5 0.472826 0.180998 0.260482
Si Si6 0.646082 0.181895 0.707697
Si Si7 0.899672 0.816917 0.414501
O O1 0.867457 0.219124 0.082261
O O2 0.870591 0.279263 0.173128
O O3 0.817436 0.000000 0.118185
O O4 0.681643 0.234935 0.032326
O O5 0.886101 0.500000 0.807243
O O6 0.884413 0.773018 0.766352
O O7 0.759062 0.720809 0.775006
O O8 0.975340 0.742994 0.896519
O O9 0.905723 0.000000 0.038107
O O10 0.715826 0.723638 0.620266
O O11 0.916992 0.779431 0.693078
O O12 0.801581 0.000000 0.672882
O O13 0.439428 0.223891 0.296017
O O14 0.502036 0.000000 0.270159
O O15 0.589288 0.225960 0.628720
O O16 0.677364 0.000000 0.724292
O O17 0.000000 0.761703 0.500000
O O18 0.904568 0.000000 0.406530
#
# Coordination Sequence:
#
# PCOD8087821 Si02
#       7
#     8   8   8   8   8   8   8
#     4  10  20  32  51  78 109 146 185 232 283 328
#     4  11  20  33  55  80 109 145 188 235 277 326
#     4  10  19  32  51  77 109 144 187 236 281 326
#     4  11  21  34  57  85 112 146 186 226 269 324
#     4  11  22  37  56  81 114 149 185 229 277 328
#     4  10  22  38  58  83 113 148 184 224 276 330
#     4  10  21  39  63  89 115 144 180 223 270 323
#
# _framework density 19.081298
#
# number of rings (size 3 to 8) (size 9 to 14) (size 15 to 20)
#    0.000    1.571    1.429    6.429    0.000    4.571 
#    0.000    1.429    0.000    4.286    0.000    0.000 
#    0.000    0.000    0.000    0.000    0.000    0.000 
#
# Total GULP energy -347328.692214 kJ/mol
# GULP energy per Si atom -12404.596151 kJ/mol
# Density = 1.903787 g / cm^3
# Si number density = 19.081298 Si / 1000 Ang^3
#
#
#
# Elastic Constant Matrix: (Units=GPa)
#
#
# Indices 1 2 3 4 5 6 
#
# 1 96.0458 22.5210 36.9811 0.0001 5.5643 -0.0007
# 2 22.5210 51.9061 3.5979 0.0001 -2.5178 -0.0011
# 3 36.9811 3.5979 109.7678 0.0000 15.1843 -0.0001
# 4 0.0001 0.0001 0.0000 32.3897 0.0000 3.3383
# 5 5.5643 -2.5178 15.1843 0.0000 18.4741 0.0000
# 6 -0.0007 -0.0011 -0.0001 3.3383 0.0000 27.6514
#
#
#
# Elastic Compliance Matrix: (Units=1/GPa)
#
#
# Indices 1 2 3 4 5 6 
#
# 1 0.013397 -0.005594 -0.004137 0.000000 -0.001397 0.000000
# 2 -0.005594 0.021854 0.000590 0.000000 0.004178 0.000001
# 3 -0.004137 0.000590 0.011622 0.000000 -0.008226 0.000000
# 4 0.000000 0.000000 0.000000 0.031263 0.000000 -0.003774
# 5 -0.001397 0.004178 -0.008226 0.000000 0.061881 0.000000
# 6 0.000000 0.000001 0.000000 -0.003774 0.000000 0.036620
#
#
# Mechanical properties :
#
#
# Convention : Reuss Voigt Hill
#
# Bulk Modulus (GPa) = 34.97342 42.65774 38.81558
# Shear Modulus (GPa) = 24.45582 28.67771 26.56677
#
# Velocity S-wave (km/s) = 3.58392 3.88096 3.73539
# Velocity P-wave (km/s) = 5.95772 6.51819 6.24424
#
# Compressibility (1/GPa) = 0.02859314
#
# Stress axis : x y z
#
# Youngs Moduli (GPa) = 74.64276 45.75754 86.04015
#
# Poissons Ratio (x) = 0.25596 0.35594
# Poissons Ratio (y) = 0.41753 -0.05079
# Poissons Ratio (z) = 0.30879 -0.02701
#
# Static dielectric constant tensor:
#      x y z
#    x 3.393100 0.000000 0.161930 
#    y 0.000000 3.570620 0.000000 
#    z 0.161930 0.000000 3.501860 
# 
# 
# High freq. dielectric constant tensor:
#      x y z
#    x 1.722130 0.000000 0.017410 
#    y 0.000000 1.758330 0.000000 
#    z 0.017410 0.000000 1.734840 
# 
# From -- ./inp_files/377758.got.cif
#   From: 2010.06.25/outbox.cif.g09.slc.cpg/sg12_189_cif.got.tgz:377758.got - 2010.06.28 00:19:55.
