data_PCOD8087928
_publ_section_title
;
Structure prediction by ZEFSAII (Michael W. Deem and Ramdas Pophale) SiO2 
 PCOD8087928
Probable space group: C 2/M
;
_chemical_formula_sum "Si O2"
_cell_formula_units_Z 44
_cell_length_a 13.819399
_cell_length_b 13.750505
_cell_length_c 26.973016
_cell_angle_alpha 90.000000
_cell_angle_beta 153.246809
_cell_angle_gamma 90.000000
_cell_volume 2307.240183
_symmetry_space_group_name_H-M "C 2/M"
_symmetry_group_IT_number 12
_symmetry_cell_setting 'monoclinic'
loop_
_space_group_symop_operation_xyz
x,y,z
-x,y,-z
-x,-y,-z
x,-y,z
1/2+x,1/2+y,z
1/2-x,1/2+y,-z
1/2-x,1/2-y,-z
1/2+x,1/2-y,z
loop_
_atom_site_type_symbol
_atom_site_label
_atom_site_fract_x
_atom_site_fract_y
_atom_site_fract_z
Si Si1 0.895943 0.610047 0.551863
Si Si2 0.000000 0.297145 0.500000
Si Si3 0.439677 0.612866 0.305839
Si Si4 0.207588 0.785043 0.231719
Si Si5 0.554208 0.259905 0.268162
Si Si6 0.686725 0.387090 0.124672
O O1 0.941495 0.500000 0.588644
O O2 0.640564 0.632415 0.435412
O O3 0.977164 0.627265 0.533817
O O4 0.042267 0.677076 0.654180
O O5 0.793453 0.227780 0.395885
O O6 0.382306 0.500000 0.276751
O O7 0.232582 0.669634 0.232760
O O8 0.481308 0.649801 0.268830
O O9 0.068243 0.799045 0.217687
O O10 0.098024 0.842066 0.135919
O O11 0.397904 0.168337 0.201535
O O12 0.744565 0.500000 0.157891
O O13 0.500000 0.371087 0.000000
#
# Coordination Sequence:
#
# PCOD8087928 Si02
#       6
#     8   4   8   8   8   8
#     4   9  15  25  45  73 104 136 168 200 242 298
#     4   8  15  28  47  76 108 132 157 202 255 300
#     4   9  18  31  48  74 108 138 163 201 251 302
#     4  10  19  32  52  75 100 132 172 210 249 299
#     4   9  19  34  54  77 104 133 166 206 250 303
#     4  10  22  39  55  73 100 134 173 215 254 293
#
# _framework density 19.070402999999999
#
# number of rings (size 3 to 8) (size 9 to 14) (size 15 to 20)
#    0.000    2.727    0.000    1.364    0.000    8.000 
#    0.000    0.455    0.000    8.727    0.000    0.000 
#    0.000    0.000    0.000    0.000    0.000    0.000 
#
# Total GULP energy -272618.048623 kJ/mol
# GULP energy per Si atom -12391.729483 kJ/mol
# Density = 1.902700 g / cm^3
# Si number density = 19.070403 Si / 1000 Ang^3
#
#
#
# Elastic Constant Matrix: (Units=GPa)
#
#
# Indices 1 2 3 4 5 6 
#
# 1 53.9444 5.5469 15.8475 0.0007 -15.0866 0.0002
# 2 5.5469 101.1080 35.5213 0.0035 -0.6660 0.0002
# 3 15.8475 35.5213 60.3202 0.0079 -13.5900 -0.0020
# 4 0.0007 0.0035 0.0079 24.9839 -0.0012 0.1955
# 5 -15.0866 -0.6660 -13.5900 -0.0012 25.5597 -0.0005
# 6 0.0002 0.0002 -0.0020 0.1955 -0.0005 16.0188
#
#
#
# Elastic Compliance Matrix: (Units=1/GPa)
#
#
# Indices 1 2 3 4 5 6 
#
# 1 0.022786 0.000009 -0.003364 0.000001 0.011661 0.000000
# 2 0.000009 0.012854 -0.008515 0.000001 -0.004187 -0.000001
# 3 -0.003364 -0.008515 0.024970 -0.000006 0.011069 0.000004
# 4 0.000001 0.000001 -0.000006 0.040030 -0.000001 -0.000489
# 5 0.011661 -0.004187 0.011069 -0.000001 0.051783 0.000003
# 6 0.000000 -0.000001 0.000004 -0.000489 0.000003 0.062432
#
#
# Mechanical properties :
#
#
# Convention : Reuss Voigt Hill
#
# Bulk Modulus (GPa) = 27.12313 36.57822 31.85067
# Shear Modulus (GPa) = 19.92931 23.87629 21.90280
#
# Velocity S-wave (km/s) = 3.23621 3.54221 3.39266
# Velocity P-wave (km/s) = 5.31202 5.99599 5.66434
#
# Compressibility (1/GPa) = 0.03686891
#
# Stress axis : x y z
#
# Youngs Moduli (GPa) = 43.88595 77.79765 40.04769
#
# Poissons Ratio (x) = -0.00068 0.13474
# Poissons Ratio (y) = -0.00038 0.34101
# Poissons Ratio (z) = 0.14765 0.66245
#
# Static dielectric constant tensor:
#      x y z
#    x 3.397840 0.000000 -0.142640 
#    y 0.000000 3.377340 -0.000010 
#    z -0.142640 -0.000010 3.509410 
# 
# 
# High freq. dielectric constant tensor:
#      x y z
#    x 1.733800 0.000000 -0.018030 
#    y 0.000000 1.733020 0.000000 
#    z -0.018030 0.000000 1.722900 
# 
# From -- ./inp_files/176249.got.cif
#   From: 2010.06.25/outbox.cif.g09.slc.cpg/sg12_89_cif.got.tgz:176249.got - 2010.06.28 00:19:55.
