data_PCOD8087601
_publ_section_title
;
Structure prediction by ZEFSAII (Michael W. Deem and Ramdas Pophale) SiO2 
 PCOD8087601
Probable space group: C 2/M
;
_chemical_formula_sum "Si O2"
_cell_formula_units_Z 48
_cell_length_a 26.998721
_cell_length_b 8.797117
_cell_length_c 20.355629
_cell_angle_alpha 90.000000
_cell_angle_beta 33.610377
_cell_angle_gamma 90.000000
_cell_volume 2676.202504
_symmetry_space_group_name_H-M "C 2/M"
_symmetry_group_IT_number 12
_symmetry_cell_setting 'monoclinic'
loop_
_space_group_symop_operation_xyz
x,y,z
-x,y,-z
-x,-y,-z
x,-y,z
1/2+x,1/2+y,z
1/2-x,1/2+y,-z
1/2-x,1/2-y,-z
1/2+x,1/2-y,z
loop_
_atom_site_type_symbol
_atom_site_label
_atom_site_fract_x
_atom_site_fract_y
_atom_site_fract_z
Si Si1 0.830409 0.318816 0.951852
Si Si2 0.332368 0.172594 0.099808
Si Si3 0.987663 0.175787 0.245614
Si Si4 0.795215 0.176676 0.267577
Si Si5 0.036370 0.326599 0.864903
Si Si6 0.701282 0.674297 0.492108
O O1 0.835756 0.500000 0.938807
O O2 0.921604 0.243862 0.823168
O O3 0.750000 0.250000 0.000000
O O4 0.817153 0.269070 0.042447
O O5 0.274549 0.270532 0.215531
O O6 0.299733 0.000000 0.141806
O O7 0.436876 0.186640 0.003806
O O8 0.961829 0.277318 0.212295
O O9 0.906090 0.192214 0.386608
O O10 0.002112 0.000000 0.209296
O O11 0.898099 0.216910 0.168024
O O12 0.730133 0.256205 0.391082
O O13 0.778595 0.000000 0.292142
O O14 0.070843 0.500000 0.831841
O O15 0.730318 0.500000 0.461706
O O16 0.750000 0.750000 0.500000
#
# Coordination Sequence:
#
# PCOD8087601 Si02
#       6
#     8   8   8   8   8   8
#     4  10  21  38  62  86 109 138 173 222 279 328
#     4   9  20  36  52  75 105 140 178 219 273 325
#     4  10  20  34  54  81 109 140 183 226 268 320
#     4  12  23  32  48  75 108 148 185 221 265 316
#     4  10  19  32  51  73 105 145 181 222 269 319
#     4  11  22  35  53  76 109 150 188 225 263 316
#
# _framework density 17.935862
#
# number of rings (size 3 to 8) (size 9 to 14) (size 15 to 20)
#    0.000    1.667    1.667    5.000    0.000    8.000 
#    0.000    0.000    0.000    1.000    0.000    7.000 
#    0.000    0.000    0.000    0.000    0.000    0.000 
#
# Total GULP energy -297593.365654 kJ/mol
# GULP energy per Si atom -12399.723569 kJ/mol
# Density = 1.789504 g / cm^3
# Si number density = 17.935862 Si / 1000 Ang^3
#
#
#
# Elastic Constant Matrix: (Units=GPa)
#
#
# Indices 1 2 3 4 5 6 
#
# 1 73.5987 28.9035 53.8348 0.0014 -8.3845 -0.0030
# 2 28.9035 112.4019 63.3951 0.0076 2.8984 -0.0037
# 3 53.8348 63.3951 115.0760 0.0052 12.3568 -0.0038
# 4 0.0014 0.0076 0.0052 29.9779 -0.0013 0.0530
# 5 -8.3845 2.8984 12.3568 -0.0013 21.4544 0.0018
# 6 -0.0030 -0.0037 -0.0038 0.0530 0.0018 28.3128
#
#
#
# Elastic Compliance Matrix: (Units=1/GPa)
#
#
# Indices 1 2 3 4 5 6 
#
# 1 0.026120 0.001193 -0.014876 0.000002 0.018615 0.000000
# 2 0.001193 0.013089 -0.008132 -0.000002 0.003382 0.000001
# 3 -0.014876 -0.008132 0.021996 -0.000002 -0.017384 0.000001
# 4 0.000002 -0.000002 -0.000002 0.033358 0.000004 -0.000062
# 5 0.018615 0.003382 -0.017384 0.000004 0.063441 -0.000004
# 6 0.000000 0.000001 0.000001 -0.000062 -0.000004 0.035320
#
#
# Mechanical properties :
#
#
# Convention : Reuss Voigt Hill
#
# Bulk Modulus (GPa) = 56.89627 65.92705 61.41166
# Shear Modulus (GPa) = 20.59208 26.27855 23.43532
#
# Velocity S-wave (km/s) = 3.39203 3.83187 3.61864
# Velocity P-wave (km/s) = 6.86528 7.51096 7.19537
#
# Compressibility (1/GPa) = 0.01757584
#
# Stress axis : x y z
#
# Youngs Moduli (GPa) = 38.28440 76.39901 45.46326
#
# Poissons Ratio (x) = -0.09117 0.67630
# Poissons Ratio (y) = -0.04569 0.36972
# Poissons Ratio (z) = 0.56951 0.62129
#
# Static dielectric constant tensor:
#      x y z
#    x 3.192900 0.000000 0.013230 
#    y 0.000000 3.451080 0.000000 
#    z 0.013230 0.000000 3.462280 
# 
# 
# High freq. dielectric constant tensor:
#      x y z
#    x 1.662830 0.000000 0.012360 
#    y 0.000000 1.708740 0.000000 
#    z 0.012360 0.000000 1.693690 
# 
# From -- ./inp_files/329011.got.cif
#   From: 2010.06.25/outbox.cif.g09.slc.cpg/sg12_165_cif.got.tgz:329011.got - 2010.06.28 00:19:55.
