data_PCOD8087098
_publ_section_title
;
Structure prediction by ZEFSAII (Michael W. Deem and Ramdas Pophale) SiO2 
 PCOD8087098
Probable space group: C 2/M
;
_chemical_formula_sum "Si O2"
_cell_formula_units_Z 48
_cell_length_a 13.925565
_cell_length_b 13.271639
_cell_length_c 25.104921
_cell_angle_alpha 90.000000
_cell_angle_beta 148.501149
_cell_angle_gamma 90.000000
_cell_volume 2424.192666
_symmetry_space_group_name_H-M "C 2/M"
_symmetry_group_IT_number 12
_symmetry_cell_setting 'monoclinic'
loop_
_space_group_symop_operation_xyz
x,y,z
-x,y,-z
-x,-y,-z
x,-y,z
1/2+x,1/2+y,z
1/2-x,1/2+y,-z
1/2-x,1/2-y,-z
1/2+x,1/2-y,z
loop_
_atom_site_type_symbol
_atom_site_label
_atom_site_fract_x
_atom_site_fract_y
_atom_site_fract_z
Si Si1 0.709315 0.118099 0.109771
Si Si2 0.535612 0.116637 0.312573
Si Si3 0.805184 0.380847 0.426173
Si Si4 0.532988 0.730641 0.222583
Si Si5 0.637697 0.617079 0.457119
Si Si6 0.801557 0.772989 0.260631
O O1 0.765054 0.148954 0.195858
O O2 0.830295 0.181109 0.124182
O O3 0.744825 0.000000 0.118937
O O4 0.500000 0.147522 0.000000
O O5 0.529508 0.161589 0.250479
O O6 0.740277 0.134795 0.432641
O O7 0.382556 0.168492 0.277102
O O8 0.484369 0.000000 0.286003
O O9 0.817206 0.500000 0.432923
O O10 0.652726 0.348649 0.312240
O O11 0.750896 0.340926 0.459310
O O12 0.000000 0.334514 0.500000
O O13 0.612099 0.747610 0.201119
O O14 0.592174 0.500000 0.428199
O O15 0.445252 0.676479 0.369984
#
# Coordination Sequence:
#
# PCOD8087098 Si02
#       6
#     8   8   8   8   8   8
#     4  10  22  43  67  87 109 141 189 246 296 341
#     4  10  22  36  51  80 121 162 194 227 271 334
#     4  10  19  31  53  83 114 150 194 238 277 326
#     4  11  23  35  59  85 116 152 188 235 279 350
#     4  10  19  34  54  78 116 158 198 235 275 327
#     4  11  22  36  59  84 115 150 188 238 290 339
#
# _framework density 19.800405000000001
#
# number of rings (size 3 to 8) (size 9 to 14) (size 15 to 20)
#    0.000    1.667    3.333    2.500    2.333    4.667 
#    0.000    1.667    0.000    8.000    0.000    0.000 
#    0.000    0.000    0.000    0.000    0.000    0.000 
#
# Total GULP energy -297669.274513 kJ/mol
# GULP energy per Si atom -12402.886438 kJ/mol
# Density = 1.975534 g / cm^3
# Si number density = 19.800405 Si / 1000 Ang^3
#
#
#
# Elastic Constant Matrix: (Units=GPa)
#
#
# Indices 1 2 3 4 5 6 
#
# 1 105.1737 42.8824 19.6228 0.0001 25.0260 0.0000
# 2 42.8824 72.9244 46.9490 -0.0001 18.6683 0.0000
# 3 19.6228 46.9490 68.5909 -0.0002 23.8193 -0.0001
# 4 0.0001 -0.0001 -0.0002 27.4194 0.0000 6.3020
# 5 25.0260 18.6683 23.8193 0.0000 27.3636 0.0001
# 6 0.0000 0.0000 -0.0001 6.3020 0.0001 15.2778
#
#
#
# Elastic Compliance Matrix: (Units=1/GPa)
#
#
# Indices 1 2 3 4 5 6 
#
# 1 0.015643 -0.010505 0.007446 0.000000 -0.013621 0.000000
# 2 -0.010505 0.031749 -0.020840 0.000000 0.006089 0.000000
# 3 0.007446 -0.020840 0.034600 0.000000 -0.022710 0.000000
# 4 0.000000 0.000000 0.000000 0.040290 0.000000 -0.016620
# 5 -0.013621 0.006089 -0.022710 0.000000 0.064617 0.000000
# 6 0.000000 0.000000 0.000000 -0.016620 0.000000 0.072310
#
#
# Mechanical properties :
#
#
# Convention : Reuss Voigt Hill
#
# Bulk Modulus (GPa) = 29.24671 51.73306 40.48989
# Shear Modulus (GPa) = 15.70315 23.16116 19.43215
#
# Velocity S-wave (km/s) = 2.81921 3.42384 3.13613
# Velocity P-wave (km/s) = 5.03985 6.46640 5.79717
#
# Compressibility (1/GPa) = 0.03419188
#
# Stress axis : x y z
#
# Youngs Moduli (GPa) = 63.92472 31.49721 28.90142
#
# Poissons Ratio (x) = 0.33089 -0.21519
# Poissons Ratio (y) = 0.67156 0.60232
# Poissons Ratio (z) = -0.47595 0.65641
#
# Static dielectric constant tensor:
#      x y z
#    x 3.739000 0.000000 0.283250 
#    y 0.000000 3.660230 0.000000 
#    z 0.283250 0.000000 3.494810 
# 
# 
# High freq. dielectric constant tensor:
#      x y z
#    x 1.765340 0.000000 0.014430 
#    y 0.000000 1.784830 0.000000 
#    z 0.014430 0.000000 1.746180 
# 
# From -- ./inp_files/214408.got.cif
#   From: 2010.06.25/outbox.cif.g09.slc.cpg/sg12_108_cif.got.tgz:214408.got - 2010.06.28 00:19:55.
