data_PCOD8087331
_publ_section_title
;
Structure prediction by ZEFSAII (Michael W. Deem and Ramdas Pophale) SiO2 
 PCOD8087331
Probable space group: C 2/M
;
_chemical_formula_sum "Si O2"
_cell_formula_units_Z 64
_cell_length_a 19.430383
_cell_length_b 8.964564
_cell_length_c 20.104209
_cell_angle_alpha 90.000000
_cell_angle_beta 83.771722
_cell_angle_gamma 90.000000
_cell_volume 3481.180347
_symmetry_space_group_name_H-M "C 2/M"
_symmetry_group_IT_number 12
_symmetry_cell_setting 'monoclinic'
loop_
_space_group_symop_operation_xyz
x,y,z
-x,y,-z
-x,-y,-z
x,-y,z
1/2+x,1/2+y,z
1/2-x,1/2+y,-z
1/2-x,1/2-y,-z
1/2+x,1/2-y,z
loop_
_atom_site_type_symbol
_atom_site_label
_atom_site_fract_x
_atom_site_fract_y
_atom_site_fract_z
Si Si1 0.823550 0.176734 0.323258
Si Si2 0.307731 0.322592 0.036785
Si Si3 0.032843 0.324249 0.677025
Si Si4 0.288852 0.175993 0.557298
Si Si5 0.054009 0.323501 0.439974
Si Si6 0.005829 0.168311 0.813587
Si Si7 0.946210 0.176882 0.953790
Si Si8 0.164355 0.832994 0.823043
O O1 0.892942 0.249128 0.346912
O O2 0.755629 0.217016 0.372525
O O3 0.811849 0.242197 0.249401
O O4 0.837643 0.000000 0.318719
O O5 0.302388 0.500000 0.040325
O O6 0.307140 0.255556 0.112422
O O7 0.250000 0.250000 0.000000
O O8 0.373617 0.270327 0.988721
O O9 0.045002 0.500000 0.675026
O O10 0.000907 0.274406 0.750422
O O11 0.976125 0.275633 0.628274
O O12 0.250000 0.250000 0.500000
O O13 0.367466 0.238894 0.557651
O O14 0.289871 0.000000 0.545233
O O15 0.058088 0.500000 0.446183
O O16 0.000000 0.258796 0.500000
O O17 0.081916 0.167919 0.836949
O O18 0.956572 0.234470 0.876807
O O19 0.985132 0.000000 0.794294
O O20 0.956109 0.000000 0.950169
O O21 0.000000 0.247949 0.000000
O O22 0.193606 0.000000 0.819212
#
# Coordination Sequence:
#
# PCOD8087331 Si02
#       8
#     8   8   8   8   8   8   8   8
#     4   9  18  33  54  77  98 129 172 212 246 287
#     4  10  19  32  49  72 100 130 167 209 256 304
#     4  10  19  32  52  78 106 133 163 201 252 307
#     4  10  20  35  55  78 103 132 171 210 244 292
#     4   9  18  33  52  74 102 135 165 197 243 298
#     4   9  16  30  53  77  98 126 169 216 251 287
#     4   9  15  28  54  77  91 123 178 219 242 287
#     4   8  14  28  50  71  92 125 168 206 243 292
#
# _framework density 18.384568999999999
#
# number of rings (size 3 to 8) (size 9 to 14) (size 15 to 20)
#    0.000    2.750    1.250    1.875    0.000    1.500 
#    2.250    4.375    0.000    4.125    0.000    0.000 
#    0.000    0.000    0.000    0.000    0.000    0.000 
#
# Total GULP energy -396520.572480 kJ/mol
# GULP energy per Si atom -12391.267890 kJ/mol
# Density = 1.834272 g / cm^3
# Si number density = 18.384569 Si / 1000 Ang^3
#
#
#
# Elastic Constant Matrix: (Units=GPa)
#
#
# Indices 1 2 3 4 5 6 
#
# 1 147.7182 26.9347 93.8752 0.0000 1.3601 0.0000
# 2 26.9347 24.8632 27.8635 0.0000 1.2445 0.0000
# 3 93.8752 27.8635 160.4547 0.0000 -1.2159 0.0000
# 4 0.0000 0.0000 0.0000 21.8288 0.0000 5.5355
# 5 1.3601 1.2445 -1.2159 0.0000 34.4079 0.0000
# 6 0.0000 0.0000 0.0000 5.5355 0.0000 20.4318
#
#
#
# Elastic Compliance Matrix: (Units=1/GPa)
#
#
# Indices 1 2 3 4 5 6 
#
# 1 0.011481 -0.006065 -0.005667 0.000000 -0.000435 0.000000
# 2 -0.006065 0.053296 -0.005721 0.000000 -0.001890 0.000000
# 3 -0.005667 -0.005721 0.010547 0.000000 0.000804 0.000000
# 4 0.000000 0.000000 0.000000 0.049191 0.000000 -0.013327
# 5 -0.000435 -0.001890 0.000804 0.000000 0.029177 0.000000
# 6 0.000000 0.000000 0.000000 -0.013327 0.000000 0.052554
#
#
# Mechanical properties :
#
#
# Convention : Reuss Voigt Hill
#
# Bulk Modulus (GPa) = 24.74103 70.04254 47.39178
# Shear Modulus (GPa) = 19.63667 27.62455 23.63061
#
# Velocity S-wave (km/s) = 3.27173 3.88054 3.58907
# Velocity P-wave (km/s) = 5.26869 7.63278 6.55814
#
# Compressibility (1/GPa) = 0.04041868
#
# Stress axis : x y z
#
# Youngs Moduli (GPa) = 87.10065 18.76299 94.80928
#
# Poissons Ratio (x) = 0.11379 0.53730
# Poissons Ratio (y) = 0.52824 0.54242
# Poissons Ratio (z) = 0.49361 0.10735
#
# Static dielectric constant tensor:
#      x y z
#    x 3.350150 0.000000 -0.074670 
#    y 0.000000 2.971330 0.000000 
#    z -0.074670 0.000000 3.701760 
# 
# 
# High freq. dielectric constant tensor:
#      x y z
#    x 1.702040 0.000000 -0.003000 
#    y 0.000000 1.665010 0.000000 
#    z -0.003000 0.000000 1.735710 
# 
# From -- ./inp_files/319120.got.cif
#   From: 2010.06.25/outbox.cif.g09.slc.cpg/sg12_160_cif.got.tgz:319120.got - 2010.06.28 00:19:55.
