data_PCOD8087161
_publ_section_title
;
Structure prediction by ZEFSAII (Michael W. Deem and Ramdas Pophale) SiO2 
 PCOD8087161
Probable space group: C 2/M
;
_chemical_formula_sum "Si O2"
_cell_formula_units_Z 56
_cell_length_a 19.443680
_cell_length_b 9.119376
_cell_length_c 20.890308
_cell_angle_alpha 90.000000
_cell_angle_beta 54.951400
_cell_angle_gamma 90.000000
_cell_volume 3032.457852
_symmetry_space_group_name_H-M "C 2/M"
_symmetry_group_IT_number 12
_symmetry_cell_setting 'monoclinic'
loop_
_space_group_symop_operation_xyz
x,y,z
-x,y,-z
-x,-y,-z
x,-y,z
1/2+x,1/2+y,z
1/2-x,1/2+y,-z
1/2-x,1/2-y,-z
1/2+x,1/2-y,z
loop_
_atom_site_type_symbol
_atom_site_label
_atom_site_fract_x
_atom_site_fract_y
_atom_site_fract_z
Si Si1 0.090679 0.326781 0.139013
Si Si2 0.836825 0.170759 0.461466
Si Si3 0.901007 0.664090 0.547350
Si Si4 0.863549 0.166845 0.690528
Si Si5 0.422719 0.173506 0.999745
Si Si6 0.738340 0.327942 0.132285
Si Si7 0.012651 0.167059 0.705355
O O1 0.100903 0.500000 0.139923
O O2 0.069230 0.278366 0.078294
O O3 0.177742 0.253977 0.114718
O O4 0.012080 0.274351 0.223793
O O5 0.750000 0.250000 0.500000
O O6 0.881866 0.229306 0.499842
O O7 0.893280 0.202294 0.368390
O O8 0.821446 0.000000 0.478740
O O9 0.866103 0.500000 0.553672
O O10 0.855975 0.724180 0.635086
O O11 0.000000 0.661272 0.500000
O O12 0.789331 0.204090 0.780131
O O13 0.952418 0.192778 0.677127
O O14 0.856121 0.000000 0.669851
O O15 0.424977 0.000000 0.004989
O O16 0.500000 0.240963 0.000000
O O17 0.333269 0.231028 0.074261
O O18 0.730943 0.500000 0.120323
O O19 0.003521 0.000000 0.734553
#
# Coordination Sequence:
#
# PCOD8087161 Si02
#       7
#     8   8   8   8   8   8   8
#     4  10  19  31  55  85 107 136 180 227 268 314
#     4  11  23  40  59  80 111 150 189 228 276 331
#     4  11  22  35  56  84 113 145 183 231 278 320
#     4   9  17  32  54  81 106 140 186 225 271 324
#     4   9  18  34  54  78 110 142 177 220 266 322
#     4   9  18  34  56  79 107 143 181 221 269 324
#     4   9  19  36  57  79 110 146 179 222 274 329
#
# _framework density 18.466868000000002
#
# number of rings (size 3 to 8) (size 9 to 14) (size 15 to 20)
#    0.000    2.286    1.429    2.571    0.000    4.000 
#    2.571    0.714    0.000    3.857    0.000    0.000 
#    0.000    0.000    0.000    0.000    0.000    0.000 
#
# Total GULP energy -347193.316986 kJ/mol
# GULP energy per Si atom -12399.761321 kJ/mol
# Density = 1.842484 g / cm^3
# Si number density = 18.466868 Si / 1000 Ang^3
#
#
#
# Elastic Constant Matrix: (Units=GPa)
#
#
# Indices 1 2 3 4 5 6 
#
# 1 93.7525 46.1614 63.3959 0.0000 -8.6323 0.0000
# 2 46.1614 84.7692 62.9799 0.0002 -1.6170 0.0000
# 3 63.3959 62.9799 128.1737 0.0000 -4.0071 0.0000
# 4 0.0000 0.0002 0.0000 23.7974 0.0000 -1.1950
# 5 -8.6323 -1.6170 -4.0071 0.0000 29.1279 0.0000
# 6 0.0000 0.0000 0.0000 -1.1950 0.0000 24.2677
#
#
#
# Elastic Compliance Matrix: (Units=1/GPa)
#
#
# Indices 1 2 3 4 5 6 
#
# 1 0.017656 -0.004951 -0.006171 0.000000 0.004109 0.000000
# 2 -0.004951 0.019969 -0.007406 0.000000 -0.001378 0.000000
# 3 -0.006171 -0.007406 0.014486 0.000000 -0.000247 0.000000
# 4 0.000000 0.000000 0.000000 0.042126 0.000000 0.002074
# 5 0.004109 -0.001378 -0.000247 0.000000 0.035438 0.000000
# 6 0.000000 0.000000 0.000000 0.002074 0.000000 0.041309
#
#
# Mechanical properties :
#
#
# Convention : Reuss Voigt Hill
#
# Bulk Modulus (GPa) = 66.43182 72.41886 69.42534
# Shear Modulus (GPa) = 23.46768 24.38248 23.92508
#
# Velocity S-wave (km/s) = 3.56869 3.63759 3.60330
# Velocity P-wave (km/s) = 7.28233 7.54608 7.41538
#
# Compressibility (1/GPa) = 0.01505303
#
# Stress axis : x y z
#
# Youngs Moduli (GPa) = 56.63949 50.07724 69.03266
#
# Poissons Ratio (x) = 0.24793 0.42603
# Poissons Ratio (y) = 0.28042 0.51129
# Poissons Ratio (z) = 0.34955 0.37089
#
# Static dielectric constant tensor:
#      x y z
#    x 3.511010 0.000000 -0.137550 
#    y 0.000000 3.422310 0.000000 
#    z -0.137550 0.000000 3.577650 
# 
# 
# High freq. dielectric constant tensor:
#      x y z
#    x 1.698230 0.000000 -0.003270 
#    y 0.000000 1.706650 0.000000 
#    z -0.003270 0.000000 1.729600 
# 
# From -- ./inp_files/319667.got.cif
#   From: 2010.06.25/outbox.cif.g09.slc.cpg/sg12_160_cif.got.tgz:319667.got - 2010.06.28 00:19:55.
