data_PCOD8087834
_publ_section_title
;
Structure prediction by ZEFSAII (Michael W. Deem and Ramdas Pophale) SiO2 
 PCOD8087834
Probable space group: C 2/M
;
_chemical_formula_sum "Si O2"
_cell_formula_units_Z 56
_cell_length_a 18.601634
_cell_length_b 19.935819
_cell_length_c 11.009012
_cell_angle_alpha 90.000000
_cell_angle_beta 127.370394
_cell_angle_gamma 90.000000
_cell_volume 3244.533277
_symmetry_space_group_name_H-M "C 2/M"
_symmetry_group_IT_number 12
_symmetry_cell_setting 'monoclinic'
loop_
_space_group_symop_operation_xyz
x,y,z
-x,y,-z
-x,-y,-z
x,-y,z
1/2+x,1/2+y,z
1/2-x,1/2+y,-z
1/2-x,1/2-y,-z
1/2+x,1/2-y,z
loop_
_atom_site_type_symbol
_atom_site_label
_atom_site_fract_x
_atom_site_fract_y
_atom_site_fract_z
Si Si1 0.734607 0.723721 0.314325
Si Si2 0.197288 0.811424 0.007381
Si Si3 0.236406 0.922634 0.861830
Si Si4 0.599746 0.076609 0.145937
Si Si5 0.871687 0.169237 0.402603
Si Si6 0.621500 0.190808 0.355295
Si Si7 0.477379 0.717707 0.296677
O O1 0.714711 0.685606 0.168896
O O2 0.777948 0.797863 0.346229
O O3 0.643395 0.743700 0.293106
O O4 0.802294 0.678525 0.463629
O O5 0.250000 0.750000 0.000000
O O6 0.233235 0.879713 0.982420
O O7 0.088210 0.805073 0.880236
O O8 0.331693 0.908536 0.893854
O O9 0.153095 0.901303 0.686840
O O10 0.223767 0.000000 0.883109
O O11 0.617684 0.121378 0.281374
O O12 0.609258 0.000000 0.198665
O O13 0.500000 0.094023 0.000000
O O14 0.912944 0.223042 0.348602
O O15 0.943532 0.162432 0.587559
O O16 0.524812 0.210807 0.316213
#
# Coordination Sequence:
#
# PCOD8087834 Si02
#       7
#     8   8   8   8   8   8   8
#     4  10  19  32  51  78 104 136 175 217 259 316
#     4  11  19  33  53  76 104 139 175 222 266 312
#     4  10  20  35  56  78 106 141 179 220 267 315
#     4  10  21  34  52  78 108 142 178 214 259 321
#     4   9  16  34  48  77 105 134 173 219 260 310
#     4  10  20  32  51  78 108 137 173 218 264 315
#     4   9  19  28  51  77 106 130 172 220 266 310
#
# _framework density 17.259801
#
# number of rings (size 3 to 8) (size 9 to 14) (size 15 to 20)
#    0.000    2.143    4.286    0.000    4.000    0.000 
#    0.000    6.429    0.000    0.000    0.000   10.000 
#    0.000    0.000    0.000    0.000    0.000    0.000 
#
# Total GULP energy -346927.890035 kJ/mol
# GULP energy per Si atom -12390.281787 kJ/mol
# Density = 1.722052 g / cm^3
# Si number density = 17.259801 Si / 1000 Ang^3
#
#
#
# Elastic Constant Matrix: (Units=GPa)
#
#
# Indices 1 2 3 4 5 6 
#
# 1 62.8856 30.7334 44.6838 0.0000 3.3440 0.0000
# 2 30.7334 89.4409 58.4513 0.0000 -6.5877 0.0000
# 3 44.6838 58.4513 148.0725 0.0000 -5.4850 0.0000
# 4 0.0000 0.0000 0.0000 26.7626 0.0000 -6.6269
# 5 3.3440 -6.5877 -5.4850 0.0000 26.6517 0.0000
# 6 0.0000 0.0000 0.0000 -6.6269 0.0000 25.3073
#
#
#
# Elastic Compliance Matrix: (Units=1/GPa)
#
#
# Indices 1 2 3 4 5 6 
#
# 1 0.021978 -0.004665 -0.004974 0.000000 -0.004934 0.000000
# 2 -0.004665 0.016228 -0.004865 0.000000 0.003595 0.000000
# 3 -0.004974 -0.004865 0.010231 0.000000 0.001527 0.000000
# 4 0.000000 0.000000 0.000000 0.039956 0.000000 0.010463
# 5 -0.004934 0.003595 0.001527 0.000000 0.039343 0.000000
# 6 0.000000 0.000000 0.000000 0.010463 0.000000 0.042254
#
#
# Mechanical properties :
#
#
# Convention : Reuss Voigt Hill
#
# Bulk Modulus (GPa) = 51.46689 63.12623 57.29656
# Shear Modulus (GPa) = 24.33388 26.84634 25.59011
#
# Velocity S-wave (km/s) = 3.75888 3.94817 3.85469
# Velocity P-wave (km/s) = 6.98016 7.57876 7.28561
#
# Compressibility (1/GPa) = 0.01942997
#
# Stress axis : x y z
#
# Youngs Moduli (GPa) = 45.49949 61.62303 97.73939
#
# Poissons Ratio (x) = 0.28748 0.48611
# Poissons Ratio (y) = 0.21226 0.47549
# Poissons Ratio (z) = 0.22630 0.29979
#
# Static dielectric constant tensor:
#      x y z
#    x 3.403320 0.000000 0.147920 
#    y 0.000000 2.891960 0.000000 
#    z 0.147920 0.000000 3.527250 
# 
# 
# High freq. dielectric constant tensor:
#      x y z
#    x 1.678350 0.000000 0.010540 
#    y 0.000000 1.620960 0.000000 
#    z 0.010540 0.000000 1.672000 
# 
# From -- ./inp_files/158196.got.cif
#   From: 2010.06.25/outbox.cif.g09.slc.cpg/sg12_80_cif.got.tgz:158196.got - 2010.06.28 00:19:55.
