data_PCOD8087593
_publ_section_title
;
Structure prediction by ZEFSAII (Michael W. Deem and Ramdas Pophale) SiO2 
 PCOD8087593
Probable space group: C 2/M
;
_chemical_formula_sum "Si O2"
_cell_formula_units_Z 56
_cell_length_a 19.781815
_cell_length_b 13.386875
_cell_length_c 11.866870
_cell_angle_alpha 90.000000
_cell_angle_beta 87.217969
_cell_angle_gamma 90.000000
_cell_volume 3138.841394
_symmetry_space_group_name_H-M "C 2/M"
_symmetry_group_IT_number 12
_symmetry_cell_setting 'monoclinic'
loop_
_space_group_symop_operation_xyz
x,y,z
-x,y,-z
-x,-y,-z
x,-y,z
1/2+x,1/2+y,z
1/2-x,1/2+y,-z
1/2-x,1/2-y,-z
1/2+x,1/2-y,z
loop_
_atom_site_type_symbol
_atom_site_label
_atom_site_fract_x
_atom_site_fract_y
_atom_site_fract_z
Si Si1 0.289966 0.611459 0.450922
Si Si2 0.640129 0.763572 0.997908
Si Si3 0.965285 0.609893 0.882344
Si Si4 0.720645 0.807353 0.670638
Si Si5 0.443590 0.614638 0.416248
Si Si6 0.577802 0.772677 0.767073
Si Si7 0.236526 0.881723 0.101307
O O1 0.278045 0.500000 0.404247
O O2 0.268287 0.689465 0.355713
O O3 0.243430 0.626087 0.563791
O O4 0.368944 0.627176 0.477154
O O5 0.598235 0.733873 0.889816
O O6 0.695012 0.848397 0.965306
O O7 0.595087 0.810390 0.101443
O O8 0.672571 0.661181 0.039212
O O9 0.938981 0.500000 0.847484
O O10 0.017883 0.646915 0.783187
O O11 0.000000 0.600423 0.000000
O O12 0.641316 0.827282 0.701825
O O13 0.766239 0.837313 0.772697
O O14 0.500000 0.652805 0.500000
O O15 0.457962 0.500000 0.381947
O O16 0.448926 0.678893 0.302085
O O17 0.231974 0.000000 0.104386
#
# Coordination Sequence:
#
# PCOD8087593 Si02
#       7
#     8   8   8   8   8   8   8
#     4   9  17  31  50  71  98 130 163 203 250 292
#     4   9  19  33  48  73 102 128 162 199 237 288
#     4   9  17  31  51  71  94 127 163 197 235 282
#     4   9  18  31  48  73  99 125 166 208 241 290
#     4   9  18  32  50  71  95 127 163 198 241 291
#     4   9  18  32  50  71  97 127 162 202 240 283
#     4  10  19  32  51  73 100 131 161 199 244 287
#
# _framework density 17.840976999999999
#
# number of rings (size 3 to 8) (size 9 to 14) (size 15 to 20)
#    0.000    2.857    0.000    0.857    0.000    5.714 
#    0.000   10.000    0.000    3.000    0.000    0.000 
#    0.000    0.000    0.000    0.000    0.000    0.000 
#
# Total GULP energy -347139.422051 kJ/mol
# GULP energy per Si atom -12397.836502 kJ/mol
# Density = 1.780037 g / cm^3
# Si number density = 17.840977 Si / 1000 Ang^3
#
#
#
# Elastic Constant Matrix: (Units=GPa)
#
#
# Indices 1 2 3 4 5 6 
#
# 1 74.2360 52.0795 50.2557 0.0000 -6.3961 0.0000
# 2 52.0795 128.5295 60.4613 0.0000 5.0633 0.0000
# 3 50.2557 60.4613 86.5406 0.0000 -7.5458 0.0000
# 4 0.0000 0.0000 0.0000 21.5032 0.0000 0.9835
# 5 -6.3961 5.0633 -7.5458 0.0000 35.9519 0.0000
# 6 0.0000 0.0000 0.0000 0.9835 0.0000 20.8416
#
#
#
# Elastic Compliance Matrix: (Units=1/GPa)
#
#
# Indices 1 2 3 4 5 6 
#
# 1 0.024252 -0.005114 -0.010259 0.000000 0.002882 0.000000
# 2 -0.005114 0.013089 -0.006534 0.000000 -0.004125 0.000000
# 3 -0.010259 -0.006534 0.022409 0.000000 0.003798 0.000000
# 4 0.000000 0.000000 0.000000 0.046605 0.000000 -0.002199
# 5 0.002882 -0.004125 0.003798 0.000000 0.029706 0.000000
# 6 0.000000 0.000000 0.000000 -0.002199 0.000000 0.048085
#
#
# Mechanical properties :
#
#
# Convention : Reuss Voigt Hill
#
# Bulk Modulus (GPa) = 62.75609 68.32213 65.53911
# Shear Modulus (GPa) = 21.43420 24.09333 22.76377
#
# Velocity S-wave (km/s) = 3.46989 3.67883 3.57589
# Velocity P-wave (km/s) = 7.16276 7.51154 7.33922
#
# Compressibility (1/GPa) = 0.01593471
#
# Stress axis : x y z
#
# Youngs Moduli (GPa) = 41.23400 76.40134 44.62458
#
# Poissons Ratio (x) = 0.39074 0.45781
# Poissons Ratio (y) = 0.21088 0.29158
# Poissons Ratio (z) = 0.42303 0.49922
#
# Static dielectric constant tensor:
#      x y z
#    x 3.375580 0.000000 -0.130600 
#    y 0.000000 3.284420 0.000000 
#    z -0.130600 0.000000 3.202010 
# 
# 
# High freq. dielectric constant tensor:
#      x y z
#    x 1.686340 0.000000 -0.015690 
#    y 0.000000 1.687480 0.000000 
#    z -0.015690 0.000000 1.674310 
# 
# From -- ./inp_files/164969.got.cif
#   From: 2010.06.25/outbox.cif.g09.slc.cpg/sg12_83_cif.got.tgz:164969.got - 2010.06.28 00:19:55.
