data_PCOD8087549
_publ_section_title
;
Structure prediction by ZEFSAII (Michael W. Deem and Ramdas Pophale) SiO2 
 PCOD8087549
Probable space group: C 2/M
;
_chemical_formula_sum "Si O2"
_cell_formula_units_Z 48
_cell_length_a 14.166444
_cell_length_b 24.570875
_cell_length_c 11.474856
_cell_angle_alpha 90.000000
_cell_angle_beta 141.250653
_cell_angle_gamma 90.000000
_cell_volume 2500.021748
_symmetry_space_group_name_H-M "C 2/M"
_symmetry_group_IT_number 12
_symmetry_cell_setting 'monoclinic'
loop_
_space_group_symop_operation_xyz
x,y,z
-x,y,-z
-x,-y,-z
x,-y,z
1/2+x,1/2+y,z
1/2-x,1/2+y,-z
1/2-x,1/2-y,-z
1/2+x,1/2-y,z
loop_
_atom_site_type_symbol
_atom_site_label
_atom_site_fract_x
_atom_site_fract_y
_atom_site_fract_z
Si Si1 0.991883 0.263447 0.761197
Si Si2 0.583781 0.938343 0.203783
Si Si3 0.296322 0.740954 0.363350
Si Si4 0.363902 0.673306 0.948780
Si Si5 0.665350 0.873376 0.933285
Si Si6 0.833002 0.122790 0.325056
O O1 0.842482 0.276713 0.689584
O O2 0.944276 0.258324 0.579855
O O3 0.111096 0.311227 0.897273
O O4 0.065503 0.207518 0.876535
O O5 0.480917 0.912790 0.208529
O O6 0.735853 0.903085 0.337206
O O7 0.623577 0.000000 0.276641
O O8 0.500000 0.934998 0.000000
O O9 0.249916 0.789987 0.235010
O O10 0.336641 0.687963 0.328977
O O11 0.265391 0.624215 0.910722
O O12 0.500000 0.649875 0.000000
O O13 0.769074 0.894379 0.138361
O O14 0.000000 0.098769 0.500000
#
# Coordination Sequence:
#
# PCOD8087549 Si02
#       6
#     8   8   8   8   8   8
#     4  10  19  32  50  77 113 152 184 217 268 332
#     4   9  20  38  59  81 106 140 187 237 286 332
#     4  10  20  31  48  78 118 149 181 218 265 331
#     4  10  21  33  48  75 116 155 182 220 269 322
#     4  11  20  35  56  77 110 150 186 226 273 331
#     4  11  21  32  54  82 114 146 178 222 281 332
#
# _framework density 19.199833000000002
#
# number of rings (size 3 to 8) (size 9 to 14) (size 15 to 20)
#    0.000    1.833    3.333    1.500    2.333    0.333 
#    0.000    0.000    0.000    0.500    0.000    2.333 
#    0.000    0.000    0.000    0.000    0.000    0.000 
#
# Total GULP energy -297555.671754 kJ/mol
# GULP energy per Si atom -12398.152990 kJ/mol
# Density = 1.915613 g / cm^3
# Si number density = 19.199833 Si / 1000 Ang^3
#
#
#
# Elastic Constant Matrix: (Units=GPa)
#
#
# Indices 1 2 3 4 5 6 
#
# 1 131.4608 53.2819 39.6348 0.0000 20.0994 0.0000
# 2 53.2819 61.3765 11.0240 0.0000 7.8478 0.0000
# 3 39.6348 11.0240 99.7708 0.0000 6.5049 0.0000
# 4 0.0000 0.0000 0.0000 8.0892 0.0000 -0.3272
# 5 20.0994 7.8478 6.5049 0.0000 31.7852 0.0000
# 6 0.0000 0.0000 0.0000 -0.3272 0.0000 19.2508
#
#
#
# Elastic Compliance Matrix: (Units=1/GPa)
#
#
# Indices 1 2 3 4 5 6 
#
# 1 0.013994 -0.010738 -0.004022 0.000000 -0.005374 0.000000
# 2 -0.010738 0.025323 0.001452 0.000000 0.000241 0.000000
# 3 -0.004022 0.001452 0.011471 0.000000 -0.000163 0.000000
# 4 0.000000 0.000000 0.000000 0.123706 0.000000 0.002103
# 5 -0.005374 0.000241 -0.000163 0.000000 0.034833 0.000000
# 6 0.000000 0.000000 0.000000 0.002103 0.000000 0.051982
#
#
# Mechanical properties :
#
#
# Convention : Reuss Voigt Hill
#
# Bulk Modulus (GPa) = 41.37160 55.60994 48.49077
# Shear Modulus (GPa) = 16.89286 24.40288 20.64787
#
# Velocity S-wave (km/s) = 2.96943 3.56897 3.28292
# Velocity P-wave (km/s) = 5.77507 6.78307 6.29926
#
# Compressibility (1/GPa) = 0.02417117
#
# Stress axis : x y z
#
# Youngs Moduli (GPa) = 71.46167 39.48910 87.17668
#
# Poissons Ratio (x) = 0.42405 0.35064
# Poissons Ratio (y) = 0.76738 -0.12659
# Poissons Ratio (z) = 0.28743 -0.05734
#
# Static dielectric constant tensor:
#      x y z
#    x 3.789240 0.000000 0.219820 
#    y 0.000000 3.104950 0.000000 
#    z 0.219820 0.000000 3.525410 
# 
# 
# High freq. dielectric constant tensor:
#      x y z
#    x 1.760410 0.000000 0.024520 
#    y 0.000000 1.690500 0.000000 
#    z 0.024520 0.000000 1.738830 
# 
# From -- ./inp_files/78653.got.cif
#   From: 2010.06.25/outbox.cif.g09.slc.cpg/sg12_40_cif.got.tgz:78653.got - 2010.06.28 00:19:55.
