data_PCOD8087391
_publ_section_title
;
Structure prediction by ZEFSAII (Michael W. Deem and Ramdas Pophale) SiO2 
 PCOD8087391
Probable space group: C 2/M
;
_chemical_formula_sum "Si O2"
_cell_formula_units_Z 56
_cell_length_a 20.598830
_cell_length_b 9.344057
_cell_length_c 30.495335
_cell_angle_alpha 90.000000
_cell_angle_beta 33.098738
_cell_angle_gamma 90.000000
_cell_volume 3205.313427
_symmetry_space_group_name_H-M "C 2/M"
_symmetry_group_IT_number 12
_symmetry_cell_setting 'monoclinic'
loop_
_space_group_symop_operation_xyz
x,y,z
-x,y,-z
-x,-y,-z
x,-y,z
1/2+x,1/2+y,z
1/2-x,1/2+y,-z
1/2-x,1/2-y,-z
1/2+x,1/2-y,z
loop_
_atom_site_type_symbol
_atom_site_label
_atom_site_fract_x
_atom_site_fract_y
_atom_site_fract_z
Si Si1 0.032343 0.667547 0.681019
Si Si2 0.037430 0.330056 0.578699
Si Si3 0.200787 0.669735 0.330096
Si Si4 0.072954 0.661692 0.003454
Si Si5 0.256475 0.330106 0.396122
Si Si6 0.622277 0.334182 0.843584
Si Si7 0.736956 0.836532 0.148080
O O1 0.063153 0.500000 0.665529
O O2 0.042441 0.725959 0.625632
O O3 0.120972 0.755055 0.661267
O O4 0.901872 0.698893 0.773547
O O5 0.028070 0.500000 0.583668
O O6 0.155166 0.278067 0.487048
O O7 0.921832 0.265089 0.619670
O O8 0.191182 0.500000 0.333935
O O9 0.218990 0.723577 0.369160
O O10 0.312346 0.719128 0.237448
O O11 0.095755 0.500000 0.006086
O O12 0.998276 0.743302 0.083073
O O13 0.199502 0.737949 0.924212
O O14 0.000000 0.668375 0.000000
O O15 0.274145 0.500000 0.387512
O O16 0.585928 0.500000 0.861697
O O17 0.713400 0.306134 0.831595
O O18 0.761877 0.000000 0.120798
#
# Coordination Sequence:
#
# PCOD8087391 Si02
#       7
#     8   8   8   8   8   8   8
#     4  10  19  32  50  70  98 132 165 200 237 285
#     4   9  16  30  51  73  95 125 168 209 239 275
#     4   9  16  29  50  74  97 125 165 207 239 276
#     4   9  17  27  42  69 102 125 145 188 247 293
#     4  10  20  31  48  74 101 128 160 202 249 288
#     4   9  15  27  48  70  92 121 161 200 232 276
#     4   9  16  28  47  69  91 123 164 198 230 275
#
# _framework density 17.47099
#
# number of rings (size 3 to 8) (size 9 to 14) (size 15 to 20)
#    0.000    2.714    1.429    1.286    0.000    4.000 
#    0.000    0.714    0.000    4.286    0.000    0.000 
#    0.000    0.000    0.000    0.000    0.000    0.000 
#
# Total GULP energy -347191.776927 kJ/mol
# GULP energy per Si atom -12399.706319 kJ/mol
# Density = 1.743122 g / cm^3
# Si number density = 17.470990 Si / 1000 Ang^3
#
#
#
# Elastic Constant Matrix: (Units=GPa)
#
#
# Indices 1 2 3 4 5 6 
#
# 1 75.9018 25.5685 36.4742 0.0016 -12.9345 -0.0083
# 2 25.5685 54.3805 44.0041 0.0037 -8.9334 -0.0017
# 3 36.4742 44.0041 115.3210 0.0009 -16.4040 -0.0010
# 4 0.0016 0.0037 0.0009 19.6662 0.0000 -6.9307
# 5 -12.9345 -8.9334 -16.4040 0.0000 13.7947 0.0016
# 6 -0.0083 -0.0017 -0.0010 -6.9307 0.0016 19.7963
#
#
#
# Elastic Compliance Matrix: (Units=1/GPa)
#
#
# Indices 1 2 3 4 5 6 
#
# 1 0.017696 -0.004712 -0.002254 0.000002 0.010861 0.000007
# 2 -0.004712 0.028307 -0.008825 -0.000005 0.003419 -0.000002
# 3 -0.002254 -0.008825 0.014007 0.000001 0.008829 -0.000001
# 4 0.000002 -0.000005 0.000001 0.058006 -0.000003 0.020308
# 5 0.010861 0.003419 0.008829 -0.000003 0.095388 -0.000004
# 6 0.000007 -0.000002 -0.000001 0.020308 -0.000004 0.057624
#
#
# Mechanical properties :
#
#
# Convention : Reuss Voigt Hill
#
# Bulk Modulus (GPa) = 35.17543 50.85523 43.01533
# Shear Modulus (GPa) = 16.02118 19.95520 17.98819
#
# Velocity S-wave (km/s) = 3.03151 3.38330 3.21222
# Velocity P-wave (km/s) = 5.69480 6.66587 6.19938
#
# Compressibility (1/GPa) = 0.02842893
#
# Stress axis : x y z
#
# Youngs Moduli (GPa) = 56.50912 35.32693 71.39036
#
# Poissons Ratio (x) = 0.16647 0.16092
# Poissons Ratio (y) = 0.26629 0.62999
# Poissons Ratio (z) = 0.12737 0.31174
#
# Static dielectric constant tensor:
#      x y z
#    x 3.038550 0.000000 0.020090 
#    y 0.000000 2.960560 0.000000 
#    z 0.020090 0.000000 3.454240 
# 
# 
# High freq. dielectric constant tensor:
#      x y z
#    x 1.646260 0.000000 -0.003810 
#    y 0.000000 1.640920 0.000000 
#    z -0.003810 0.000000 1.692540 
# 
# From -- ./inp_files/280229.got.cif
#   From: 2010.06.25/outbox.cif.g09.slc.cpg/sg12_141_cif.got.tgz:280229.got - 2010.06.28 00:19:55.
