data_PCOD8087966
_publ_section_title
;
Structure prediction by ZEFSAII (Michael W. Deem and Ramdas Pophale) SiO2 
 PCOD8087966
Probable space group: C 2/M
;
_chemical_formula_sum "Si O2"
_cell_formula_units_Z 64
_cell_length_a 18.172698
_cell_length_b 9.021643
_cell_length_c 23.074643
_cell_angle_alpha 90.000000
_cell_angle_beta 117.569821
_cell_angle_gamma 90.000000
_cell_volume 3353.459375
_symmetry_space_group_name_H-M "C 2/M"
_symmetry_group_IT_number 12
_symmetry_cell_setting 'monoclinic'
loop_
_space_group_symop_operation_xyz
x,y,z
-x,y,-z
-x,-y,-z
x,-y,z
1/2+x,1/2+y,z
1/2-x,1/2+y,-z
1/2-x,1/2-y,-z
1/2+x,1/2-y,z
loop_
_atom_site_type_symbol
_atom_site_label
_atom_site_fract_x
_atom_site_fract_y
_atom_site_fract_z
Si Si1 0.198371 0.827877 0.233104
Si Si2 0.209332 0.324218 0.118529
Si Si3 0.052468 0.174234 0.268327
Si Si4 0.668671 0.673744 0.994560
Si Si5 0.389979 0.672839 0.146929
Si Si6 0.093759 0.832945 0.512665
Si Si7 0.457753 0.174187 0.615654
Si Si8 0.360867 0.827360 0.360955
O O1 0.179974 0.729359 0.170349
O O2 0.128213 0.790519 0.253820
O O3 0.286999 0.780912 0.291463
O O4 0.197327 0.000000 0.215049
O O5 0.203037 0.500000 0.111340
O O6 0.147020 0.251963 0.047843
O O7 0.303046 0.264039 0.140375
O O8 0.968667 0.242110 0.208920
O O9 0.070908 0.257279 0.334480
O O10 0.044458 0.000000 0.277710
O O11 0.683605 0.500000 0.010109
O O12 0.750000 0.750000 0.000000
O O13 0.600032 0.700893 0.918992
O O14 0.389855 0.500000 0.159419
O O15 0.150740 0.759053 0.582780
O O16 0.000000 0.828017 0.500000
O O17 0.100896 0.742101 0.455615
O O18 0.124494 0.000000 0.513113
O O19 0.553750 0.216429 0.639638
O O20 0.443645 0.000000 0.611385
O O21 0.358341 0.000000 0.375463
#
# Coordination Sequence:
#
# PCOD8087966 Si02
#       8
#     8   8   8   8   8   8   8   8
#     4  10  21  35  51  72 100 134 167 203 247 293
#     4  10  19  32  52  76 101 130 166 207 248 293
#     4  10  20  35  52  71  99 132 168 206 243 290
#     4   9  16  29  50  76 103 128 161 205 251 296
#     4   8  16  31  52  76  98 126 164 204 245 289
#     4   9  17  30  51  78 102 126 161 203 245 289
#     4  10  19  32  52  76 102 130 160 200 248 294
#     4   9  18  33  52  76 103 129 161 201 248 296
#
# _framework density 19.084769999999999
#
# number of rings (size 3 to 8) (size 9 to 14) (size 15 to 20)
#    0.000    2.625    0.000    3.000    0.000    3.000 
#    0.000    4.375    0.000    3.750    0.000    0.000 
#    0.000    0.000    0.000    0.000    0.000    0.000 
#
# Total GULP energy -396726.603506 kJ/mol
# GULP energy per Si atom -12397.706360 kJ/mol
# Density = 1.904133 g / cm^3
# Si number density = 19.084770 Si / 1000 Ang^3
#
#
#
# Elastic Constant Matrix: (Units=GPa)
#
#
# Indices 1 2 3 4 5 6 
#
# 1 44.0601 27.5939 29.8000 0.0000 -18.0490 0.0000
# 2 27.5939 85.7829 56.9149 0.0000 -21.5134 0.0000
# 3 29.8000 56.9149 126.9894 0.0000 -39.3070 0.0000
# 4 0.0000 0.0000 0.0000 37.1426 0.0000 -8.6050
# 5 -18.0490 -21.5134 -39.3070 0.0000 21.3802 0.0000
# 6 0.0000 0.0000 0.0000 -8.6050 0.0000 18.4427
#
#
#
# Elastic Compliance Matrix: (Units=1/GPa)
#
#
# Indices 1 2 3 4 5 6 
#
# 1 0.037409 -0.006704 0.004439 0.000000 0.032996 0.000000
# 2 -0.006704 0.018258 -0.006207 0.000000 0.001301 0.000000
# 3 0.004439 -0.006207 0.020517 0.000000 0.035222 0.000000
# 4 0.000000 0.000000 0.000000 0.030186 0.000000 0.014084
# 5 0.032996 0.001301 0.035222 0.000000 0.140691 0.000000
# 6 0.000000 0.000000 0.000000 0.014084 0.000000 0.060793
#
#
# Mechanical properties :
#
#
# Convention : Reuss Voigt Hill
#
# Bulk Modulus (GPa) = 16.88020 53.93890 35.40955
# Shear Modulus (GPa) = 14.51185 24.89467 19.70326
#
# Velocity S-wave (km/s) = 2.76051 3.61560 3.21660
# Velocity P-wave (km/s) = 4.36172 6.76419 5.69117
#
# Compressibility (1/GPa) = 0.05924099
#
# Stress axis : x y z
#
# Youngs Moduli (GPa) = 26.73161 54.76932 48.73933
#
# Poissons Ratio (x) = 0.36715 -0.21637
# Poissons Ratio (y) = 0.17920 0.30255
# Poissons Ratio (z) = -0.11867 0.33998
#
# Static dielectric constant tensor:
#      x y z
#    x 3.196840 0.000000 0.043980 
#    y 0.000000 3.419720 0.000000 
#    z 0.043980 0.000000 3.837600 
# 
# 
# High freq. dielectric constant tensor:
#      x y z
#    x 1.702300 0.000000 -0.009200 
#    y 0.000000 1.734030 0.000000 
#    z -0.009200 0.000000 1.760880 
# 
# From -- ./inp_files/320015.got.cif
#   From: 2010.06.25/outbox.cif.g09.slc.cpg/sg12_161_cif.got.tgz:320015.got - 2010.06.28 00:19:55.
