data_PCOD8087385
_publ_section_title
;
Structure prediction by ZEFSAII (Michael W. Deem and Ramdas Pophale) SiO2 
 PCOD8087385
Probable space group: C 2/M
;
_chemical_formula_sum "Si O2"
_cell_formula_units_Z 48
_cell_length_a 18.243661
_cell_length_b 9.048375
_cell_length_c 23.958554
_cell_angle_alpha 90.000000
_cell_angle_beta 43.241716
_cell_angle_gamma 90.000000
_cell_volume 2709.461609
_symmetry_space_group_name_H-M "C 2/M"
_symmetry_group_IT_number 12
_symmetry_cell_setting 'monoclinic'
loop_
_space_group_symop_operation_xyz
x,y,z
-x,y,-z
-x,-y,-z
x,-y,z
1/2+x,1/2+y,z
1/2-x,1/2+y,-z
1/2-x,1/2-y,-z
1/2+x,1/2-y,z
loop_
_atom_site_type_symbol
_atom_site_label
_atom_site_fract_x
_atom_site_fract_y
_atom_site_fract_z
Si Si1 0.669552 0.826640 0.002405
Si Si2 0.075607 0.328073 0.838338
Si Si3 0.624850 0.666955 0.918242
Si Si4 0.641911 0.328404 0.577323
Si Si5 0.093650 0.828494 0.484522
Si Si6 0.331941 0.174785 0.331033
O O1 0.550037 0.792800 0.089715
O O2 0.693613 0.000000 0.986471
O O3 0.750000 0.750000 0.000000
O O4 0.687449 0.758735 0.930892
O O5 0.097592 0.500000 0.836322
O O6 0.142785 0.241020 0.848008
O O7 0.118519 0.274485 0.754880
O O8 0.669238 0.500000 0.892905
O O9 0.500000 0.670741 0.000000
O O10 0.662550 0.500000 0.577679
O O11 0.750000 0.250000 0.500000
O O12 0.564664 0.306570 0.566343
O O13 0.598284 0.250862 0.657937
O O14 0.210152 0.764133 0.403166
O O15 0.000000 0.751174 0.500000
O O16 0.098878 0.000000 0.466091
O O17 0.339098 0.000000 0.335445
#
# Coordination Sequence:
#
# PCOD8087385 Si02
#       6
#     8   8   8   8   8   8
#     4  10  19  32  50  70  94 124 159 197 238 284
#     4   9  18  32  49  69  94 125 157 192 238 287
#     4   9  17  30  49  71  94 122 157 194 231 278
#     4   9  16  27  45  66  89 120 156 191 226 270
#     4   8  14  26  45  67  89 115 149 186 221 261
#     4   9  17  30  48  68  92 121 151 186 229 277
#
# _framework density 17.715698
#
# number of rings (size 3 to 8) (size 9 to 14) (size 15 to 20)
#    0.000    3.000    0.000    2.500    0.000    3.333 
#    0.000    1.667    0.000   14.500    0.000    0.000 
#    0.000    0.000    0.000    0.000    0.000    0.000 
#
# Total GULP energy -297451.564915 kJ/mol
# GULP energy per Si atom -12393.815205 kJ/mol
# Density = 1.767538 g / cm^3
# Si number density = 17.715698 Si / 1000 Ang^3
#
#
#
# Elastic Constant Matrix: (Units=GPa)
#
#
# Indices 1 2 3 4 5 6 
#
# 1 137.8373 62.7165 57.5197 0.0000 35.9169 -0.0001
# 2 62.7165 87.4547 42.2656 0.0000 23.0622 -0.0004
# 3 57.5197 42.2656 99.5421 0.0000 37.9422 0.0000
# 4 0.0000 0.0000 0.0000 23.0502 0.0000 10.5973
# 5 35.9169 23.0622 37.9422 0.0000 32.6792 0.0000
# 6 -0.0001 -0.0004 0.0000 10.5973 0.0000 30.2857
#
#
#
# Elastic Compliance Matrix: (Units=1/GPa)
#
#
# Indices 1 2 3 4 5 6 
#
# 1 0.012885 -0.006351 -0.001900 0.000000 -0.007473 0.000000
# 2 -0.006351 0.018088 -0.003239 0.000000 -0.002025 0.000000
# 3 -0.001900 -0.003239 0.019467 0.000000 -0.018228 0.000000
# 4 0.000000 0.000000 0.000000 0.051701 0.000000 -0.018091
# 5 -0.007473 -0.002025 -0.018228 0.000000 0.061407 0.000000
# 6 0.000000 0.000000 0.000000 -0.018091 0.000000 0.039349
#
#
# Mechanical properties :
#
#
# Convention : Reuss Voigt Hill
#
# Bulk Modulus (GPa) = 36.41604 72.20417 54.31011
# Shear Modulus (GPa) = 21.27378 28.02515 24.64947
#
# Velocity S-wave (km/s) = 3.46908 3.98167 3.73418
# Velocity P-wave (km/s) = 6.05363 7.87299 7.02248
#
# Compressibility (1/GPa) = 0.02746042
#
# Stress axis : x y z
#
# Youngs Moduli (GPa) = 77.60924 55.28479 51.36841
#
# Poissons Ratio (x) = 0.35112 0.09761
# Poissons Ratio (y) = 0.49291 0.16636
# Poissons Ratio (z) = 0.14748 0.17904
#
# Static dielectric constant tensor:
#      x y z
#    x 3.574900 0.000000 0.330580 
#    y 0.000000 3.294850 0.000000 
#    z 0.330580 0.000000 3.116140 
# 
# 
# High freq. dielectric constant tensor:
#      x y z
#    x 1.683980 0.000000 0.032610 
#    y 0.000000 1.676650 0.000000 
#    z 0.032610 0.000000 1.660180 
# 
# From -- ./inp_files/221660.got.cif
#   From: 2010.06.25/outbox.cif.g09.slc.cpg/sg12_111_cif.got.tgz:221660.got - 2010.06.28 00:19:55.
