data_PCOD8087900
_publ_section_title
;
Structure prediction by ZEFSAII (Michael W. Deem and Ramdas Pophale) SiO2 
 PCOD8087900
Probable space group: C 2/M
;
_chemical_formula_sum "Si O2"
_cell_formula_units_Z 40
_cell_length_a 18.304298
_cell_length_b 23.171884
_cell_length_c 6.210014
_cell_angle_alpha 90.000000
_cell_angle_beta 47.010602
_cell_angle_gamma 90.000000
_cell_volume 1926.679121
_symmetry_space_group_name_H-M "C 2/M"
_symmetry_group_IT_number 12
_symmetry_cell_setting 'monoclinic'
loop_
_space_group_symop_operation_xyz
x,y,z
-x,y,-z
-x,-y,-z
x,-y,z
1/2+x,1/2+y,z
1/2-x,1/2+y,-z
1/2-x,1/2-y,-z
1/2+x,1/2-y,z
loop_
_atom_site_type_symbol
_atom_site_label
_atom_site_fract_x
_atom_site_fract_y
_atom_site_fract_z
Si Si1 0.793132 0.668906 0.257623
Si Si2 0.428368 0.563417 0.325317
Si Si3 0.606517 0.714523 0.894616
Si Si4 0.234342 0.563119 0.444351
Si Si5 0.329355 0.630192 0.877325
O O1 0.688869 0.690389 0.567065
O O2 0.877546 0.717588 0.091881
O O3 0.835028 0.614321 0.315903
O O4 0.765518 0.653506 0.067552
O O5 0.472820 0.500000 0.293977
O O6 0.318762 0.556628 0.453412
O O7 0.418940 0.602750 0.555643
O O8 0.500000 0.593212 0.000000
O O9 0.500000 0.705509 0.000000
O O10 0.617600 0.681278 0.097790
O O11 0.180593 0.500000 0.528061
O O12 0.283299 0.580303 0.119680
#
# Coordination Sequence:
#
# PCOD8087900 Si02
#       5
#     8   8   8   8   8
#     4   9  20  36  53  78 108 135 173 220 263 314
#     4   9  18  30  44  69 106 143 178 214 254 307
#     4  10  21  36  54  77 105 139 177 219 266 312
#     4   9  18  31  50  75 102 135 172 212 261 313
#     4  10  19  32  52  74 103 139 177 217 259 310
#
# _framework density 20.761111
#
# number of rings (size 3 to 8) (size 9 to 14) (size 15 to 20)
#    0.000    2.600    0.000    1.200    0.000   11.200 
#    0.000    3.000    0.000    6.000    0.000    1.400 
#    0.000    0.000    0.000    0.000    0.000    1.000 
#
# Total GULP energy -247861.335477 kJ/mol
# GULP energy per Si atom -12393.066774 kJ/mol
# Density = 2.071386 g / cm^3
# Si number density = 20.761111 Si / 1000 Ang^3
#
#
#
# Elastic Constant Matrix: (Units=GPa)
#
#
# Indices 1 2 3 4 5 6 
#
# 1 47.9906 35.2692 28.2840 0.0000 18.8292 0.0000
# 2 35.2692 180.6652 58.1600 0.0000 23.0574 0.0000
# 3 28.2840 58.1600 82.3103 0.0000 30.1906 0.0000
# 4 0.0000 0.0000 0.0000 19.6298 0.0000 -3.8677
# 5 18.8292 23.0574 30.1906 0.0000 25.5838 0.0000
# 6 0.0000 0.0000 0.0000 -3.8677 0.0000 10.9055
#
#
#
# Elastic Compliance Matrix: (Units=1/GPa)
#
#
# Indices 1 2 3 4 5 6 
#
# 1 0.031366 -0.003214 -0.001944 0.000000 -0.017894 0.000000
# 2 -0.003214 0.007505 -0.004558 0.000000 0.000980 0.000000
# 3 -0.001944 -0.004558 0.024695 0.000000 -0.023604 0.000000
# 4 0.000000 0.000000 0.000000 0.054770 0.000000 0.019425
# 5 -0.017894 0.000980 -0.023604 0.000000 0.079227 0.000000
# 6 0.000000 0.000000 0.000000 0.019425 0.000000 0.098586
#
#
# Mechanical properties :
#
#
# Convention : Reuss Voigt Hill
#
# Bulk Modulus (GPa) = 22.65799 61.59917 42.12858
# Shear Modulus (GPa) = 15.13811 23.84068 19.48939
#
# Velocity S-wave (km/s) = 2.70322 3.39238 3.06722
# Velocity P-wave (km/s) = 4.54759 6.71411 5.73410
#
# Compressibility (1/GPa) = 0.04413454
#
# Stress axis : x y z
#
# Youngs Moduli (GPa) = 31.88201 133.25020 40.49343
#
# Poissons Ratio (x) = 0.42822 0.07871
# Poissons Ratio (y) = 0.10246 0.18457
# Poissons Ratio (z) = 0.06197 0.60736
#
# Static dielectric constant tensor:
#      x y z
#    x 3.411130 0.000000 0.372330 
#    y 0.000000 4.940640 0.000000 
#    z 0.372330 0.000000 3.580240 
# 
# 
# High freq. dielectric constant tensor:
#      x y z
#    x 1.775380 0.000000 0.043310 
#    y 0.000000 1.838060 0.000000 
#    z 0.043310 0.000000 1.788240 
# 
# From -- ./inp_files/11332.got.cif
#   From: 2010.06.25/outbox.cif.g09.slc.cpg/sg12_6_cif.got.tgz:11332.got - 2010.06.28 00:19:55.
