data_PCOD8087365
_publ_section_title
;
Structure prediction by ZEFSAII (Michael W. Deem and Ramdas Pophale) SiO2 
 PCOD8087365
Probable space group: C 2/M
;
_chemical_formula_sum "Si O2"
_cell_formula_units_Z 56
_cell_length_a 21.363550
_cell_length_b 12.395912
_cell_length_c 23.504802
_cell_angle_alpha 90.000000
_cell_angle_beta 149.751098
_cell_angle_gamma 90.000000
_cell_volume 3135.667187
_symmetry_space_group_name_H-M "C 2/M"
_symmetry_group_IT_number 12
_symmetry_cell_setting 'monoclinic'
loop_
_space_group_symop_operation_xyz
x,y,z
-x,y,-z
-x,-y,-z
x,-y,z
1/2+x,1/2+y,z
1/2-x,1/2+y,-z
1/2-x,1/2-y,-z
1/2+x,1/2-y,z
loop_
_atom_site_type_symbol
_atom_site_label
_atom_site_fract_x
_atom_site_fract_y
_atom_site_fract_z
Si Si1 0.611084 0.376420 0.630263
Si Si2 0.285620 0.875744 0.098985
Si Si3 0.586780 0.773589 0.902099
Si Si4 0.669534 0.124337 0.281541
Si Si5 0.038919 0.736621 0.676535
Si Si6 0.272466 0.218596 0.453499
Si Si7 0.530695 0.619722 0.276545
O O1 0.500000 0.346112 0.500000
O O2 0.593165 0.500000 0.637100
O O3 0.745337 0.362057 0.706945
O O4 0.614480 0.292995 0.685165
O O5 0.347618 0.866043 0.084810
O O6 0.380170 0.849486 0.224948
O O7 0.240856 0.000000 0.071601
O O8 0.175796 0.785434 0.018190
O O9 0.464692 0.821583 0.836544
O O10 0.560105 0.678959 0.837207
O O11 0.739115 0.177716 0.389204
O O12 0.649337 0.000000 0.281541
O O13 0.913849 0.678448 0.553423
O O14 0.983366 0.830693 0.672113
O O15 0.250000 0.250000 0.500000
O O16 0.171993 0.124303 0.362829
O O17 0.481828 0.500000 0.241530
#
# Coordination Sequence:
#
# PCOD8087365 Si02
#       7
#     8   8   8   8   8   8   8
#     4  10  19  32  54  79 104 140 174 208 259 313
#     4  10  20  35  56  77 104 140 175 214 264 313
#     4   9  19  34  53  80 104 132 173 216 260 308
#     4  10  19  33  54  77 105 137 170 210 261 313
#     4  10  19  32  49  76 107 135 173 215 254 308
#     4   9  18  28  43  73 104 132 164 204 254 310
#     4   9  17  29  48  73 104 134 164 210 262 311
#
# _framework density 17.859038000000002
#
# number of rings (size 3 to 8) (size 9 to 14) (size 15 to 20)
#    0.000    2.429    1.429    2.143    0.000    2.857 
#    0.000    2.857    0.000    7.286    0.000    0.000 
#    0.000    0.000    0.000    0.000    0.000    0.000 
#
# Total GULP energy -346966.180030 kJ/mol
# GULP energy per Si atom -12391.649287 kJ/mol
# Density = 1.781839 g / cm^3
# Si number density = 17.859038 Si / 1000 Ang^3
#
#
#
# Elastic Constant Matrix: (Units=GPa)
#
#
# Indices 1 2 3 4 5 6 
#
# 1 68.8945 27.1649 26.0465 -0.0002 8.7995 -0.0001
# 2 27.1649 77.6991 27.0759 -0.0002 -2.3163 -0.0001
# 3 26.0465 27.0759 97.1936 -0.0004 14.7737 -0.0002
# 4 -0.0002 -0.0002 -0.0004 13.9458 -0.0001 2.1334
# 5 8.7995 -2.3163 14.7737 -0.0001 22.4952 0.0000
# 6 -0.0001 -0.0001 -0.0002 2.1334 0.0000 20.9468
#
#
#
# Elastic Compliance Matrix: (Units=1/GPa)
#
#
# Indices 1 2 3 4 5 6 
#
# 1 0.018517 -0.005830 -0.002384 0.000000 -0.006278 0.000000
# 2 -0.005830 0.016517 -0.004048 0.000000 0.006640 0.000000
# 3 -0.002384 -0.004048 0.013305 0.000000 -0.008222 0.000000
# 4 0.000000 0.000000 0.000000 0.072841 0.000000 -0.007419
# 5 -0.006278 0.006640 -0.008222 0.000000 0.052993 0.000000
# 6 0.000000 0.000000 0.000000 -0.007419 0.000000 0.048496
#
#
# Mechanical properties :
#
#
# Convention : Reuss Voigt Hill
#
# Bulk Modulus (GPa) = 41.99093 44.92909 43.46001
# Shear Modulus (GPa) = 19.59770 22.37756 20.98763
#
# Velocity S-wave (km/s) = 3.31623 3.54363 3.43181
# Velocity P-wave (km/s) = 6.18277 6.47729 6.33174
#
# Compressibility (1/GPa) = 0.02381467
#
# Stress axis : x y z
#
# Youngs Moduli (GPa) = 54.00468 60.54313 75.15901
#
# Poissons Ratio (x) = 0.35298 0.17916
# Poissons Ratio (y) = 0.31486 0.30426
# Poissons Ratio (z) = 0.12874 0.24509
#
# Static dielectric constant tensor:
#      x y z
#    x 3.191380 0.000000 0.277710 
#    y 0.000000 2.882230 0.000000 
#    z 0.277710 0.000000 3.601040 
# 
# 
# High freq. dielectric constant tensor:
#      x y z
#    x 1.663240 0.000000 0.014010 
#    y 0.000000 1.674950 0.000000 
#    z 0.014010 0.000000 1.701140 
# 
# From -- ./inp_files/164891.got.cif
#   From: 2010.06.25/outbox.cif.g09.slc.cpg/sg12_83_cif.got.tgz:164891.got - 2010.06.28 00:19:55.
