data_PCOD8087623
_publ_section_title
;
Structure prediction by ZEFSAII (Michael W. Deem and Ramdas Pophale) SiO2 
 PCOD8087623
Probable space group: C 2/M
;
_chemical_formula_sum "Si O2"
_cell_formula_units_Z 64
_cell_length_a 18.866334
_cell_length_b 9.084399
_cell_length_c 31.515797
_cell_angle_alpha 90.000000
_cell_angle_beta 139.192594
_cell_angle_gamma 90.000000
_cell_volume 3529.960657
_symmetry_space_group_name_H-M "C 2/M"
_symmetry_group_IT_number 12
_symmetry_cell_setting 'monoclinic'
loop_
_space_group_symop_operation_xyz
x,y,z
-x,y,-z
-x,-y,-z
x,-y,z
1/2+x,1/2+y,z
1/2-x,1/2+y,-z
1/2-x,1/2-y,-z
1/2+x,1/2-y,z
loop_
_atom_site_type_symbol
_atom_site_label
_atom_site_fract_x
_atom_site_fract_y
_atom_site_fract_z
Si Si1 0.184986 0.329371 0.813466
Si Si2 0.144384 0.828298 0.182248
Si Si3 0.636481 0.827759 0.442288
Si Si4 0.419058 0.170248 0.068001
Si Si5 0.965968 0.671066 0.438091
Si Si6 0.696421 0.665779 0.689567
Si Si7 0.251901 0.330130 0.937097
Si Si8 0.976148 0.833974 0.313673
O O1 0.152491 0.500000 0.798102
O O2 0.283248 0.296578 0.826191
O O3 0.221449 0.277353 0.876335
O O4 0.077756 0.238447 0.752235
O O5 0.196772 0.753874 0.247642
O O6 0.028317 0.760575 0.120986
O O7 0.132851 0.000000 0.186370
O O8 0.750000 0.750000 0.500000
O O9 0.564685 0.795423 0.451192
O O10 0.580324 0.759996 0.375031
O O11 0.653693 0.000000 0.442563
O O12 0.352431 0.194946 0.080851
O O13 0.445754 0.000000 0.072155
O O14 0.351620 0.230801 0.997545
O O15 0.935478 0.500000 0.424023
O O16 0.857572 0.758269 0.375810
O O17 0.000000 0.725736 0.500000
O O18 0.730343 0.500000 0.693071
O O19 0.610736 0.668917 0.688424
O O20 0.289101 0.500000 0.954679
O O21 0.012759 0.000000 0.319597
#
# Coordination Sequence:
#
# PCOD8087623 Si02
#       8
#     8   8   8   8   8   8   8   8
#     4   9  18  33  53  75  97 125 163 203 241 284
#     4  10  19  32  52  75  99 127 161 201 243 288
#     4  10  19  32  51  73  99 130 164 201 241 288
#     4  10  20  34  52  73  99 130 163 199 240 288
#     4   9  18  33  52  73  98 129 164 201 242 288
#     4   9  17  30  49  73 100 128 160 199 243 290
#     4   9  19  36  54  71  96 131 166 198 238 289
#     4   9  17  30  49  73 100 128 159 198 245 292
#
# _framework density 18.130514000000002
#
# number of rings (size 3 to 8) (size 9 to 14) (size 15 to 20)
#    0.000    2.625    0.000    1.875    0.000    5.750 
#    0.000    3.750    0.000    0.000    0.000    0.000 
#    0.000    0.000    0.000    0.000    0.000    0.000 
#
# Total GULP energy -396864.693805 kJ/mol
# GULP energy per Si atom -12402.021681 kJ/mol
# Density = 1.808925 g / cm^3
# Si number density = 18.130514 Si / 1000 Ang^3
#
#
#
# Elastic Constant Matrix: (Units=GPa)
#
#
# Indices 1 2 3 4 5 6 
#
# 1 39.6822 41.3420 59.4084 0.0000 -4.6217 0.0000
# 2 41.3420 124.9224 93.9603 0.0001 3.8440 -0.0001
# 3 59.4084 93.9603 182.7170 0.0000 -6.8716 0.0000
# 4 0.0000 0.0001 0.0000 42.0804 0.0000 5.2141
# 5 -4.6217 3.8440 -6.8716 0.0000 31.0276 0.0000
# 6 0.0000 -0.0001 0.0000 5.2141 0.0000 21.1074
#
#
#
# Elastic Compliance Matrix: (Units=1/GPa)
#
#
# Indices 1 2 3 4 5 6 
#
# 1 0.054185 -0.008228 -0.013154 0.000000 0.006177 0.000000
# 2 -0.008228 0.014612 -0.004995 0.000000 -0.004142 0.000000
# 3 -0.013154 -0.004995 0.012371 0.000000 0.001399 0.000000
# 4 0.000000 0.000000 0.000000 0.024514 0.000000 -0.006056
# 5 0.006177 -0.004142 0.001399 0.000000 0.033973 0.000000
# 6 0.000000 0.000000 0.000000 -0.006056 0.000000 0.048873
#
#
# Mechanical properties :
#
#
# Convention : Reuss Voigt Hill
#
# Bulk Modulus (GPa) = 35.19364 81.86034 58.52699
# Shear Modulus (GPa) = 19.93990 29.01713 24.47852
#
# Velocity S-wave (km/s) = 3.31992 4.00491 3.67840
# Velocity P-wave (km/s) = 5.84373 8.16299 7.09872
#
# Compressibility (1/GPa) = 0.02841422
#
# Stress axis : x y z
#
# Youngs Moduli (GPa) = 18.45523 68.43578 80.83529
#
# Poissons Ratio (x) = 0.56312 1.06331
# Poissons Ratio (y) = 0.15186 0.40374
# Poissons Ratio (z) = 0.24276 0.34181
#
# Static dielectric constant tensor:
#      x y z
#    x 3.075640 0.000000 -0.101370 
#    y 0.000000 3.490740 0.000000 
#    z -0.101370 0.000000 3.543940 
# 
# 
# High freq. dielectric constant tensor:
#      x y z
#    x 1.666370 0.000000 -0.001140 
#    y 0.000000 1.712820 0.000000 
#    z -0.001140 0.000000 1.717240 
# 
# From -- ./inp_files/346033.got.cif
#   From: 2010.06.25/outbox.cif.g09.slc.cpg/sg12_174_cif.got.tgz:346033.got - 2010.06.28 00:19:55.
