data_PCOD8087279
_publ_section_title
;
Structure prediction by ZEFSAII (Michael W. Deem and Ramdas Pophale) SiO2 
 PCOD8087279
Probable space group: C 2/M
;
_chemical_formula_sum "Si O2"
_cell_formula_units_Z 56
_cell_length_a 23.017049
_cell_length_b 8.965382
_cell_length_c 21.896116
_cell_angle_alpha 90.000000
_cell_angle_beta 47.564516
_cell_angle_gamma 90.000000
_cell_volume 3334.755606
_symmetry_space_group_name_H-M "C 2/M"
_symmetry_group_IT_number 12
_symmetry_cell_setting 'monoclinic'
loop_
_space_group_symop_operation_xyz
x,y,z
-x,y,-z
-x,-y,-z
x,-y,z
1/2+x,1/2+y,z
1/2-x,1/2+y,-z
1/2-x,1/2-y,-z
1/2+x,1/2-y,z
loop_
_atom_site_type_symbol
_atom_site_label
_atom_site_fract_x
_atom_site_fract_y
_atom_site_fract_z
Si Si1 0.643498 0.327439 0.125750
Si Si2 0.517638 0.823403 0.739198
Si Si3 0.239512 0.664867 0.415442
Si Si4 0.869449 0.165461 0.427609
Si Si5 0.586554 0.677059 0.925593
Si Si6 0.124069 0.822891 0.763610
Si Si7 0.299403 0.673193 0.049100
O O1 0.628985 0.500000 0.151766
O O2 0.571883 0.229562 0.201138
O O3 0.721151 0.271771 0.105328
O O4 0.651901 0.302828 0.047423
O O5 0.560932 0.769361 0.646851
O O6 0.556762 0.755185 0.771843
O O7 0.522375 0.000000 0.739242
O O8 0.205721 0.500000 0.426628
O O9 0.165707 0.770308 0.483870
O O10 0.299980 0.658932 0.428249
O O11 0.288551 0.723540 0.321829
O O12 0.902676 0.000000 0.416671
O O13 0.582539 0.500000 0.930837
O O14 0.616332 0.731730 0.838506
O O15 0.646741 0.734489 0.934166
O O16 0.500000 0.744039 0.000000
O O17 0.111691 0.000000 0.764892
O O18 0.276478 0.500000 0.073570
#
# Coordination Sequence:
#
# PCOD8087279 Si02
#       7
#     8   8   8   8   8   8   8
#     4  10  19  32  49  67  91 121 153 191 232 272
#     4  11  20  29  44  67  94 121 152 190 230 272
#     4   8  14  24  38  59  88 119 150 183 220 266
#     4   9  16  26  41  61  87 118 150 184 225 272
#     4   9  16  28  48  71  94 122 155 188 221 262
#     4   9  17  29  45  66  93 125 157 187 224 270
#     4   9  18  32  50  70  91 119 156 192 225 264
#
# _framework density 16.792833999999999
#
# number of rings (size 3 to 8) (size 9 to 14) (size 15 to 20)
#    0.000    2.714    0.000    3.857    0.000    6.286 
#    0.000    0.714    0.000    1.714    0.000    1.000 
#    0.000    8.000    0.000    0.000    0.000    0.000 
#
# Total GULP energy -347144.207305 kJ/mol
# GULP energy per Si atom -12398.007404 kJ/mol
# Density = 1.675461 g / cm^3
# Si number density = 16.792834 Si / 1000 Ang^3
#
#
#
# Elastic Constant Matrix: (Units=GPa)
#
#
# Indices 1 2 3 4 5 6 
#
# 1 77.7608 29.1597 57.7471 0.0001 0.1699 -0.0002
# 2 29.1597 75.8805 46.5038 0.0002 -5.6456 -0.0010
# 3 57.7471 46.5038 138.2458 -0.0001 2.8149 0.0002
# 4 0.0001 0.0002 -0.0001 27.3843 0.0000 -5.0540
# 5 0.1699 -5.6456 2.8149 0.0000 18.1369 0.0001
# 6 -0.0002 -0.0010 0.0002 -5.0540 0.0001 17.8881
#
#
#
# Elastic Compliance Matrix: (Units=1/GPa)
#
#
# Indices 1 2 3 4 5 6 
#
# 1 0.019206 -0.003111 -0.006975 0.000000 -0.000066 0.000000
# 2 -0.003111 0.017795 -0.004815 0.000000 0.006316 0.000001
# 3 -0.006975 -0.004815 0.011833 0.000000 -0.003270 0.000000
# 4 0.000000 0.000000 0.000000 0.038526 0.000000 0.010885
# 5 -0.000066 0.006316 -0.003270 0.000000 0.057610 0.000000
# 6 0.000000 0.000001 0.000000 0.010885 0.000000 0.058979
#
#
# Mechanical properties :
#
#
# Convention : Reuss Voigt Hill
#
# Bulk Modulus (GPa) = 52.54110 62.07870 57.30990
# Shear Modulus (GPa) = 20.82501 23.24696 22.03598
#
# Velocity S-wave (km/s) = 3.52534 3.72471 3.62640
# Velocity P-wave (km/s) = 6.92289 7.45289 7.19277
#
# Compressibility (1/GPa) = 0.01903272
#
# Stress axis : x y z
#
# Youngs Moduli (GPa) = 52.06580 56.19574 84.50717
#
# Poissons Ratio (x) = 0.17483 0.58943
# Poissons Ratio (y) = 0.16198 0.40691
# Poissons Ratio (z) = 0.36316 0.27058
#
# Static dielectric constant tensor:
#      x y z
#    x 2.825510 0.000000 0.047570 
#    y 0.000000 3.119960 0.000000 
#    z 0.047570 0.000000 3.410430 
# 
# 
# High freq. dielectric constant tensor:
#      x y z
#    x 1.598270 0.000000 -0.004680 
#    y 0.000000 1.638980 0.000000 
#    z -0.004680 0.000000 1.659720 
# 
# From -- ./inp_files/348487.got.cif
#   From: 2010.06.25/outbox.cif.g09.slc.cpg/sg12_175_cif.got.tgz:348487.got - 2010.06.28 00:19:55.
