data_PCOD8087297
_publ_section_title
;
Structure prediction by ZEFSAII (Michael W. Deem and Ramdas Pophale) SiO2 
 PCOD8087297
Probable space group: C 2/M
;
_chemical_formula_sum "Si O2"
_cell_formula_units_Z 56
_cell_length_a 19.259828
_cell_length_b 9.260180
_cell_length_c 18.750456
_cell_angle_alpha 90.000000
_cell_angle_beta 66.405129
_cell_angle_gamma 90.000000
_cell_volume 3064.559565
_symmetry_space_group_name_H-M "C 2/M"
_symmetry_group_IT_number 12
_symmetry_cell_setting 'monoclinic'
loop_
_space_group_symop_operation_xyz
x,y,z
-x,y,-z
-x,-y,-z
x,-y,z
1/2+x,1/2+y,z
1/2-x,1/2+y,-z
1/2-x,1/2-y,-z
1/2+x,1/2-y,z
loop_
_atom_site_type_symbol
_atom_site_label
_atom_site_fract_x
_atom_site_fract_y
_atom_site_fract_z
Si Si1 0.172745 0.167178 0.790782
Si Si2 0.574202 0.163884 0.433427
Si Si3 0.840924 0.332385 0.737286
Si Si4 0.405087 0.334165 0.322646
Si Si5 0.966250 0.333248 0.087203
Si Si6 0.173470 0.663820 0.526682
Si Si7 0.462838 0.836046 0.796382
O O1 0.256167 0.233839 0.772686
O O2 0.157949 0.187406 0.712663
O O3 0.110883 0.251528 0.862304
O O4 0.166694 0.000000 0.815483
O O5 0.500000 0.241112 0.500000
O O6 0.604169 0.236400 0.347032
O O7 0.644512 0.170222 0.458086
O O8 0.549273 0.000000 0.426184
O O9 0.831111 0.500000 0.721453
O O10 0.878206 0.310283 0.800280
O O11 0.409798 0.500000 0.344740
O O12 0.388016 0.235654 0.397114
O O13 0.485707 0.283487 0.261349
O O14 0.944289 0.500000 0.086894
O O15 0.031465 0.312972 0.120806
O O16 0.000000 0.269769 0.000000
O O17 0.187697 0.500000 0.545301
O O18 0.250000 0.750000 0.500000
O O19 0.489384 0.000000 0.766424
#
# Coordination Sequence:
#
# PCOD8087297 Si02
#       7
#     8   8   8   8   8   8   8
#     4   9  18  32  51  73  97 128 164 202 240 281
#     4   9  17  29  47  70  94 124 164 207 244 277
#     4   9  16  29  49  72  96 123 164 209 240 276
#     4  10  19  32  49  69  95 125 160 202 244 286
#     4   9  18  33  52  75 102 127 153 191 241 295
#     4  11  21  32  48  69  94 125 162 205 250 291
#     4   9  17  31  53  74  92 123 162 194 231 284
#
# _framework density 18.273425
#
# number of rings (size 3 to 8) (size 9 to 14) (size 15 to 20)
#    0.000    2.571    0.000    2.571    0.000    5.429 
#    0.000    1.429    0.000    9.429    0.000    0.000 
#    0.000    0.000    0.000    0.000    0.000    0.000 
#
# Total GULP energy -347075.173787 kJ/mol
# GULP energy per Si atom -12395.541921 kJ/mol
# Density = 1.823183 g / cm^3
# Si number density = 18.273425 Si / 1000 Ang^3
#
#
#
# Elastic Constant Matrix: (Units=GPa)
#
#
# Indices 1 2 3 4 5 6 
#
# 1 117.1362 23.8188 42.5225 0.0000 -0.1236 0.0000
# 2 23.8188 62.2568 27.0355 0.0000 3.2305 0.0000
# 3 42.5225 27.0355 108.3668 0.0000 5.7441 0.0000
# 4 0.0000 0.0000 0.0000 22.6365 0.0000 -3.4892
# 5 -0.1236 3.2305 5.7441 0.0000 22.4291 0.0000
# 6 0.0000 0.0000 0.0000 -3.4892 0.0000 20.9774
#
#
#
# Elastic Compliance Matrix: (Units=1/GPa)
#
#
# Indices 1 2 3 4 5 6 
#
# 1 0.010315 -0.002497 -0.003494 0.000000 0.001311 0.000000
# 2 -0.002497 0.018666 -0.003582 0.000000 -0.001785 0.000000
# 3 -0.003494 -0.003582 0.011624 0.000000 -0.002480 0.000000
# 4 0.000000 0.000000 0.000000 0.045339 0.000000 0.007541
# 5 0.001311 -0.001785 -0.002480 0.000000 0.045484 0.000000
# 6 0.000000 0.000000 0.000000 0.007541 0.000000 0.048925
#
#
# Mechanical properties :
#
#
# Convention : Reuss Voigt Hill
#
# Bulk Modulus (GPa) = 46.60247 52.72373 49.66310
# Shear Modulus (GPa) = 24.19525 26.16747 25.18136
#
# Velocity S-wave (km/s) = 3.64272 3.78828 3.71621
# Velocity P-wave (km/s) = 6.57653 6.93181 6.75651
#
# Compressibility (1/GPa) = 0.02145809
#
# Stress axis : x y z
#
# Youngs Moduli (GPa) = 96.95027 53.57285 86.02792
#
# Poissons Ratio (x) = 0.13377 0.30057
# Poissons Ratio (y) = 0.24209 0.30819
# Poissons Ratio (z) = 0.33874 0.19192
#
# Static dielectric constant tensor:
#      x y z
#    x 3.468710 0.000000 0.194860 
#    y 0.000000 7.378060 0.000000 
#    z 0.194860 0.000000 3.788780 
# 
# 
# High freq. dielectric constant tensor:
#      x y z
#    x 1.714530 0.000000 0.005900 
#    y 0.000000 1.677670 0.000000 
#    z 0.005900 0.000000 1.695490 
# 
# From -- ./inp_files/319011.got.cif
#   From: 2010.06.25/outbox.cif.g09.slc.cpg/sg12_160_cif.got.tgz:319011.got - 2010.06.28 00:19:55.
