data_PCOD8087693
_publ_section_title
;
Structure prediction by ZEFSAII (Michael W. Deem and Ramdas Pophale) SiO2 
 PCOD8087693
Probable space group: C 2/M
;
_chemical_formula_sum "Si O2"
_cell_formula_units_Z 64
_cell_length_a 25.393673
_cell_length_b 9.492682
_cell_length_c 16.210197
_cell_angle_alpha 90.000000
_cell_angle_beta 112.941778
_cell_angle_gamma 90.000000
_cell_volume 3598.453486
_symmetry_space_group_name_H-M "C 2/M"
_symmetry_group_IT_number 12
_symmetry_cell_setting 'monoclinic'
loop_
_space_group_symop_operation_xyz
x,y,z
-x,y,-z
-x,-y,-z
x,-y,z
1/2+x,1/2+y,z
1/2-x,1/2+y,-z
1/2-x,1/2-y,-z
1/2+x,1/2-y,z
loop_
_atom_site_type_symbol
_atom_site_label
_atom_site_fract_x
_atom_site_fract_y
_atom_site_fract_z
Si Si1 0.577027 0.666450 0.253892
Si Si2 0.977236 0.151709 0.074158
Si Si3 0.293153 0.154490 0.073978
Si Si4 0.873577 0.656811 0.975649
Si Si5 0.191870 0.663908 0.733274
Si Si6 0.032008 0.833176 0.398409
Si Si7 0.821728 0.164901 0.798097
Si Si8 0.586392 0.666773 0.602244
O O1 0.578958 0.500000 0.263046
O O2 0.527318 0.714516 0.161643
O O3 0.562002 0.732162 0.334718
O O4 0.638137 0.717657 0.253520
O O5 0.953820 0.000000 0.096292
O O6 0.932926 0.274313 0.034112
O O7 0.000000 0.111099 0.000000
O O8 0.309362 0.217252 0.172845
O O9 0.265313 0.000000 0.071538
O O10 0.250000 0.250000 0.000000
O O11 0.347856 0.143775 0.050527
O O12 0.881381 0.500000 0.942265
O O13 0.836244 0.750344 0.890271
O O14 0.175179 0.500000 0.716049
O O15 0.255341 0.691214 0.734423
O O16 0.145386 0.754859 0.656862
O O17 0.068785 0.785597 0.499519
O O18 0.965319 0.786172 0.367736
O O19 0.031937 0.000000 0.393581
O O20 0.833176 0.000000 0.823681
O O21 0.596990 0.500000 0.614265
#
# Coordination Sequence:
#
# PCOD8087693 Si02
#       8
#     8   8   8   8   8   8   8   8
#     4   9  17  31  53  77  99 130 176 216 247 293
#     4  10  19  32  51  74  99 133 178 214 244 300
#     4  10  21  35  50  71 102 139 175 210 249 301
#     4  11  22  33  47  71 105 139 169 212 264 301
#     4  10  21  35  52  75 104 135 169 209 254 302
#     4   8  16  33  55  80 104 128 164 211 258 303
#     4  10  19  35  55  72  98 139 178 211 247 297
#     4   9  18  34  57  80 103 130 163 208 261 308
#
# _framework density 17.785418
#
# number of rings (size 3 to 8) (size 9 to 14) (size 15 to 20)
#    0.000    2.375    2.500    1.125    1.750    1.750 
#    0.000    1.875    0.000    2.250    0.000    0.000 
#    0.000    0.000    0.000    0.000    0.000    0.000 
#
# Total GULP energy -396506.100013 kJ/mol
# GULP energy per Si atom -12390.815625 kJ/mol
# Density = 1.774494 g / cm^3
# Si number density = 17.785418 Si / 1000 Ang^3
#
#
#
# Elastic Constant Matrix: (Units=GPa)
#
#
# Indices 1 2 3 4 5 6 
#
# 1 118.7926 41.3874 65.0744 0.0000 8.2297 0.0000
# 2 41.3874 61.4404 29.8104 0.0000 13.7553 0.0000
# 3 65.0744 29.8104 110.0296 0.0000 3.1369 0.0000
# 4 0.0000 0.0000 0.0000 23.2008 0.0000 7.9714
# 5 8.2297 13.7553 3.1369 0.0000 34.4311 0.0000
# 6 0.0000 0.0000 0.0000 7.9714 0.0000 27.7757
#
#
#
# Elastic Compliance Matrix: (Units=1/GPa)
#
#
# Indices 1 2 3 4 5 6 
#
# 1 0.014344 -0.006316 -0.006764 0.000000 -0.000289 0.000000
# 2 -0.006316 0.023393 -0.002386 0.000000 -0.007619 0.000000
# 3 -0.006764 -0.002386 0.013697 0.000000 0.001322 0.000000
# 4 0.000000 0.000000 0.000000 0.047817 0.000000 -0.013723
# 5 -0.000289 -0.007619 0.001322 0.000000 0.032036 0.000000
# 6 0.000000 0.000000 0.000000 -0.013723 0.000000 0.039941
#
#
# Mechanical properties :
#
#
# Convention : Reuss Voigt Hill
#
# Bulk Modulus (GPa) = 48.77009 62.53413 55.65211
# Shear Modulus (GPa) = 23.92418 27.34754 25.63586
#
# Velocity S-wave (km/s) = 3.67162 3.92553 3.80069
# Velocity P-wave (km/s) = 6.74205 7.46880 7.11471
#
# Compressibility (1/GPa) = 0.02050437
#
# Stress axis : x y z
#
# Youngs Moduli (GPa) = 69.71708 42.74700 73.00639
#
# Poissons Ratio (x) = 0.26998 0.49381
# Poissons Ratio (y) = 0.44031 0.17416
# Poissons Ratio (z) = 0.47156 0.10197
#
# Static dielectric constant tensor:
#      x y z
#    x 3.609690 0.000000 -0.384720 
#    y 0.000000 3.148430 0.000000 
#    z -0.384720 0.000000 3.569070 
# 
# 
# High freq. dielectric constant tensor:
#      x y z
#    x 1.693490 0.000000 -0.005240 
#    y 0.000000 1.662200 0.000000 
#    z -0.005240 0.000000 1.677610 
# 
# From -- ./inp_files/244182.got.cif
#   From: 2010.06.25/outbox.cif.g09.slc.cpg/sg12_123_cif.got.tgz:244182.got - 2010.06.28 00:19:55.
