data_PCOD8087013
_publ_section_title
;
Structure prediction by ZEFSAII (Michael W. Deem and Ramdas Pophale) SiO2 
 PCOD8087013
Probable space group: C 2/M
;
_chemical_formula_sum "Si O2"
_cell_formula_units_Z 64
_cell_length_a 24.087567
_cell_length_b 8.787214
_cell_length_c 16.187109
_cell_angle_alpha 90.000000
_cell_angle_beta 88.488536
_cell_angle_gamma 90.000000
_cell_volume 3425.013585
_symmetry_space_group_name_H-M "C 2/M"
_symmetry_group_IT_number 12
_symmetry_cell_setting 'monoclinic'
loop_
_space_group_symop_operation_xyz
x,y,z
-x,y,-z
-x,-y,-z
x,-y,z
1/2+x,1/2+y,z
1/2-x,1/2+y,-z
1/2-x,1/2-y,-z
1/2+x,1/2-y,z
loop_
_atom_site_type_symbol
_atom_site_label
_atom_site_fract_x
_atom_site_fract_y
_atom_site_fract_z
Si Si1 0.397609 0.675608 0.303804
Si Si2 0.690196 0.323829 0.834947
Si Si3 0.897361 0.676993 0.053050
Si Si4 0.284631 0.823794 0.612014
Si Si5 0.484362 0.823022 0.190813
Si Si6 0.171803 0.324734 0.563997
Si Si7 0.589753 0.676874 0.120918
Si Si8 0.302270 0.323058 0.778995
O O1 0.414331 0.500000 0.305007
O O2 0.346338 0.707522 0.244665
O O3 0.451108 0.770897 0.273490
O O4 0.379116 0.729800 0.395569
O O5 0.705538 0.500000 0.843789
O O6 0.657054 0.270319 0.917355
O O7 0.746126 0.227852 0.826090
O O8 0.882434 0.500000 0.056158
O O9 0.948365 0.714920 0.111219
O O10 0.915561 0.725342 0.961619
O O11 0.229627 0.726059 0.601430
O O12 0.327271 0.797487 0.534684
O O13 0.313830 0.770421 0.694735
O O14 0.267002 0.000000 0.619158
O O15 0.540952 0.727825 0.184390
O O16 0.498506 0.000000 0.197461
O O17 0.162812 0.500000 0.586820
O O18 0.583664 0.500000 0.099561
O O19 0.647993 0.713778 0.161145
O O20 0.299107 0.500000 0.756914
#
# Coordination Sequence:
#
# PCOD8087013 Si02
#       8
#     8   8   8   8   8   8   8   8
#     4  10  19  32  54  83 112 141 177 221 269 319
#     4  10  20  34  54  80 109 142 179 219 268 322
#     4  10  21  37  58  82 107 137 177 225 275 322
#     4  10  20  33  51  79 111 145 180 217 263 317
#     4  10  21  37  58  82 107 138 179 226 274 319
#     4  10  19  31  52  81 113 143 176 218 265 316
#     4  11  24  39  55  78 106 142 185 224 271 323
#     4  11  23  37  54  76 109 148 182 221 267 322
#
# _framework density 18.686057000000002
#
# number of rings (size 3 to 8) (size 9 to 14) (size 15 to 20)
#    0.000    1.750    1.250    3.375    0.000    8.000 
#    0.000    0.000    0.000    0.750    0.000    5.250 
#    0.000    0.000    0.000    0.000    0.000    0.000 
#
# Total GULP energy -396971.098845 kJ/mol
# GULP energy per Si atom -12405.346839 kJ/mol
# Density = 1.864353 g / cm^3
# Si number density = 18.686057 Si / 1000 Ang^3
#
#
#
# Elastic Constant Matrix: (Units=GPa)
#
#
# Indices 1 2 3 4 5 6 
#
# 1 80.2102 26.8655 21.3504 0.0000 -17.4425 0.0000
# 2 26.8655 52.5695 19.3171 0.0000 1.1592 0.0000
# 3 21.3504 19.3171 54.1831 0.0000 -23.4263 0.0000
# 4 0.0000 0.0000 0.0000 33.1733 0.0000 -7.4898
# 5 -17.4425 1.1592 -23.4263 0.0000 22.3366 0.0000
# 6 0.0000 0.0000 0.0000 -7.4898 0.0000 31.2117
#
#
#
# Elastic Compliance Matrix: (Units=1/GPa)
#
#
# Indices 1 2 3 4 5 6 
#
# 1 0.020374 -0.013655 0.007365 0.000000 0.024342 0.000000
# 2 -0.013655 0.035280 -0.023052 0.000000 -0.036671 0.000000
# 3 0.007365 -0.023052 0.048991 0.000000 0.058328 0.000000
# 4 0.000000 0.000000 0.000000 0.031872 0.000000 0.007648
# 5 0.024342 -0.036671 0.058328 0.000000 0.126855 0.000000
# 6 0.000000 0.000000 0.000000 0.007648 0.000000 0.033875
#
#
# Mechanical properties :
#
#
# Convention : Reuss Voigt Hill
#
# Bulk Modulus (GPa) = 21.75804 35.78101 28.76952
# Shear Modulus (GPa) = 13.46797 25.30630 19.38713
#
# Velocity S-wave (km/s) = 2.68759 3.68406 3.22455
# Velocity P-wave (km/s) = 4.61521 6.10626 5.41233
#
# Compressibility (1/GPa) = 0.04596002
#
# Stress axis : x y z
#
# Youngs Moduli (GPa) = 49.08206 28.34455 20.41199
#
# Poissons Ratio (x) = 0.38705 -0.15033
# Poissons Ratio (y) = 0.67022 0.47054
# Poissons Ratio (z) = -0.36147 0.65340
#
# Static dielectric constant tensor:
#      x y z
#    x 3.255120 0.000000 -0.229240 
#    y 0.000000 3.520550 0.000000 
#    z -0.229240 0.000000 3.434870 
# 
# 
# High freq. dielectric constant tensor:
#      x y z
#    x 1.705820 0.000000 -0.027380 
#    y 0.000000 1.742990 0.000000 
#    z -0.027380 0.000000 1.717900 
# 
# From -- ./inp_files/238665.got.cif
#   From: 2010.06.25/outbox.cif.g09.slc.cpg/sg12_120_cif.got.tgz:238665.got - 2010.06.28 00:19:55.
