data_PCOD8087972
_publ_section_title
;
Structure prediction by ZEFSAII (Michael W. Deem and Ramdas Pophale) SiO2 
 PCOD8087972
Probable space group: C 2/M
;
_chemical_formula_sum "Si O2"
_cell_formula_units_Z 56
_cell_length_a 24.123029
_cell_length_b 19.757175
_cell_length_c 8.831847
_cell_angle_alpha 90.000000
_cell_angle_beta 141.436664
_cell_angle_gamma 90.000000
_cell_volume 2623.980764
_symmetry_space_group_name_H-M "C 2/M"
_symmetry_group_IT_number 12
_symmetry_cell_setting 'monoclinic'
loop_
_space_group_symop_operation_xyz
x,y,z
-x,y,-z
-x,-y,-z
x,-y,z
1/2+x,1/2+y,z
1/2-x,1/2+y,-z
1/2-x,1/2-y,-z
1/2+x,1/2-y,z
loop_
_atom_site_type_symbol
_atom_site_label
_atom_site_fract_x
_atom_site_fract_y
_atom_site_fract_z
Si Si1 0.063000 0.319146 0.901663
Si Si2 0.104861 0.218104 0.754738
Si Si3 0.631364 0.076904 0.832334
Si Si4 0.700300 0.575168 0.597362
Si Si5 0.717341 0.824752 0.449145
Si Si6 0.898895 0.925727 0.332474
Si Si7 0.133340 0.674505 0.573984
O O1 0.114637 0.254288 0.938382
O O2 0.059649 0.380480 0.773763
O O3 0.958910 0.307672 0.711752
O O4 0.119158 0.338145 0.169576
O O5 0.143608 0.140941 0.840275
O O6 0.155081 0.262062 0.731926
O O7 0.000000 0.216994 0.500000
O O8 0.634383 0.104902 0.668770
O O9 0.599153 0.000000 0.758437
O O10 0.725846 0.086052 0.115633
O O11 0.705001 0.500000 0.536899
O O12 0.710756 0.626225 0.478932
O O13 0.609528 0.585696 0.501833
O O14 0.750000 0.750000 0.500000
O O15 0.709947 0.836658 0.612834
O O16 0.000000 0.930333 0.500000
O O17 0.854024 0.000000 0.196368
#
# Coordination Sequence:
#
# PCOD8087972 Si02
#       7
#     8   8   8   8   8   8   8
#     4   9  19  34  51  73 104 136 167 211 256 294
#     4   8  15  29  49  73  97 121 159 212 258 291
#     4   9  18  33  54  79 105 134 168 210 259 304
#     4   9  19  35  51  73 108 138 164 210 265 306
#     4  11  22  34  50  73 103 141 176 204 248 308
#     4   9  16  28  50  75  95 123 166 211 255 306
#     4  10  19  32  52  76 101 133 173 211 247 300
#
# _framework density 21.341619999999999
#
# number of rings (size 3 to 8) (size 9 to 14) (size 15 to 20)
#    0.000    2.714    0.000    2.571    0.000    2.857 
#    0.000    4.286    0.000    5.143    0.000    0.000 
#    0.000   21.714    0.000    0.000    0.000    0.000 
#
# Total GULP energy -346894.253658 kJ/mol
# GULP energy per Si atom -12389.080488 kJ/mol
# Density = 2.129305 g / cm^3
# Si number density = 21.341620 Si / 1000 Ang^3
#
#
#
# Elastic Constant Matrix: (Units=GPa)
#
#
# Indices 1 2 3 4 5 6 
#
# 1 146.3573 52.8777 8.7033 0.0000 -12.7086 0.0000
# 2 52.8777 178.3757 -3.6009 0.0000 -12.8927 0.0000
# 3 8.7033 -3.6009 17.2239 0.0000 -2.3570 0.0000
# 4 0.0000 0.0000 0.0000 20.0474 0.0000 -2.8660
# 5 -12.7086 -12.8927 -2.3570 0.0000 20.1666 0.0000
# 6 0.0000 0.0000 0.0000 -2.8660 0.0000 24.5064
#
#
#
# Elastic Compliance Matrix: (Units=1/GPa)
#
#
# Indices 1 2 3 4 5 6 
#
# 1 0.008182 -0.002278 -0.004171 0.000000 0.003213 0.000000
# 2 -0.002278 0.006565 0.002949 0.000000 0.003107 0.000000
# 3 -0.004171 0.002949 0.061668 0.000000 0.006464 0.000000
# 4 0.000000 0.000000 0.000000 0.050730 0.000000 0.005933
# 5 0.003213 0.003107 0.006464 0.000000 0.054353 0.000000
# 6 0.000000 0.000000 0.000000 0.005933 0.000000 0.041499
#
#
# Mechanical properties :
#
#
# Convention : Reuss Voigt Hill
#
# Bulk Modulus (GPa) = 14.40604 50.87968 32.64286
# Shear Modulus (GPa) = 19.75217 31.87588 25.81402
#
# Velocity S-wave (km/s) = 3.04554 3.86891 3.48165
# Velocity P-wave (km/s) = 4.37401 6.62195 5.61169
#
# Compressibility (1/GPa) = 0.06941531
#
# Stress axis : x y z
#
# Youngs Moduli (GPa) = 122.21220 152.31399 16.21594
#
# Poissons Ratio (x) = 0.34691 0.06764
# Poissons Ratio (y) = 0.27835 -0.04781
# Poissons Ratio (z) = 0.50976 -0.44911
#
# Static dielectric constant tensor:
#      x y z
#    x 4.115170 0.000000 0.003320 
#    y 0.000000 4.387300 0.000000 
#    z 0.003320 0.000000 3.460090 
# 
# 
# High freq. dielectric constant tensor:
#      x y z
#    x 1.843070 0.000000 0.008870 
#    y 0.000000 1.844940 0.000000 
#    z 0.008870 0.000000 1.792530 
# 
# From -- ./inp_files/89670.got.cif
#   From: 2010.06.25/outbox.cif.g09.slc.cpg/sg12_45_cif.got.tgz:89670.got - 2010.06.28 00:19:55.
