data_PCOD8087773
_publ_section_title
;
Structure prediction by ZEFSAII (Michael W. Deem and Ramdas Pophale) SiO2 
 PCOD8087773
Probable space group: C 2/M
;
_chemical_formula_sum "Si O2"
_cell_formula_units_Z 64
_cell_length_a 29.008476
_cell_length_b 8.720689
_cell_length_c 15.596269
_cell_angle_alpha 90.000000
_cell_angle_beta 118.143727
_cell_angle_gamma 90.000000
_cell_volume 3478.967251
_symmetry_space_group_name_H-M "C 2/M"
_symmetry_group_IT_number 12
_symmetry_cell_setting 'monoclinic'
loop_
_space_group_symop_operation_xyz
x,y,z
-x,y,-z
-x,-y,-z
x,-y,z
1/2+x,1/2+y,z
1/2-x,1/2+y,-z
1/2-x,1/2-y,-z
1/2+x,1/2-y,z
loop_
_atom_site_type_symbol
_atom_site_label
_atom_site_fract_x
_atom_site_fract_y
_atom_site_fract_z
Si Si1 0.926444 0.676238 0.775741
Si Si2 0.172719 0.178389 0.385182
Si Si3 0.729996 0.678947 0.610885
Si Si4 0.691993 0.320705 0.061683
Si Si5 0.202897 0.318104 0.762861
Si Si6 0.413441 0.678752 0.945258
Si Si7 0.042830 0.324320 0.852601
Si Si8 0.363780 0.681137 0.156059
O O1 0.917012 0.500000 0.793049
O O2 0.881584 0.732449 0.672196
O O3 0.927074 0.778311 0.861109
O O4 0.981795 0.696705 0.775983
O O5 0.214580 0.236641 0.352060
O O6 0.192837 0.213711 0.497910
O O7 0.163267 0.000000 0.359992
O O8 0.741105 0.500000 0.631125
O O9 0.700174 0.744533 0.666837
O O10 0.699509 0.500000 0.058933
O O11 0.746387 0.249640 0.142524
O O12 0.647311 0.280996 0.091540
O O13 0.674704 0.256959 0.953348
O O14 0.204643 0.500000 0.755144
O O15 0.151667 0.265798 0.769788
O O16 0.424336 0.500000 0.970733
O O17 0.449510 0.772297 0.042443
O O18 0.060468 0.500000 0.859054
O O19 0.076804 0.223146 0.816617
O O20 0.359791 0.500000 0.165038
#
# Coordination Sequence:
#
# PCOD8087773 Si02
#       8
#     8   8   8   8   8   8   8   8
#     4  11  22  34  52  77 105 137 174 217 263 313
#     4  10  21  37  57  80 107 137 170 210 257 312
#     4  10  21  37  56  80 109 138 169 208 257 311
#     4   8  17  31  47  72 104 136 170 207 247 295
#     4  11  20  32  53  78 105 138 175 214 258 309
#     4  10  19  32  51  76 107 141 177 214 254 306
#     4  10  21  36  51  72 104 140 178 218 262 309
#     4  10  20  35  52  72 102 139 179 220 260 303
#
# _framework density 18.396263999999999
#
# number of rings (size 3 to 8) (size 9 to 14) (size 15 to 20)
#    0.000    2.000    0.000    4.875    0.000    6.000 
#    0.000    6.250    0.000    0.750    0.000    5.250 
#    0.000    0.000    0.000    0.000    0.000    0.000 
#
# Total GULP energy -396889.889556 kJ/mol
# GULP energy per Si atom -12402.809049 kJ/mol
# Density = 1.835439 g / cm^3
# Si number density = 18.396264 Si / 1000 Ang^3
#
#
#
# Elastic Constant Matrix: (Units=GPa)
#
#
# Indices 1 2 3 4 5 6 
#
# 1 96.6058 24.7340 51.4258 0.0000 -4.4301 0.0000
# 2 24.7340 49.9425 25.2490 0.0000 1.3870 0.0000
# 3 51.4258 25.2490 66.2857 0.0000 -4.0720 0.0000
# 4 0.0000 0.0000 0.0000 27.8932 0.0000 -1.8814
# 5 -4.4301 1.3870 -4.0720 0.0000 32.6058 0.0000
# 6 0.0000 0.0000 0.0000 -1.8814 0.0000 32.0256
#
#
#
# Elastic Compliance Matrix: (Units=1/GPa)
#
#
# Indices 1 2 3 4 5 6 
#
# 1 0.017867 -0.002346 -0.012912 0.000000 0.000915 0.000000
# 2 -0.002346 0.025272 -0.007953 0.000000 -0.002387 0.000000
# 3 -0.012912 -0.007953 0.028263 0.000000 0.002114 0.000000
# 4 0.000000 0.000000 0.000000 0.035994 0.000000 0.002115
# 5 0.000915 -0.002387 0.002114 0.000000 0.031159 0.000000
# 6 0.000000 0.000000 0.000000 0.002115 0.000000 0.031349
#
#
# Mechanical properties :
#
#
# Convention : Reuss Voigt Hill
#
# Bulk Modulus (GPa) = 40.03196 46.18352 43.10774
# Shear Modulus (GPa) = 22.25658 25.93327 24.09493
#
# Velocity S-wave (km/s) = 3.48205 3.75867 3.62300
# Velocity P-wave (km/s) = 6.16234 6.63296 6.40198
#
# Compressibility (1/GPa) = 0.02498004
#
# Stress axis : x y z
#
# Youngs Moduli (GPa) = 55.96780 39.56963 35.38242
#
# Poissons Ratio (x) = 0.09285 0.45686
# Poissons Ratio (y) = 0.13133 0.28138
# Poissons Ratio (z) = 0.72265 0.31468
#
# Static dielectric constant tensor:
#      x y z
#    x 3.427590 0.000000 0.082270 
#    y 0.000000 3.372310 0.000000 
#    z 0.082270 0.000000 3.287680 
# 
# 
# High freq. dielectric constant tensor:
#      x y z
#    x 1.713590 0.000000 -0.000100 
#    y 0.000000 1.719980 0.000000 
#    z -0.000100 0.000000 1.689470 
# 
# From -- ./inp_files/249182.got.cif
#   From: 2010.06.25/outbox.cif.g09.slc.cpg/sg12_125_cif.got.tgz:249182.got - 2010.06.28 00:19:55.
