data_PCOD8087872
_publ_section_title
;
Structure prediction by ZEFSAII (Michael W. Deem and Ramdas Pophale) SiO2 
 PCOD8087872
Probable space group: C 2/M
;
_chemical_formula_sum "Si O2"
_cell_formula_units_Z 64
_cell_length_a 23.633827
_cell_length_b 8.502531
_cell_length_c 24.114173
_cell_angle_alpha 90.000000
_cell_angle_beta 44.123025
_cell_angle_gamma 90.000000
_cell_volume 3373.568213
_symmetry_space_group_name_H-M "C 2/M"
_symmetry_group_IT_number 12
_symmetry_cell_setting 'monoclinic'
loop_
_space_group_symop_operation_xyz
x,y,z
-x,y,-z
-x,-y,-z
x,-y,z
1/2+x,1/2+y,z
1/2-x,1/2+y,-z
1/2-x,1/2-y,-z
1/2+x,1/2-y,z
loop_
_atom_site_type_symbol
_atom_site_label
_atom_site_fract_x
_atom_site_fract_y
_atom_site_fract_z
Si Si1 0.020704 0.318426 0.423122
Si Si2 0.758641 0.184045 0.353291
Si Si3 0.270710 0.814522 0.849476
Si Si4 0.371954 0.317984 0.474302
Si Si5 0.100366 0.186299 0.667384
Si Si6 0.322389 0.683194 0.983546
Si Si7 0.194682 0.818118 0.288564
Si Si8 0.079764 0.186797 0.185578
O O1 0.000958 0.500000 0.425359
O O2 0.966618 0.209560 0.421444
O O3 0.000000 0.270191 0.500000
O O4 0.114502 0.287448 0.345552
O O5 0.682226 0.212562 0.447210
O O6 0.840387 0.246643 0.325649
O O7 0.751133 0.277233 0.301198
O O8 0.762899 0.000000 0.337153
O O9 0.257874 0.721623 0.801271
O O10 0.355697 0.769309 0.819321
O O11 0.271373 0.000000 0.837156
O O12 0.191970 0.761272 0.942596
O O13 0.349243 0.500000 0.498627
O O14 0.360119 0.262713 0.419049
O O15 0.009719 0.255603 0.738658
O O16 0.093986 0.000000 0.673892
O O17 0.310784 0.500000 0.992611
O O18 0.403931 0.727806 0.891760
O O19 0.250000 0.750000 0.000000
O O20 0.170663 0.000000 0.307813
O O21 0.085488 0.000000 0.191739
#
# Coordination Sequence:
#
# PCOD8087872 Si02
#       8
#     8   8   8   8   8   8   8   8
#     4  11  22  36  55  78 105 136 168 208 261 310
#     4  11  22  38  54  71  99 138 178 220 264 304
#     4  10  19  32  51  81 113 140 169 208 258 314
#     4  11  21  35  55  80 106 136 174 214 257 309
#     4   9  20  35  54  77 102 133 174 219 260 303
#     4   8  15  27  49  78 109 138 167 204 253 310
#     4  12  24  37  54  76 102 137 178 219 259 309
#     4   9  16  32  55  81 109 139 172 211 258 309
#
# _framework density 18.971012000000002
#
# number of rings (size 3 to 8) (size 9 to 14) (size 15 to 20)
#    0.000    1.875    1.250    3.750    0.000    2.000 
#    0.000    3.750    0.000    0.750    0.000    5.250 
#    0.000    0.000    0.000    0.000    0.000    0.000 
#
# Total GULP energy -396634.669606 kJ/mol
# GULP energy per Si atom -12394.833425 kJ/mol
# Density = 1.892783 g / cm^3
# Si number density = 18.971012 Si / 1000 Ang^3
#
#
#
# Elastic Constant Matrix: (Units=GPa)
#
#
# Indices 1 2 3 4 5 6 
#
# 1 93.9958 15.1739 42.4639 0.0004 16.7966 -0.0023
# 2 15.1739 36.3693 22.4534 -0.0008 6.1595 -0.0015
# 3 42.4639 22.4534 110.9317 0.0003 29.9342 0.0001
# 4 0.0004 -0.0008 0.0003 23.0294 -0.0006 3.6435
# 5 16.7966 6.1595 29.9342 -0.0006 24.5338 -0.0001
# 6 -0.0023 -0.0015 0.0001 3.6435 -0.0001 23.1133
#
#
#
# Elastic Compliance Matrix: (Units=1/GPa)
#
#
# Indices 1 2 3 4 5 6 
#
# 1 0.013394 -0.002755 -0.003402 -0.000001 -0.004328 0.000001
# 2 -0.002755 0.031990 -0.005609 0.000001 0.000698 0.000002
# 3 -0.003402 -0.005609 0.015570 -0.000001 -0.015260 -0.000001
# 4 -0.000001 0.000001 -0.000001 0.044533 0.000002 -0.007020
# 5 -0.004328 0.000698 -0.015260 0.000002 0.062167 0.000000
# 6 0.000001 0.000002 -0.000001 -0.007020 0.000000 0.044372
#
#
# Mechanical properties :
#
#
# Convention : Reuss Voigt Hill
#
# Bulk Modulus (GPa) = 26.72207 44.60881 35.66544
# Shear Modulus (GPa) = 20.15891 24.88235 22.52063
#
# Velocity S-wave (km/s) = 3.26332 3.62553 3.44918
# Velocity P-wave (km/s) = 5.32121 6.41024 5.89095
#
# Compressibility (1/GPa) = 0.03742225
#
# Stress axis : x y z
#
# Youngs Moduli (GPa) = 74.66280 31.26014 64.22745
#
# Poissons Ratio (x) = 0.08613 0.21847
# Poissons Ratio (y) = 0.20570 0.36023
# Poissons Ratio (z) = 0.25397 0.17533
#
# Static dielectric constant tensor:
#      x y z
#    x 3.441550 0.000000 0.178810 
#    y 0.000000 3.242260 0.000000 
#    z 0.178810 0.000000 4.247000 
# 
# 
# High freq. dielectric constant tensor:
#      x y z
#    x 1.711760 0.000000 0.017010 
#    y 0.000000 1.730750 0.000000 
#    z 0.017010 0.000000 1.745740 
# 
# From -- ./inp_files/348554.got.cif
#   From: 2010.06.25/outbox.cif.g09.slc.cpg/sg12_175_cif.got.tgz:348554.got - 2010.06.28 00:19:55.
