data_PCOD8087795
_publ_section_title
;
Structure prediction by ZEFSAII (Michael W. Deem and Ramdas Pophale) SiO2 
 PCOD8087795
Probable space group: C 2/M
;
_chemical_formula_sum "Si O2"
_cell_formula_units_Z 48
_cell_length_a 12.753264
_cell_length_b 13.718047
_cell_length_c 13.066668
_cell_angle_alpha 90.000000
_cell_angle_beta 76.382139
_cell_angle_gamma 90.000000
_cell_volume 2221.746769
_symmetry_space_group_name_H-M "C 2/M"
_symmetry_group_IT_number 12
_symmetry_cell_setting 'monoclinic'
loop_
_space_group_symop_operation_xyz
x,y,z
-x,y,-z
-x,-y,-z
x,-y,z
1/2+x,1/2+y,z
1/2-x,1/2+y,-z
1/2-x,1/2-y,-z
1/2+x,1/2-y,z
loop_
_atom_site_type_symbol
_atom_site_label
_atom_site_fract_x
_atom_site_fract_y
_atom_site_fract_z
Si Si1 0.481788 0.791215 0.648323
Si Si2 0.605962 0.391564 0.854192
Si Si3 0.111657 0.109284 0.618043
Si Si4 0.760173 0.611407 0.006184
Si Si5 0.844013 0.386654 0.508020
Si Si6 0.086891 0.753718 0.115058
O O1 0.512093 0.679226 0.614407
O O2 0.390732 0.825647 0.591919
O O3 0.591613 0.855647 0.609549
O O4 0.438482 0.799644 0.772697
O O5 0.554904 0.500000 0.879778
O O6 0.646158 0.378044 0.728909
O O7 0.707184 0.379424 0.905709
O O8 0.517046 0.310804 0.904021
O O9 0.216980 0.136261 0.526155
O O10 0.072139 0.000000 0.603907
O O11 0.779733 0.500000 0.035748
O O12 0.874195 0.669112 0.972716
O O13 0.682690 0.665553 0.105892
O O14 0.862352 0.500000 0.527348
#
# Coordination Sequence:
#
# PCOD8087795 Si02
#       6
#     8   8   8   8   8   8
#     4  10  19  32  51  77 105 132 167 211 256 298
#     4   9  17  32  55  79 102 132 172 212 248 293
#     4   9  18  32  52  78 106 135 167 206 251 300
#     4  10  20  34  53  76 102 134 173 214 253 296
#     4  10  20  35  55  78 103 132 169 210 252 300
#     4  10  20  31  50  79 105 130 167 215 258 296
#
# _framework density 21.604621000000002
#
# number of rings (size 3 to 8) (size 9 to 14) (size 15 to 20)
#    0.000    2.333    0.000    3.500    0.000    4.667 
#    0.000    1.667    0.000   11.000    0.000   30.333 
#    0.000    0.000    0.000    0.000    0.000    0.000 
#
# Total GULP energy -297507.097216 kJ/mol
# GULP energy per Si atom -12396.129051 kJ/mol
# Density = 2.155545 g / cm^3
# Si number density = 21.604621 Si / 1000 Ang^3
#
#
#
# Elastic Constant Matrix: (Units=GPa)
#
#
# Indices 1 2 3 4 5 6 
#
# 1 40.4454 31.8387 7.8317 0.0000 -16.7425 0.0000
# 2 31.8387 117.7692 25.0724 0.0000 -13.1187 0.0000
# 3 7.8317 25.0724 88.6602 0.0000 -16.4767 0.0000
# 4 0.0000 0.0000 0.0000 29.4056 0.0000 -5.2825
# 5 -16.7425 -13.1187 -16.4767 0.0000 31.3623 0.0000
# 6 0.0000 0.0000 0.0000 -5.2825 0.0000 34.9204
#
#
#
# Elastic Compliance Matrix: (Units=1/GPa)
#
#
# Indices 1 2 3 4 5 6 
#
# 1 0.038923 -0.009017 0.002518 0.000000 0.018330 0.000000
# 2 -0.009017 0.011335 -0.002685 0.000000 -0.001483 0.000000
# 3 0.002518 -0.002685 0.013140 0.000000 0.007125 0.000000
# 4 0.000000 0.000000 0.000000 0.034957 0.000000 0.005288
# 5 0.018330 -0.001483 0.007125 0.000000 0.044794 0.000000
# 6 0.000000 0.000000 0.000000 0.005288 0.000000 0.029436
#
#
# Mechanical properties :
#
#
# Convention : Reuss Voigt Hill
#
# Bulk Modulus (GPa) = 22.20676 41.81783 32.01230
# Shear Modulus (GPa) = 24.27625 31.27980 27.77802
#
# Velocity S-wave (km/s) = 3.35574 3.80916 3.58962
# Velocity P-wave (km/s) = 5.03147 6.22449 5.65950
#
# Compressibility (1/GPa) = 0.04503133
#
# Stress axis : x y z
#
# Youngs Moduli (GPa) = 25.69172 88.22001 76.10480
#
# Poissons Ratio (x) = 0.79548 -0.19164
# Poissons Ratio (y) = 0.23166 0.20431
# Poissons Ratio (z) = -0.06470 0.23683
#
# Static dielectric constant tensor:
#      x y z
#    x 3.475250 0.000000 -0.329750 
#    y 0.000000 4.184860 0.000000 
#    z -0.329750 0.000000 4.019120 
# 
# 
# High freq. dielectric constant tensor:
#      x y z
#    x 1.814970 0.000000 -0.029400 
#    y 0.000000 1.861000 0.000000 
#    z -0.029400 0.000000 1.845930 
# 
# From -- ./inp_files/213254.got.cif
#   From: 2010.06.25/outbox.cif.g09.slc.cpg/sg12_107_cif.got.tgz:213254.got - 2010.06.28 00:19:55.
