data_PCOD8087076
_publ_section_title
;
Structure prediction by ZEFSAII (Michael W. Deem and Ramdas Pophale) SiO2 
 PCOD8087076
Probable space group: C 2/M
;
_chemical_formula_sum "Si O2"
_cell_formula_units_Z 64
_cell_length_a 7.519084
_cell_length_b 27.201189
_cell_length_c 14.760534
_cell_angle_alpha 90.000000
_cell_angle_beta 91.066922
_cell_angle_gamma 90.000000
_cell_volume 3018.419468
_symmetry_space_group_name_H-M "C 2/M"
_symmetry_group_IT_number 12
_symmetry_cell_setting 'monoclinic'
loop_
_space_group_symop_operation_xyz
x,y,z
-x,y,-z
-x,-y,-z
x,-y,z
1/2+x,1/2+y,z
1/2-x,1/2+y,-z
1/2-x,1/2-y,-z
1/2+x,1/2-y,z
loop_
_atom_site_type_symbol
_atom_site_label
_atom_site_fract_x
_atom_site_fract_y
_atom_site_fract_z
Si Si1 0.644107 0.811542 0.160942
Si Si2 0.538048 0.695699 0.619184
Si Si3 0.328632 0.445849 0.435029
Si Si4 0.972150 0.895629 0.714149
Si Si5 0.769541 0.367916 0.435193
Si Si6 0.925424 0.306128 0.638796
Si Si7 0.729807 0.218307 0.908731
Si Si8 0.019709 0.866494 0.902102
O O1 0.590887 0.828616 0.261113
O O2 0.462323 0.807448 0.100508
O O3 0.740475 0.758181 0.171252
O O4 0.775070 0.850147 0.112232
O O5 0.536073 0.662048 0.710474
O O6 0.606555 0.671294 0.450699
O O7 0.497646 0.751108 0.644104
O O8 0.739463 0.692717 0.582236
O O9 0.500000 0.446614 0.500000
O O10 0.238673 0.500000 0.431231
O O11 0.382403 0.430652 0.333248
O O12 0.201327 0.404565 0.478584
O O13 0.959755 0.905239 0.822030
O O14 0.785463 0.899459 0.656516
O O15 0.950377 0.339707 0.420671
O O16 0.887165 0.179392 0.904085
O O17 0.750000 0.250000 0.000000
O O18 0.000000 0.893220 0.000000
#
# Coordination Sequence:
#
# PCOD8087076 Si02
#       8
#     8   8   8   8   8   8   8   8
#     4  12  21  30  47  68 103 152 204 242 287 317
#     4  10  19  31  53  81 119 161 203 237 275 344
#     4   9  18  39  74  94 111 145 184 246 317 363
#     4   9  19  38  55  83 117 141 198 240 290 349
#     4   9  20  35  59  87 115 147 198 244 290 353
#     4  12  19  33  53  79 118 169 200 237 281 339
#     4  12  22  31  44  70 104 148 211 255 272 320
#     4  12  22  33  49  74 109 152 191 240 283 331
#
# _framework density 21.203150000000001
#
# number of rings (size 3 to 8) (size 9 to 14) (size 15 to 20)
#    0.750    0.625    5.000    2.625    0.000    0.000 
#    0.000    1.250    2.750    2.625    0.000    0.000 
#    0.000    0.000    0.000    8.750    0.000    0.000 
#
# Total GULP energy -396450.441629 kJ/mol
# GULP energy per Si atom -12389.076301 kJ/mol
# Density = 2.115489 g / cm^3
# Si number density = 21.203150 Si / 1000 Ang^3
#
#
#
# Elastic Constant Matrix: (Units=GPa)
#
#
# Indices 1 2 3 4 5 6 
#
# 1 120.8204 20.0333 40.0037 0.0000 -9.6822 0.0000
# 2 20.0333 81.1539 41.2613 0.0000 -16.9556 0.0000
# 3 40.0037 41.2613 153.1943 0.0000 -10.7754 0.0000
# 4 0.0000 0.0000 0.0000 98.6768 0.0000 -203.8560
# 5 -9.6822 -16.9556 -10.7754 0.0000 30.2362 0.0000
# 6 0.0000 0.0000 0.0000 -203.8560 0.0000 503.3594
#
#
#
# Elastic Compliance Matrix: (Units=1/GPa)
#
#
# Indices 1 2 3 4 5 6 
#
# 1 0.009241 -0.000873 -0.002056 0.000000 0.001737 0.000000
# 2 -0.000873 0.015870 -0.003529 0.000000 0.007362 0.000000
# 3 -0.002056 -0.003529 0.008031 0.000000 0.000225 0.000000
# 4 0.000000 0.000000 0.000000 0.062046 0.000000 0.025128
# 5 0.001737 0.007362 0.000225 0.000000 0.037838 0.000000
# 6 0.000000 0.000000 0.000000 0.025128 0.000000 0.012163
#
#
# Mechanical properties :
#
#
# Convention : Reuss Voigt Hill
#
# Bulk Modulus (GPa) = 49.43875 61.97392 55.70633
# Shear Modulus (GPa) = 30.33109 143.37917 86.85513
#
# Velocity S-wave (km/s) = 3.78630 8.23216 6.40720
# Velocity P-wave (km/s) = 6.51783 10.93846 9.00367
#
# Compressibility (1/GPa) = 0.02022705
#
# Stress axis : x y z
#
# Youngs Moduli (GPa) = 108.20854 63.01163 124.52183
#
# Poissons Ratio (x) = 0.05502 0.25600
# Poissons Ratio (y) = 0.09448 0.43939
# Poissons Ratio (z) = 0.22246 0.22234
#
# Static dielectric constant tensor:
#      x y z
#    x 3.960620 0.000000 -0.068550 
#    y 0.000000 3.579030 0.000000 
#    z -0.068550 0.000000 4.081630 
# 
# 
# High freq. dielectric constant tensor:
#      x y z
#    x 1.837020 0.000000 -0.002310 
#    y 0.000000 1.760170 0.000000 
#    z -0.002310 0.000000 1.844890 
# 
# From -- ./inp_files/200606.got.cif
#   From: 2010.06.25/outbox.cif.g09.slc.cpg/sg12_101_cif.got.tgz:200606.got - 2010.06.28 00:19:55.
