data_PCOD8087276
_publ_section_title
;
Structure prediction by ZEFSAII (Michael W. Deem and Ramdas Pophale) SiO2 
 PCOD8087276
Probable space group: C 2/M
;
_chemical_formula_sum "Si O2"
_cell_formula_units_Z 64
_cell_length_a 30.058933
_cell_length_b 8.851603
_cell_length_c 15.091729
_cell_angle_alpha 90.000000
_cell_angle_beta 101.601093
_cell_angle_gamma 90.000000
_cell_volume 3933.422417
_symmetry_space_group_name_H-M "C 2/M"
_symmetry_group_IT_number 12
_symmetry_cell_setting 'monoclinic'
loop_
_space_group_symop_operation_xyz
x,y,z
-x,y,-z
-x,-y,-z
x,-y,z
1/2+x,1/2+y,z
1/2-x,1/2+y,-z
1/2-x,1/2-y,-z
1/2+x,1/2-y,z
loop_
_atom_site_type_symbol
_atom_site_label
_atom_site_fract_x
_atom_site_fract_y
_atom_site_fract_z
Si Si1 0.942802 0.321064 0.058573
Si Si2 0.806734 0.678119 0.871440
Si Si3 0.211582 0.321245 0.786786
Si Si4 0.693944 0.673229 0.409188
Si Si5 0.216014 0.175059 0.611337
Si Si6 0.346385 0.179147 0.073461
Si Si7 0.541201 0.821516 0.134532
Si Si8 0.125062 0.825187 0.234184
O O1 0.940355 0.500000 0.054410
O O2 0.897755 0.254252 0.087813
O O3 0.988560 0.273304 0.129603
O O4 0.944722 0.265935 0.957945
O O5 0.799423 0.500000 0.860209
O O6 0.762087 0.762666 0.822019
O O7 0.848671 0.726294 0.827542
O O8 0.817371 0.727744 0.976241
O O9 0.212481 0.500000 0.789493
O O10 0.193733 0.265712 0.684006
O O11 0.178078 0.255468 0.848929
O O12 0.710623 0.500000 0.405976
O O13 0.731550 0.779027 0.379877
O O14 0.687870 0.713185 0.510675
O O15 0.646406 0.699971 0.340319
O O16 0.214305 0.000000 0.634672
O O17 0.349014 0.000000 0.079613
O O18 0.573121 0.733177 0.216889
O O19 0.547721 0.000000 0.149379
O O20 0.127329 0.000000 0.207731
#
# Coordination Sequence:
#
# PCOD8087276 Si02
#       8
#     8   8   8   8   8   8   8   8
#     4   8  14  28  48  69  89 119 159 195 225 264
#     4  11  20  32  48  66  91 127 168 195 215 265
#     4  11  21  32  46  67  96 127 156 194 237 272
#     4   9  19  33  48  66  91 121 153 191 238 279
#     4  10  19  32  49  67  88 120 158 195 229 276
#     4   9  18  31  48  67  92 126 163 194 227 270
#     4   9  16  28  50  70  90 119 156 193 226 274
#     4  11  20  30  46  70  99 124 147 186 238 285
#
# _framework density 16.270817000000001
#
# number of rings (size 3 to 8) (size 9 to 14) (size 15 to 20)
#    0.000    2.250    2.500    2.625    0.000    1.000 
#    0.000    3.125    0.000    0.000    0.000    0.875 
#    0.000    7.000    0.000    0.000    0.000    0.000 
#
# Total GULP energy -396709.935841 kJ/mol
# GULP energy per Si atom -12397.185495 kJ/mol
# Density = 1.623378 g / cm^3
# Si number density = 16.270817 Si / 1000 Ang^3
#
#
#
# Elastic Constant Matrix: (Units=GPa)
#
#
# Indices 1 2 3 4 5 6 
#
# 1 66.2662 18.8978 43.2267 0.0000 9.3114 0.0000
# 2 18.8978 46.5672 33.1440 0.0000 3.0404 0.0000
# 3 43.2267 33.1440 112.4286 0.0000 4.8280 0.0000
# 4 0.0000 0.0000 0.0000 22.3141 0.0000 3.1871
# 5 9.3114 3.0404 4.8280 0.0000 24.7274 0.0000
# 6 0.0000 0.0000 0.0000 3.1871 0.0000 17.7362
#
#
#
# Elastic Compliance Matrix: (Units=1/GPa)
#
#
# Indices 1 2 3 4 5 6 
#
# 1 0.021503 -0.003319 -0.007018 0.000000 -0.006319 0.000000
# 2 -0.003319 0.027768 -0.006875 0.000000 -0.000822 0.000000
# 3 -0.007018 -0.006875 0.013583 0.000000 0.000836 0.000000
# 4 0.000000 0.000000 0.000000 0.045995 0.000000 -0.008265
# 5 -0.006319 -0.000822 0.000836 0.000000 0.042758 0.000000
# 6 0.000000 0.000000 0.000000 -0.008265 0.000000 0.057867
#
#
# Mechanical properties :
#
#
# Convention : Reuss Voigt Hill
#
# Bulk Modulus (GPa) = 35.17188 46.19989 40.68589
# Shear Modulus (GPa) = 19.73362 21.62175 20.67768
#
# Velocity S-wave (km/s) = 3.48634 3.64932 3.56876
# Velocity P-wave (km/s) = 6.15382 6.79799 6.48391
#
# Compressibility (1/GPa) = 0.02843180
#
# Stress axis : x y z
#
# Youngs Moduli (GPa) = 46.50555 36.01280 73.61889
#
# Poissons Ratio (x) = 0.11952 0.51663
# Poissons Ratio (y) = 0.15435 0.50610
# Poissons Ratio (z) = 0.32636 0.24758
#
# Static dielectric constant tensor:
#      x y z
#    x 3.237530 0.000000 0.014420 
#    y 0.000000 2.929580 0.000000 
#    z 0.014420 0.000000 3.238510 
# 
# 
# High freq. dielectric constant tensor:
#      x y z
#    x 1.606450 0.000000 0.013260 
#    y 0.000000 1.614480 0.000000 
#    z 0.013260 0.000000 1.616720 
# 
# From -- ./inp_files/248494.got.cif
#   From: 2010.06.25/outbox.cif.g09.slc.cpg/sg12_125_cif.got.tgz:248494.got - 2010.06.28 00:19:55.
