data_PCOD8087699
_publ_section_title
;
Structure prediction by ZEFSAII (Michael W. Deem and Ramdas Pophale) SiO2 
 PCOD8087699
Probable space group: C 2/M
;
_chemical_formula_sum "Si O2"
_cell_formula_units_Z 64
_cell_length_a 29.795018
_cell_length_b 8.693333
_cell_length_c 30.580120
_cell_angle_alpha 90.000000
_cell_angle_beta 151.344236
_cell_angle_gamma 90.000000
_cell_volume 3798.390002
_symmetry_space_group_name_H-M "C 2/M"
_symmetry_group_IT_number 12
_symmetry_cell_setting 'monoclinic'
loop_
_space_group_symop_operation_xyz
x,y,z
-x,y,-z
-x,-y,-z
x,-y,z
1/2+x,1/2+y,z
1/2-x,1/2+y,-z
1/2-x,1/2-y,-z
1/2+x,1/2-y,z
loop_
_atom_site_type_symbol
_atom_site_label
_atom_site_fract_x
_atom_site_fract_y
_atom_site_fract_z
Si Si1 0.158112 0.178889 0.366980
Si Si2 0.326980 0.320962 0.286510
Si Si3 0.481576 0.821661 0.921059
Si Si4 0.861729 0.180543 0.894133
Si Si5 0.677559 0.820917 0.623027
Si Si6 0.642901 0.177899 0.265108
Si Si7 0.630752 0.178772 0.431936
Si Si8 0.014348 0.321238 0.416540
O O1 0.113442 0.273448 0.288720
O O2 0.267120 0.224959 0.463047
O O3 0.105942 0.226063 0.367127
O O4 0.143454 0.000000 0.345549
O O5 0.305966 0.500000 0.264350
O O6 0.245631 0.229129 0.191545
O O7 0.330898 0.277337 0.340578
O O8 0.423674 0.281932 0.345611
O O9 0.400778 0.764826 0.884606
O O10 0.447190 0.791424 0.842426
O O11 0.500355 0.000000 0.946130
O O12 0.577968 0.729780 0.011861
O O13 0.870112 0.000000 0.894194
O O14 0.770926 0.781991 0.676486
O O15 0.589037 0.779964 0.517577
O O16 0.679303 0.000000 0.637041
O O17 0.672899 0.000000 0.288712
O O18 0.555526 0.221032 0.404399
O O19 0.629026 0.000000 0.418435
O O20 0.987138 0.500000 0.396084
#
# Coordination Sequence:
#
# PCOD8087699 Si02
#       8
#     8   8   8   8   8   8   8   8
#     4  10  19  32  51  75 102 134 170 211 256 303
#     4  12  24  36  50  73 103 138 177 216 256 300
#     4  10  20  34  52  75 104 132 165 213 260 304
#     4  11  21  34  53  74  98 134 173 211 255 305
#     4  11  21  35  52  72 102 138 178 215 250 298
#     4  11  21  32  51  77 106 139 169 205 256 307
#     4   9  18  34  51  72 100 133 171 214 259 300
#     4  10  21  37  53  72 100 138 178 216 256 299
#
# _framework density 16.849243000000001
#
# number of rings (size 3 to 8) (size 9 to 14) (size 15 to 20)
#    0.000    1.500    2.500    4.875    0.000    5.000 
#    0.000    0.000    0.000    0.000    0.000    0.875 
#    0.000    0.000    0.000    0.000    0.000    0.000 
#
# Total GULP energy -396931.852215 kJ/mol
# GULP energy per Si atom -12404.120382 kJ/mol
# Density = 1.681089 g / cm^3
# Si number density = 16.849243 Si / 1000 Ang^3
#
#
#
# Elastic Constant Matrix: (Units=GPa)
#
#
# Indices 1 2 3 4 5 6 
#
# 1 75.8111 24.4688 45.0143 -0.0001 -10.4114 0.0000
# 2 24.4688 42.7334 32.5172 -0.0002 -5.3158 -0.0014
# 3 45.0143 32.5172 100.6126 0.0001 -7.5485 0.0001
# 4 -0.0001 -0.0002 0.0001 27.2266 0.0000 -1.1790
# 5 -10.4114 -5.3158 -7.5485 0.0000 23.8234 0.0000
# 6 0.0000 -0.0014 0.0001 -1.1790 0.0000 28.6804
#
#
#
# Elastic Compliance Matrix: (Units=1/GPa)
#
#
# Indices 1 2 3 4 5 6 
#
# 1 0.019618 -0.005572 -0.006583 0.000000 0.005245 0.000000
# 2 -0.005572 0.032961 -0.007981 0.000000 0.002391 0.000002
# 3 -0.006583 -0.007981 0.015482 0.000000 0.000248 0.000000
# 4 0.000000 0.000000 0.000000 0.036794 0.000000 0.001513
# 5 0.005245 0.002391 0.000248 0.000000 0.044880 0.000000
# 6 0.000000 0.000002 0.000000 0.001513 0.000000 0.034929
#
#
# Mechanical properties :
#
#
# Convention : Reuss Voigt Hill
#
# Bulk Modulus (GPa) = 35.98272 47.01753 41.50012
# Shear Modulus (GPa) = 21.34937 23.75652 22.55294
#
# Velocity S-wave (km/s) = 3.56347 3.75900 3.66254
# Velocity P-wave (km/s) = 6.19138 6.84145 6.52452
#
# Compressibility (1/GPa) = 0.02779112
#
# Stress axis : x y z
#
# Youngs Moduli (GPa) = 50.97372 30.33852 64.59007
#
# Poissons Ratio (x) = 0.16903 0.42519
# Poissons Ratio (y) = 0.28400 0.51548
# Poissons Ratio (z) = 0.33556 0.24212
#
# Static dielectric constant tensor:
#      x y z
#    x 3.047690 0.000000 -0.122660 
#    y 0.000000 3.211970 0.000000 
#    z -0.122660 0.000000 3.205300 
# 
# 
# High freq. dielectric constant tensor:
#      x y z
#    x 1.627030 0.000000 -0.012680 
#    y 0.000000 1.663620 0.000000 
#    z -0.012680 0.000000 1.639560 
# 
# From -- ./inp_files/384582.got.cif
#   From: 2010.06.25/outbox.cif.g09.slc.cpg/sg12_193_cif.got.tgz:384582.got - 2010.06.28 00:19:55.
