data_PCOD8087840
_publ_section_title
;
Structure prediction by ZEFSAII (Michael W. Deem and Ramdas Pophale) SiO2 
 PCOD8087840
Probable space group: C 2/M
;
_chemical_formula_sum "Si O2"
_cell_formula_units_Z 64
_cell_length_a 15.397890
_cell_length_b 9.428147
_cell_length_c 23.881309
_cell_angle_alpha 90.000000
_cell_angle_beta 89.406579
_cell_angle_gamma 90.000000
_cell_volume 3466.748945
_symmetry_space_group_name_H-M "C 2/M"
_symmetry_group_IT_number 12
_symmetry_cell_setting 'monoclinic'
loop_
_space_group_symop_operation_xyz
x,y,z
-x,y,-z
-x,-y,-z
x,-y,z
1/2+x,1/2+y,z
1/2-x,1/2+y,-z
1/2-x,1/2-y,-z
1/2+x,1/2-y,z
loop_
_atom_site_type_symbol
_atom_site_label
_atom_site_fract_x
_atom_site_fract_y
_atom_site_fract_z
Si Si1 0.475358 0.835064 0.936880
Si Si2 0.776978 0.334951 0.945448
Si Si3 0.617768 0.333390 0.868316
Si Si4 0.954409 0.831120 0.675094
Si Si5 0.121173 0.832119 0.741139
Si Si6 0.787969 0.666628 0.673553
Si Si7 0.276403 0.336831 0.446029
Si Si8 0.027275 0.166235 0.558985
O O1 0.374729 0.794232 0.925903
O O2 0.536269 0.744778 0.896180
O O3 0.492512 0.000000 0.924667
O O4 0.500000 0.795777 0.000000
O O5 0.773311 0.500000 0.961232
O O6 0.709313 0.296053 0.896978
O O7 0.750000 0.250000 0.000000
O O8 0.598346 0.500000 0.871681
O O9 0.625906 0.278878 0.804799
O O10 0.868750 0.753183 0.697894
O O11 0.032848 0.776994 0.713488
O O12 0.970913 0.777411 0.611339
O O13 0.942787 0.000000 0.678565
O O14 0.203638 0.774001 0.706295
O O15 0.123013 0.000000 0.737560
O O16 0.801030 0.500000 0.684449
O O17 0.781719 0.699543 0.607345
O O18 0.268419 0.500000 0.463184
O O19 0.250000 0.250000 0.500000
O O20 0.373795 0.297982 0.427917
O O21 0.000000 0.238673 0.500000
O O22 0.011394 0.000000 0.554493
#
# Coordination Sequence:
#
# PCOD8087840 Si02
#       8
#     8   8   8   8   8   8   8   8
#     4  10  20  35  55  81 115 147 174 217 276 324
#     4  10  20  34  54  80 110 145 180 218 267 320
#     4  10  21  36  57  83 108 142 189 227 258 315
#     4  10  19  35  58  79 103 141 184 225 268 322
#     4   9  19  38  58  77 108 147 184 222 266 322
#     4  10  20  36  57  80 109 144 180 224 278 325
#     4  10  19  32  51  78 108 140 177 221 272 326
#     4   9  16  28  49  75 101 133 176 216 257 317
#
# _framework density 18.461100999999999
#
# number of rings (size 3 to 8) (size 9 to 14) (size 15 to 20)
#    0.000    2.250    2.500    0.750    0.000    3.250 
#    0.000    3.750    0.000    2.250    0.000    0.000 
#    0.000    0.000    0.000    0.000    0.000    0.000 
#
# Total GULP energy -396771.203412 kJ/mol
# GULP energy per Si atom -12399.100107 kJ/mol
# Density = 1.841908 g / cm^3
# Si number density = 18.461101 Si / 1000 Ang^3
#
#
#
# Elastic Constant Matrix: (Units=GPa)
#
#
# Indices 1 2 3 4 5 6 
#
# 1 164.1609 51.0492 81.2699 0.0000 4.7945 0.0000
# 2 51.0492 41.4471 41.4225 0.0000 -4.4484 0.0000
# 3 81.2699 41.4225 124.7567 0.0000 1.7341 0.0000
# 4 0.0000 0.0000 0.0000 18.6382 0.0000 -2.7968
# 5 4.7945 -4.4484 1.7341 0.0000 30.4234 0.0000
# 6 0.0000 0.0000 0.0000 -2.7968 0.0000 31.2756
#
#
#
# Elastic Compliance Matrix: (Units=1/GPa)
#
#
# Indices 1 2 3 4 5 6 
#
# 1 0.011348 -0.010422 -0.003889 0.000000 -0.003091 0.000000
# 2 -0.010422 0.046797 -0.008874 0.000000 0.008991 0.000000
# 3 -0.003889 -0.008874 0.013516 0.000000 -0.001455 0.000000
# 4 0.000000 0.000000 0.000000 0.054383 0.000000 0.004863
# 5 -0.003091 0.008991 -0.001455 0.000000 0.034754 0.000000
# 6 0.000000 0.000000 0.000000 0.004863 0.000000 0.032409
#
#
# Mechanical properties :
#
#
# Convention : Reuss Voigt Hill
#
# Bulk Modulus (GPa) = 39.53959 75.31643 57.42801
# Shear Modulus (GPa) = 20.16078 26.50899 23.33488
#
# Velocity S-wave (km/s) = 3.30823 3.79349 3.55914
# Velocity P-wave (km/s) = 6.00473 7.75070 6.93290
#
# Compressibility (1/GPa) = 0.02529111
#
# Stress axis : x y z
#
# Youngs Moduli (GPa) = 88.11982 21.36893 73.98870
#
# Poissons Ratio (x) = 0.22271 0.28775
# Poissons Ratio (y) = 0.91839 0.65654
# Poissons Ratio (z) = 0.34271 0.18962
#
# Static dielectric constant tensor:
#      x y z
#    x 3.555780 0.000000 0.142220 
#    y 0.000000 3.061690 0.000000 
#    z 0.142220 0.000000 3.495010 
# 
# 
# High freq. dielectric constant tensor:
#      x y z
#    x 1.731590 0.000000 0.004350 
#    y 0.000000 1.680860 0.000000 
#    z 0.004350 0.000000 1.717900 
# 
# From -- ./inp_files/338911.got.cif
#   From: 2010.06.25/outbox.cif.g09.slc.cpg/sg12_170_cif.got.tgz:338911.got - 2010.06.28 00:19:55.
