data_PCOD8087517
_publ_section_title
;
Structure prediction by ZEFSAII (Michael W. Deem and Ramdas Pophale) SiO2 
 PCOD8087517
Probable space group: C 2/M
;
_chemical_formula_sum "Si O2"
_cell_formula_units_Z 52
_cell_length_a 14.847849
_cell_length_b 17.835457
_cell_length_c 11.009335
_cell_angle_alpha 90.000000
_cell_angle_beta 101.027182
_cell_angle_gamma 90.000000
_cell_volume 2861.642304
_symmetry_space_group_name_H-M "C 2/M"
_symmetry_group_IT_number 12
_symmetry_cell_setting 'monoclinic'
loop_
_space_group_symop_operation_xyz
x,y,z
-x,y,-z
-x,-y,-z
x,-y,z
1/2+x,1/2+y,z
1/2-x,1/2+y,-z
1/2-x,1/2-y,-z
1/2+x,1/2-y,z
loop_
_atom_site_type_symbol
_atom_site_label
_atom_site_fract_x
_atom_site_fract_y
_atom_site_fract_z
Si Si1 0.051101 0.414735 0.805066
Si Si2 0.000000 0.307551 0.000000
Si Si3 0.796884 0.339844 0.315939
Si Si4 0.194546 0.917319 0.481855
Si Si5 0.100558 0.766339 0.475792
Si Si6 0.148997 0.262988 0.209366
Si Si7 0.656987 0.919357 0.279011
O O1 0.079221 0.500000 0.846430
O O2 0.055560 0.362767 0.924987
O O3 0.119754 0.380526 0.725345
O O4 0.951069 0.412604 0.717423
O O5 0.931603 0.251623 0.910148
O O6 0.728312 0.401753 0.353646
O O7 0.827252 0.283981 0.431753
O O8 0.734777 0.291558 0.205143
O O9 0.122576 0.854202 0.506298
O O10 0.287522 0.915169 0.583012
O O11 0.148149 0.000000 0.477022
O O12 0.108287 0.748092 0.334834
O O13 0.000000 0.749050 0.500000
O O14 0.183930 0.349254 0.201000
O O15 0.675780 0.000000 0.218161
#
# Coordination Sequence:
#
# PCOD8087517 Si02
#       7
#     8   4   8   8   8   8   8
#     4  10  21  34  52  77 104 139 171 208 256 309
#     4  10  21  36  56  70  99 138 180 216 247 306
#     4  11  20  33  54  80 108 132 168 214 265 309
#     4  10  19  32  50  75 107 141 168 204 254 308
#     4  11  20  33  53  78 109 136 169 214 258 307
#     4  10  19  36  52  79 103 138 171 211 261 299
#     4   9  16  30  49  72 104 134 165 201 246 302
#
# _framework density 18.171384
#
# number of rings (size 3 to 8) (size 9 to 14) (size 15 to 20)
#    0.000    1.846    3.077    3.462    0.000    1.538 
#    0.000    2.308    0.000    0.000    0.000   13.462 
#    0.000    0.000    0.000    0.308    0.000    0.000 
#
# Total GULP energy -322209.803325 kJ/mol
# GULP energy per Si atom -12392.684743 kJ/mol
# Density = 1.813002 g / cm^3
# Si number density = 18.171384 Si / 1000 Ang^3
#
#
#
# Elastic Constant Matrix: (Units=GPa)
#
#
# Indices 1 2 3 4 5 6 
#
# 1 39.2572 14.1595 17.2490 0.0000 11.2177 0.0000
# 2 14.1595 81.9374 16.3540 0.0000 21.1741 0.0000
# 3 17.2490 16.3540 69.7262 0.0000 22.2053 0.0000
# 4 0.0000 0.0000 0.0000 18.6457 0.0000 2.2493
# 5 11.2177 21.1741 22.2053 0.0000 30.0464 0.0000
# 6 0.0000 0.0000 0.0000 2.2493 0.0000 31.1105
#
#
#
# Elastic Compliance Matrix: (Units=1/GPa)
#
#
# Indices 1 2 3 4 5 6 
#
# 1 0.030301 -0.002775 -0.005055 0.000000 -0.005622 0.000000
# 2 -0.002775 0.015178 0.000265 0.000000 -0.009856 0.000000
# 3 -0.005055 0.000265 0.019602 0.000000 -0.012786 0.000000
# 4 0.000000 0.000000 0.000000 0.054104 0.000000 -0.003912
# 5 -0.005622 -0.009856 -0.012786 0.000000 0.051776 0.000000
# 6 0.000000 0.000000 0.000000 -0.003912 0.000000 0.032426
#
#
# Mechanical properties :
#
#
# Convention : Reuss Voigt Hill
#
# Bulk Modulus (GPa) = 20.01879 31.82729 25.92304
# Shear Modulus (GPa) = 21.26151 25.50441 23.38296
#
# Velocity S-wave (km/s) = 3.42432 3.75046 3.59109
# Velocity P-wave (km/s) = 5.16480 6.02559 5.61172
#
# Compressibility (1/GPa) = 0.04995307
#
# Stress axis : x y z
#
# Youngs Moduli (GPa) = 33.00190 65.88476 51.01514
#
# Poissons Ratio (x) = 0.18281 0.25787
# Poissons Ratio (y) = 0.09157 -0.01354
# Poissons Ratio (z) = 0.16682 -0.01748
#
# Static dielectric constant tensor:
#      x y z
#    x 3.170030 0.000000 0.192840 
#    y 0.000000 3.791590 0.000000 
#    z 0.192840 0.000000 3.175980 
# 
# 
# High freq. dielectric constant tensor:
#      x y z
#    x 1.683570 0.000000 0.016260 
#    y 0.000000 1.717600 0.000000 
#    z 0.016260 0.000000 1.679700 
# 
# From -- ./inp_files/144938.got.cif
#   From: 2010.06.25/outbox.cif.g09.slc.cpg/sg12_73_cif.got.tgz:144938.got - 2010.06.28 00:19:55.
