data_PCOD8087052
_publ_section_title
;
Structure prediction by ZEFSAII (Michael W. Deem and Ramdas Pophale) SiO2 
 PCOD8087052
Probable space group: C 2/M
;
_chemical_formula_sum "Si O2"
_cell_formula_units_Z 56
_cell_length_a 18.353304
_cell_length_b 20.301745
_cell_length_c 15.175737
_cell_angle_alpha 90.000000
_cell_angle_beta 30.895069
_cell_angle_gamma 90.000000
_cell_volume 2903.422890
_symmetry_space_group_name_H-M "C 2/M"
_symmetry_group_IT_number 12
_symmetry_cell_setting 'monoclinic'
loop_
_space_group_symop_operation_xyz
x,y,z
-x,y,-z
-x,-y,-z
x,-y,z
1/2+x,1/2+y,z
1/2-x,1/2+y,-z
1/2-x,1/2-y,-z
1/2+x,1/2-y,z
loop_
_atom_site_type_symbol
_atom_site_label
_atom_site_fract_x
_atom_site_fract_y
_atom_site_fract_z
Si Si1 0.320358 0.574839 0.340116
Si Si2 0.056641 0.287406 0.038976
Si Si3 0.824625 0.199074 0.860610
Si Si4 0.110150 0.859959 0.035815
Si Si5 0.588637 0.275592 0.484896
Si Si6 0.159992 0.631579 0.346151
Si Si7 0.790016 0.318278 0.411453
O O1 0.301789 0.500000 0.390242
O O2 0.485680 0.587866 0.147841
O O3 0.232635 0.586250 0.342806
O O4 0.257216 0.620356 0.482070
O O5 0.050696 0.209456 0.061928
O O6 0.955983 0.322270 0.216142
O O7 0.217109 0.315997 0.889854
O O8 0.000000 0.303400 0.000000
O O9 0.859686 0.137913 0.889337
O O10 0.967981 0.236539 0.683542
O O11 0.750000 0.250000 0.000000
O O12 0.253689 0.877328 0.834314
O O13 0.500000 0.313008 0.500000
O O14 0.658792 0.208020 0.377673
O O15 0.709778 0.321202 0.400145
O O16 0.000000 0.606108 0.500000
O O17 0.750000 0.250000 0.500000
#
# Coordination Sequence:
#
# PCOD8087052 Si02
#       7
#     8   8   8   8   8   8   8
#     4  12  26  42  61  86 121 168 207 242 295 361
#     4  11  20  32  58  95 123 149 191 252 310 361
#     4  10  19  31  52  87 123 151 187 242 303 350
#     4  11  21  38  58  87 123 163 200 239 295 363
#     4  11  19  33  56  92 121 148 191 249 299 348
#     4  11  23  36  62  91 127 158 199 245 295 356
#     4  12  20  37  62  88 120 156 198 251 300 349
#
# _framework density 19.287579000000001
#
# number of rings (size 3 to 8) (size 9 to 14) (size 15 to 20)
#    0.000    0.857    4.286    7.286    2.000    1.429 
#    0.000    0.000    0.000    0.857    0.000    0.000 
#    0.000    0.000    0.000    0.000    0.000    0.000 
#
# Total GULP energy -347026.099993 kJ/mol
# GULP energy per Si atom -12393.789285 kJ/mol
# Density = 1.924368 g / cm^3
# Si number density = 19.287579 Si / 1000 Ang^3
#
#
#
# Elastic Constant Matrix: (Units=GPa)
#
#
# Indices 1 2 3 4 5 6 
#
# 1 121.1055 30.8784 3.6650 -0.0103 -10.4685 0.0061
# 2 30.8784 79.7716 27.6351 -0.0102 0.5213 0.0097
# 3 3.6650 27.6351 91.2429 -0.0030 -8.8069 0.0053
# 4 -0.0103 -0.0102 -0.0030 15.8231 0.0117 2.7792
# 5 -10.4685 0.5213 -8.8069 0.0117 33.7257 -0.0103
# 6 0.0061 0.0097 0.0053 2.7792 -0.0103 13.7558
#
#
#
# Elastic Compliance Matrix: (Units=1/GPa)
#
#
# Indices 1 2 3 4 5 6 
#
# 1 0.009565 -0.004137 0.001192 0.000001 0.003344 0.000000
# 2 -0.004137 0.015856 -0.004907 0.000011 -0.002811 -0.000012
# 3 0.001192 -0.004907 0.012763 -0.000003 0.003779 0.000001
# 4 0.000001 0.000011 -0.000003 0.065524 -0.000027 -0.013238
# 5 0.003344 -0.002811 0.003779 -0.000027 0.031719 0.000028
# 6 0.000000 -0.000012 0.000001 -0.013238 0.000028 0.075371
#
#
# Mechanical properties :
#
#
# Convention : Reuss Voigt Hill
#
# Bulk Modulus (GPa) = 44.48829 46.27520 45.38175
# Shear Modulus (GPa) = 21.36782 27.99035 24.67908
#
# Velocity S-wave (km/s) = 3.33205 3.81361 3.58094
# Velocity P-wave (km/s) = 6.15786 6.59058 6.37790
#
# Compressibility (1/GPa) = 0.02247783
#
# Stress axis : x y z
#
# Youngs Moduli (GPa) = 104.54638 63.06893 78.35192
#
# Poissons Ratio (x) = 0.26093 -0.09337
# Poissons Ratio (y) = 0.43253 0.38450
# Poissons Ratio (z) = -0.12458 0.30950
#
# Static dielectric constant tensor:
#      x y z
#    x 6.326030 -0.000980 -0.435250 
#    y -0.000980 4.340420 0.000000 
#    z -0.435250 0.000000 3.968720 
# 
# 
# High freq. dielectric constant tensor:
#      x y z
#    x 1.775810 0.000000 -0.006650 
#    y 0.000000 1.663370 0.000000 
#    z -0.006650 0.000000 1.778650 
# 
# From -- ./inp_files/227570.got.cif
#   From: 2010.06.25/outbox.cif.g09.slc.cpg/sg12_114_cif.got.tgz:227570.got - 2010.06.28 00:19:55.
