data_PCOD8087647
_publ_section_title
;
Structure prediction by ZEFSAII (Michael W. Deem and Ramdas Pophale) SiO2 
 PCOD8087647
Probable space group: C 2/M
;
_chemical_formula_sum "Si O2"
_cell_formula_units_Z 56
_cell_length_a 25.483891
_cell_length_b 13.552763
_cell_length_c 14.265817
_cell_angle_alpha 90.000000
_cell_angle_beta 139.652106
_cell_angle_gamma 90.000000
_cell_volume 3189.929523
_symmetry_space_group_name_H-M "C 2/M"
_symmetry_group_IT_number 12
_symmetry_cell_setting 'monoclinic'
loop_
_space_group_symop_operation_xyz
x,y,z
-x,y,-z
-x,-y,-z
x,-y,z
1/2+x,1/2+y,z
1/2-x,1/2+y,-z
1/2-x,1/2-y,-z
1/2+x,1/2-y,z
loop_
_atom_site_type_symbol
_atom_site_label
_atom_site_fract_x
_atom_site_fract_y
_atom_site_fract_z
Si Si1 0.926976 0.611473 0.036484
Si Si2 0.599999 0.885559 0.326347
Si Si3 0.133292 0.227861 0.526728
Si Si4 0.982723 0.890243 0.366912
Si Si5 0.304740 0.111253 0.028558
Si Si6 0.838604 0.765744 0.223759
Si Si7 0.298429 0.885608 0.715791
O O1 0.937853 0.500000 0.015801
O O2 0.889157 0.616791 0.088560
O O3 0.017029 0.657691 0.166426
O O4 0.867398 0.661501 0.878534
O O5 0.622465 0.824458 0.449068
O O6 0.672459 0.874785 0.351203
O O7 0.587639 0.000000 0.339065
O O8 0.131775 0.263020 0.632637
O O9 0.215779 0.173800 0.612319
O O10 0.058532 0.152471 0.411517
O O11 0.906234 0.817957 0.250524
O O12 0.000000 0.898020 0.500000
O O13 0.963722 0.000000 0.301681
O O14 0.311323 0.165572 0.136670
O O15 0.278939 0.000000 0.015249
O O16 0.236472 0.159307 0.869318
O O17 0.282168 0.000000 0.720716
#
# Coordination Sequence:
#
# PCOD8087647 Si02
#       7
#     8   8   8   8   8   8   8
#     4   9  17  32  53  74  98 128 166 211 257 297
#     4  10  21  34  50  75 106 137 169 210 258 308
#     4  11  20  33  51  76 105 135 169 210 256 306
#     4   9  18  31  49  72 100 129 162 204 249 295
#     4  10  19  32  51  74 101 131 170 212 252 302
#     4  10  20  32  49  74 102 136 170 205 252 307
#     4  10  19  33  54  77  99 130 174 218 259 296
#
# _framework density 17.555246
#
# number of rings (size 3 to 8) (size 9 to 14) (size 15 to 20)
#    0.000    2.143    1.429    2.571    0.000    3.429 
#    0.000    0.000    0.000    5.143    0.000    0.000 
#    0.000    6.857    0.000    0.000    0.000    0.000 
#
# Total GULP energy -347157.891458 kJ/mol
# GULP energy per Si atom -12398.496123 kJ/mol
# Density = 1.751529 g / cm^3
# Si number density = 17.555246 Si / 1000 Ang^3
#
#
#
# Elastic Constant Matrix: (Units=GPa)
#
#
# Indices 1 2 3 4 5 6 
#
# 1 84.5853 37.5504 39.3909 0.0000 10.8901 0.0000
# 2 37.5504 85.8612 39.0849 0.0000 -8.5402 0.0000
# 3 39.3909 39.0849 80.8173 0.0000 4.6759 0.0000
# 4 0.0000 0.0000 0.0000 22.2954 0.0000 2.3288
# 5 10.8901 -8.5402 4.6759 0.0000 28.2409 0.0000
# 6 0.0000 0.0000 0.0000 2.3288 0.0000 24.0436
#
#
#
# Elastic Compliance Matrix: (Units=1/GPa)
#
#
# Indices 1 2 3 4 5 6 
#
# 1 0.018133 -0.006303 -0.005326 0.000000 -0.008017 0.000000
# 2 -0.006303 0.018118 -0.006207 0.000000 0.008937 0.000000
# 3 -0.005326 -0.006207 0.018135 0.000000 -0.002826 0.000000
# 4 0.000000 0.000000 0.000000 0.045311 0.000000 -0.004389
# 5 -0.008017 0.008937 -0.002826 0.000000 0.041672 0.000000
# 6 0.000000 0.000000 0.000000 -0.004389 0.000000 0.042016
#
#
# Mechanical properties :
#
#
# Convention : Reuss Voigt Hill
#
# Bulk Modulus (GPa) = 53.43801 53.70183 53.56992
# Shear Modulus (GPa) = 22.19323 23.93183 23.06253
#
# Velocity S-wave (km/s) = 3.55941 3.69620 3.62845
# Velocity P-wave (km/s) = 6.88466 6.99088 6.93797
#
# Compressibility (1/GPa) = 0.01871327
#
# Stress axis : x y z
#
# Youngs Moduli (GPa) = 55.14810 55.19448 55.14251
#
# Poissons Ratio (x) = 0.34790 0.29369
# Poissons Ratio (y) = 0.34761 0.34227
# Poissons Ratio (z) = 0.29372 0.34259
#
# Static dielectric constant tensor:
#      x y z
#    x 3.217200 0.000000 0.195160 
#    y 0.000000 3.106770 0.000000 
#    z 0.195160 0.000000 3.290810 
# 
# 
# High freq. dielectric constant tensor:
#      x y z
#    x 1.682550 0.000000 0.017590 
#    y 0.000000 1.654760 0.000000 
#    z 0.017590 0.000000 1.674120 
# 
# From -- ./inp_files/223714.got.cif
#   From: 2010.06.25/outbox.cif.g09.slc.cpg/sg12_112_cif.got.tgz:223714.got - 2010.06.28 00:19:55.
