data_PCOD8087065
_publ_section_title
;
Structure prediction by ZEFSAII (Michael W. Deem and Ramdas Pophale) SiO2 
 PCOD8087065
Probable space group: C 2/M
;
_chemical_formula_sum "Si O2"
_cell_formula_units_Z 48
_cell_length_a 17.662171
_cell_length_b 13.104811
_cell_length_c 14.999989
_cell_angle_alpha 90.000000
_cell_angle_beta 51.167547
_cell_angle_gamma 90.000000
_cell_volume 2704.541970
_symmetry_space_group_name_H-M "C 2/M"
_symmetry_group_IT_number 12
_symmetry_cell_setting 'monoclinic'
loop_
_space_group_symop_operation_xyz
x,y,z
-x,y,-z
-x,-y,-z
x,-y,z
1/2+x,1/2+y,z
1/2-x,1/2+y,-z
1/2-x,1/2-y,-z
1/2+x,1/2-y,z
loop_
_atom_site_type_symbol
_atom_site_label
_atom_site_fract_x
_atom_site_fract_y
_atom_site_fract_z
Si Si1 0.248699 0.617774 0.786242
Si Si2 0.994052 0.616327 0.735457
Si Si3 0.932244 0.618143 0.971802
Si Si4 0.311884 0.192109 0.348106
Si Si5 0.460766 0.289316 0.629489
Si Si6 0.860695 0.117838 0.413394
O O1 0.263769 0.500000 0.750388
O O2 0.183011 0.631449 0.923286
O O3 0.181922 0.671360 0.760893
O O4 0.352611 0.668903 0.717080
O O5 0.961235 0.500000 0.745469
O O6 0.957013 0.677836 0.676938
O O7 0.110788 0.625009 0.653875
O O8 0.952400 0.665328 0.858817
O O9 0.962211 0.500000 0.942492
O O10 0.000000 0.667259 0.000000
O O11 0.205379 0.155628 0.456116
O O12 0.331611 0.312683 0.349909
O O13 0.500000 0.281011 0.500000
O O14 0.528669 0.364515 0.637207
O O15 0.845009 0.000000 0.399902
#
# Coordination Sequence:
#
# PCOD8087065 Si02
#       6
#     8   8   8   8   8   8
#     4  11  20  33  54  79 107 133 172 223 259 303
#     4  10  20  36  54  76 107 136 173 224 260 302
#     4   9  17  31  55  81  99 128 173 220 270 301
#     4  10  19  31  53  80  99 133 179 213 260 309
#     4  11  23  34  49  78 109 143 178 200 258 327
#     4  10  20  34  50  73 109 141 171 214 256 309
#
# _framework density 17.747921999999999
#
# number of rings (size 3 to 8) (size 9 to 14) (size 15 to 20)
#    0.000    1.833    3.333    2.000    0.000    1.667 
#    0.000    0.833    0.000    0.000    0.000   10.500 
#    0.000    0.000    0.000    0.000    0.000    0.000 
#
# Total GULP energy -297525.481325 kJ/mol
# GULP energy per Si atom -12396.895055 kJ/mol
# Density = 1.770753 g / cm^3
# Si number density = 17.747922 Si / 1000 Ang^3
#
#
#
# Elastic Constant Matrix: (Units=GPa)
#
#
# Indices 1 2 3 4 5 6 
#
# 1 74.9243 43.3300 30.3894 0.0000 -11.4852 0.0000
# 2 43.3300 109.4288 29.6959 0.0000 1.0991 0.0000
# 3 30.3894 29.6959 74.9722 0.0000 -11.2835 0.0000
# 4 0.0000 0.0000 0.0000 19.2083 0.0000 3.8038
# 5 -11.4852 1.0991 -11.2835 0.0000 21.6792 0.0000
# 6 0.0000 0.0000 0.0000 3.8038 0.0000 14.4782
#
#
#
# Elastic Compliance Matrix: (Units=1/GPa)
#
#
# Indices 1 2 3 4 5 6 
#
# 1 0.020519 -0.007092 -0.004143 0.000000 0.009074 0.000000
# 2 -0.007092 0.012855 -0.003126 0.000000 -0.006036 0.000000
# 3 -0.004143 -0.003126 0.017305 0.000000 0.006970 0.000000
# 4 0.000000 0.000000 0.000000 0.054918 0.000000 -0.014428
# 5 0.009074 -0.006036 0.006970 0.000000 0.054868 0.000000
# 6 0.000000 0.000000 0.000000 -0.014428 0.000000 0.072860
#
#
# Mechanical properties :
#
#
# Convention : Reuss Voigt Hill
#
# Bulk Modulus (GPa) = 45.53956 51.79507 48.66732
# Shear Modulus (GPa) = 18.56212 21.46715 20.01463
#
# Velocity S-wave (km/s) = 3.23751 3.48164 3.36179
# Velocity P-wave (km/s) = 6.30001 6.73866 6.52302
#
# Compressibility (1/GPa) = 0.02195893
#
# Stress axis : x y z
#
# Youngs Moduli (GPa) = 48.73425 77.78858 57.78825
#
# Poissons Ratio (x) = 0.55167 0.23940
# Poissons Ratio (y) = 0.34562 0.18063
# Poissons Ratio (z) = 0.20189 0.24314
#
# Static dielectric constant tensor:
#      x y z
#    x 3.183090 0.000000 -0.022050 
#    y 0.000000 3.140950 0.000000 
#    z -0.022050 0.000000 3.407340 
# 
# 
# High freq. dielectric constant tensor:
#      x y z
#    x 1.677630 0.000000 -0.011580 
#    y 0.000000 1.661940 0.000000 
#    z -0.011580 0.000000 1.694250 
# 
# From -- ./inp_files/276314.got.cif
#   From: 2010.06.25/outbox.cif.g09.slc.cpg/sg12_139_cif.got.tgz:276314.got - 2010.06.28 00:19:55.
