data_PCOD8087626
_publ_section_title
;
Structure prediction by ZEFSAII (Michael W. Deem and Ramdas Pophale) SiO2 
 PCOD8087626
Probable space group: C 2/M
;
_chemical_formula_sum "Si O2"
_cell_formula_units_Z 56
_cell_length_a 19.278578
_cell_length_b 9.088823
_cell_length_c 26.729017
_cell_angle_alpha 90.000000
_cell_angle_beta 141.302983
_cell_angle_gamma 90.000000
_cell_volume 2928.100678
_symmetry_space_group_name_H-M "C 2/M"
_symmetry_group_IT_number 12
_symmetry_cell_setting 'monoclinic'
loop_
_space_group_symop_operation_xyz
x,y,z
-x,y,-z
-x,-y,-z
x,-y,z
1/2+x,1/2+y,z
1/2-x,1/2+y,-z
1/2-x,1/2-y,-z
1/2+x,1/2-y,z
loop_
_atom_site_type_symbol
_atom_site_label
_atom_site_fract_x
_atom_site_fract_y
_atom_site_fract_z
Si Si1 0.074866 0.333654 0.997588
Si Si2 0.107986 0.673217 0.586788
Si Si3 0.461581 0.828715 0.246267
Si Si4 0.323598 0.174408 0.265131
Si Si5 0.881395 0.332764 0.815277
Si Si6 0.151787 0.173517 0.304738
Si Si7 0.230272 0.328698 0.936527
O O1 0.115364 0.500000 0.032264
O O2 0.004014 0.331864 0.907031
O O3 0.179336 0.227100 0.052180
O O4 0.000000 0.271716 0.000000
O O5 0.093517 0.500000 0.578547
O O6 0.118098 0.724690 0.650110
O O7 0.217998 0.716365 0.616881
O O8 0.000000 0.747227 0.500000
O O9 0.399863 0.775546 0.261819
O O10 0.578544 0.743036 0.308053
O O11 0.388425 0.795180 0.155599
O O12 0.488834 0.000000 0.265614
O O13 0.206688 0.260141 0.195812
O O14 0.300254 0.000000 0.250866
O O15 0.844889 0.500000 0.782372
O O16 0.891956 0.236552 0.771874
O O17 0.134980 0.000000 0.295280
O O18 0.246068 0.500000 0.954844
O O19 0.250000 0.250000 0.000000
#
# Coordination Sequence:
#
# PCOD8087626 Si02
#       7
#     8   8   8   8   8   8   8
#     4  10  21  35  50  71  99 130 166 211 261 304
#     4   8  15  31  55  80 103 128 162 202 243 293
#     4  10  21  36  51  72 104 136 168 210 256 297
#     4   9  18  33  54  77 101 134 171 204 246 300
#     4  10  19  32  51  73  99 131 167 210 256 299
#     4  10  20  33  53  77  99 131 170 203 242 297
#     4  11  23  36  51  71  98 135 175 215 258 300
#
# _framework density 19.125025000000001
#
# number of rings (size 3 to 8) (size 9 to 14) (size 15 to 20)
#    0.000    2.286    0.000    3.857    0.000    6.571 
#    0.000    0.714    0.000   10.714    0.000    0.000 
#    0.000    0.000    0.000    0.000    0.000    0.000 
#
# Total GULP energy -347157.974733 kJ/mol
# GULP energy per Si atom -12398.499098 kJ/mol
# Density = 1.908150 g / cm^3
# Si number density = 19.125025 Si / 1000 Ang^3
#
#
#
# Elastic Constant Matrix: (Units=GPa)
#
#
# Indices 1 2 3 4 5 6 
#
# 1 109.9511 39.8065 18.0241 0.0000 20.5512 0.0000
# 2 39.8065 64.7055 31.5265 0.0000 14.6893 0.0002
# 3 18.0241 31.5265 62.0551 0.0000 13.5937 0.0000
# 4 0.0000 0.0000 0.0000 17.8559 0.0000 5.9144
# 5 20.5512 14.6893 13.5937 0.0000 25.6253 0.0000
# 6 0.0000 0.0002 0.0000 5.9144 0.0000 36.7966
#
#
#
# Elastic Compliance Matrix: (Units=1/GPa)
#
#
# Indices 1 2 3 4 5 6 
#
# 1 0.012655 -0.006860 0.001325 0.000000 -0.006920 0.000000
# 2 -0.006860 0.025451 -0.010123 0.000000 -0.003718 0.000000
# 3 0.001325 -0.010123 0.022442 0.000000 -0.007165 0.000000
# 4 0.000000 0.000000 0.000000 0.059153 0.000000 -0.009508
# 5 -0.006920 -0.003718 -0.007165 0.000000 0.050505 0.000000
# 6 0.000000 0.000000 0.000000 -0.009508 0.000000 0.028705
#
#
# Mechanical properties :
#
#
# Convention : Reuss Voigt Hill
#
# Bulk Modulus (GPa) = 34.20871 46.15845 40.18358
# Shear Modulus (GPa) = 20.83578 25.87918 23.35748
#
# Velocity S-wave (km/s) = 3.30426 3.68252 3.49851
# Velocity P-wave (km/s) = 5.69941 6.50144 6.11359
#
# Compressibility (1/GPa) = 0.02923232
#
# Stress axis : x y z
#
# Youngs Moduli (GPa) = 79.02263 39.29082 44.55848
#
# Poissons Ratio (x) = 0.26953 -0.05906
# Poissons Ratio (y) = 0.54209 0.45108
# Poissons Ratio (z) = -0.10473 0.39776
#
# Static dielectric constant tensor:
#      x y z
#    x 3.649490 0.000000 0.137780 
#    y 0.000000 3.396710 0.000000 
#    z 0.137780 0.000000 3.602730 
# 
# 
# High freq. dielectric constant tensor:
#      x y z
#    x 1.752630 0.000000 0.010200 
#    y 0.000000 1.730970 0.000000 
#    z 0.010200 0.000000 1.726350 
# 
# From -- ./inp_files/280189.got.cif
#   From: 2010.06.25/outbox.cif.g09.slc.cpg/sg12_141_cif.got.tgz:280189.got - 2010.06.28 00:19:55.
