data_PCOD8087351
_publ_section_title
;
Structure prediction by ZEFSAII (Michael W. Deem and Ramdas Pophale) SiO2 
 PCOD8087351
Probable space group: C 2/M
;
_chemical_formula_sum "Si O2"
_cell_formula_units_Z 56
_cell_length_a 21.511823
_cell_length_b 9.212312
_cell_length_c 28.093208
_cell_angle_alpha 90.000000
_cell_angle_beta 30.453922
_cell_angle_gamma 90.000000
_cell_volume 2821.776309
_symmetry_space_group_name_H-M "C 2/M"
_symmetry_group_IT_number 12
_symmetry_cell_setting 'monoclinic'
loop_
_space_group_symop_operation_xyz
x,y,z
-x,y,-z
-x,-y,-z
x,-y,z
1/2+x,1/2+y,z
1/2-x,1/2+y,-z
1/2-x,1/2-y,-z
1/2+x,1/2-y,z
loop_
_atom_site_type_symbol
_atom_site_label
_atom_site_fract_x
_atom_site_fract_y
_atom_site_fract_z
Si Si1 0.124474 0.336519 0.394153
Si Si2 0.847157 0.668563 0.797901
Si Si3 0.517630 0.839079 0.601170
Si Si4 0.247156 0.827657 0.451283
Si Si5 0.021545 0.328812 0.760832
Si Si6 0.640203 0.829084 0.775468
Si Si7 0.373084 0.171549 0.107804
O O1 0.152370 0.500000 0.393922
O O2 0.103957 0.333277 0.350937
O O3 0.238741 0.234063 0.329616
O O4 0.000000 0.276982 0.500000
O O5 0.807190 0.500000 0.823922
O O6 0.969688 0.694491 0.685737
O O7 0.734393 0.761642 0.853191
O O8 0.893879 0.722653 0.819698
O O9 0.617074 0.724945 0.515303
O O10 0.576936 0.000000 0.560328
O O11 0.250000 0.750000 0.500000
O O12 0.357527 0.768572 0.345709
O O13 0.248397 0.000000 0.456304
O O14 0.025507 0.500000 0.752353
O O15 0.028555 0.286580 0.812718
O O16 0.621004 0.768107 0.841612
O O17 0.656645 0.000000 0.766745
O O18 0.353205 0.000000 0.120964
O O19 0.500000 0.216999 0.000000
#
# Coordination Sequence:
#
# PCOD8087351 Si02
#       7
#     8   8   8   8   8   8   8
#     4  10  20  33  50  75 112 149 180 223 277 319
#     4  10  19  36  59  79 107 143 182 225 269 328
#     4  10  19  32  49  73 106 144 184 228 267 308
#     4  11  20  31  48  73 109 150 191 229 265 315
#     4   9  19  35  53  77 110 147 185 226 268 314
#     4  10  20  36  58  80 107 146 187 226 274 331
#     4  10  22  40  61  86 112 137 176 234 292 339
#
# _framework density 19.845656000000002
#
# number of rings (size 3 to 8) (size 9 to 14) (size 15 to 20)
#    0.000    2.000    2.857    1.286    0.000    1.714 
#    0.000    2.143    0.000    0.000    0.000    0.000 
#    0.000    0.000    0.000    0.000    0.000    0.000 
#
# Total GULP energy -346943.090607 kJ/mol
# GULP energy per Si atom -12390.824665 kJ/mol
# Density = 1.980049 g / cm^3
# Si number density = 19.845656 Si / 1000 Ang^3
#
#
#
# Elastic Constant Matrix: (Units=GPa)
#
#
# Indices 1 2 3 4 5 6 
#
# 1 160.9525 29.3040 59.7248 0.0002 -11.8254 -0.0004
# 2 29.3040 40.1888 27.6709 0.0008 -5.0188 -0.0026
# 3 59.7248 27.6709 77.1270 0.0007 -1.8624 -0.0003
# 4 0.0002 0.0008 0.0007 22.2065 0.0000 -7.0955
# 5 -11.8254 -5.0188 -1.8624 0.0000 21.5316 0.0002
# 6 -0.0004 -0.0026 -0.0003 -7.0955 0.0002 24.8016
#
#
#
# Elastic Compliance Matrix: (Units=1/GPa)
#
#
# Indices 1 2 3 4 5 6 
#
# 1 0.009212 -0.001810 -0.006385 0.000000 0.004085 0.000000
# 2 -0.001810 0.034392 -0.010790 0.000000 0.006089 0.000004
# 3 -0.006385 -0.010790 0.021681 -0.000001 -0.004147 -0.000001
# 4 0.000000 0.000000 -0.000001 0.049562 0.000000 0.014179
# 5 0.004085 0.006089 -0.004147 0.000000 0.049748 0.000000
# 6 0.000000 0.000004 -0.000001 0.014179 0.000000 0.044377
#
#
# Mechanical properties :
#
#
# Convention : Reuss Voigt Hill
#
# Bulk Modulus (GPa) = 36.61126 56.85195 46.73161
# Shear Modulus (GPa) = 19.52754 24.47918 22.00336
#
# Velocity S-wave (km/s) = 3.14023 3.51590 3.33336
# Velocity P-wave (km/s) = 5.62460 6.72245 6.19788
#
# Compressibility (1/GPa) = 0.02731400
#
# Stress axis : x y z
#
# Youngs Moduli (GPa) = 108.55107 29.07647 46.12269
#
# Poissons Ratio (x) = 0.05264 0.29452
# Poissons Ratio (y) = 0.19653 0.49766
# Poissons Ratio (z) = 0.69315 0.31373
#
# Static dielectric constant tensor:
#      x y z
#    x 4.276710 0.000010 -0.042350 
#    y 0.000010 3.505830 -0.000010 
#    z -0.042350 -0.000010 3.413060 
# 
# 
# High freq. dielectric constant tensor:
#      x y z
#    x 1.802460 0.000000 -0.002430 
#    y 0.000000 1.745120 0.000000 
#    z -0.002430 0.000000 1.738890 
# 
# From -- ./inp_files/380614.got.cif
#   From: 2010.06.25/outbox.cif.g09.slc.cpg/sg12_191_cif.got.tgz:380614.got - 2010.06.28 00:19:55.
