data_PCOD8087771
_publ_section_title
;
Structure prediction by ZEFSAII (Michael W. Deem and Ramdas Pophale) SiO2 
 PCOD8087771
Probable space group: C 2/M
;
_chemical_formula_sum "Si O2"
_cell_formula_units_Z 40
_cell_length_a 20.610186
_cell_length_b 8.873240
_cell_length_c 18.122876
_cell_angle_alpha 90.000000
_cell_angle_beta 42.265100
_cell_angle_gamma 90.000000
_cell_volume 2229.068922
_symmetry_space_group_name_H-M "C 2/M"
_symmetry_group_IT_number 12
_symmetry_cell_setting 'monoclinic'
loop_
_space_group_symop_operation_xyz
x,y,z
-x,y,-z
-x,-y,-z
x,-y,z
1/2+x,1/2+y,z
1/2-x,1/2+y,-z
1/2-x,1/2-y,-z
1/2+x,1/2-y,z
loop_
_atom_site_type_symbol
_atom_site_label
_atom_site_fract_x
_atom_site_fract_y
_atom_site_fract_z
Si Si1 0.912103 0.166454 0.017724
Si Si2 0.563540 0.321424 0.777405
Si Si3 0.290933 0.823593 0.231706
Si Si4 0.605138 0.175125 0.439155
Si Si5 0.147440 0.676504 0.571308
O O1 0.831475 0.280583 0.116184
O O2 0.865685 0.000000 0.048293
O O3 0.000000 0.157438 0.000000
O O4 0.959122 0.221190 0.900646
O O5 0.576211 0.500000 0.760818
O O6 0.651747 0.262032 0.752470
O O7 0.568133 0.246295 0.693286
O O8 0.179996 0.774462 0.329402
O O9 0.302345 0.000000 0.234291
O O10 0.500000 0.221499 0.500000
O O11 0.612129 0.214690 0.519336
O O12 0.627071 0.000000 0.405951
O O13 0.156146 0.500000 0.578266
O O14 0.250000 0.750000 0.500000
#
# Coordination Sequence:
#
# PCOD8087771 Si02
#       5
#     8   8   8   8   8
#     4   8  16  30  48  71 102 139 173 210 260 314
#     4  10  19  32  51  76 107 140 174 214 261 314
#     4  11  20  30  50  78 107 137 172 220 266 308
#     4  10  22  39  56  74 103 145 183 213 257 320
#     4  11  21  33  54  80 107 138 173 219 268 312
#
# _framework density 17.944713
#
# number of rings (size 3 to 8) (size 9 to 14) (size 15 to 20)
#    0.000    2.000    2.000    4.200    0.000    5.600 
#    0.000    0.000    0.000    1.200    0.000    0.000 
#    0.000    0.000    0.000    0.000    0.000    0.000 
#
# Total GULP energy -247990.597863 kJ/mol
# GULP energy per Si atom -12399.529893 kJ/mol
# Density = 1.790387 g / cm^3
# Si number density = 17.944713 Si / 1000 Ang^3
#
#
#
# Elastic Constant Matrix: (Units=GPa)
#
#
# Indices 1 2 3 4 5 6 
#
# 1 77.2507 38.7491 51.0787 0.0000 -0.3345 0.0000
# 2 38.7491 101.1779 70.5828 -0.0001 1.2163 0.0000
# 3 51.0787 70.5828 163.1014 0.0000 10.2232 0.0000
# 4 0.0000 -0.0001 0.0000 34.0327 0.0000 4.4131
# 5 -0.3345 1.2163 10.2232 0.0000 18.6123 0.0000
# 6 0.0000 0.0000 0.0000 4.4131 0.0000 16.4725
#
#
#
# Elastic Compliance Matrix: (Units=1/GPa)
#
#
# Indices 1 2 3 4 5 6 
#
# 1 0.017575 -0.004017 -0.003937 0.000000 0.002741 0.000000
# 2 -0.004017 0.015192 -0.005437 0.000000 0.001921 0.000000
# 3 -0.003937 -0.005437 0.010045 0.000000 -0.005233 0.000000
# 4 0.000000 0.000000 0.000000 0.030441 0.000000 -0.008155
# 5 0.002741 0.001921 -0.005233 0.000000 0.056526 0.000000
# 6 0.000000 0.000000 0.000000 -0.008155 0.000000 0.062892
#
#
# Mechanical properties :
#
#
# Convention : Reuss Voigt Hill
#
# Bulk Modulus (GPa) = 62.38516 73.59459 67.98987
# Shear Modulus (GPa) = 22.24235 25.89812 24.07024
#
# Velocity S-wave (km/s) = 3.52446 3.80309 3.66643
# Velocity P-wave (km/s) = 7.16960 7.77081 7.47625
#
# Compressibility (1/GPa) = 0.01602945
#
# Stress axis : x y z
#
# Youngs Moduli (GPa) = 56.89846 65.82595 99.55234
#
# Poissons Ratio (x) = 0.26443 0.39198
# Poissons Ratio (y) = 0.22857 0.54123
# Poissons Ratio (z) = 0.22403 0.35787
#
# Static dielectric constant tensor:
#      x y z
#    x 2.974360 0.000000 0.216890 
#    y 0.000000 3.341780 0.000000 
#    z 0.216890 0.000000 4.002360 
# 
# 
# High freq. dielectric constant tensor:
#      x y z
#    x 1.638430 0.000000 0.011280 
#    y 0.000000 1.699930 0.000000 
#    z 0.011280 0.000000 1.716910 
# 
# From -- ./inp_files/162747.got.cif
#   From: 2010.06.25/outbox.cif.g09.slc.cpg/sg12_82_cif.got.tgz:162747.got - 2010.06.28 00:19:55.
