data_PCOD8087740
_publ_section_title
;
Structure prediction by ZEFSAII (Michael W. Deem and Ramdas Pophale) SiO2 
 PCOD8087740
Probable space group: C 2/M
;
_chemical_formula_sum "Si O2"
_cell_formula_units_Z 64
_cell_length_a 14.750210
_cell_length_b 8.695865
_cell_length_c 27.172047
_cell_angle_alpha 90.000000
_cell_angle_beta 75.530337
_cell_angle_gamma 90.000000
_cell_volume 3374.693578
_symmetry_space_group_name_H-M "C 2/M"
_symmetry_group_IT_number 12
_symmetry_cell_setting 'monoclinic'
loop_
_space_group_symop_operation_xyz
x,y,z
-x,y,-z
-x,-y,-z
x,-y,z
1/2+x,1/2+y,z
1/2-x,1/2+y,-z
1/2-x,1/2-y,-z
1/2+x,1/2-y,z
loop_
_atom_site_type_symbol
_atom_site_label
_atom_site_fract_x
_atom_site_fract_y
_atom_site_fract_z
Si Si1 0.494659 0.181042 0.728540
Si Si2 0.293087 0.817368 0.445165
Si Si3 0.971372 0.817599 0.378353
Si Si4 0.601931 0.818050 0.809127
Si Si5 0.701629 0.679407 0.257048
Si Si6 0.821851 0.179240 0.630562
Si Si7 0.149389 0.681789 0.000375
Si Si8 0.963808 0.682921 0.077889
O O1 0.543717 0.263733 0.675737
O O2 0.542774 0.246526 0.771378
O O3 0.385141 0.218255 0.748156
O O4 0.510643 0.000000 0.720271
O O5 0.250000 0.750000 0.500000
O O6 0.398992 0.760258 0.425335
O O7 0.235926 0.746661 0.406425
O O8 0.290399 0.000000 0.447608
O O9 0.072471 0.756909 0.382591
O O10 0.962413 0.000000 0.382049
O O11 0.710686 0.773011 0.788324
O O12 0.563736 0.746445 0.865331
O O13 0.591074 0.000000 0.811784
O O14 0.674547 0.500000 0.255231
O O15 0.727827 0.714230 0.310485
O O16 0.826029 0.000000 0.619862
O O17 0.159775 0.500000 0.999913
O O18 0.069413 0.736481 0.050013
O O19 0.250000 0.750000 0.000000
O O20 0.113134 0.738863 0.951724
O O21 0.961498 0.500000 0.079033
#
# Coordination Sequence:
#
# PCOD8087740 Si02
#       8
#     8   8   8   8   8   8   8   8
#     4  10  19  32  51  76 101 129 163 203 248 297
#     4  11  22  37  55  78 104 132 168 210 254 301
#     4  10  20  37  57  76  99 133 171 206 244 295
#     4   9  17  30  50  72 101 137 169 199 245 307
#     4   9  17  32  52  73  95 128 168 201 236 292
#     4   8  17  34  54  71  96 133 166 192 236 302
#     4   9  17  31  52  72  95 129 173 216 255 296
#     4   8  16  31  48  70  98 134 173 205 243 307
#
# _framework density 18.964683999999998
#
# number of rings (size 3 to 8) (size 9 to 14) (size 15 to 20)
#    0.000    2.750    0.000    3.375    0.000    3.500 
#    0.000   13.750    0.000    3.000    0.000    0.000 
#    0.000    0.000    0.000    0.000    0.000    0.000 
#
# Total GULP energy -396690.360588 kJ/mol
# GULP energy per Si atom -12396.573768 kJ/mol
# Density = 1.892152 g / cm^3
# Si number density = 18.964684 Si / 1000 Ang^3
#
#
#
# Elastic Constant Matrix: (Units=GPa)
#
#
# Indices 1 2 3 4 5 6 
#
# 1 93.3676 18.7349 49.4400 0.0000 -14.3837 0.0000
# 2 18.7349 39.9640 20.1847 0.0000 -2.8629 0.0000
# 3 49.4400 20.1847 124.0504 0.0000 -22.6480 0.0000
# 4 0.0000 0.0000 0.0000 19.3690 0.0000 -2.0097
# 5 -14.3837 -2.8629 -22.6480 0.0000 28.7387 0.0000
# 6 0.0000 0.0000 0.0000 -2.0097 0.0000 29.3789
#
#
#
# Elastic Compliance Matrix: (Units=1/GPa)
#
#
# Indices 1 2 3 4 5 6 
#
# 1 0.014436 -0.004281 -0.004457 0.000000 0.003286 0.000000
# 2 -0.004281 0.028553 -0.003284 0.000000 -0.001886 0.000000
# 3 -0.004457 -0.003284 0.011569 0.000000 0.006560 0.000000
# 4 0.000000 0.000000 0.000000 0.051998 0.000000 0.003557
# 5 0.003286 -0.001886 0.006560 0.000000 0.041423 0.000000
# 6 0.000000 0.000000 0.000000 0.003557 0.000000 0.034281
#
#
# Mechanical properties :
#
#
# Convention : Reuss Voigt Hill
#
# Bulk Modulus (GPa) = 32.77143 48.23343 40.50243
# Shear Modulus (GPa) = 23.09732 26.76547 24.93140
#
# Velocity S-wave (km/s) = 3.49365 3.76085 3.62971
# Velocity P-wave (km/s) = 5.79585 6.65936 6.24255
#
# Compressibility (1/GPa) = 0.03051438
#
# Stress axis : x y z
#
# Youngs Moduli (GPa) = 69.27351 35.02253 86.43451
#
# Poissons Ratio (x) = 0.14993 0.38521
# Poissons Ratio (y) = 0.29655 0.28387
# Poissons Ratio (z) = 0.30873 0.11502
#
# Static dielectric constant tensor:
#      x y z
#    x 3.454690 0.000000 -0.246550 
#    y 0.000000 3.083060 0.000000 
#    z -0.246550 0.000000 3.309860 
# 
# 
# High freq. dielectric constant tensor:
#      x y z
#    x 1.745540 0.000000 -0.004200 
#    y 0.000000 1.700450 0.000000 
#    z -0.004200 0.000000 1.739690 
# 
# From -- ./inp_files/359825.got.cif
#   From: 2010.06.25/outbox.cif.g09.slc.cpg/sg12_180_cif.got.tgz:359825.got - 2010.06.28 00:19:55.
