data_PCOD8087820
_publ_section_title
;
Structure prediction by ZEFSAII (Michael W. Deem and Ramdas Pophale) SiO2 
 PCOD8087820
Probable space group: C 2/M
;
_chemical_formula_sum "Si O2"
_cell_formula_units_Z 56
_cell_length_a 13.845440
_cell_length_b 14.313103
_cell_length_c 19.906142
_cell_angle_alpha 90.000000
_cell_angle_beta 48.746277
_cell_angle_gamma 90.000000
_cell_volume 2965.706868
_symmetry_space_group_name_H-M "C 2/M"
_symmetry_group_IT_number 12
_symmetry_cell_setting 'monoclinic'
loop_
_space_group_symop_operation_xyz
x,y,z
-x,y,-z
-x,-y,-z
x,-y,z
1/2+x,1/2+y,z
1/2-x,1/2+y,-z
1/2-x,1/2-y,-z
1/2+x,1/2-y,z
loop_
_atom_site_type_symbol
_atom_site_label
_atom_site_fract_x
_atom_site_fract_y
_atom_site_fract_z
Si Si1 0.273428 0.602379 0.972643
Si Si2 0.594260 0.223712 0.138610
Si Si3 0.376831 0.898442 0.089815
Si Si4 0.360492 0.606764 0.539155
Si Si5 0.179551 0.219869 0.240632
Si Si6 0.310076 0.747283 0.307769
Si Si7 0.918968 0.107219 0.361490
O O1 0.323709 0.500000 0.975620
O O2 0.381864 0.683129 0.918484
O O3 0.232344 0.588693 0.915328
O O4 0.152208 0.634644 0.073385
O O5 0.664625 0.221741 0.179179
O O6 0.443534 0.213633 0.217328
O O7 0.311781 0.840115 0.178697
O O8 0.421730 0.000000 0.096867
O O9 0.500000 0.846315 0.000000
O O10 0.500000 0.641754 0.500000
O O11 0.339940 0.500000 0.572387
O O12 0.249444 0.669600 0.621206
O O13 0.346120 0.614846 0.465503
O O14 0.209477 0.281238 0.293970
O O15 0.057603 0.153871 0.306717
O O16 0.334130 0.656966 0.343127
O O17 0.938673 0.000000 0.330640
#
# Coordination Sequence:
#
# PCOD8087820 Si02
#       7
#     8   8   8   8   8   8   8
#     4   9  17  33  51  69 104 145 181 229 277 320
#     4   9  20  33  50  79 106 140 187 226 275 332
#     4   9  16  25  43  71 100 133 174 222 276 323
#     4  10  20  36  59  87 113 142 182 231 282 334
#     4  10  19  32  51  77 109 143 182 232 276 322
#     4  11  21  34  57  85 113 147 184 233 283 332
#     4  10  21  38  58  82 112 148 189 229 276 334
#
# _framework density 18.882515000000001
#
# number of rings (size 3 to 8) (size 9 to 14) (size 15 to 20)
#    0.000    2.286    1.429    1.714    0.000    4.571 
#    0.000    0.714    0.000    2.143    0.000    0.000 
#    0.000    0.000    0.000    0.000    0.000    0.000 
#
# Total GULP energy -346961.669971 kJ/mol
# GULP energy per Si atom -12391.488213 kJ/mol
# Density = 1.883954 g / cm^3
# Si number density = 18.882515 Si / 1000 Ang^3
#
#
#
# Elastic Constant Matrix: (Units=GPa)
#
#
# Indices 1 2 3 4 5 6 
#
# 1 93.8564 46.0486 22.8741 0.0000 11.8542 0.0000
# 2 46.0486 89.3114 42.6421 0.0000 -0.5059 0.0000
# 3 22.8741 42.6421 91.3633 0.0000 -7.7780 0.0000
# 4 0.0000 0.0000 0.0000 17.3347 0.0000 -3.3686
# 5 11.8542 -0.5059 -7.7780 0.0000 32.1136 0.0000
# 6 0.0000 0.0000 0.0000 -3.3686 0.0000 24.3010
#
#
#
# Elastic Compliance Matrix: (Units=1/GPa)
#
#
# Indices 1 2 3 4 5 6 
#
# 1 0.015304 -0.007531 -0.000825 0.000000 -0.005968 0.000000
# 2 -0.007531 0.018178 -0.006471 0.000000 0.001499 0.000000
# 3 -0.000825 -0.006471 0.014488 0.000000 0.003712 0.000000
# 4 0.000000 0.000000 0.000000 0.059285 0.000000 0.008218
# 5 -0.005968 0.001499 0.003712 0.000000 0.034265 0.000000
# 6 0.000000 0.000000 0.000000 0.008218 0.000000 0.042290
#
#
# Mechanical properties :
#
#
# Convention : Reuss Voigt Hill
#
# Bulk Modulus (GPa) = 54.59518 55.29562 54.94540
# Shear Modulus (GPa) = 22.77199 25.61429 24.19314
#
# Velocity S-wave (km/s) = 3.47649 3.68708 3.58333
# Velocity P-wave (km/s) = 6.71495 6.89011 6.80309
#
# Compressibility (1/GPa) = 0.01831663
#
# Stress axis : x y z
#
# Youngs Moduli (GPa) = 65.34199 55.01233 69.02230
#
# Poissons Ratio (x) = 0.41428 0.05693
# Poissons Ratio (y) = 0.49207 0.44665
# Poissons Ratio (z) = 0.05389 0.35599
#
# Static dielectric constant tensor:
#      x y z
#    x 3.421260 0.000000 0.152550 
#    y 0.000000 3.585620 0.000000 
#    z 0.152550 0.000000 3.582040 
# 
# 
# High freq. dielectric constant tensor:
#      x y z
#    x 1.719970 0.000000 0.008660 
#    y 0.000000 1.709150 0.000000 
#    z 0.008660 0.000000 1.747720 
# 
# From -- ./inp_files/310777.got.cif
#   From: 2010.06.25/outbox.cif.g09.slc.cpg/sg12_156_cif.got.tgz:310777.got - 2010.06.28 00:19:55.
