data_PCOD8087768
_publ_section_title
;
Structure prediction by ZEFSAII (Michael W. Deem and Ramdas Pophale) SiO2 
 PCOD8087768
Probable space group: C 2/M
;
_chemical_formula_sum "Si O2"
_cell_formula_units_Z 64
_cell_length_a 24.130528
_cell_length_b 24.041021
_cell_length_c 15.838881
_cell_angle_alpha 90.000000
_cell_angle_beta 156.959260
_cell_angle_gamma 90.000000
_cell_volume 3596.242906
_symmetry_space_group_name_H-M "C 2/M"
_symmetry_group_IT_number 12
_symmetry_cell_setting 'monoclinic'
loop_
_space_group_symop_operation_xyz
x,y,z
-x,y,-z
-x,-y,-z
x,-y,z
1/2+x,1/2+y,z
1/2-x,1/2+y,-z
1/2-x,1/2-y,-z
1/2+x,1/2-y,z
loop_
_atom_site_type_symbol
_atom_site_label
_atom_site_fract_x
_atom_site_fract_y
_atom_site_fract_z
Si Si1 0.283625 0.062471 0.350249
Si Si2 0.644371 0.561731 0.981317
Si Si3 0.739962 0.228547 0.852199
Si Si4 0.974947 0.832420 0.741915
Si Si5 0.642671 0.760453 0.530286
Si Si6 0.852136 0.158817 0.747661
Si Si7 0.107867 0.560460 0.799669
Si Si8 0.862192 0.321843 0.125615
O O1 0.178024 0.076223 0.125431
O O2 0.250458 0.106549 0.376998
O O3 0.444817 0.068423 0.543836
O O4 0.256501 0.000000 0.346404
O O5 0.576244 0.500000 0.877211
O O6 0.794397 0.562725 0.145211
O O7 0.531957 0.607362 0.789893
O O8 0.648678 0.237590 0.640225
O O9 0.667726 0.185383 0.815878
O O10 0.748131 0.288174 0.910656
O O11 0.893652 0.205182 0.042737
O O12 0.890967 0.802493 0.547428
O O13 0.867093 0.838486 0.668055
O O14 0.785782 0.783371 0.688493
O O15 0.518527 0.800589 0.324197
O O16 0.000000 0.148544 0.000000
O O17 0.127684 0.500000 0.873437
O O18 0.150831 0.613011 0.918506
#
# Coordination Sequence:
#
# PCOD8087768 Si02
#       8
#     8   8   8   8   8   8   8   8
#     4  10  20  32  50  76 104 139 174 207 259 316
#     4  10  19  32  51  76 107 136 168 212 259 315
#     4  10  20  35  53  80 105 132 168 213 261 313
#     4  11  22  35  52  76 103 139 178 209 262 307
#     4  11  22  36  53  74 105 138 174 219 255 308
#     4  12  21  34  51  72 106 143 174 218 253 300
#     4  10  19  32  52  78 106 135 168 209 257 312
#     4  10  20  33  56  80 104 133 170 208 261 315
#
# _framework density 17.79635
#
# number of rings (size 3 to 8) (size 9 to 14) (size 15 to 20)
#    0.000    1.500    5.000    1.125    0.000    3.250 
#    0.000    0.000    0.000    0.750    0.000    1.750 
#    0.000    2.500    0.000    0.000    0.000    0.000 
#
# Total GULP energy -396668.024215 kJ/mol
# GULP energy per Si atom -12395.875757 kJ/mol
# Density = 1.775584 g / cm^3
# Si number density = 17.796350 Si / 1000 Ang^3
#
#
#
# Elastic Constant Matrix: (Units=GPa)
#
#
# Indices 1 2 3 4 5 6 
#
# 1 71.8057 34.0515 20.7245 0.0000 13.1224 0.0000
# 2 34.0515 158.1788 34.8752 0.0000 0.8783 0.0000
# 3 20.7245 34.8752 42.4486 0.0000 6.4859 0.0000
# 4 0.0000 0.0000 0.0000 25.6306 0.0000 1.7429
# 5 13.1224 0.8783 6.4859 0.0000 22.6127 0.0000
# 6 0.0000 0.0000 0.0000 1.7429 0.0000 23.7481
#
#
#
# Elastic Compliance Matrix: (Units=1/GPa)
#
#
# Indices 1 2 3 4 5 6 
#
# 1 0.018425 -0.002733 -0.005368 0.000000 -0.009046 0.000000
# 2 -0.002733 0.008181 -0.005837 0.000000 0.002942 0.000000
# 3 -0.005368 -0.005837 0.031860 0.000000 -0.005796 0.000000
# 4 0.000000 0.000000 0.000000 0.039212 0.000000 -0.002878
# 5 -0.009046 0.002942 -0.005796 0.000000 0.051021 0.000000
# 6 0.000000 0.000000 0.000000 -0.002878 0.000000 0.042320
#
#
# Mechanical properties :
#
#
# Convention : Reuss Voigt Hill
#
# Bulk Modulus (GPa) = 32.68988 50.19282 41.44135
# Shear Modulus (GPa) = 21.82554 26.58372 24.20463
#
# Velocity S-wave (km/s) = 3.50581 3.86913 3.69194
# Velocity P-wave (km/s) = 5.89884 6.94445 6.44289
#
# Compressibility (1/GPa) = 0.03059051
#
# Stress axis : x y z
#
# Youngs Moduli (GPa) = 54.27444 122.23869 31.38756
#
# Poissons Ratio (x) = 0.33402 0.16850
# Poissons Ratio (y) = 0.14831 0.18320
# Poissons Ratio (z) = 0.29136 0.71346
#
# Static dielectric constant tensor:
#      x y z
#    x 3.176640 0.000000 0.242960 
#    y 0.000000 3.665380 0.000000 
#    z 0.242960 0.000000 3.074350 
# 
# 
# High freq. dielectric constant tensor:
#      x y z
#    x 1.671350 0.000000 0.034050 
#    y 0.000000 1.701360 0.000000 
#    z 0.034050 0.000000 1.655890 
# 
# From -- ./inp_files/135347.got.cif
#   From: 2010.06.25/outbox.cif.g09.slc.cpg/sg12_68_cif.got.tgz:135347.got - 2010.06.28 00:19:55.
