data_PCOD8087918
_publ_section_title
;
Structure prediction by ZEFSAII (Michael W. Deem and Ramdas Pophale) SiO2 
 PCOD8087918
Probable space group: C 2/M
;
_chemical_formula_sum "Si O2"
_cell_formula_units_Z 60
_cell_length_a 28.427659
_cell_length_b 20.656042
_cell_length_c 6.240455
_cell_angle_alpha 90.000000
_cell_angle_beta 87.830252
_cell_angle_gamma 90.000000
_cell_volume 3661.786171
_symmetry_space_group_name_H-M "C 2/M"
_symmetry_group_IT_number 12
_symmetry_cell_setting 'monoclinic'
loop_
_space_group_symop_operation_xyz
x,y,z
-x,y,-z
-x,-y,-z
x,-y,z
1/2+x,1/2+y,z
1/2-x,1/2+y,-z
1/2-x,1/2-y,-z
1/2+x,1/2-y,z
loop_
_atom_site_type_symbol
_atom_site_label
_atom_site_fract_x
_atom_site_fract_y
_atom_site_fract_z
Si Si1 0.723190 0.807562 0.128155
Si Si2 0.643127 0.273112 0.226438
Si Si3 0.761458 0.072968 0.867772
Si Si4 0.284938 0.654925 0.483716
Si Si5 0.547642 0.313550 0.366893
Si Si6 0.651848 0.387094 0.910329
Si Si7 0.566814 0.428843 0.667519
Si Si8 0.500000 0.627956 0.000000
O O1 0.666447 0.794308 0.140104
O O2 0.743474 0.807619 0.366398
O O3 0.750000 0.750000 0.000000
O O4 0.731169 0.877337 0.017217
O O5 0.684927 0.298502 0.370667
O O6 0.592217 0.263297 0.354415
O O7 0.635905 0.320712 0.026603
O O8 0.760632 0.097322 0.623532
O O9 0.740675 0.000000 0.885457
O O10 0.816006 0.071185 0.934728
O O11 0.319992 0.624343 0.309668
O O12 0.500000 0.288629 0.500000
O O13 0.570084 0.376954 0.476290
O O14 0.536989 0.326163 0.118091
O O15 0.606422 0.426079 0.843255
O O16 0.565792 0.500000 0.562616
O O17 0.519193 0.416593 0.806262
#
# Coordination Sequence:
#
# PCOD8087918 Si02
#       8
#     8   8   8   8   8   8   8   4
#     4  11  20  33  55  80 101 131 174 210 251 303
#     4  11  19  34  53  72  97 127 167 214 253 300
#     4  10  22  35  48  73 108 139 167 206 251 304
#     4  10  19  32  52  74  99 128 166 208 246 301
#     4  10  22  36  49  67  91 128 170 217 270 304
#     4  10  19  33  49  70  95 130 169 211 251 295
#     4  11  21  32  47  65  86 124 173 216 259 303
#     4  10  21  36  46  60  86 124 163 222 264 300
#
# _framework density 16.385445000000001
#
# number of rings (size 3 to 8) (size 9 to 14) (size 15 to 20)
#    0.000    1.600    6.667    1.000    0.000    5.600 
#    0.000    0.000    0.000    0.000    0.000    0.000 
#    0.000    0.533    0.000    1.933    0.000    0.000 
#
# Total GULP energy -371683.111812 kJ/mol
# GULP energy per Si atom -12389.437060 kJ/mol
# Density = 1.634815 g / cm^3
# Si number density = 16.385445 Si / 1000 Ang^3
#
#
#
# Elastic Constant Matrix: (Units=GPa)
#
#
# Indices 1 2 3 4 5 6 
#
# 1 101.0093 42.9670 23.2532 0.0000 -9.8011 0.0000
# 2 42.9670 70.6474 22.8382 0.0000 -4.3320 0.0000
# 3 23.2532 22.8382 79.9733 0.0000 4.1447 0.0000
# 4 0.0000 0.0000 0.0000 19.9964 0.0000 -2.0041
# 5 -9.8011 -4.3320 4.1447 0.0000 23.7432 0.0000
# 6 0.0000 0.0000 0.0000 -2.0041 0.0000 17.8034
#
#
#
# Elastic Compliance Matrix: (Units=1/GPa)
#
#
# Indices 1 2 3 4 5 6 
#
# 1 0.014089 -0.007567 -0.002185 0.000000 0.004817 0.000000
# 2 -0.007567 0.019980 -0.003565 0.000000 0.001144 0.000000
# 3 -0.002185 -0.003565 0.014368 0.000000 -0.004061 0.000000
# 4 0.000000 0.000000 0.000000 0.050580 0.000000 0.005694
# 5 0.004817 0.001144 -0.004061 0.000000 0.045023 0.000000
# 6 0.000000 0.000000 0.000000 0.005694 0.000000 0.056810
#
#
# Mechanical properties :
#
#
# Convention : Reuss Voigt Hill
#
# Bulk Modulus (GPa) = 45.86604 47.74967 46.80786
# Shear Modulus (GPa) = 21.29908 23.14671 22.22289
#
# Velocity S-wave (km/s) = 3.60929 3.76259 3.68674
# Velocity P-wave (km/s) = 6.73959 6.93404 6.83750
#
# Compressibility (1/GPa) = 0.02180262
#
# Stress axis : x y z
#
# Youngs Moduli (GPa) = 70.97486 50.05101 69.59913
#
# Poissons Ratio (x) = 0.37875 0.15210
# Poissons Ratio (y) = 0.53709 0.24810
# Poissons Ratio (z) = 0.15510 0.17841
#
# Static dielectric constant tensor:
#      x y z
#    x 3.256720 0.000000 0.126050 
#    y 0.000000 2.799760 0.000000 
#    z 0.126050 0.000000 3.457230 
# 
# 
# High freq. dielectric constant tensor:
#      x y z
#    x 1.619610 0.000000 0.002090 
#    y 0.000000 1.577920 0.000000 
#    z 0.002090 0.000000 1.650640 
# 
# From -- ./inp_files/32263.got.cif
#   From: 2010.06.25/outbox.cif.g09.slc.cpg/sg12_17_cif.got.tgz:32263.got - 2010.06.28 00:19:55.
