data_PCOD8087934
_publ_section_title
;
Structure prediction by ZEFSAII (Michael W. Deem and Ramdas Pophale) SiO2 
 PCOD8087934
Probable space group: C 2/M
;
_chemical_formula_sum "Si O2"
_cell_formula_units_Z 64
_cell_length_a 20.908881
_cell_length_b 8.897883
_cell_length_c 17.191098
_cell_angle_alpha 90.000000
_cell_angle_beta 89.841741
_cell_angle_gamma 90.000000
_cell_volume 3198.301790
_symmetry_space_group_name_H-M "C 2/M"
_symmetry_group_IT_number 12
_symmetry_cell_setting 'monoclinic'
loop_
_space_group_symop_operation_xyz
x,y,z
-x,y,-z
-x,-y,-z
x,-y,z
1/2+x,1/2+y,z
1/2-x,1/2+y,-z
1/2-x,1/2-y,-z
1/2+x,1/2-y,z
loop_
_atom_site_type_symbol
_atom_site_label
_atom_site_fract_x
_atom_site_fract_y
_atom_site_fract_z
Si Si1 0.615628 0.823286 0.341724
Si Si2 0.823480 0.173945 0.915392
Si Si3 0.193165 0.826704 0.902896
Si Si4 0.071093 0.179344 0.803512
Si Si5 0.070634 0.161609 0.482601
Si Si6 0.378454 0.324326 0.360011
Si Si7 0.564732 0.179305 0.177888
Si Si8 0.744148 0.824799 0.415860
O O1 0.567849 0.770544 0.408840
O O2 0.592184 0.758073 0.259648
O O3 0.684477 0.758929 0.367746
O O4 0.616338 0.000000 0.335028
O O5 0.757551 0.237398 0.878384
O O6 0.886181 0.262601 0.887055
O O7 0.829744 0.000000 0.892586
O O8 0.822302 0.198978 0.007273
O O9 0.131402 0.769011 0.855537
O O10 0.206849 0.000000 0.883255
O O11 0.085851 0.240789 0.716067
O O12 0.006245 0.254403 0.835641
O O13 0.063317 0.000000 0.806379
O O14 0.099301 0.247905 0.558006
O O15 0.000000 0.116061 0.500000
O O16 0.106703 0.000000 0.466463
O O17 0.394341 0.500000 0.363529
O O18 0.302803 0.293397 0.357139
O O19 0.560593 0.000000 0.174196
O O20 0.750000 0.750000 0.500000
O O21 0.735158 0.000000 0.432355
#
# Coordination Sequence:
#
# PCOD8087934 Si02
#       8
#     8   8   8   8   8   8   8   8
#     4  10  22  36  53  77 108 145 186 233 284 340
#     4  10  21  39  63  92 122 154 194 235 281 346
#     4   9  20  39  65  93 121 154 191 234 287 345
#     4  10  21  39  63  87 115 154 195 239 290 348
#     4  10  19  32  52  75 102 140 184 227 275 333
#     4   9  18  32  53  79 107 142 183 229 281 340
#     4  11  24  40  58  84 119 157 197 244 293 343
#     4  10  19  34  54  78 104 139 186 234 286 344
#
# _framework density 20.010618000000001
#
# number of rings (size 3 to 8) (size 9 to 14) (size 15 to 20)
#    0.000    2.125    1.250    1.500    1.750    3.750 
#    0.000    3.750    0.000    0.000    0.000    0.000 
#    0.000    0.000    0.000    0.000    0.000    0.000 
#
# Total GULP energy -396617.526261 kJ/mol
# GULP energy per Si atom -12394.297696 kJ/mol
# Density = 1.996507 g / cm^3
# Si number density = 20.010618 Si / 1000 Ang^3
#
#
#
# Elastic Constant Matrix: (Units=GPa)
#
#
# Indices 1 2 3 4 5 6 
#
# 1 120.5402 38.3485 31.0150 0.0000 -6.7953 0.0000
# 2 38.3485 40.8800 23.9914 0.0000 -0.5928 0.0000
# 3 31.0150 23.9914 64.6537 0.0000 1.5116 0.0000
# 4 0.0000 0.0000 0.0000 29.1365 0.0000 -7.4132
# 5 -6.7953 -0.5928 1.5116 0.0000 35.9530 0.0000
# 6 0.0000 0.0000 0.0000 -7.4132 0.0000 38.2127
#
#
#
# Elastic Compliance Matrix: (Units=1/GPa)
#
#
# Indices 1 2 3 4 5 6 
#
# 1 0.012204 -0.010163 -0.002135 0.000000 0.002229 0.000000
# 2 -0.010163 0.039772 -0.009863 0.000000 -0.000850 0.000000
# 3 -0.002135 -0.009863 0.020184 0.000000 -0.001415 0.000000
# 4 0.000000 0.000000 0.000000 0.036103 0.000000 0.007004
# 5 0.002229 -0.000850 -0.001415 0.000000 0.028281 0.000000
# 6 0.000000 0.000000 0.000000 0.007004 0.000000 0.027528
#
#
# Mechanical properties :
#
#
# Convention : Reuss Voigt Hill
#
# Bulk Modulus (GPa) = 35.92302 45.86488 40.89395
# Shear Modulus (GPa) = 22.97005 29.50838 26.23922
#
# Velocity S-wave (km/s) = 3.39173 3.84426 3.62507
# Velocity P-wave (km/s) = 5.77316 6.53257 6.16457
#
# Compressibility (1/GPa) = 0.02783731
#
# Stress axis : x y z
#
# Youngs Moduli (GPa) = 81.93803 25.14353 49.54314
#
# Poissons Ratio (x) = 0.25554 0.10579
# Poissons Ratio (y) = 0.83274 0.48865
# Poissons Ratio (z) = 0.17497 0.24799
#
# Static dielectric constant tensor:
#      x y z
#    x 3.864460 0.000000 0.158220 
#    y 0.000000 3.402050 0.000000 
#    z 0.158220 0.000000 3.750110 
# 
# 
# High freq. dielectric constant tensor:
#      x y z
#    x 1.794640 0.000000 0.003050 
#    y 0.000000 1.756520 0.000000 
#    z 0.003050 0.000000 1.779090 
# 
# From -- ./inp_files/281237.got.cif
#   From: 2010.06.25/outbox.cif.g09.slc.cpg/sg12_141_cif.got.tgz:281237.got - 2010.06.28 00:19:55.
