data_PCOD8087063
_publ_section_title
;
Structure prediction by ZEFSAII (Michael W. Deem and Ramdas Pophale) SiO2 
 PCOD8087063
Probable space group: C 2/M
;
_chemical_formula_sum "Si O2"
_cell_formula_units_Z 64
_cell_length_a 10.812798
_cell_length_b 17.630182
_cell_length_c 23.281481
_cell_angle_alpha 90.000000
_cell_angle_beta 53.970892
_cell_angle_gamma 90.000000
_cell_volume 3589.242052
_symmetry_space_group_name_H-M "C 2/M"
_symmetry_group_IT_number 12
_symmetry_cell_setting 'monoclinic'
loop_
_space_group_symop_operation_xyz
x,y,z
-x,y,-z
-x,-y,-z
x,-y,z
1/2+x,1/2+y,z
1/2-x,1/2+y,-z
1/2-x,1/2-y,-z
1/2+x,1/2-y,z
loop_
_atom_site_type_symbol
_atom_site_label
_atom_site_fract_x
_atom_site_fract_y
_atom_site_fract_z
Si Si1 0.134827 0.687047 0.009184
Si Si2 0.190169 0.341601 0.406986
Si Si3 0.665072 0.666173 0.429350
Si Si4 0.686228 0.582659 0.120528
Si Si5 0.715983 0.587024 0.297574
Si Si6 0.374341 0.088914 0.462227
Si Si7 0.549668 0.083631 0.859530
Si Si8 0.458806 0.412244 0.274129
O O1 0.065906 0.646851 0.084668
O O2 0.250000 0.750000 0.000000
O O3 0.255613 0.632116 0.947070
O O4 0.000000 0.711727 0.000000
O O5 0.198484 0.255120 0.425605
O O6 0.223918 0.394675 0.453308
O O7 0.313964 0.358759 0.324303
O O8 0.026741 0.360939 0.424671
O O9 0.500000 0.645893 0.500000
O O10 0.683538 0.643302 0.358418
O O11 0.786876 0.616489 0.430319
O O12 0.650692 0.500000 0.104364
O O13 0.813044 0.574593 0.134166
O O14 0.533082 0.614628 0.193205
O O15 0.721048 0.500000 0.317505
O O16 0.877494 0.607682 0.221925
O O17 0.577500 0.600267 0.292481
O O18 0.412337 0.000000 0.447214
O O19 0.470407 0.000000 0.875913
O O20 0.408664 0.500000 0.283979
#
# Coordination Sequence:
#
# PCOD8087063 Si02
#       8
#     8   8   8   8   8   8   8   8
#     4  10  19  31  53  80 112 142 174 219 268 319
#     4  11  22  36  56  75 107 142 176 220 276 323
#     4  12  24  36  55  79 110 137 177 226 281 319
#     4   8  15  29  52  82 103 131 180 226 253 302
#     4   9  19  34  54  80 106 134 173 222 270 325
#     4  11  23  39  57  77 102 141 187 223 263 331
#     4   8  15  31  54  78 103 137 179 219 261 308
#     4   9  17  32  56  79 104 135 175 219 267 318
#
# _framework density 17.831063
#
# number of rings (size 3 to 8) (size 9 to 14) (size 15 to 20)
#    0.000    2.250    1.250    4.875    1.750    4.500 
#    0.000    0.000    2.750    1.500    0.000    0.000 
#    0.000    0.000    0.000    0.000    0.000    0.000 
#
# Total GULP energy -396576.353473 kJ/mol
# GULP energy per Si atom -12393.011046 kJ/mol
# Density = 1.779048 g / cm^3
# Si number density = 17.831063 Si / 1000 Ang^3
#
#
#
# Elastic Constant Matrix: (Units=GPa)
#
#
# Indices 1 2 3 4 5 6 
#
# 1 39.6520 29.9911 29.1026 0.0000 -2.8516 0.0001
# 2 29.9911 81.9929 49.5123 0.0000 -4.0991 0.0000
# 3 29.1026 49.5123 139.0963 0.0000 -12.0061 0.0001
# 4 0.0000 0.0000 0.0000 20.3448 0.0000 -7.7754
# 5 -2.8516 -4.0991 -12.0061 0.0000 20.2200 -0.0001
# 6 0.0001 0.0000 0.0001 -7.7754 -0.0001 23.1747
#
#
#
# Elastic Compliance Matrix: (Units=1/GPa)
#
#
# Indices 1 2 3 4 5 6 
#
# 1 0.036275 -0.011065 -0.003587 0.000000 0.000743 0.000000
# 2 -0.011065 0.018911 -0.004448 0.000000 -0.000368 0.000000
# 3 -0.003587 -0.004448 0.009909 0.000000 0.004476 0.000000
# 4 0.000000 0.000000 0.000000 0.056382 0.000000 0.018917
# 5 0.000743 -0.000368 0.004476 0.000000 0.052144 0.000000
# 6 0.000000 0.000000 0.000000 0.018917 0.000000 0.049497
#
#
# Mechanical properties :
#
#
# Convention : Reuss Voigt Hill
#
# Bulk Modulus (GPa) = 37.18185 53.10589 45.14387
# Shear Modulus (GPa) = 18.49899 22.89025 20.69462
#
# Velocity S-wave (km/s) = 3.22445 3.58680 3.41044
# Velocity P-wave (km/s) = 5.89579 6.85573 6.39380
#
# Compressibility (1/GPa) = 0.02689484
#
# Stress axis : x y z
#
# Youngs Moduli (GPa) = 27.56742 52.87824 100.91386
#
# Poissons Ratio (x) = 0.58512 0.36194
# Poissons Ratio (y) = 0.30505 0.44889
# Poissons Ratio (z) = 0.09888 0.23521
#
# Static dielectric constant tensor:
#      x y z
#    x 2.987250 0.000000 -0.076920 
#    y 0.000000 16.348880 0.000000 
#    z -0.076920 0.000000 3.942740 
# 
# 
# High freq. dielectric constant tensor:
#      x y z
#    x 1.654700 0.000000 -0.008080 
#    y 0.000000 1.686920 0.000000 
#    z -0.008080 0.000000 1.705290 
# 
# From -- ./inp_files/336274.got.cif
#   From: 2010.06.25/outbox.cif.g09.slc.cpg/sg12_169_cif.got.tgz:336274.got - 2010.06.28 00:19:55.
