data_PCOD8087174
_publ_section_title
;
Structure prediction by ZEFSAII (Michael W. Deem and Ramdas Pophale) SiO2 
 PCOD8087174
Probable space group: C 2/M
;
_chemical_formula_sum "Si O2"
_cell_formula_units_Z 48
_cell_length_a 19.724769
_cell_length_b 13.850986
_cell_length_c 14.505349
_cell_angle_alpha 90.000000
_cell_angle_beta 142.263667
_cell_angle_gamma 90.000000
_cell_volume 2425.451281
_symmetry_space_group_name_H-M "C 2/M"
_symmetry_group_IT_number 12
_symmetry_cell_setting 'monoclinic'
loop_
_space_group_symop_operation_xyz
x,y,z
-x,y,-z
-x,-y,-z
x,-y,z
1/2+x,1/2+y,z
1/2-x,1/2+y,-z
1/2-x,1/2-y,-z
1/2+x,1/2-y,z
loop_
_atom_site_type_symbol
_atom_site_label
_atom_site_fract_x
_atom_site_fract_y
_atom_site_fract_z
Si Si1 0.902022 0.500000 0.282334
Si Si2 0.286924 0.792187 0.896003
Si Si3 0.955189 0.710214 0.356016
Si Si4 0.496019 0.291079 0.777042
Si Si5 0.189409 0.000000 0.180925
Si Si6 0.226710 0.500000 0.037296
Si Si7 0.119453 0.197474 0.171102
Si Si8 0.560295 0.500000 0.859512
O O1 0.973499 0.595229 0.378243
O O2 0.800496 0.500000 0.242342
O O3 0.872144 0.500000 0.142116
O O4 0.172476 0.739073 0.798718
O O5 0.313164 0.776206 0.816025
O O6 0.281099 0.906190 0.906488
O O7 0.381021 0.741382 0.058829
O O8 0.029582 0.748702 0.351287
O O9 0.000000 0.755272 0.500000
O O10 0.399877 0.260140 0.746419
O O11 0.487733 0.406283 0.761424
O O12 0.184531 0.095285 0.239490
O O13 0.091223 0.000000 0.000456
O O14 0.339347 0.500000 0.103204
O O15 0.000000 0.177523 0.000000
#
# Coordination Sequence:
#
# PCOD8087174 Si02
#       8
#     4   8   8   8   4   4   8   4
#     4  11  21  36  62  89 114 151 189 251 283 331
#     4  11  20  38  58  85 118 152 192 233 291 343
#     4  12  24  40  59  86 119 157 195 235 285 345
#     4  11  21  36  58  90 117 147 196 241 293 337
#     4  11  16  29  58  91 118 138 183 249 306 320
#     4  11  20  32  62  90 112 149 197 240 286 341
#     4  10  19  31  55  89 121 145 184 241 293 341
#     4  11  17  28  56  88 117 137 182 253 285 329
#
# _framework density 19.790132
#
# number of rings (size 3 to 8) (size 9 to 14) (size 15 to 20)
#    0.000    1.000    8.333    2.500    0.000    0.000 
#    0.000    7.083    0.000    0.000    0.000    0.000 
#    0.000    0.000    0.000    0.000    0.000    0.000 
#
# Total GULP energy -297564.180894 kJ/mol
# GULP energy per Si atom -12398.507537 kJ/mol
# Density = 1.974509 g / cm^3
# Si number density = 19.790132 Si / 1000 Ang^3
#
#
#
# Elastic Constant Matrix: (Units=GPa)
#
#
# Indices 1 2 3 4 5 6 
#
# 1 151.8275 53.3203 31.9293 0.0000 -41.7946 0.0000
# 2 53.3203 117.6450 17.5303 0.0000 -14.3420 0.0000
# 3 31.9293 17.5303 38.5175 0.0000 -24.4792 0.0000
# 4 0.0000 0.0000 0.0000 5.7100 0.0000 -3.3927
# 5 -41.7946 -14.3420 -24.4792 0.0000 28.2556 0.0000
# 6 0.0000 0.0000 0.0000 -3.3927 0.0000 35.2696
#
#
#
# Elastic Compliance Matrix: (Units=1/GPa)
#
#
# Indices 1 2 3 4 5 6 
#
# 1 0.012703 -0.003894 0.004289 0.000000 0.020529 0.000000
# 2 -0.003894 0.010380 -0.004024 0.000000 -0.003977 0.000000
# 3 0.004289 -0.004024 0.060017 0.000000 0.056297 0.000000
# 4 0.000000 0.000000 0.000000 0.185749 0.000000 0.017868
# 5 0.020529 -0.003977 0.056297 0.000000 0.112512 0.000000
# 6 0.000000 0.000000 0.000000 0.017868 0.000000 0.030072
#
#
# Mechanical properties :
#
#
# Convention : Reuss Voigt Hill
#
# Bulk Modulus (GPa) = 13.18525 57.06107 35.12316
# Shear Modulus (GPa) = 11.26200 27.52772 19.39486
#
# Velocity S-wave (km/s) = 2.38811 3.73363 3.13393
# Velocity P-wave (km/s) = 3.77903 6.89075 5.55713
#
# Compressibility (1/GPa) = 0.07584232
#
# Stress axis : x y z
#
# Youngs Moduli (GPa) = 78.72034 96.34189 16.66191
#
# Poissons Ratio (x) = 0.37514 -0.07146
# Poissons Ratio (y) = 0.30653 0.06705
# Poissons Ratio (z) = -0.33762 0.38767
#
# Static dielectric constant tensor:
#      x y z
#    x 4.089150 0.000000 -0.209930 
#    y 0.000000 3.756570 0.000000 
#    z -0.209930 0.000000 3.128740 
# 
# 
# High freq. dielectric constant tensor:
#      x y z
#    x 1.788100 0.000000 -0.013070 
#    y 0.000000 1.769360 0.000000 
#    z -0.013070 0.000000 1.716150 
# 
# From -- ./inp_files/232854.got.cif
#   From: 2010.06.25/outbox.cif.g09.slc.cpg/sg12_117_cif.got.tgz:232854.got - 2010.06.28 00:19:55.
