data_PCOD8087508
_publ_section_title
;
Structure prediction by ZEFSAII (Michael W. Deem and Ramdas Pophale) SiO2 
 PCOD8087508
Probable space group: C 2/M
;
_chemical_formula_sum "Si O2"
_cell_formula_units_Z 60
_cell_length_a 11.718147
_cell_length_b 23.219351
_cell_length_c 16.477471
_cell_angle_alpha 90.000000
_cell_angle_beta 132.620870
_cell_angle_gamma 90.000000
_cell_volume 3299.051958
_symmetry_space_group_name_H-M "C 2/M"
_symmetry_group_IT_number 12
_symmetry_cell_setting 'monoclinic'
loop_
_space_group_symop_operation_xyz
x,y,z
-x,y,-z
-x,-y,-z
x,-y,z
1/2+x,1/2+y,z
1/2-x,1/2+y,-z
1/2-x,1/2-y,-z
1/2+x,1/2-y,z
loop_
_atom_site_type_symbol
_atom_site_label
_atom_site_fract_x
_atom_site_fract_y
_atom_site_fract_z
Si Si1 0.382235 0.431701 0.012137
Si Si2 0.742407 0.362377 0.376908
Si Si3 0.216705 0.933464 0.701519
Si Si4 0.457298 0.066059 0.205779
Si Si5 0.500000 0.643999 0.500000
Si Si6 0.485212 0.848087 0.363347
Si Si7 0.038773 0.932963 0.773147
Si Si8 0.587787 0.726223 0.395812
O O1 0.399205 0.500000 0.022355
O O2 0.205484 0.413216 0.909410
O O3 0.500000 0.406911 0.000000
O O4 0.422082 0.405247 0.119935
O O5 0.821370 0.358578 0.327755
O O6 0.641685 0.420658 0.334544
O O7 0.616104 0.310518 0.327303
O O8 0.871035 0.359998 0.508357
O O9 0.403850 0.927672 0.792854
O O10 0.145990 0.896678 0.592619
O O11 0.151080 0.909294 0.755743
O O12 0.167478 0.000000 0.665053
O O13 0.503120 0.106640 0.301325
O O14 0.444995 0.000000 0.230558
O O15 0.527778 0.684514 0.436937
O O16 0.478571 0.781755 0.328686
O O17 0.065461 0.000000 0.792101
O O18 0.750000 0.750000 0.500000
#
# Coordination Sequence:
#
# PCOD8087508 Si02
#       8
#     8   8   8   8   4   8   8   8
#     4   9  18  34  56  78 103 140 182 223 270 325
#     4  10  19  34  50  77 107 139 176 217 271 324
#     4  10  21  33  51  81 112 148 182 219 270 323
#     4  10  21  36  54  79 108 141 181 225 273 322
#     4  12  19  34  54  76 113 150 180 220 260 318
#     4  10  21  34  52  78 109 138 179 223 271 323
#     4  10  20  34  53  80 110 142 180 220 268 323
#     4  10  19  32  50  75 103 142 182 221 260 313
#
# _framework density 18.187042000000002
#
# number of rings (size 3 to 8) (size 9 to 14) (size 15 to 20)
#    0.000    2.000    1.333    4.200    0.000    2.667 
#    0.000    4.000    0.000    0.800    0.000    0.000 
#    0.000    0.000    0.000    0.000    0.000    0.000 
#
# Total GULP energy -371796.805962 kJ/mol
# GULP energy per Si atom -12393.226865 kJ/mol
# Density = 1.814565 g / cm^3
# Si number density = 18.187042 Si / 1000 Ang^3
#
#
#
# Elastic Constant Matrix: (Units=GPa)
#
#
# Indices 1 2 3 4 5 6 
#
# 1 143.4720 36.5767 43.4519 0.0001 3.2627 0.0000
# 2 36.5767 55.1214 28.5504 0.0000 -3.7429 0.0000
# 3 43.4519 28.5504 62.0519 0.0002 2.9471 0.0001
# 4 0.0001 0.0000 0.0002 5.9102 0.0001 -1.3234
# 5 3.2627 -3.7429 2.9471 0.0001 28.9721 0.0001
# 6 0.0000 0.0000 0.0001 -1.3234 0.0001 24.6154
#
#
#
# Elastic Compliance Matrix: (Units=1/GPa)
#
#
# Indices 1 2 3 4 5 6 
#
# 1 0.009423 -0.003852 -0.004775 0.000000 -0.001073 0.000000
# 2 -0.003852 0.025916 -0.009452 0.000000 0.004743 0.000000
# 3 -0.004775 -0.009452 0.023956 -0.000001 -0.003120 0.000000
# 4 0.000000 0.000000 -0.000001 0.171260 -0.000001 0.009207
# 5 -0.001073 0.004743 -0.003120 -0.000001 0.035567 0.000000
# 6 0.000000 0.000000 0.000000 0.009207 0.000000 0.041120
#
#
# Mechanical properties :
#
#
# Convention : Reuss Voigt Hill
#
# Bulk Modulus (GPa) = 43.22100 53.08926 48.15513
# Shear Modulus (GPa) = 14.24051 22.03731 18.13891
#
# Velocity S-wave (km/s) = 2.80126 3.48473 3.16152
# Velocity P-wave (km/s) = 5.85483 6.74131 6.31364
#
# Compressibility (1/GPa) = 0.02313690
#
# Stress axis : x y z
#
# Youngs Moduli (GPa) = 106.12802 38.58678 41.74323
#
# Poissons Ratio (x) = 0.14865 0.19931
# Poissons Ratio (y) = 0.40883 0.39454
# Poissons Ratio (z) = 0.50674 0.36471
#
# Static dielectric constant tensor:
#      x y z
#    x 3.805140 0.000000 -0.095470 
#    y 0.000000 3.772920 0.000000 
#    z -0.095470 0.000000 3.221070 
# 
# 
# High freq. dielectric constant tensor:
#      x y z
#    x 1.729190 0.000000 -0.000200 
#    y 0.000000 1.688630 0.000000 
#    z -0.000200 0.000000 1.671440 
# 
# From -- ./inp_files/135388.got.cif
#   From: 2010.06.25/outbox.cif.g09.slc.cpg/sg12_68_cif.got.tgz:135388.got - 2010.06.28 00:19:55.
