data_PCOD8087444
_publ_section_title
;
Structure prediction by ZEFSAII (Michael W. Deem and Ramdas Pophale) SiO2 
 PCOD8087444
Probable space group: C 2/M
;
_chemical_formula_sum "Si O2"
_cell_formula_units_Z 36
_cell_length_a 15.633923
_cell_length_b 27.755640
_cell_length_c 11.740619
_cell_angle_alpha 90.000000
_cell_angle_beta 23.939529
_cell_angle_gamma 90.000000
_cell_volume 2067.247838
_symmetry_space_group_name_H-M "C 2/M"
_symmetry_group_IT_number 12
_symmetry_cell_setting 'monoclinic'
loop_
_space_group_symop_operation_xyz
x,y,z
-x,y,-z
-x,-y,-z
x,-y,z
1/2+x,1/2+y,z
1/2-x,1/2+y,-z
1/2-x,1/2-y,-z
1/2+x,1/2-y,z
loop_
_atom_site_type_symbol
_atom_site_label
_atom_site_fract_x
_atom_site_fract_y
_atom_site_fract_z
Si Si1 0.000000 0.698602 0.500000
Si Si2 0.159837 0.322851 0.541389
Si Si3 0.950331 0.241817 0.936953
Si Si4 0.408852 0.918793 0.236037
Si Si5 0.119981 0.000000 0.526069
Si Si6 0.303487 0.000000 0.051352
O O1 0.074817 0.666317 0.516776
O O2 0.202517 0.731401 0.221593
O O3 0.404752 0.306519 0.247299
O O4 0.138985 0.369629 0.642990
O O5 0.012855 0.279875 0.765171
O O6 0.000000 0.265227 0.000000
O O7 0.197198 0.950710 0.489860
O O8 0.500000 0.907455 0.000000
O O9 0.567709 0.950641 0.118310
O O10 0.205778 0.000000 0.294705
O O11 0.868722 0.000000 0.838199
#
# Coordination Sequence:
#
# PCOD8087444 Si02
#       6
#     4   8   8   8   4   4
#     4  10  20  34  48  67  98 131 160 194 234 278
#     4  10  19  32  50  72  96 127 162 195 233 280
#     4   9  19  34  50  69  97 127 159 199 238 275
#     4   9  17  29  48  73  98 123 154 192 235 284
#     4   8  15  29  46  67  98 125 149 190 242 283
#     4   8  15  29  46  69  97 122 150 192 242 284
#
# _framework density 17.414458
#
# number of rings (size 3 to 8) (size 9 to 14) (size 15 to 20)
#    0.000    2.889    0.000    2.667    0.000    1.778 
#    0.000    4.444    0.000    2.667    0.000   29.556 
#    0.000    0.000    0.000    0.000    0.000    0.000 
#
# Total GULP energy -223048.756716 kJ/mol
# GULP energy per Si atom -12391.597595 kJ/mol
# Density = 1.737482 g / cm^3
# Si number density = 17.414458 Si / 1000 Ang^3
#
#
#
# Elastic Constant Matrix: (Units=GPa)
#
#
# Indices 1 2 3 4 5 6 
#
# 1 98.3302 59.5141 46.9772 -0.0005 -15.5746 0.0023
# 2 59.5141 108.3321 46.8139 -0.0060 -7.2856 0.0075
# 3 46.9772 46.8139 106.6924 0.0029 -25.8735 0.0651
# 4 -0.0005 -0.0060 0.0029 20.1294 -0.0020 10.4844
# 5 -15.5746 -7.2856 -25.8735 -0.0020 36.7660 0.0080
# 6 0.0023 0.0075 0.0651 10.4844 0.0080 20.5620
#
#
#
# Elastic Compliance Matrix: (Units=1/GPa)
#
#
# Indices 1 2 3 4 5 6 
#
# 1 0.016884 -0.007636 -0.003275 -0.000008 0.003334 0.000014
# 2 -0.007636 0.014915 -0.003919 0.000000 -0.003037 0.000009
# 3 -0.003275 -0.003919 0.014481 0.000030 0.008027 -0.000062
# 4 -0.000008 0.000000 0.000030 0.067643 0.000029 -0.034491
# 5 0.003334 -0.003037 0.008027 0.000029 0.033658 -0.000052
# 6 0.000014 0.000009 -0.000062 -0.034491 -0.000052 0.066221
#
#
# Mechanical properties :
#
#
# Convention : Reuss Voigt Hill
#
# Bulk Modulus (GPa) = 60.16674 68.88499 64.52587
# Shear Modulus (GPa) = 20.08012 26.16145 23.12079
#
# Velocity S-wave (km/s) = 3.39938 3.88013 3.64768
# Velocity P-wave (km/s) = 7.07337 7.72761 7.40772
#
# Compressibility (1/GPa) = 0.01662048
#
# Stress axis : x y z
#
# Youngs Moduli (GPa) = 59.22613 67.04633 69.05754
#
# Poissons Ratio (x) = 0.51198 0.22617
# Poissons Ratio (y) = 0.45226 0.27060
# Poissons Ratio (z) = 0.19397 0.26272
#
# Static dielectric constant tensor:
#      x y z
#    x 3.523140 -0.000020 -0.383450 
#    y -0.000020 2.941460 0.000020 
#    z -0.383450 0.000020 3.577920 
# 
# 
# High freq. dielectric constant tensor:
#      x y z
#    x 1.670660 0.000000 -0.014900 
#    y 0.000000 1.650700 0.000000 
#    z -0.014900 0.000000 1.669880 
# 
# From -- ./inp_files/149105.got.cif
#   From: 2010.06.25/outbox.cif.g09.slc.cpg/sg12_75_cif.got.tgz:149105.got - 2010.06.28 00:19:55.
