data_PCOD8087877
_publ_section_title
;
Structure prediction by ZEFSAII (Michael W. Deem and Ramdas Pophale) SiO2 
 PCOD8087877
Probable space group: C 2/M
;
_chemical_formula_sum "Si O2"
_cell_formula_units_Z 56
_cell_length_a 23.803240
_cell_length_b 8.562632
_cell_length_c 15.233552
_cell_angle_alpha 90.000000
_cell_angle_beta 119.249670
_cell_angle_gamma 90.000000
_cell_volume 2709.002360
_symmetry_space_group_name_H-M "C 2/M"
_symmetry_group_IT_number 12
_symmetry_cell_setting 'monoclinic'
loop_
_space_group_symop_operation_xyz
x,y,z
-x,y,-z
-x,-y,-z
x,-y,z
1/2+x,1/2+y,z
1/2-x,1/2+y,-z
1/2-x,1/2-y,-z
1/2+x,1/2-y,z
loop_
_atom_site_type_symbol
_atom_site_label
_atom_site_fract_x
_atom_site_fract_y
_atom_site_fract_z
Si Si1 0.187472 0.814404 0.177248
Si Si2 0.123602 0.177129 0.298831
Si Si3 0.179693 0.185359 0.695291
Si Si4 0.981630 0.179531 0.213668
Si Si5 0.307321 0.316699 0.488367
Si Si6 0.459592 0.815160 0.383266
Si Si7 0.936952 0.683347 0.007620
O O1 0.168535 0.742614 0.259110
O O2 0.256735 0.741060 0.202362
O O3 0.193518 0.000000 0.179779
O O4 0.129138 0.766044 0.070308
O O5 0.132010 0.237289 0.405410
O O6 0.049906 0.191806 0.216412
O O7 0.147525 0.000000 0.317589
O O8 0.186342 0.257451 0.602520
O O9 0.113698 0.256609 0.680084
O O10 0.174183 0.000000 0.696160
O O11 0.990132 0.253420 0.316342
O O12 0.938232 0.276122 0.112664
O O13 0.958449 0.000000 0.204393
O O14 0.300487 0.500000 0.469448
O O15 0.250000 0.250000 0.500000
O O16 0.500000 0.751884 0.500000
O O17 0.460916 0.000000 0.385734
O O18 0.929646 0.500000 0.988858
O O19 0.000000 0.742221 0.000000
#
# Coordination Sequence:
#
# PCOD8087877 Si02
#       7
#     8   8   8   8   8   8   8
#     4  11  21  37  61  89 125 165 207 254 312 377
#     4   9  18  32  54  85 121 158 199 247 304 367
#     4  11  23  39  61  90 125 166 211 261 317 376
#     4  11  22  40  66  93 123 164 214 263 315 376
#     4  10  19  32  51  81 118 155 197 244 300 365
#     4  11  25  45  67  93 126 168 215 263 314 373
#     4  11  23  39  61  93 132 168 210 263 316 374
#
# _framework density 20.671817999999998
#
# number of rings (size 3 to 8) (size 9 to 14) (size 15 to 20)
#    0.000    1.429    2.857    3.000    0.000    3.429 
#    0.000    2.143    0.000    0.000    0.000    0.000 
#    0.000    0.000    0.000    0.000    0.000    0.000 
#
# Total GULP energy -346884.625333 kJ/mol
# GULP energy per Si atom -12388.736619 kJ/mol
# Density = 2.062477 g / cm^3
# Si number density = 20.671818 Si / 1000 Ang^3
#
#
#
# Elastic Constant Matrix: (Units=GPa)
#
#
# Indices 1 2 3 4 5 6 
#
# 1 78.4199 19.4882 28.7160 0.0000 12.2596 0.0000
# 2 19.4882 65.0573 17.2393 0.0000 -0.0026 0.0000
# 3 28.7160 17.2393 100.5231 0.0000 3.1593 0.0000
# 4 0.0000 0.0000 0.0000 30.2424 0.0000 0.8273
# 5 12.2596 -0.0026 3.1593 0.0000 33.9877 0.0000
# 6 0.0000 0.0000 0.0000 0.8273 0.0000 29.9331
#
#
#
# Elastic Compliance Matrix: (Units=1/GPa)
#
#
# Indices 1 2 3 4 5 6 
#
# 1 0.015896 -0.003775 -0.003724 0.000000 -0.005388 0.000000
# 2 -0.003775 0.017002 -0.001886 0.000000 0.001538 0.000000
# 3 -0.003724 -0.001886 0.011326 0.000000 0.000290 0.000000
# 4 0.000000 0.000000 0.000000 0.033091 0.000000 -0.000915
# 5 -0.005388 0.001538 0.000290 0.000000 0.031339 0.000000
# 6 0.000000 0.000000 0.000000 -0.000915 0.000000 0.033433
#
#
# Mechanical properties :
#
#
# Convention : Reuss Voigt Hill
#
# Bulk Modulus (GPa) = 39.28672 41.65417 40.47045
# Shear Modulus (GPa) = 29.52611 30.73643 30.13127
#
# Velocity S-wave (km/s) = 3.78342 3.86019 3.82200
# Velocity P-wave (km/s) = 6.17511 6.32946 6.25276
#
# Compressibility (1/GPa) = 0.02545389
#
# Stress axis : x y z
#
# Youngs Moduli (GPa) = 62.90866 58.81785 88.29173
#
# Poissons Ratio (x) = 0.22204 0.32882
# Poissons Ratio (y) = 0.23749 0.16649
# Poissons Ratio (z) = 0.23428 0.11091
#
# Static dielectric constant tensor:
#      x y z
#    x 3.704540 0.000000 0.177250 
#    y 0.000000 3.544220 0.000000 
#    z 0.177250 0.000000 4.188800 
# 
# 
# High freq. dielectric constant tensor:
#      x y z
#    x 1.798800 0.000000 0.011520 
#    y 0.000000 1.796390 0.000000 
#    z 0.011520 0.000000 1.818910 
# 
# From -- ./inp_files/238901.got.cif
#   From: 2010.06.25/outbox.cif.g09.slc.cpg/sg12_120_cif.got.tgz:238901.got - 2010.06.28 00:19:55.
