data_PCOD8087189
_publ_section_title
;
Structure prediction by ZEFSAII (Michael W. Deem and Ramdas Pophale) SiO2 
 PCOD8087189
Probable space group: C 2/M
;
_chemical_formula_sum "Si O2"
_cell_formula_units_Z 64
_cell_length_a 21.363713
_cell_length_b 30.453644
_cell_length_c 18.403169
_cell_angle_alpha 90.000000
_cell_angle_beta 161.453070
_cell_angle_gamma 90.000000
_cell_volume 3808.436874
_symmetry_space_group_name_H-M "C 2/M"
_symmetry_group_IT_number 12
_symmetry_cell_setting 'monoclinic'
loop_
_space_group_symop_operation_xyz
x,y,z
-x,y,-z
-x,-y,-z
x,-y,z
1/2+x,1/2+y,z
1/2-x,1/2+y,-z
1/2-x,1/2-y,-z
1/2+x,1/2-y,z
loop_
_atom_site_type_symbol
_atom_site_label
_atom_site_fract_x
_atom_site_fract_y
_atom_site_fract_z
Si Si1 0.502835 0.179566 0.345672
Si Si2 0.852255 0.193133 0.547421
Si Si3 0.195005 0.120124 0.398653
Si Si4 0.041148 0.449961 0.361759
Si Si5 0.223883 0.949998 0.231307
Si Si6 0.542957 0.232175 0.845411
Si Si7 0.457699 0.266282 0.370776
Si Si8 0.252229 0.398099 0.881963
O O1 0.703761 0.153786 0.547344
O O2 0.407160 0.199173 0.166413
O O3 0.558822 0.219958 0.460068
O O4 0.345574 0.149361 0.214200
O O5 0.835778 0.143120 0.557098
O O6 0.637052 0.214471 0.305240
O O7 0.989329 0.220131 0.754410
O O8 0.947096 0.194371 0.571834
O O9 0.340246 0.078172 0.568205
O O10 0.986602 0.104215 0.139714
O O11 0.028174 0.500000 0.321111
O O12 0.157585 0.443203 0.564717
O O13 0.823494 0.430177 0.136178
O O14 0.311673 0.918366 0.265900
O O15 0.243961 0.000000 0.224944
O O16 0.000000 0.937693 0.000000
O O17 0.725495 0.236687 0.100260
O O18 0.500000 0.277672 0.500000
#
# Coordination Sequence:
#
# PCOD8087189 Si02
#       8
#     8   8   8   8   8   8   8   8
#     4   9  20  33  48  69  94 126 169 203 236 278
#     4   9  18  34  53  68  91 130 168 197 241 287
#     4  10  19  32  50  69  86 118 165 205 232 276
#     4  10  21  33  45  66  92 120 160 201 244 289
#     4  10  19  32  45  59  87 127 162 196 241 288
#     4   9  17  34  53  68  92 129 166 201 237 291
#     4  11  21  32  48  74 102 129 158 202 247 288
#     4  11  19  30  47  64  86 125 161 202 242 275
#
# _framework density 16.804794999999999
#
# number of rings (size 3 to 8) (size 9 to 14) (size 15 to 20)
#    0.000    2.125    1.250    4.500    0.000    4.000 
#    0.000    0.000    0.000    0.000    0.000    0.000 
#    0.000    0.500    0.000   18.750    0.000   26.625 
#
# Total GULP energy -396749.914778 kJ/mol
# GULP energy per Si atom -12398.434837 kJ/mol
# Density = 1.676655 g / cm^3
# Si number density = 16.804795 Si / 1000 Ang^3
#
#
#
# Elastic Constant Matrix: (Units=GPa)
#
#
# Indices 1 2 3 4 5 6 
#
# 1 77.6235 40.2071 34.1760 0.0001 1.1044 -0.0009
# 2 40.2071 98.1529 22.8012 -0.0003 4.5120 -0.0004
# 3 34.1760 22.8012 76.6724 -0.0005 8.9025 -0.0016
# 4 0.0001 -0.0003 -0.0005 16.1339 -0.0005 5.7007
# 5 1.1044 4.5120 8.9025 -0.0005 22.3538 -0.0013
# 6 -0.0009 -0.0004 -0.0016 5.7007 -0.0013 31.7005
#
#
#
# Elastic Compliance Matrix: (Units=1/GPa)
#
#
# Indices 1 2 3 4 5 6 
#
# 1 0.019252 -0.006394 -0.007045 0.000000 0.003145 0.000000
# 2 -0.006394 0.013088 -0.000809 0.000000 -0.002003 0.000000
# 3 -0.007045 -0.000809 0.017157 0.000000 -0.006322 0.000000
# 4 0.000000 0.000000 0.000000 0.066187 0.000001 -0.011902
# 5 0.003145 -0.002003 -0.006322 0.000001 0.047502 0.000002
# 6 0.000000 0.000000 0.000000 -0.011902 0.000002 0.033686
#
#
# Mechanical properties :
#
#
# Convention : Reuss Voigt Hill
#
# Bulk Modulus (GPa) = 47.61932 49.64637 48.63285
# Shear Modulus (GPa) = 21.51763 24.38862 22.95312
#
# Velocity S-wave (km/s) = 3.58221 3.81371 3.69977
# Velocity P-wave (km/s) = 6.74596 6.99997 6.87414
#
# Compressibility (1/GPa) = 0.02099988
#
# Stress axis : x y z
#
# Youngs Moduli (GPa) = 51.94329 76.40815 58.28398
#
# Poissons Ratio (x) = 0.48857 0.41061
# Poissons Ratio (y) = 0.33214 0.04717
# Poissons Ratio (z) = 0.36594 0.06183
#
# Static dielectric constant tensor:
#      x y z
#    x 3.077890 0.000000 0.372440 
#    y 0.000000 3.288950 0.000000 
#    z 0.372440 0.000000 3.066140 
# 
# 
# High freq. dielectric constant tensor:
#      x y z
#    x 1.625500 0.000000 0.044860 
#    y 0.000000 1.640500 0.000000 
#    z 0.044860 0.000000 1.637130 
# 
# From -- ./inp_files/286786.got.cif
#   From: 2010.06.25/outbox.cif.g09.slc.cpg/sg12_144_cif.got.tgz:286786.got - 2010.06.28 00:19:55.
