data_PCOD8087386
_publ_section_title
;
Structure prediction by ZEFSAII (Michael W. Deem and Ramdas Pophale) SiO2 
 PCOD8087386
Probable space group: C 2/M
;
_chemical_formula_sum "Si O2"
_cell_formula_units_Z 56
_cell_length_a 29.875117
_cell_length_b 9.252271
_cell_length_c 18.812704
_cell_angle_alpha 90.000000
_cell_angle_beta 142.474073
_cell_angle_gamma 90.000000
_cell_volume 3167.468495
_symmetry_space_group_name_H-M "C 2/M"
_symmetry_group_IT_number 12
_symmetry_cell_setting 'monoclinic'
loop_
_space_group_symop_operation_xyz
x,y,z
-x,y,-z
-x,-y,-z
x,-y,z
1/2+x,1/2+y,z
1/2-x,1/2+y,-z
1/2-x,1/2-y,-z
1/2+x,1/2-y,z
loop_
_atom_site_type_symbol
_atom_site_label
_atom_site_fract_x
_atom_site_fract_y
_atom_site_fract_z
Si Si1 0.694836 0.330977 0.582377
Si Si2 0.266400 0.160696 0.238706
Si Si3 0.943944 0.828941 0.131296
Si Si4 0.782203 0.169585 0.973599
Si Si5 0.860029 0.666979 0.745343
Si Si6 0.087027 0.672087 0.341994
Si Si7 0.401052 0.659193 0.925249
O O1 0.675586 0.500000 0.556001
O O2 0.690078 0.275457 0.657880
O O3 0.774620 0.298060 0.650159
O O4 0.636656 0.240145 0.465182
O O5 0.183068 0.152604 0.158469
O O6 0.301473 0.000000 0.290413
O O7 0.266768 0.212102 0.157084
O O8 0.866702 0.784301 0.069047
O O9 0.005796 0.736845 0.249256
O O10 0.958093 0.000000 0.157018
O O11 0.945761 0.783271 0.050104
O O12 0.777236 0.000000 0.980497
O O13 0.750000 0.250000 0.000000
O O14 0.876907 0.500000 0.774979
O O15 0.880443 0.722299 0.692834
O O16 0.911976 0.742576 0.869508
O O17 0.085719 0.500000 0.348715
O O18 0.428769 0.500000 0.939225
#
# Coordination Sequence:
#
# PCOD8087386 Si02
#       7
#     8   8   8   8   8   8   8
#     4  10  19  32  50  70  94 129 170 209 243 281
#     4   8  15  30  50  73  99 126 156 194 238 284
#     4   9  19  35  50  70 100 131 162 196 239 293
#     4   9  18  33  56  82 105 126 152 191 239 291
#     4   9  19  32  46  68  96 126 167 212 249 282
#     4  11  22  33  46  67  97 134 169 205 246 286
#     4   8  15  29  49  68  91 126 164 200 240 284
#
# _framework density 17.679732999999999
#
# number of rings (size 3 to 8) (size 9 to 14) (size 15 to 20)
#    0.000    2.857    0.000    3.000    0.000    4.000 
#    0.000    5.714    0.000    0.857    0.000    6.000 
#    0.000    0.000    0.000    0.000    0.000    0.000 
#
# Total GULP energy -347114.772509 kJ/mol
# GULP energy per Si atom -12396.956161 kJ/mol
# Density = 1.763949 g / cm^3
# Si number density = 17.679733 Si / 1000 Ang^3
#
#
#
# Elastic Constant Matrix: (Units=GPa)
#
#
# Indices 1 2 3 4 5 6 
#
# 1 90.4879 45.2556 56.2182 0.0000 -19.9103 0.0000
# 2 45.2556 71.9463 49.0231 0.0000 -7.4094 0.0000
# 3 56.2182 49.0231 74.7838 0.0000 -13.6598 0.0000
# 4 0.0000 0.0000 0.0000 32.9443 0.0000 -7.5237
# 5 -19.9103 -7.4094 -13.6598 0.0000 22.1738 0.0000
# 6 0.0000 0.0000 0.0000 -7.5237 0.0000 24.4900
#
#
#
# Elastic Compliance Matrix: (Units=1/GPa)
#
#
# Indices 1 2 3 4 5 6 
#
# 1 0.024161 -0.005576 -0.012265 0.000000 0.012276 0.000000
# 2 -0.005576 0.026483 -0.014047 0.000000 -0.004811 0.000000
# 3 -0.012265 -0.014047 0.032600 0.000000 0.004375 0.000000
# 4 0.000000 0.000000 0.000000 0.032645 0.000000 0.010029
# 5 0.012276 -0.004811 0.004375 0.000000 0.057208 0.000000
# 6 0.000000 0.000000 0.000000 0.010029 0.000000 0.043914
#
#
# Mechanical properties :
#
#
# Convention : Reuss Voigt Hill
#
# Bulk Modulus (GPa) = 51.37100 59.80130 55.58615
# Shear Modulus (GPa) = 17.40474 21.70305 19.55390
#
# Velocity S-wave (km/s) = 3.14099 3.50747 3.32928
# Velocity P-wave (km/s) = 6.50184 7.09234 6.80350
#
# Compressibility (1/GPa) = 0.01946624
#
# Stress axis : x y z
#
# Youngs Moduli (GPa) = 41.38843 37.76019 30.67483
#
# Poissons Ratio (x) = 0.21056 0.37624
# Poissons Ratio (y) = 0.23079 0.43090
# Poissons Ratio (z) = 0.50765 0.53043
#
# Static dielectric constant tensor:
#      x y z
#    x 3.124270 0.000000 -0.214780 
#    y 0.000000 3.309430 0.000000 
#    z -0.214780 0.000000 3.364160 
# 
# 
# High freq. dielectric constant tensor:
#      x y z
#    x 1.655950 0.000000 -0.012790 
#    y 0.000000 1.682840 0.000000 
#    z -0.012790 0.000000 1.684080 
# 
# From -- ./inp_files/281677.got.cif
#   From: 2010.06.25/outbox.cif.g09.slc.cpg/sg12_141_cif.got.tgz:281677.got - 2010.06.28 00:19:55.
