data_PCOD8087832
_publ_section_title
;
Structure prediction by ZEFSAII (Michael W. Deem and Ramdas Pophale) SiO2 
 PCOD8087832
Probable space group: C 2/M
;
_chemical_formula_sum "Si O2"
_cell_formula_units_Z 64
_cell_length_a 23.795223
_cell_length_b 8.775741
_cell_length_c 28.955797
_cell_angle_alpha 90.000000
_cell_angle_beta 31.416074
_cell_angle_gamma 90.000000
_cell_volume 3151.769097
_symmetry_space_group_name_H-M "C 2/M"
_symmetry_group_IT_number 12
_symmetry_cell_setting 'monoclinic'
loop_
_space_group_symop_operation_xyz
x,y,z
-x,y,-z
-x,-y,-z
x,-y,z
1/2+x,1/2+y,z
1/2-x,1/2+y,-z
1/2-x,1/2-y,-z
1/2+x,1/2-y,z
loop_
_atom_site_type_symbol
_atom_site_label
_atom_site_fract_x
_atom_site_fract_y
_atom_site_fract_z
Si Si1 0.774303 0.181446 0.185190
Si Si2 0.126942 0.173407 0.974629
Si Si3 0.027753 0.681146 0.716110
Si Si4 0.313246 0.172094 0.914269
Si Si5 0.467123 0.180922 0.655406
Si Si6 0.692588 0.680806 0.664410
Si Si7 0.425160 0.680678 0.509412
Si Si8 0.916645 0.180882 0.167706
O O1 0.852892 0.247438 0.089829
O O2 0.654131 0.244375 0.263794
O O3 0.821525 0.237355 0.200651
O O4 0.770892 0.000000 0.182932
O O5 0.240410 0.183260 0.920290
O O6 0.089329 0.000000 0.994286
O O7 0.030544 0.254142 0.071037
O O8 0.032374 0.500000 0.716440
O O9 0.928525 0.743527 0.817885
O O10 0.012944 0.730216 0.673219
O O11 0.140738 0.753695 0.653712
O O12 0.331369 0.000000 0.917439
O O13 0.250000 0.250000 0.000000
O O14 0.533002 0.261218 0.568944
O O15 0.474115 0.000000 0.643655
O O16 0.704939 0.500000 0.651760
O O17 0.806817 0.750345 0.597930
O O18 0.610041 0.735606 0.762234
O O19 0.500000 0.735847 0.500000
O O20 0.417858 0.500000 0.513886
O O21 0.922105 0.000000 0.163731
#
# Coordination Sequence:
#
# PCOD8087832 Si02
#       8
#     8   8   8   8   8   8   8   8
#     4   9  15  27  49  78 111 146 184 232 287 339
#     4   9  15  26  45  74 111 147 184 228 282 340
#     4  10  21  38  58  83 118 159 200 245 300 353
#     4  10  19  32  51  77 113 158 203 243 286 342
#     4  10  20  37  62  88 115 153 201 249 294 345
#     4  11  23  39  60  88 117 150 195 246 293 346
#     4  11  25  44  65  90 119 152 188 231 293 363
#     4   9  17  27  46  79 114 145 184 236 289 336
#
# _framework density 20.306056999999999
#
# number of rings (size 3 to 8) (size 9 to 14) (size 15 to 20)
#    0.000    2.125    1.250    2.625    0.000    6.000 
#    0.000    0.000    0.000    0.000    0.000    0.000 
#    0.000    8.000    0.000    0.000    0.000    0.000 
#
# Total GULP energy -396637.085273 kJ/mol
# GULP energy per Si atom -12394.908915 kJ/mol
# Density = 2.025984 g / cm^3
# Si number density = 20.306057 Si / 1000 Ang^3
#
#
#
# Elastic Constant Matrix: (Units=GPa)
#
#
# Indices 1 2 3 4 5 6 
#
# 1 116.7616 28.7106 49.9171 -0.0025 -2.5345 0.0095
# 2 28.7106 38.1216 23.7254 0.0000 1.6747 -0.0180
# 3 49.9171 23.7254 107.6729 0.0058 -2.0928 -0.0067
# 4 -0.0025 0.0000 0.0058 20.9645 0.0000 -0.5703
# 5 -2.5345 1.6747 -2.0928 0.0000 40.5981 0.0067
# 6 0.0095 -0.0180 -0.0067 -0.5703 0.0067 20.8863
#
#
#
# Elastic Compliance Matrix: (Units=1/GPa)
#
#
# Indices 1 2 3 4 5 6 
#
# 1 0.011919 -0.006470 -0.004084 0.000002 0.000800 -0.000012
# 2 -0.006470 0.034017 -0.004536 0.000001 -0.002041 0.000031
# 3 -0.004084 -0.004536 0.012191 -0.000004 0.000561 0.000002
# 4 0.000002 0.000001 -0.000004 0.047735 0.000000 0.001304
# 5 0.000800 -0.002041 0.000561 0.000000 0.024795 -0.000010
# 6 -0.000012 0.000031 0.000002 0.001304 -0.000010 0.047914
#
#
# Mechanical properties :
#
#
# Convention : Reuss Voigt Hill
#
# Bulk Modulus (GPa) = 35.78178 51.91803 43.84991
# Shear Modulus (GPa) = 22.92879 27.16998 25.04938
#
# Velocity S-wave (km/s) = 3.36394 3.66187 3.51606
# Velocity P-wave (km/s) = 5.72256 6.59563 6.17454
#
# Compressibility (1/GPa) = 0.02794718
#
# Stress axis : x y z
#
# Youngs Moduli (GPa) = 83.90103 29.39707 82.02572
#
# Poissons Ratio (x) = 0.19019 0.33503
# Poissons Ratio (y) = 0.54281 0.37206
# Poissons Ratio (z) = 0.34269 0.13334
#
# Static dielectric constant tensor:
#      x y z
#    x 3.976440 -0.000140 -0.001630 
#    y -0.000140 3.206790 0.000040 
#    z -0.001630 0.000040 3.937870 
# 
# 
# High freq. dielectric constant tensor:
#      x y z
#    x 1.808860 0.000000 0.000720 
#    y 0.000000 1.739250 0.000000 
#    z 0.000720 0.000000 1.807100 
# 
# From -- ./inp_files/382253.got.cif
#   From: 2010.06.25/outbox.cif.g09.slc.cpg/sg12_192_cif.got.tgz:382253.got - 2010.06.28 00:19:55.
