data_PCOD8087298
_publ_section_title
;
Structure prediction by ZEFSAII (Michael W. Deem and Ramdas Pophale) SiO2 
 PCOD8087298
Probable space group: C 2/M
;
_chemical_formula_sum "Si O2"
_cell_formula_units_Z 64
_cell_length_a 29.222742
_cell_length_b 9.512143
_cell_length_c 14.085554
_cell_angle_alpha 90.000000
_cell_angle_beta 72.709834
_cell_angle_gamma 90.000000
_cell_volume 3738.445524
_symmetry_space_group_name_H-M "C 2/M"
_symmetry_group_IT_number 12
_symmetry_cell_setting 'monoclinic'
loop_
_space_group_symop_operation_xyz
x,y,z
-x,y,-z
-x,-y,-z
x,-y,z
1/2+x,1/2+y,z
1/2-x,1/2+y,-z
1/2-x,1/2-y,-z
1/2+x,1/2-y,z
loop_
_atom_site_type_symbol
_atom_site_label
_atom_site_fract_x
_atom_site_fract_y
_atom_site_fract_z
Si Si1 0.476224 0.159258 0.285862
Si Si2 0.904650 0.162643 0.216042
Si Si3 0.307474 0.336332 0.375467
Si Si4 0.448079 0.157899 0.508066
Si Si5 0.127016 0.838837 0.336512
Si Si6 0.449137 0.337662 0.997758
Si Si7 0.934649 0.835670 0.796582
Si Si8 0.716472 0.337915 0.397083
O O1 0.449348 0.245924 0.221961
O O2 0.442142 0.156592 0.398447
O O3 0.525546 0.240198 0.279736
O O4 0.486979 0.000000 0.244868
O O5 0.855324 0.217111 0.292566
O O6 0.913295 0.000000 0.238584
O O7 0.906344 0.183534 0.100771
O O8 0.299542 0.500000 0.360401
O O9 0.310145 0.303863 0.486400
O O10 0.263463 0.255190 0.354938
O O11 0.500000 0.222053 0.500000
O O12 0.406614 0.251192 0.574851
O O13 0.444281 0.000000 0.552777
O O14 0.114844 0.811505 0.232550
O O15 0.181674 0.800036 0.330070
O O16 0.117862 0.000000 0.369467
O O17 0.460106 0.500000 0.974856
O O18 0.430121 0.279404 0.907912
O O19 0.500000 0.267846 0.000000
O O20 0.949154 0.000000 0.782672
O O21 0.732299 0.500000 0.385316
#
# Coordination Sequence:
#
# PCOD8087298 Si02
#       8
#     8   8   8   8   8   8   8   8
#     4  11  21  31  45  68  99 132 164 196 240 290
#     4  10  19  33  53  73  97 126 163 209 246 285
#     4   9  18  32  52  75  95 122 160 199 243 293
#     4  10  20  32  43  62  98 135 161 191 236 289
#     4  10  20  32  50  73  95 128 169 205 241 284
#     4   9  16  29  50  73  96 127 165 204 247 285
#     4  10  19  32  49  69  95 129 168 201 238 286
#     4   9  18  33  50  72 101 124 153 200 249 294
#
# _framework density 17.119416000000001
#
# number of rings (size 3 to 8) (size 9 to 14) (size 15 to 20)
#    0.000    2.250    2.500    1.125    0.000    3.250 
#    0.000    3.750    0.000    0.750    0.000    0.000 
#    0.000    0.000    0.000    0.000    0.000    0.000 
#
# Total GULP energy -396625.659289 kJ/mol
# GULP energy per Si atom -12394.551853 kJ/mol
# Density = 1.708045 g / cm^3
# Si number density = 17.119416 Si / 1000 Ang^3
#
#
#
# Elastic Constant Matrix: (Units=GPa)
#
#
# Indices 1 2 3 4 5 6 
#
# 1 109.2615 36.8503 41.4288 0.0000 14.6533 0.0000
# 2 36.8503 50.2970 17.8649 0.0000 4.4198 0.0000
# 3 41.4288 17.8649 74.8537 0.0000 9.9028 0.0000
# 4 0.0000 0.0000 0.0000 7.1688 0.0000 -0.0352
# 5 14.6533 4.4198 9.9028 0.0000 27.4065 0.0000
# 6 0.0000 0.0000 0.0000 -0.0352 0.0000 25.6124
#
#
#
# Elastic Compliance Matrix: (Units=1/GPa)
#
#
# Indices 1 2 3 4 5 6 
#
# 1 0.014685 -0.008400 -0.005527 0.000000 -0.004500 0.000000
# 2 -0.008400 0.026605 -0.001814 0.000000 0.000856 0.000000
# 3 -0.005527 -0.001814 0.017246 0.000000 -0.002984 0.000000
# 4 0.000000 0.000000 0.000000 0.139495 0.000000 0.000192
# 5 -0.004500 0.000856 -0.002984 0.000000 0.039834 0.000000
# 6 0.000000 0.000000 0.000000 0.000192 0.000000 0.039044
#
#
# Mechanical properties :
#
#
# Convention : Reuss Voigt Hill
#
# Bulk Modulus (GPa) = 36.96369 47.41113 42.18741
# Shear Modulus (GPa) = 15.75255 21.25542 18.50398
#
# Velocity S-wave (km/s) = 3.03670 3.52745 3.29124
# Velocity P-wave (km/s) = 5.82529 6.65921 6.25616
#
# Compressibility (1/GPa) = 0.02705357
#
# Stress axis : x y z
#
# Youngs Moduli (GPa) = 68.09804 37.58644 57.98370
#
# Poissons Ratio (x) = 0.31573 0.32050
# Poissons Ratio (y) = 0.57203 0.10517
# Poissons Ratio (z) = 0.37640 0.06818
#
# Static dielectric constant tensor:
#      x y z
#    x 3.178790 0.000000 0.215490 
#    y 0.000000 3.104530 0.000000 
#    z 0.215490 0.000000 3.206560 
# 
# 
# High freq. dielectric constant tensor:
#      x y z
#    x 1.645870 0.000000 0.016130 
#    y 0.000000 1.649310 0.000000 
#    z 0.016130 0.000000 1.647860 
# 
# From -- ./inp_files/243754.got.cif
#   From: 2010.06.25/outbox.cif.g09.slc.cpg/sg12_122_cif.got.tgz:243754.got - 2010.06.28 00:19:55.
