data_PCOD8087124
_publ_section_title
;
Structure prediction by ZEFSAII (Michael W. Deem and Ramdas Pophale) SiO2 
 PCOD8087124
Probable space group: C 2/M
;
_chemical_formula_sum "Si O2"
_cell_formula_units_Z 36
_cell_length_a 5.168551
_cell_length_b 14.131748
_cell_length_c 24.166094
_cell_angle_alpha 90.000000
_cell_angle_beta 109.482827
_cell_angle_gamma 90.000000
_cell_volume 1664.040054
_symmetry_space_group_name_H-M "C 2/M"
_symmetry_group_IT_number 12
_symmetry_cell_setting 'monoclinic'
loop_
_space_group_symop_operation_xyz
x,y,z
-x,y,-z
-x,-y,-z
x,-y,z
1/2+x,1/2+y,z
1/2-x,1/2+y,-z
1/2-x,1/2-y,-z
1/2+x,1/2-y,z
loop_
_atom_site_type_symbol
_atom_site_label
_atom_site_fract_x
_atom_site_fract_y
_atom_site_fract_z
Si Si1 0.326765 0.192081 0.750347
Si Si2 0.381620 0.113212 0.433440
Si Si3 0.812260 0.500000 0.039886
Si Si4 0.282948 0.391451 0.370178
Si Si5 0.079685 0.686575 0.882309
O O1 0.516146 0.278435 0.742785
O O2 0.312141 0.116209 0.700242
O O3 0.469365 0.149204 0.815147
O O4 0.500000 0.149952 0.500000
O O5 0.564163 0.155349 0.396316
O O6 0.078385 0.156082 0.402417
O O7 0.375596 0.000000 0.431314
O O8 0.874679 0.593924 0.078632
O O9 0.500000 0.500000 0.000000
O O10 0.000000 0.500000 0.000000
O O11 0.306353 0.500000 0.387691
O O12 0.863579 0.756694 0.895978
#
# Coordination Sequence:
#
# PCOD8087124 Si02
#       5
#     8   8   4   8   8
#     4  10  21  38  58  81 113 151 187 235 297 348
#     4   9  17  30  48  75 108 139 181 234 288 345
#     4  12  26  42  68 102 130 170 213 254 305 360
#     4  10  19  31  54  81 101 139 188 237 287 339
#     4  10  23  43  65  93 130 171 209 256 312 365
#
# _framework density 21.634093
#
# number of rings (size 3 to 8) (size 9 to 14) (size 15 to 20)
#    0.000    2.000    0.000    3.333    1.556    5.333 
#    0.000    0.000    0.000   13.333    0.000    0.000 
#    0.000    0.000    0.000    0.000    0.000    0.000 
#
# Total GULP energy -223181.119952 kJ/mol
# GULP energy per Si atom -12398.951108 kJ/mol
# Density = 2.158485 g / cm^3
# Si number density = 21.634093 Si / 1000 Ang^3
#
#
#
# Elastic Constant Matrix: (Units=GPa)
#
#
# Indices 1 2 3 4 5 6 
#
# 1 178.8772 26.0432 71.6097 0.0000 -11.4628 0.0000
# 2 26.0432 61.0056 56.3644 0.0000 -5.5262 0.0000
# 3 71.6097 56.3644 167.2383 0.0000 -12.7319 0.0000
# 4 0.0000 0.0000 0.0000 27.9142 0.0000 -5.3776
# 5 -11.4628 -5.5262 -12.7319 0.0000 38.3787 0.0000
# 6 0.0000 0.0000 0.0000 -5.3776 0.0000 7.6573
#
#
#
# Elastic Compliance Matrix: (Units=1/GPa)
#
#
# Indices 1 2 3 4 5 6 
#
# 1 0.006794 -0.000277 -0.002734 0.000000 0.001083 0.000000
# 2 -0.000277 0.023839 -0.007859 0.000000 0.000743 0.000000
# 3 -0.002734 -0.007859 0.009901 0.000000 0.001336 0.000000
# 4 0.000000 0.000000 0.000000 0.041429 0.000000 0.029095
# 5 0.001083 0.000743 0.001336 0.000000 0.026930 0.000000
# 6 0.000000 0.000000 0.000000 0.029095 0.000000 0.151028
#
#
# Mechanical properties :
#
#
# Convention : Reuss Voigt Hill
#
# Bulk Modulus (GPa) = 53.20767 79.46174 66.33470
# Shear Modulus (GPa) = 17.36565 31.66363 24.51464
#
# Velocity S-wave (km/s) = 2.83627 3.82985 3.36988
# Velocity P-wave (km/s) = 5.94757 7.50777 6.77275
#
# Compressibility (1/GPa) = 0.01879428
#
# Stress axis : x y z
#
# Youngs Moduli (GPa) = 147.17906 41.94840 101.00449
#
# Poissons Ratio (x) = 0.01161 0.27610
# Poissons Ratio (y) = 0.04075 0.79383
# Poissons Ratio (z) = 0.40233 0.32969
#
# Static dielectric constant tensor:
#      x y z
#    x 4.372130 0.000000 -0.037510 
#    y 0.000000 3.409200 0.000000 
#    z -0.037510 0.000000 4.060250 
# 
# 
# High freq. dielectric constant tensor:
#      x y z
#    x 1.873660 0.000000 -0.002980 
#    y 0.000000 1.825030 0.000000 
#    z -0.002980 0.000000 1.861190 
# 
# From -- ./inp_files/297404.got.cif
#   From: 2010.06.25/outbox.cif.g09.slc.cpg/sg12_149_cif.got.tgz:297404.got - 2010.06.28 00:19:55.
