data_PCOD8087879
_publ_section_title
;
Structure prediction by ZEFSAII (Michael W. Deem and Ramdas Pophale) SiO2 
 PCOD8087879
Probable space group: C 2/M
;
_chemical_formula_sum "Si O2"
_cell_formula_units_Z 64
_cell_length_a 26.763701
_cell_length_b 17.890713
_cell_length_c 21.730185
_cell_angle_alpha 90.000000
_cell_angle_beta 160.754363
_cell_angle_gamma 90.000000
_cell_volume 3429.644884
_symmetry_space_group_name_H-M "C 2/M"
_symmetry_group_IT_number 12
_symmetry_cell_setting 'monoclinic'
loop_
_space_group_symop_operation_xyz
x,y,z
-x,y,-z
-x,-y,-z
x,-y,z
1/2+x,1/2+y,z
1/2-x,1/2+y,-z
1/2-x,1/2-y,-z
1/2+x,1/2-y,z
loop_
_atom_site_type_symbol
_atom_site_label
_atom_site_fract_x
_atom_site_fract_y
_atom_site_fract_z
Si Si1 0.382395 0.084758 0.694158
Si Si2 0.456747 0.268936 0.572552
Si Si3 0.666086 0.238412 0.162672
Si Si4 0.238530 0.214058 0.116739
Si Si5 0.268200 0.584356 0.977931
Si Si6 0.554843 0.814944 0.807942
Si Si7 0.423196 0.416399 0.595914
Si Si8 0.891565 0.420124 0.931767
O O1 0.417051 0.140249 0.678474
O O2 0.226063 0.111173 0.542282
O O3 0.514887 0.092753 0.897625
O O4 0.369405 0.000000 0.654439
O O5 0.298219 0.235443 0.362586
O O6 0.592734 0.248958 0.684265
O O7 0.485915 0.233530 0.673065
O O8 0.451116 0.358909 0.572710
O O9 0.667218 0.287307 0.101876
O O10 0.500000 0.245094 0.000000
O O11 0.711596 0.152870 0.197098
O O12 0.249710 0.128360 0.107120
O O13 0.135569 0.259748 0.949366
O O14 0.206218 0.500000 0.897143
O O15 0.176587 0.625259 0.925547
O O16 0.443112 0.583075 0.199473
O O17 0.399630 0.500000 0.540665
O O18 0.801822 0.500000 0.832441
O O19 0.000000 0.426133 0.000000
#
# Coordination Sequence:
#
# PCOD8087879 Si02
#       8
#     8   8   8   8   8   8   8   8
#     4  10  20  32  52  80 114 152 190 232 275 324
#     4  11  22  37  56  81 114 152 184 236 285 328
#     4  11  23  37  57  83 114 153 191 234 282 334
#     4  11  21  40  58  84 114 147 189 237 283 333
#     4  10  20  37  61  83 112 147 185 233 288 340
#     4  11  20  37  58  83 112 149 190 234 278 336
#     4  10  19  32  51  82 116 147 184 226 275 330
#     4   9  17  31  49  72 108 153 187 214 262 326
#
# _framework density 18.660824000000002
#
# number of rings (size 3 to 8) (size 9 to 14) (size 15 to 20)
#    0.000    1.625    3.750    3.000    0.000    3.000 
#    0.000    0.625    0.000    8.625    0.000    0.000 
#    0.000    0.000    0.000    0.000    0.000    0.000 
#
# Total GULP energy -396729.470953 kJ/mol
# GULP energy per Si atom -12397.795967 kJ/mol
# Density = 1.861835 g / cm^3
# Si number density = 18.660824 Si / 1000 Ang^3
#
#
#
# Elastic Constant Matrix: (Units=GPa)
#
#
# Indices 1 2 3 4 5 6 
#
# 1 87.2857 34.9178 30.4719 0.0095 -5.0427 0.0074
# 2 34.9178 84.5112 18.4337 0.0001 -0.5971 0.0020
# 3 30.4719 18.4337 93.3754 0.0047 -0.5863 0.0100
# 4 0.0095 0.0001 0.0047 19.8048 0.0111 6.6439
# 5 -5.0427 -0.5971 -0.5863 0.0111 23.7152 0.0100
# 6 0.0074 0.0020 0.0100 6.6439 0.0100 23.8005
#
#
#
# Elastic Compliance Matrix: (Units=1/GPa)
#
#
# Indices 1 2 3 4 5 6 
#
# 1 0.015131 -0.005390 -0.003855 -0.000007 0.002986 -0.000002
# 2 -0.005390 0.014287 -0.001067 0.000003 -0.000813 0.000000
# 3 -0.003855 -0.001067 0.012175 0.000001 -0.000546 -0.000004
# 4 -0.000007 0.000003 0.000001 0.055710 -0.000021 -0.015551
# 5 0.002986 -0.000813 -0.000546 -0.000021 0.042768 -0.000013
# 6 -0.000002 0.000000 -0.000004 -0.015551 -0.000013 0.046357
#
#
# Mechanical properties :
#
#
# Convention : Reuss Voigt Hill
#
# Bulk Modulus (GPa) = 47.68852 48.09103 47.88977
# Shear Modulus (GPa) = 23.36010 25.55403 24.45706
#
# Velocity S-wave (km/s) = 3.54195 3.70455 3.62416
# Velocity P-wave (km/s) = 6.50678 6.64269 6.57508
#
# Compressibility (1/GPa) = 0.02096941
#
# Stress axis : x y z
#
# Youngs Moduli (GPa) = 66.08889 69.99575 82.13788
#
# Poissons Ratio (x) = 0.37726 0.31665
# Poissons Ratio (y) = 0.35621 0.08761
# Poissons Ratio (z) = 0.25478 0.07466
#
# Static dielectric constant tensor:
#      x y z
#    x 3.307570 -0.000010 0.064760 
#    y -0.000010 3.726840 -0.000010 
#    z 0.064760 -0.000010 3.343390 
# 
# 
# High freq. dielectric constant tensor:
#      x y z
#    x 1.712300 0.000000 0.002960 
#    y 0.000000 1.721850 0.000000 
#    z 0.002960 0.000000 1.716570 
# 
# From -- ./inp_files/328672.got.cif
#   From: 2010.06.25/outbox.cif.g09.slc.cpg/sg12_165_cif.got.tgz:328672.got - 2010.06.28 00:19:55.
