data_PCOD8087573
_publ_section_title
;
Structure prediction by ZEFSAII (Michael W. Deem and Ramdas Pophale) SiO2 
 PCOD8087573
Probable space group: C 2/M
;
_chemical_formula_sum "Si O2"
_cell_formula_units_Z 64
_cell_length_a 27.841702
_cell_length_b 10.175596
_cell_length_c 20.085538
_cell_angle_alpha 90.000000
_cell_angle_beta 142.274704
_cell_angle_gamma 90.000000
_cell_volume 3481.791340
_symmetry_space_group_name_H-M "C 2/M"
_symmetry_group_IT_number 12
_symmetry_cell_setting 'monoclinic'
loop_
_space_group_symop_operation_xyz
x,y,z
-x,y,-z
-x,-y,-z
x,-y,z
1/2+x,1/2+y,z
1/2-x,1/2+y,-z
1/2-x,1/2-y,-z
1/2+x,1/2-y,z
loop_
_atom_site_type_symbol
_atom_site_label
_atom_site_fract_x
_atom_site_fract_y
_atom_site_fract_z
Si Si1 0.313535 0.253909 0.672355
Si Si2 0.329346 0.640547 0.551267
Si Si3 0.735861 0.841526 0.845668
Si Si4 0.021629 0.347893 0.096016
Si Si5 0.424254 0.844016 0.577117
Si Si6 0.623445 0.151678 0.966979
Si Si7 0.796362 0.347687 0.335718
Si Si8 0.096750 0.348520 0.784226
O O1 0.317428 0.361570 0.617922
O O2 0.254691 0.143016 0.578951
O O3 0.399983 0.208013 0.785649
O O4 0.277963 0.311293 0.701104
O O5 0.368125 0.500000 0.574610
O O6 0.384288 0.764107 0.593507
O O7 0.813770 0.761628 0.946808
O O8 0.709430 0.788408 0.744328
O O9 0.670288 0.787521 0.825439
O O10 0.750639 0.000000 0.866454
O O11 0.037393 0.500000 0.102240
O O12 0.000000 0.284667 0.000000
O O13 0.951406 0.320196 0.069672
O O14 0.378328 0.804963 0.459515
O O15 0.513405 0.794827 0.665944
O O16 0.418502 0.000000 0.587669
O O17 0.652930 0.000000 0.008654
O O18 0.600008 0.178621 0.865642
O O19 0.796563 0.500000 0.325039
O O20 0.099646 0.500000 0.769710
#
# Coordination Sequence:
#
# PCOD8087573 Si02
#       8
#     8   8   8   8   8   8   8   8
#     4  10  19  32  51  72 103 139 169 203 252 299
#     4  10  20  32  51  79 107 134 168 208 248 299
#     4  10  20  35  54  76 101 130 168 209 252 303
#     4  10  20  33  51  74 100 135 177 212 243 293
#     4   9  18  34  54  76 103 134 166 204 254 300
#     4  10  20  35  53  74 101 131 168 212 253 293
#     4   9  18  32  51  75 103 133 165 205 250 300
#     4   9  18  33  55  78  99 129 169 211 251 297
#
# _framework density 18.381343000000001
#
# number of rings (size 3 to 8) (size 9 to 14) (size 15 to 20)
#    0.000    2.375    0.000    2.625    0.000    5.000 
#    0.000    8.750    0.000    3.375    0.000    4.375 
#    0.000    0.000    0.000    0.000    0.000    0.000 
#
# Total GULP energy -396526.392787 kJ/mol
# GULP energy per Si atom -12391.449775 kJ/mol
# Density = 1.833951 g / cm^3
# Si number density = 18.381343 Si / 1000 Ang^3
#
#
#
# Elastic Constant Matrix: (Units=GPa)
#
#
# Indices 1 2 3 4 5 6 
#
# 1 154.2891 56.5291 70.0476 0.0000 -12.7278 0.0000
# 2 56.5291 89.1066 50.0796 0.0000 10.7146 0.0000
# 3 70.0476 50.0796 134.1615 0.0000 8.9734 0.0000
# 4 0.0000 0.0000 0.0000 7.7940 0.0000 1.9252
# 5 -12.7278 10.7146 8.9734 0.0000 52.5200 0.0000
# 6 0.0000 0.0000 0.0000 1.9252 0.0000 14.2819
#
#
#
# Elastic Compliance Matrix: (Units=1/GPa)
#
#
# Indices 1 2 3 4 5 6 
#
# 1 0.010382 -0.004917 -0.003865 0.000000 0.004180 0.000000
# 2 -0.004917 0.016744 -0.003414 0.000000 -0.004024 0.000000
# 3 -0.003865 -0.003414 0.010886 0.000000 -0.002100 0.000000
# 4 0.000000 0.000000 0.000000 0.132722 0.000000 -0.017891
# 5 0.004180 -0.004024 -0.002100 0.000000 0.021233 0.000000
# 6 0.000000 0.000000 0.000000 -0.017891 0.000000 0.072430
#
#
# Mechanical properties :
#
#
# Convention : Reuss Voigt Hill
#
# Bulk Modulus (GPa) = 73.41301 81.20777 77.31039
# Shear Modulus (GPa) = 17.04560 28.31258 22.67909
#
# Velocity S-wave (km/s) = 3.04852 3.92891 3.51637
# Velocity P-wave (km/s) = 7.23995 8.05339 7.65748
#
# Compressibility (1/GPa) = 0.01362156
#
# Stress axis : x y z
#
# Youngs Moduli (GPa) = 96.31795 59.72138 91.85733
#
# Poissons Ratio (x) = 0.29365 0.35502
# Poissons Ratio (y) = 0.47359 0.31360
# Poissons Ratio (z) = 0.37226 0.20389
#
# Static dielectric constant tensor:
#      x y z
#    x 3.699220 0.000000 -0.147680 
#    y 0.000000 3.131970 0.000000 
#    z -0.147680 0.000000 3.586900 
# 
# 
# High freq. dielectric constant tensor:
#      x y z
#    x 1.720140 0.000000 -0.005340 
#    y 0.000000 1.682140 0.000000 
#    z -0.005340 0.000000 1.722010 
# 
# From -- ./inp_files/327832.got.cif
#   From: 2010.06.25/outbox.cif.g09.slc.cpg/sg12_164_cif.got.tgz:327832.got - 2010.06.28 00:19:55.
