data_PCOD8087801
_publ_section_title
;
Structure prediction by ZEFSAII (Michael W. Deem and Ramdas Pophale) SiO2 
 PCOD8087801
Probable space group: C 2/M
;
_chemical_formula_sum "Si O2"
_cell_formula_units_Z 56
_cell_length_a 20.494426
_cell_length_b 8.965356
_cell_length_c 31.072212
_cell_angle_alpha 90.000000
_cell_angle_beta 147.523638
_cell_angle_gamma 90.000000
_cell_volume 3065.565647
_symmetry_space_group_name_H-M "C 2/M"
_symmetry_group_IT_number 12
_symmetry_cell_setting 'monoclinic'
loop_
_space_group_symop_operation_xyz
x,y,z
-x,y,-z
-x,-y,-z
x,-y,z
1/2+x,1/2+y,z
1/2-x,1/2+y,-z
1/2-x,1/2-y,-z
1/2+x,1/2-y,z
loop_
_atom_site_type_symbol
_atom_site_label
_atom_site_fract_x
_atom_site_fract_y
_atom_site_fract_z
Si Si1 0.497950 0.677121 0.190393
Si Si2 0.261353 0.176801 0.919373
Si Si3 0.137479 0.676274 0.343332
Si Si4 0.316928 0.173487 0.498115
Si Si5 0.000960 0.323855 0.899406
Si Si6 0.227414 0.675097 0.170675
Si Si7 0.463810 0.829170 0.325340
O O1 0.509600 0.500000 0.199653
O O2 0.363904 0.732752 0.129414
O O3 0.596986 0.751657 0.276225
O O4 0.526198 0.732686 0.158531
O O5 0.273371 0.243599 0.877945
O O6 0.267014 0.000000 0.920058
O O7 0.372023 0.234138 0.010278
O O8 0.149613 0.500000 0.345207
O O9 0.270794 0.744430 0.429131
O O10 0.042369 0.722919 0.327674
O O11 0.250000 0.250000 0.500000
O O12 0.460788 0.193235 0.588083
O O13 0.281806 0.000000 0.476534
O O14 0.002955 0.500000 0.890612
O O15 0.897203 0.280781 0.875648
O O16 0.242925 0.500000 0.176749
O O17 0.341097 0.735741 0.260965
O O18 0.427478 0.000000 0.298877
#
# Coordination Sequence:
#
# PCOD8087801 Si02
#       7
#     8   8   8   8   8   8   8
#     4  11  21  34  54  78 106 139 176 219 264 314
#     4   9  18  34  55  78 101 134 180 223 262 308
#     4  10  19  32  51  77 106 138 174 215 264 312
#     4   9  17  29  47  75 108 139 171 212 262 309
#     4  10  21  36  53  75 106 141 177 218 264 312
#     4  10  19  33  55  78 103 139 179 218 258 308
#     4   9  18  31  49  76 108 137 167 211 262 308
#
# _framework density 18.267427999999999
#
# number of rings (size 3 to 8) (size 9 to 14) (size 15 to 20)
#    0.000    2.286    1.429    3.000    0.000    5.143 
#    0.000    1.429    0.000    2.571    0.000    6.000 
#    0.000    0.000    0.000    0.000    0.000    0.000 
#
# Total GULP energy -347165.683919 kJ/mol
# GULP energy per Si atom -12398.774426 kJ/mol
# Density = 1.822585 g / cm^3
# Si number density = 18.267428 Si / 1000 Ang^3
#
#
#
# Elastic Constant Matrix: (Units=GPa)
#
#
# Indices 1 2 3 4 5 6 
#
# 1 45.7687 28.5835 25.8001 0.0000 -12.9432 0.0001
# 2 28.5835 58.3524 41.0309 0.0000 -8.2939 0.0003
# 3 25.8001 41.0309 135.8984 0.0000 -19.7369 0.0000
# 4 0.0000 0.0000 0.0000 30.7771 0.0000 -1.0339
# 5 -12.9432 -8.2939 -19.7369 0.0000 17.2277 0.0000
# 6 0.0001 0.0003 0.0000 -1.0339 0.0000 23.0234
#
#
#
# Elastic Compliance Matrix: (Units=1/GPa)
#
#
# Indices 1 2 3 4 5 6 
#
# 1 0.037297 -0.015790 0.000782 0.000000 0.021316 0.000000
# 2 -0.015790 0.028622 -0.006437 0.000000 -0.005458 0.000000
# 3 0.000782 -0.006437 0.010543 0.000000 0.009567 0.000000
# 4 0.000000 0.000000 0.000000 0.032541 0.000000 0.001461
# 5 0.021316 -0.005458 0.009567 0.000000 0.082394 0.000000
# 6 0.000000 0.000000 0.000000 0.001461 0.000000 0.043500
#
#
# Mechanical properties :
#
#
# Convention : Reuss Voigt Hill
#
# Bulk Modulus (GPa) = 29.78555 47.87206 38.82881
# Shear Modulus (GPa) = 17.30243 23.84598 20.57420
#
# Velocity S-wave (km/s) = 3.08096 3.61693 3.35965
# Velocity P-wave (km/s) = 5.38489 6.61105 6.02922
#
# Compressibility (1/GPa) = 0.03357332
#
# Stress axis : x y z
#
# Youngs Moduli (GPa) = 26.81153 34.93789 94.85189
#
# Poissons Ratio (x) = 0.55168 -0.07421
# Poissons Ratio (y) = 0.42336 0.61052
# Poissons Ratio (z) = -0.02098 0.22488
#
# Static dielectric constant tensor:
#      x y z
#    x 3.099510 0.000000 -0.025010 
#    y 0.000000 3.229840 0.000000 
#    z -0.025010 0.000000 3.763770 
# 
# 
# High freq. dielectric constant tensor:
#      x y z
#    x 1.670770 0.000000 -0.004280 
#    y 0.000000 1.698240 0.000000 
#    z -0.004280 0.000000 1.728450 
# 
# From -- ./inp_files/275135.got.cif
#   From: 2010.06.25/outbox.cif.g09.slc.cpg/sg12_138_cif.got.tgz:275135.got - 2010.06.28 00:19:55.
