data_PCOD8087902
_publ_section_title
;
Structure prediction by ZEFSAII (Michael W. Deem and Ramdas Pophale) SiO2 
 PCOD8087902
Probable space group: C 2/M
;
_chemical_formula_sum "Si O2"
_cell_formula_units_Z 64
_cell_length_a 20.941307
_cell_length_b 8.909381
_cell_length_c 21.228234
_cell_angle_alpha 90.000000
_cell_angle_beta 62.136744
_cell_angle_gamma 90.000000
_cell_volume 3501.463799
_symmetry_space_group_name_H-M "C 2/M"
_symmetry_group_IT_number 12
_symmetry_cell_setting 'monoclinic'
loop_
_space_group_symop_operation_xyz
x,y,z
-x,y,-z
-x,-y,-z
x,-y,z
1/2+x,1/2+y,z
1/2-x,1/2+y,-z
1/2-x,1/2-y,-z
1/2+x,1/2-y,z
loop_
_atom_site_type_symbol
_atom_site_label
_atom_site_fract_x
_atom_site_fract_y
_atom_site_fract_z
Si Si1 0.454668 0.321223 0.334757
Si Si2 0.698356 0.820425 0.831607
Si Si3 0.474031 0.679806 0.824835
Si Si4 0.728917 0.176272 0.319642
Si Si5 0.405221 0.665416 0.666668
Si Si6 0.793370 0.177083 0.423911
Si Si7 0.452041 0.675508 0.082460
Si Si8 0.833527 0.163911 0.835139
O O1 0.454519 0.500000 0.332427
O O2 0.475932 0.260583 0.255304
O O3 0.513122 0.269126 0.361169
O O4 0.375377 0.259622 0.388094
O O5 0.717760 0.756273 0.754179
O O6 0.621300 0.766791 0.890804
O O7 0.756546 0.756238 0.856699
O O8 0.702444 0.000000 0.825991
O O9 0.469650 0.500000 0.825229
O O10 0.505972 0.737272 0.875774
O O11 0.391408 0.745268 0.854898
O O12 0.645093 0.226025 0.351830
O O13 0.756049 0.223516 0.375833
O O14 0.734728 0.000000 0.305418
O O15 0.407452 0.500000 0.633476
O O16 0.373003 0.647431 0.750462
O O17 0.750000 0.250000 0.500000
O O18 0.792841 0.000000 0.433004
O O19 0.434166 0.500000 0.097234
O O20 0.500000 0.710683 0.000000
O O21 0.816632 0.000000 0.871235
#
# Coordination Sequence:
#
# PCOD8087902 Si02
#       8
#     8   8   8   8   8   8   8   8
#     4   8  14  28  51  73  91 120 164 203 235 280
#     4  10  19  32  52  74  95 123 161 202 241 285
#     4   8  13  26  49  71  92 121 158 197 235 283
#     4  10  19  32  52  76 100 125 155 195 245 294
#     4   8  14  27  49  74  95 117 153 199 240 282
#     4  10  21  35  50  70  98 133 168 200 237 283
#     4  10  20  32  47  70 100 132 164 200 244 290
#     4   7  12  24  45  71  91 114 153 195 234 278
#
# _framework density 18.278068999999999
#
# number of rings (size 3 to 8) (size 9 to 14) (size 15 to 20)
#    0.000    3.125    0.000    3.750    0.000    3.250 
#    0.000    1.875    0.000   14.250    0.000    0.000 
#    0.000    0.000    0.000    0.000    0.000    0.000 
#
# Total GULP energy -396457.823442 kJ/mol
# GULP energy per Si atom -12389.306983 kJ/mol
# Density = 1.823647 g / cm^3
# Si number density = 18.278069 Si / 1000 Ang^3
#
#
#
# Elastic Constant Matrix: (Units=GPa)
#
#
# Indices 1 2 3 4 5 6 
#
# 1 186.1111 34.7869 72.1504 0.0002 -23.1394 0.0005
# 2 34.7869 34.9242 26.0050 0.0005 -6.0713 0.0012
# 3 72.1504 26.0050 87.2689 0.0001 -13.9975 0.0000
# 4 0.0002 0.0005 0.0001 20.5117 -0.0001 -5.0148
# 5 -23.1394 -6.0713 -13.9975 -0.0001 9.3114 0.0001
# 6 0.0005 0.0012 0.0000 -5.0148 0.0001 23.7156
#
#
#
# Elastic Compliance Matrix: (Units=1/GPa)
#
#
# Indices 1 2 3 4 5 6 
#
# 1 0.009649 -0.003682 -0.004505 0.000000 0.014804 0.000000
# 2 -0.003682 0.038909 -0.007838 -0.000001 0.004436 -0.000002
# 3 -0.004505 -0.007838 0.019639 0.000000 0.013216 0.000001
# 4 0.000000 -0.000001 0.000000 0.051411 0.000000 0.010871
# 5 0.014804 0.004436 0.013216 0.000000 0.166942 -0.000001
# 6 0.000000 -0.000002 0.000001 0.010871 -0.000001 0.044465
#
#
# Mechanical properties :
#
#
# Convention : Reuss Voigt Hill
#
# Bulk Modulus (GPa) = 27.66679 63.79874 45.73276
# Shear Modulus (GPa) = 13.32922 22.39852 17.86387
#
# Velocity S-wave (km/s) = 2.70339 3.50441 3.12963
# Velocity P-wave (km/s) = 4.99138 7.16623 6.17530
#
# Compressibility (1/GPa) = 0.03614442
#
# Stress axis : x y z
#
# Youngs Moduli (GPa) = 103.64221 25.70093 50.91863
#
# Poissons Ratio (x) = 0.09464 0.22940
# Poissons Ratio (y) = 0.38165 0.39912
# Poissons Ratio (z) = 0.46694 0.20146
#
# Static dielectric constant tensor:
#      x y z
#    x 4.159810 0.000000 -0.063260 
#    y 0.000000 2.980210 0.000000 
#    z -0.063260 0.000000 3.093560 
# 
# 
# High freq. dielectric constant tensor:
#      x y z
#    x 1.738010 0.000000 -0.004900 
#    y 0.000000 1.664700 0.000000 
#    z -0.004900 0.000000 1.672350 
# 
# From -- ./inp_files/319911.got.cif
#   From: 2010.06.25/outbox.cif.g09.slc.cpg/sg12_160_cif.got.tgz:319911.got - 2010.06.28 00:19:55.
