data_PCOD8087969
_publ_section_title
;
Structure prediction by ZEFSAII (Michael W. Deem and Ramdas Pophale) SiO2 
 PCOD8087969
Probable space group: C 2/M
;
_chemical_formula_sum "Si O2"
_cell_formula_units_Z 48
_cell_length_a 18.025126
_cell_length_b 9.012568
_cell_length_c 31.720655
_cell_angle_alpha 90.000000
_cell_angle_beta 151.143782
_cell_angle_gamma 90.000000
_cell_volume 2486.956933
_symmetry_space_group_name_H-M "C 2/M"
_symmetry_group_IT_number 12
_symmetry_cell_setting 'monoclinic'
loop_
_space_group_symop_operation_xyz
x,y,z
-x,y,-z
-x,-y,-z
x,-y,z
1/2+x,1/2+y,z
1/2-x,1/2+y,-z
1/2-x,1/2-y,-z
1/2+x,1/2-y,z
loop_
_atom_site_type_symbol
_atom_site_label
_atom_site_fract_x
_atom_site_fract_y
_atom_site_fract_z
Si Si1 0.948591 0.675609 0.858227
Si Si2 0.661756 0.326258 0.493924
Si Si3 0.892856 0.827050 0.304602
Si Si4 0.886918 0.175885 0.659922
Si Si5 0.954190 0.671999 0.186052
Si Si6 0.601354 0.327617 0.011498
O O1 0.947054 0.500000 0.862212
O O2 0.776696 0.744302 0.777495
O O3 0.016685 0.723043 0.847190
O O4 0.059127 0.740656 0.948500
O O5 0.700211 0.500000 0.514878
O O6 0.750000 0.250000 0.500000
O O7 0.481038 0.299689 0.393251
O O8 0.719700 0.248009 0.565778
O O9 0.988977 0.763467 0.312648
O O10 0.874324 0.000000 0.287317
O O11 0.936700 0.229016 0.730588
O O12 0.870028 0.000000 0.650403
O O13 0.997042 0.500000 0.213762
O O14 0.778128 0.703335 0.110585
O O15 0.569966 0.500000 0.987494
O O16 0.500000 0.268258 0.000000
#
# Coordination Sequence:
#
# PCOD8087969 Si02
#       6
#     8   8   8   8   8   8
#     4  10  20  35  54  75 100 131 169 207 245 295
#     4   9  16  29  50  75 103 132 166 209 253 294
#     4   8  16  31  51  75  99 127 167 210 247 289
#     4  10  19  32  52  76 101 131 170 211 250 295
#     4  10  21  35  51  73 102 135 167 203 250 300
#     4  10  21  36  53  76 104 131 163 204 251 300
#
# _framework density 19.300695000000001
#
# number of rings (size 3 to 8) (size 9 to 14) (size 15 to 20)
#    0.000    2.500    0.000    3.500    0.000    1.667 
#    0.000    5.000    0.000    5.000    0.000    0.000 
#    0.000    0.000    0.000    0.000    0.000    0.000 
#
# Total GULP energy -297527.501907 kJ/mol
# GULP energy per Si atom -12396.979246 kJ/mol
# Density = 1.925677 g / cm^3
# Si number density = 19.300695 Si / 1000 Ang^3
#
#
#
# Elastic Constant Matrix: (Units=GPa)
#
#
# Indices 1 2 3 4 5 6 
#
# 1 65.0536 19.3965 18.4822 0.0000 -21.4223 0.0000
# 2 19.3965 61.0536 38.2071 0.0001 -15.6034 -0.0001
# 3 18.4822 38.2071 95.8770 -0.0001 -29.5344 0.0001
# 4 0.0000 0.0001 -0.0001 34.7039 0.0000 -10.0228
# 5 -21.4223 -15.6034 -29.5344 0.0000 30.3676 0.0001
# 6 0.0000 -0.0001 0.0001 -10.0228 0.0001 20.2579
#
#
#
# Elastic Compliance Matrix: (Units=1/GPa)
#
#
# Indices 1 2 3 4 5 6 
#
# 1 0.020840 -0.004246 0.002186 0.000000 0.014646 0.000000
# 2 -0.004246 0.023020 -0.008044 0.000000 0.001010 0.000000
# 3 0.002186 -0.008044 0.017727 0.000000 0.014650 0.000000
# 4 0.000000 0.000000 0.000000 0.033619 0.000000 0.016633
# 5 0.014646 0.001010 0.014650 0.000000 0.058028 0.000000
# 6 0.000000 0.000000 0.000000 0.016633 0.000000 0.057593
#
#
# Mechanical properties :
#
#
# Convention : Reuss Voigt Hill
#
# Bulk Modulus (GPa) = 24.16679 41.57288 32.86983
# Shear Modulus (GPa) = 20.42267 26.79246 23.60756
#
# Velocity S-wave (km/s) = 3.25642 3.72984 3.50114
# Velocity P-wave (km/s) = 5.16599 6.33524 5.78026
#
# Compressibility (1/GPa) = 0.04137909
#
# Stress axis : x y z
#
# Youngs Moduli (GPa) = 47.98564 43.44083 56.41164
#
# Poissons Ratio (x) = 0.18444 -0.12333
# Poissons Ratio (y) = 0.20374 0.45377
# Poissons Ratio (z) = -0.10491 0.34944
#
# Static dielectric constant tensor:
#      x y z
#    x 3.473650 0.000000 0.135090 
#    y 0.000000 3.354130 0.000000 
#    z 0.135090 0.000000 3.844610 
# 
# 
# High freq. dielectric constant tensor:
#      x y z
#    x 1.728660 0.000000 -0.004260 
#    y 0.000000 1.733070 0.000000 
#    z -0.004260 0.000000 1.769370 
# 
# From -- ./inp_files/274063.got.cif
#   From: 2010.06.25/outbox.cif.g09.slc.cpg/sg12_138_cif.got.tgz:274063.got - 2010.06.28 00:19:55.
