data_PCOD8087382
_publ_section_title
;
Structure prediction by ZEFSAII (Michael W. Deem and Ramdas Pophale) SiO2 
 PCOD8087382
Probable space group: C 2/M
;
_chemical_formula_sum "Si O2"
_cell_formula_units_Z 64
_cell_length_a 20.408967
_cell_length_b 9.340219
_cell_length_c 19.686517
_cell_angle_alpha 90.000000
_cell_angle_beta 99.937205
_cell_angle_gamma 90.000000
_cell_volume 3696.426599
_symmetry_space_group_name_H-M "C 2/M"
_symmetry_group_IT_number 12
_symmetry_cell_setting 'monoclinic'
loop_
_space_group_symop_operation_xyz
x,y,z
-x,y,-z
-x,-y,-z
x,-y,z
1/2+x,1/2+y,z
1/2-x,1/2+y,-z
1/2-x,1/2-y,-z
1/2+x,1/2-y,z
loop_
_atom_site_type_symbol
_atom_site_label
_atom_site_fract_x
_atom_site_fract_y
_atom_site_fract_z
Si Si1 0.180792 0.834819 0.916418
Si Si2 0.025506 0.169740 0.668424
Si Si3 0.757037 0.834266 0.570718
Si Si4 0.171771 0.334254 0.050950
Si Si5 0.639793 0.669191 0.587107
Si Si6 0.532142 0.166505 0.077688
Si Si7 0.400549 0.335906 0.568303
Si Si8 0.952164 0.831801 0.177037
O O1 0.255735 0.796418 0.903546
O O2 0.126112 0.798695 0.849462
O O3 0.177517 0.000000 0.936620
O O4 0.161431 0.748245 0.979387
O O5 0.090617 0.213004 0.638198
O O6 0.030918 0.230850 0.745545
O O7 0.961495 0.239081 0.618963
O O8 0.018808 0.000000 0.671000
O O9 0.750000 0.750000 0.500000
O O10 0.708571 0.754392 0.615389
O O11 0.834970 0.821449 0.604290
O O12 0.736421 0.000000 0.558599
O O13 0.167146 0.500000 0.030692
O O14 0.111259 0.295864 0.090906
O O15 0.654646 0.500000 0.586892
O O16 0.610352 0.726268 0.509661
O O17 0.499288 0.256682 0.131299
O O18 0.519660 0.000000 0.090567
O O19 0.500000 0.210128 0.000000
O O20 0.420269 0.500000 0.560541
O O21 0.966325 0.000000 0.174820
#
# Coordination Sequence:
#
# PCOD8087382 Si02
#       8
#     8   8   8   8   8   8   8   8
#     4   9  17  29  46  69  93 115 145 186 230 271
#     4   9  17  30  47  68  94 125 160 195 234 278
#     4   9  16  27  46  71  96 121 153 195 238 276
#     4   9  17  30  48  68  89 116 149 184 223 271
#     4   9  16  28  49  73  94 121 160 200 235 275
#     4  10  19  32  50  70  92 122 156 187 227 283
#     4   8  14  26  47  71  92 121 161 198 226 267
#     4  10  20  32  48  70  96 123 153 196 240 277
#
# _framework density 17.314018999999998
#
# number of rings (size 3 to 8) (size 9 to 14) (size 15 to 20)
#    0.000    2.875    1.250    1.500    0.000    2.250 
#    0.000    1.875    0.000   12.000    0.000    0.000 
#    0.000    0.000    0.000    0.000    0.000    0.000 
#
# Total GULP energy -396537.371014 kJ/mol
# GULP energy per Si atom -12391.792844 kJ/mol
# Density = 1.727461 g / cm^3
# Si number density = 17.314019 Si / 1000 Ang^3
#
#
#
# Elastic Constant Matrix: (Units=GPa)
#
#
# Indices 1 2 3 4 5 6 
#
# 1 133.0192 42.5404 61.1292 0.0000 -16.5950 0.0000
# 2 42.5404 42.6806 26.1999 0.0000 -5.0004 0.0000
# 3 61.1292 26.1999 96.1371 0.0000 -13.2835 0.0000
# 4 0.0000 0.0000 0.0000 13.0748 0.0000 -4.8136
# 5 -16.5950 -5.0004 -13.2835 0.0000 15.6239 0.0000
# 6 0.0000 0.0000 0.0000 -4.8136 0.0000 26.9488
#
#
#
# Elastic Compliance Matrix: (Units=1/GPa)
#
#
# Indices 1 2 3 4 5 6 
#
# 1 0.013969 -0.009890 -0.005183 0.000000 0.007265 0.000000
# 2 -0.009890 0.035249 -0.003638 0.000000 -0.002316 0.000000
# 3 -0.005183 -0.003638 0.015600 0.000000 0.006594 0.000000
# 4 0.000000 0.000000 0.000000 0.081867 0.000000 0.014623
# 5 0.007265 -0.002316 0.006594 0.000000 0.076586 0.000000
# 6 0.000000 0.000000 0.000000 0.014623 0.000000 0.039719
#
#
# Mechanical properties :
#
#
# Convention : Reuss Voigt Hill
#
# Bulk Modulus (GPa) = 36.50133 59.06398 47.78265
# Shear Modulus (GPa) = 16.15281 20.59400 18.37341
#
# Velocity S-wave (km/s) = 3.05771 3.45257 3.26112
# Velocity P-wave (km/s) = 5.79602 7.07680 6.46819
#
# Compressibility (1/GPa) = 0.02739626
#
# Stress axis : x y z
#
# Youngs Moduli (GPa) = 71.58765 28.36941 64.10318
#
# Poissons Ratio (x) = 0.28058 0.33225
# Poissons Ratio (y) = 0.70802 0.23319
# Poissons Ratio (z) = 0.37104 0.10320
#
# Static dielectric constant tensor:
#      x y z
#    x 3.862280 0.000000 0.125110 
#    y 0.000000 3.087720 0.000000 
#    z 0.125110 0.000000 3.103290 
# 
# 
# High freq. dielectric constant tensor:
#      x y z
#    x 1.690950 0.000000 0.003290 
#    y 0.000000 1.642110 0.000000 
#    z 0.003290 0.000000 1.632630 
# 
# From -- ./inp_files/319214.got.cif
#   From: 2010.06.25/outbox.cif.g09.slc.cpg/sg12_160_cif.got.tgz:319214.got - 2010.06.28 00:19:55.
