data_PCOD8087094
_publ_section_title
;
Structure prediction by ZEFSAII (Michael W. Deem and Ramdas Pophale) SiO2 
 PCOD8087094
Probable space group: C 2/M
;
_chemical_formula_sum "Si O2"
_cell_formula_units_Z 64
_cell_length_a 23.817596
_cell_length_b 8.864578
_cell_length_c 16.382892
_cell_angle_alpha 90.000000
_cell_angle_beta 92.436823
_cell_angle_gamma 90.000000
_cell_volume 3455.840206
_symmetry_space_group_name_H-M "C 2/M"
_symmetry_group_IT_number 12
_symmetry_cell_setting 'monoclinic'
loop_
_space_group_symop_operation_xyz
x,y,z
-x,y,-z
-x,-y,-z
x,-y,z
1/2+x,1/2+y,z
1/2-x,1/2+y,-z
1/2-x,1/2-y,-z
1/2+x,1/2-y,z
loop_
_atom_site_type_symbol
_atom_site_label
_atom_site_fract_x
_atom_site_fract_y
_atom_site_fract_z
Si Si1 0.599772 0.326559 0.309924
Si Si2 0.399779 0.173513 0.120847
Si Si3 0.695367 0.677156 0.778880
Si Si4 0.021923 0.326765 0.185282
Si Si5 0.093650 0.823308 0.052331
Si Si6 0.809086 0.829256 0.824268
Si Si7 0.674537 0.174932 0.434747
Si Si8 0.287973 0.825315 0.386359
O O1 0.587765 0.500000 0.329661
O O2 0.543527 0.254794 0.268645
O O3 0.650014 0.305518 0.249342
O O4 0.616684 0.239592 0.394042
O O5 0.348195 0.250370 0.162213
O O6 0.454788 0.189039 0.180505
O O7 0.385194 0.000000 0.102624
O O8 0.410996 0.255374 0.036841
O O9 0.686678 0.500000 0.777995
O O10 0.757761 0.714708 0.814030
O O11 0.684028 0.739423 0.687410
O O12 0.041240 0.500000 0.188397
O O13 0.046612 0.252084 0.105598
O O14 0.156163 0.793315 0.091477
O O15 0.080500 0.000000 0.049667
O O16 0.785753 0.000000 0.823947
O O17 0.672908 0.199836 0.532114
O O18 0.725803 0.264947 0.398435
O O19 0.681989 0.000000 0.413101
O O20 0.282263 0.000000 0.362974
#
# Coordination Sequence:
#
# PCOD8087094 Si02
#       8
#     8   8   8   8   8   8   8   8
#     4  10  19  32  55  83 113 145 176 223 276 318
#     4  11  24  40  57  77 106 146 185 226 275 326
#     4  12  24  36  55  79 108 147 186 225 269 325
#     4  10  21  37  58  82 108 141 183 227 273 324
#     4  10  21  37  59  84 109 138 177 229 278 322
#     4   9  19  35  53  77 110 145 177 215 271 326
#     4  10  19  31  53  83 112 144 181 219 264 320
#     4  10  20  34  52  78 114 148 178 219 268 320
#
# _framework density 18.519375
#
# number of rings (size 3 to 8) (size 9 to 14) (size 15 to 20)
#    0.000    1.750    1.250    4.500    0.000    8.000 
#    0.000    0.000    0.000    0.750    0.000    5.250 
#    0.000    0.000    0.000    0.000    0.000    0.000 
#
# Total GULP energy -396907.970104 kJ/mol
# GULP energy per Si atom -12403.374066 kJ/mol
# Density = 1.847722 g / cm^3
# Si number density = 18.519375 Si / 1000 Ang^3
#
#
#
# Elastic Constant Matrix: (Units=GPa)
#
#
# Indices 1 2 3 4 5 6 
#
# 1 49.2199 24.4474 11.7615 0.0000 16.2917 0.0000
# 2 24.4474 145.8670 24.1774 0.0000 18.9083 0.0000
# 3 11.7615 24.1774 50.6125 0.0000 27.1791 0.0000
# 4 0.0000 0.0000 0.0000 33.9920 0.0000 3.5523
# 5 16.2917 18.9083 27.1791 0.0000 27.3925 0.0000
# 6 0.0000 0.0000 0.0000 3.5523 0.0000 28.2069
#
#
#
# Elastic Compliance Matrix: (Units=1/GPa)
#
#
# Indices 1 2 3 4 5 6 
#
# 1 0.026899 -0.002905 0.005675 0.000000 -0.019623 0.000000
# 2 -0.002905 0.007914 -0.002354 0.000000 -0.001399 0.000000
# 3 0.005675 -0.002354 0.043888 0.000000 -0.045296 0.000000
# 4 0.000000 0.000000 0.000000 0.029811 0.000000 -0.003754
# 5 -0.019623 -0.001399 -0.045296 0.000000 0.094086 0.000000
# 6 0.000000 0.000000 0.000000 -0.003754 0.000000 0.035925
#
#
# Mechanical properties :
#
#
# Convention : Reuss Voigt Hill
#
# Bulk Modulus (GPa) = 12.57349 40.71910 26.64630
# Shear Modulus (GPa) = 18.92482 30.27250 24.59866
#
# Velocity S-wave (km/s) = 3.20017 4.04745 3.64849
# Velocity P-wave (km/s) = 4.52315 6.62401 5.67170
#
# Compressibility (1/GPa) = 0.07953242
#
# Stress axis : x y z
#
# Youngs Moduli (GPa) = 37.17573 126.35789 22.78533
#
# Poissons Ratio (x) = 0.36709 -0.12930
# Poissons Ratio (y) = 0.10800 0.05363
# Poissons Ratio (z) = -0.21096 0.29743
#
# Static dielectric constant tensor:
#      x y z
#    x 3.206550 0.000000 0.327030 
#    y 0.000000 3.574720 0.000000 
#    z 0.327030 0.000000 3.473040 
# 
# 
# High freq. dielectric constant tensor:
#      x y z
#    x 1.696390 0.000000 0.026470 
#    y 0.000000 1.736910 0.000000 
#    z 0.026470 0.000000 1.716630 
# 
# From -- ./inp_files/238560.got.cif
#   From: 2010.06.25/outbox.cif.g09.slc.cpg/sg12_120_cif.got.tgz:238560.got - 2010.06.28 00:19:55.
