data_PCOD8087255
_publ_section_title
;
Structure prediction by ZEFSAII (Michael W. Deem and Ramdas Pophale) SiO2 
 PCOD8087255
Probable space group: C 2/M
;
_chemical_formula_sum "Si O2"
_cell_formula_units_Z 56
_cell_length_a 28.441186
_cell_length_b 8.803463
_cell_length_c 14.050612
_cell_angle_alpha 90.000000
_cell_angle_beta 59.908803
_cell_angle_gamma 90.000000
_cell_volume 3043.878302
_symmetry_space_group_name_H-M "C 2/M"
_symmetry_group_IT_number 12
_symmetry_cell_setting 'monoclinic'
loop_
_space_group_symop_operation_xyz
x,y,z
-x,y,-z
-x,-y,-z
x,-y,z
1/2+x,1/2+y,z
1/2-x,1/2+y,-z
1/2-x,1/2-y,-z
1/2+x,1/2-y,z
loop_
_atom_site_type_symbol
_atom_site_label
_atom_site_fract_x
_atom_site_fract_y
_atom_site_fract_z
Si Si1 0.621818 0.322932 0.637682
Si Si2 0.573802 0.820396 0.366641
Si Si3 0.298879 0.175699 0.073753
Si Si4 0.773920 0.822696 0.569066
Si Si5 0.029101 0.181005 0.601711
Si Si6 0.318225 0.320739 0.238309
Si Si7 0.186016 0.323302 0.155360
O O1 0.620647 0.500000 0.659318
O O2 0.661631 0.291069 0.506542
O O3 0.562397 0.268048 0.663231
O O4 0.642868 0.250894 0.716925
O O5 0.563113 0.733234 0.475291
O O6 0.528967 0.764212 0.335351
O O7 0.632880 0.775183 0.267956
O O8 0.567948 0.000000 0.387646
O O9 0.335409 0.261739 0.116479
O O10 0.236235 0.226525 0.141848
O O11 0.301178 0.000000 0.095923
O O12 0.324756 0.212878 0.944984
O O13 0.750000 0.750000 0.500000
O O14 0.744404 0.737149 0.685949
O O15 0.760491 0.000000 0.589024
O O16 0.021724 0.000000 0.604790
O O17 0.319049 0.500000 0.239814
O O18 0.200204 0.500000 0.154358
#
# Coordination Sequence:
#
# PCOD8087255 Si02
#       7
#     8   8   8   8   8   8   8
#     4   8  17  31  47  68  99 132 164 202 244 290
#     4  10  20  35  52  74 101 130 164 206 253 298
#     4  10  20  34  53  77 101 129 168 209 249 302
#     4   9  16  28  43  65  95 131 167 201 240 288
#     4  10  19  33  52  76 101 131 169 205 245 294
#     4  10  19  32  48  70 101 135 166 204 249 299
#     4   9  20  37  54  73 101 133 165 206 256 302
#
# _framework density 18.397580999999999
#
# number of rings (size 3 to 8) (size 9 to 14) (size 15 to 20)
#    0.000    2.571    0.000    3.857    2.000    1.714 
#    0.000    7.857    0.000    0.857    0.000    6.000 
#    0.000    0.000    0.000    0.000    0.000    0.000 
#
# Total GULP energy -346933.180384 kJ/mol
# GULP energy per Si atom -12390.470728 kJ/mol
# Density = 1.835571 g / cm^3
# Si number density = 18.397581 Si / 1000 Ang^3
#
#
#
# Elastic Constant Matrix: (Units=GPa)
#
#
# Indices 1 2 3 4 5 6 
#
# 1 72.6711 12.8433 11.8335 0.0000 10.8705 0.0000
# 2 12.8433 47.3443 9.6181 0.0000 1.9773 0.0000
# 3 11.8335 9.6181 47.4916 0.0000 2.7547 0.0000
# 4 0.0000 0.0000 0.0000 26.3151 0.0000 2.2560
# 5 10.8705 1.9773 2.7547 0.0000 29.4434 0.0000
# 6 0.0000 0.0000 0.0000 2.2560 0.0000 23.9956
#
#
#
# Elastic Compliance Matrix: (Units=1/GPa)
#
#
# Indices 1 2 3 4 5 6 
#
# 1 0.015626 -0.003431 -0.002893 0.000000 -0.005268 0.000000
# 2 -0.003431 0.022815 -0.003771 0.000000 0.000087 0.000000
# 3 -0.002893 -0.003771 0.022587 0.000000 -0.000792 0.000000
# 4 0.000000 0.000000 0.000000 0.038310 0.000000 -0.003602
# 5 -0.005268 0.000087 -0.000792 0.000000 0.035977 0.000000
# 6 0.000000 0.000000 0.000000 -0.003602 0.000000 0.042013
#
#
# Mechanical properties :
#
#
# Convention : Reuss Voigt Hill
#
# Bulk Modulus (GPa) = 24.48701 26.23301 25.36001
# Shear Modulus (GPa) = 23.68210 24.83164 24.25687
#
# Velocity S-wave (km/s) = 3.59170 3.67784 3.63503
# Velocity P-wave (km/s) = 5.52623 5.68553 5.60645
#
# Compressibility (1/GPa) = 0.04083797
#
# Stress axis : x y z
#
# Youngs Moduli (GPa) = 63.99523 43.83076 44.27366
#
# Poissons Ratio (x) = 0.15039 0.12809
# Poissons Ratio (y) = 0.21958 0.16694
# Poissons Ratio (z) = 0.18515 0.16527
#
# Static dielectric constant tensor:
#      x y z
#    x 3.731860 0.000000 -0.098740 
#    y 0.000000 3.380680 0.000000 
#    z -0.098740 0.000000 3.785140 
# 
# 
# High freq. dielectric constant tensor:
#      x y z
#    x 1.708080 0.000000 0.017540 
#    y 0.000000 1.711570 0.000000 
#    z 0.017540 0.000000 1.691210 
# 
# From -- ./inp_files/248158.got.cif
#   From: 2010.06.25/outbox.cif.g09.slc.cpg/sg12_125_cif.got.tgz:248158.got - 2010.06.28 00:19:55.
