data_PCOD8087133
_publ_section_title
;
Structure prediction by ZEFSAII (Michael W. Deem and Ramdas Pophale) SiO2 
 PCOD8087133
Probable space group: C 2/M
;
_chemical_formula_sum "Si O2"
_cell_formula_units_Z 56
_cell_length_a 17.098857
_cell_length_b 17.666049
_cell_length_c 20.233067
_cell_angle_alpha 90.000000
_cell_angle_beta 29.374863
_cell_angle_gamma 90.000000
_cell_volume 2997.962972
_symmetry_space_group_name_H-M "C 2/M"
_symmetry_group_IT_number 12
_symmetry_cell_setting 'monoclinic'
loop_
_space_group_symop_operation_xyz
x,y,z
-x,y,-z
-x,-y,-z
x,-y,z
1/2+x,1/2+y,z
1/2-x,1/2+y,-z
1/2-x,1/2-y,-z
1/2+x,1/2-y,z
loop_
_atom_site_type_symbol
_atom_site_label
_atom_site_fract_x
_atom_site_fract_y
_atom_site_fract_z
Si Si1 0.623642 0.167178 0.050540
Si Si2 0.524304 0.412023 0.405732
Si Si3 0.176852 0.287527 0.154050
Si Si4 0.045823 0.912145 0.176863
Si Si5 0.103722 0.086538 0.985487
Si Si6 0.119608 0.414596 0.851684
Si Si7 0.099595 0.806009 0.608016
O O1 0.593444 0.203519 0.144103
O O2 0.455099 0.131505 0.154033
O O3 0.667006 0.234456 0.967852
O O4 0.768947 0.106454 0.943967
O O5 0.500000 0.394395 0.500000
O O6 0.494753 0.500000 0.410681
O O7 0.705602 0.386454 0.254541
O O8 0.398057 0.363344 0.455918
O O9 0.048304 0.249998 0.296433
O O10 0.230953 0.368099 0.142145
O O11 0.015069 0.898606 0.121070
O O12 0.928177 0.856977 0.305095
O O13 0.014862 0.000000 0.218880
O O14 0.153460 0.000000 0.941977
O O15 0.000000 0.113347 0.000000
O O16 0.138463 0.500000 0.812233
O O17 0.000000 0.407393 0.000000
O O18 0.250000 0.750000 0.500000
#
# Coordination Sequence:
#
# PCOD8087133 Si02
#       7
#     8   8   8   8   8   8   8
#     4   9  17  30  52  81 112 134 172 231 285 347
#     4  10  23  42  59  82 117 156 195 240 291 344
#     4   9  19  33  49  78 109 140 178 229 286 331
#     4   9  17  34  59  82 110 149 186 229 282 340
#     4   9  18  34  56  82 109 139 180 231 289 342
#     4  10  19  31  54  84 109 140 184 233 287 347
#     4  11  23  38  55  80 112 154 195 231 269 340
#
# _framework density 18.679348999999998
#
# number of rings (size 3 to 8) (size 9 to 14) (size 15 to 20)
#    0.000    2.429    0.000    3.429    2.000    3.429 
#    2.571    1.429    0.000    0.000    0.000    3.000 
#    0.000    0.000    0.000    0.000    0.000    0.000 
#
# Total GULP energy -347049.408752 kJ/mol
# GULP energy per Si atom -12394.621741 kJ/mol
# Density = 1.863683 g / cm^3
# Si number density = 18.679349 Si / 1000 Ang^3
#
#
#
# Elastic Constant Matrix: (Units=GPa)
#
#
# Indices 1 2 3 4 5 6 
#
# 1 91.2980 48.7347 29.0477 0.0004 2.4952 -0.0014
# 2 48.7347 95.1786 43.5519 0.0011 -3.5511 0.0085
# 3 29.0477 43.5519 61.9942 -0.0018 2.6852 0.0029
# 4 0.0004 0.0011 -0.0018 28.5663 -0.0014 -6.7610
# 5 2.4952 -3.5511 2.6852 -0.0014 21.8709 0.0016
# 6 -0.0014 0.0085 0.0029 -6.7610 0.0016 35.3932
#
#
#
# Elastic Compliance Matrix: (Units=1/GPa)
#
#
# Indices 1 2 3 4 5 6 
#
# 1 0.015469 -0.007007 -0.002212 0.000000 -0.002631 0.000003
# 2 -0.007007 0.018991 -0.010281 -0.000002 0.005145 -0.000005
# 3 -0.002212 -0.010281 0.024582 0.000002 -0.004435 0.000001
# 4 0.000000 -0.000002 0.000002 0.036664 0.000001 0.007004
# 5 -0.002631 0.005145 -0.004435 0.000001 0.047403 -0.000003
# 6 0.000003 -0.000005 0.000001 0.007004 -0.000003 0.029592
#
#
# Mechanical properties :
#
#
# Convention : Reuss Voigt Hill
#
# Bulk Modulus (GPa) = 49.89499 54.57103 52.23301
# Shear Modulus (GPa) = 22.89591 25.64184 24.26888
#
# Velocity S-wave (km/s) = 3.50485 3.70907 3.60840
# Velocity P-wave (km/s) = 6.56871 6.90079 6.73680
#
# Compressibility (1/GPa) = 0.02004209
#
# Stress axis : x y z
#
# Youngs Moduli (GPa) = 64.64581 52.65757 40.68086
#
# Poissons Ratio (x) = 0.36896 0.08998
# Poissons Ratio (y) = 0.45295 0.41824
# Poissons Ratio (z) = 0.14298 0.54138
#
# Static dielectric constant tensor:
#      x y z
#    x 3.423870 -0.000030 0.076360 
#    y -0.000030 3.643200 0.000030 
#    z 0.076360 0.000030 3.218010 
# 
# 
# High freq. dielectric constant tensor:
#      x y z
#    x 1.716370 0.000000 0.011160 
#    y 0.000000 1.738660 0.000000 
#    z 0.011160 0.000000 1.694230 
# 
# From -- ./inp_files/317144.got.cif
#   From: 2010.06.25/outbox.cif.g09.slc.cpg/sg12_159_cif.got.tgz:317144.got - 2010.06.28 00:19:55.
