data_PCOD8087483
_publ_section_title
;
Structure prediction by ZEFSAII (Michael W. Deem and Ramdas Pophale) SiO2 
 PCOD8087483
Probable space group: C 2/M
;
_chemical_formula_sum "Si O2"
_cell_formula_units_Z 56
_cell_length_a 23.408199
_cell_length_b 9.019153
_cell_length_c 15.500654
_cell_angle_alpha 90.000000
_cell_angle_beta 90.271229
_cell_angle_gamma 90.000000
_cell_volume 3272.494394
_symmetry_space_group_name_H-M "C 2/M"
_symmetry_group_IT_number 12
_symmetry_cell_setting 'monoclinic'
loop_
_space_group_symop_operation_xyz
x,y,z
-x,y,-z
-x,-y,-z
x,-y,z
1/2+x,1/2+y,z
1/2-x,1/2+y,-z
1/2-x,1/2-y,-z
1/2+x,1/2-y,z
loop_
_atom_site_type_symbol
_atom_site_label
_atom_site_fract_x
_atom_site_fract_y
_atom_site_fract_z
Si Si1 0.936574 0.823585 0.998948
Si Si2 0.636092 0.674831 0.839124
Si Si3 0.932156 0.333476 0.499406
Si Si4 0.935206 0.173474 0.328616
Si Si5 0.632115 0.325078 0.162911
Si Si6 0.246557 0.324372 0.906186
Si Si7 0.066546 0.825009 0.328843
O O1 0.904949 0.771893 0.084730
O O2 0.938552 0.000000 0.994392
O O3 0.903646 0.756593 0.916622
O O4 0.000000 0.756610 0.000000
O O5 0.648655 0.500000 0.844107
O O6 0.605072 0.720124 0.750620
O O7 0.694803 0.763440 0.848724
O O8 0.908203 0.500000 0.501005
O O9 0.910107 0.254700 0.412548
O O10 0.909718 0.248451 0.583618
O O11 0.000000 0.329468 0.500000
O O12 0.000727 0.219792 0.308974
O O13 0.932264 0.000000 0.346768
O O14 0.623643 0.500000 0.162499
O O15 0.697970 0.282000 0.149982
O O16 0.606455 0.262560 0.252130
O O17 0.241678 0.500000 0.919992
O O18 0.250000 0.250000 0.000000
O O19 0.072294 0.000000 0.339737
#
# Coordination Sequence:
#
# PCOD8087483 Si02
#       7
#     8   8   8   8   8   8   8
#     4   9  15  25  45  72  99 125 155 195 241 287
#     4  10  19  32  50  74 100 127 164 207 245 288
#     4   9  17  29  46  70 102 135 160 189 238 299
#     4   9  17  29  49  76 101 126 160 201 244 289
#     4   9  17  29  47  71  96 124 162 204 242 283
#     4  11  21  35  52  70  95 131 172 208 244 287
#     4   9  16  29  50  75  99 125 161 204 245 287
#
# _framework density 17.112328999999999
#
# number of rings (size 3 to 8) (size 9 to 14) (size 15 to 20)
#    0.000    2.571    1.429    1.714    0.000    5.714 
#    0.000    1.429    0.000    1.286    0.000    0.000 
#    0.000    0.000    0.000    0.000    0.000    0.000 
#
# Total GULP energy -347154.351685 kJ/mol
# GULP energy per Si atom -12398.369703 kJ/mol
# Density = 1.707338 g / cm^3
# Si number density = 17.112329 Si / 1000 Ang^3
#
#
#
# Elastic Constant Matrix: (Units=GPa)
#
#
# Indices 1 2 3 4 5 6 
#
# 1 121.2387 37.6976 79.1637 0.0000 -0.4864 0.0000
# 2 37.6976 46.9925 50.7751 0.0000 -0.4926 0.0000
# 3 79.1637 50.7751 178.7426 0.0000 -0.6163 0.0000
# 4 0.0000 0.0000 0.0000 15.4329 0.0000 4.9789
# 5 -0.4864 -0.4926 -0.6163 0.0000 14.5686 0.0000
# 6 0.0000 0.0000 0.0000 4.9789 0.0000 21.2845
#
#
#
# Elastic Compliance Matrix: (Units=1/GPa)
#
#
# Indices 1 2 3 4 5 6 
#
# 1 0.012646 -0.005905 -0.003923 0.000000 0.000057 0.000000
# 2 -0.005905 0.033468 -0.006890 0.000000 0.000643 0.000000
# 3 -0.003923 -0.006890 0.009289 0.000000 0.000029 0.000000
# 4 0.000000 0.000000 0.000000 0.070086 0.000000 -0.016395
# 5 0.000057 0.000643 0.000029 0.000000 0.068666 0.000000
# 6 0.000000 0.000000 0.000000 -0.016395 0.000000 0.050818
#
#
# Mechanical properties :
#
#
# Convention : Reuss Voigt Hill
#
# Bulk Modulus (GPa) = 45.52161 75.80518 60.66340
# Shear Modulus (GPa) = 17.49893 22.21303 19.85598
#
# Velocity S-wave (km/s) = 3.20127 3.60679 3.41006
# Velocity P-wave (km/s) = 6.35008 7.85748 7.14365
#
# Compressibility (1/GPa) = 0.02196759
#
# Stress axis : x y z
#
# Youngs Moduli (GPa) = 79.07446 29.87913 107.64920
#
# Poissons Ratio (x) = 0.17645 0.42233
# Poissons Ratio (y) = 0.46696 0.74166
# Poissons Ratio (z) = 0.31023 0.20586
#
# Static dielectric constant tensor:
#      x y z
#    x 3.153760 0.000000 -0.041010 
#    y 0.000000 2.958190 0.000000 
#    z -0.041010 0.000000 3.375800 
# 
# 
# High freq. dielectric constant tensor:
#      x y z
#    x 1.641520 0.000000 -0.000700 
#    y 0.000000 1.632800 0.000000 
#    z -0.000700 0.000000 1.669750 
# 
# From -- ./inp_files/230889.got.cif
#   From: 2010.06.25/outbox.cif.g09.slc.cpg/sg12_116_cif.got.tgz:230889.got - 2010.06.28 00:19:55.
