data_PCOD8087868
_publ_section_title
;
Structure prediction by ZEFSAII (Michael W. Deem and Ramdas Pophale) SiO2 
 PCOD8087868
Probable space group: C 2/M
;
_chemical_formula_sum "Si O2"
_cell_formula_units_Z 64
_cell_length_a 24.373086
_cell_length_b 8.526282
_cell_length_c 20.027333
_cell_angle_alpha 90.000000
_cell_angle_beta 124.944232
_cell_angle_gamma 90.000000
_cell_volume 3411.564079
_symmetry_space_group_name_H-M "C 2/M"
_symmetry_group_IT_number 12
_symmetry_cell_setting 'monoclinic'
loop_
_space_group_symop_operation_xyz
x,y,z
-x,y,-z
-x,-y,-z
x,-y,z
1/2+x,1/2+y,z
1/2-x,1/2+y,-z
1/2-x,1/2-y,-z
1/2+x,1/2-y,z
loop_
_atom_site_type_symbol
_atom_site_label
_atom_site_fract_x
_atom_site_fract_y
_atom_site_fract_z
Si Si1 0.830298 0.816096 0.952012
Si Si2 0.838145 0.818277 0.608343
Si Si3 0.351272 0.816268 0.828331
Si Si4 0.687786 0.317995 0.824170
Si Si5 0.790870 0.318244 0.296507
Si Si6 0.098004 0.683623 0.870827
Si Si7 0.204027 0.819625 0.564748
Si Si8 0.945548 0.682193 0.773747
O O1 0.868765 0.751785 0.913469
O O2 0.751367 0.783439 0.891791
O O3 0.842882 0.000000 0.968836
O O4 0.857914 0.726221 0.034914
O O5 0.840432 0.777047 0.531036
O O6 0.781851 0.715159 0.604907
O O7 0.909604 0.779306 0.690111
O O8 0.819603 0.000000 0.605428
O O9 0.286993 0.728542 0.753952
O O10 0.413593 0.781263 0.823623
O O11 0.335167 0.000000 0.822908
O O12 0.705297 0.500000 0.843979
O O13 0.671529 0.277648 0.735686
O O14 0.624003 0.274991 0.824077
O O15 0.798295 0.500000 0.285390
O O16 0.823144 0.279211 0.391048
O O17 0.103216 0.500000 0.860768
O O18 0.022020 0.737291 0.830431
O O19 0.197858 0.000000 0.580150
O O20 0.938904 0.500000 0.751280
#
# Coordination Sequence:
#
# PCOD8087868 Si02
#       8
#     8   8   8   8   8   8   8   8
#     4  11  22  37  57  82 108 139 178 230 277 320
#     4  10  20  32  52  80 112 146 181 222 264 314
#     4  10  19  34  54  79 109 145 179 219 270 325
#     4  11  22  38  59  82 107 140 178 229 278 321
#     4  11  20  32  54  84 111 142 178 225 273 318
#     4  11  23  40  57  78 106 144 186 225 269 327
#     4  10  19  32  51  80 114 146 179 218 268 320
#     4  10  22  37  56  77 110 150 182 219 270 326
#
# _framework density 18.759723999999999
#
# number of rings (size 3 to 8) (size 9 to 14) (size 15 to 20)
#    0.000    1.500    1.250    6.750    0.000    3.500 
#    0.000    2.500    0.000    0.750    0.000    5.250 
#    0.000    0.000    0.000    0.000    0.000    0.000 
#
# Total GULP energy -396925.256056 kJ/mol
# GULP energy per Si atom -12403.914252 kJ/mol
# Density = 1.871703 g / cm^3
# Si number density = 18.759724 Si / 1000 Ang^3
#
#
#
# Elastic Constant Matrix: (Units=GPa)
#
#
# Indices 1 2 3 4 5 6 
#
# 1 116.3041 25.8348 42.0570 0.0000 -18.1381 0.0000
# 2 25.8348 66.1158 22.8608 0.0000 -5.5817 0.0000
# 3 42.0570 22.8608 60.8789 0.0000 -27.2346 0.0000
# 4 0.0000 0.0000 0.0000 30.3308 0.0000 -5.6486
# 5 -18.1381 -5.5817 -27.2346 0.0000 24.8869 0.0000
# 6 0.0000 0.0000 0.0000 -5.6486 0.0000 27.5219
#
#
#
# Elastic Compliance Matrix: (Units=1/GPa)
#
#
# Indices 1 2 3 4 5 6 
#
# 1 0.011697 -0.002052 -0.007253 0.000000 0.000128 0.000000
# 2 -0.002052 0.018271 -0.008383 0.000000 -0.006572 0.000000
# 3 -0.007253 -0.008383 0.041883 0.000000 0.038667 0.000000
# 4 0.000000 0.000000 0.000000 0.034280 0.000000 0.007036
# 5 0.000128 -0.006572 0.038667 0.000000 0.081116 0.000000
# 6 0.000000 0.000000 0.000000 0.007036 0.000000 0.037779
#
#
# Mechanical properties :
#
#
# Convention : Reuss Voigt Hill
#
# Bulk Modulus (GPa) = 27.41684 47.20044 37.30864
# Shear Modulus (GPa) = 18.34470 26.71766 22.53118
#
# Velocity S-wave (km/s) = 3.13049 3.77796 3.46936
# Velocity P-wave (km/s) = 5.26433 6.65175 5.99829
#
# Compressibility (1/GPa) = 0.03647393
#
# Stress axis : x y z
#
# Youngs Moduli (GPa) = 85.49555 54.73265 23.87625
#
# Poissons Ratio (x) = 0.11230 0.17317
# Poissons Ratio (y) = 0.17543 0.20016
# Poissons Ratio (z) = 0.62008 0.45884
#
# Static dielectric constant tensor:
#      x y z
#    x 3.428400 0.000000 -0.308690 
#    y 0.000000 3.494370 0.000000 
#    z -0.308690 0.000000 3.463540 
# 
# 
# High freq. dielectric constant tensor:
#      x y z
#    x 1.710940 0.000000 -0.030640 
#    y 0.000000 1.741990 0.000000 
#    z -0.030640 0.000000 1.719920 
# 
# From -- ./inp_files/324273.got.cif
#   From: 2010.06.25/outbox.cif.g09.slc.cpg/sg12_163_cif.got.tgz:324273.got - 2010.06.28 00:19:55.
