data_PCOD8087357
_publ_section_title
;
Structure prediction by ZEFSAII (Michael W. Deem and Ramdas Pophale) SiO2 
 PCOD8087357
Probable space group: C 2/M
;
_chemical_formula_sum "Si O2"
_cell_formula_units_Z 60
_cell_length_a 23.300859
_cell_length_b 13.653562
_cell_length_c 23.091352
_cell_angle_alpha 90.000000
_cell_angle_beta 26.538762
_cell_angle_gamma 90.000000
_cell_volume 3282.339449
_symmetry_space_group_name_H-M "C 2/M"
_symmetry_group_IT_number 12
_symmetry_cell_setting 'monoclinic'
loop_
_space_group_symop_operation_xyz
x,y,z
-x,y,-z
-x,-y,-z
x,-y,z
1/2+x,1/2+y,z
1/2-x,1/2+y,-z
1/2-x,1/2-y,-z
1/2+x,1/2-y,z
loop_
_atom_site_type_symbol
_atom_site_label
_atom_site_fract_x
_atom_site_fract_y
_atom_site_fract_z
Si Si1 0.257430 0.389973 0.681731
Si Si2 0.990874 0.888588 0.140552
Si Si3 0.752428 0.883285 0.148441
Si Si4 0.724379 0.385333 0.582234
Si Si5 0.010745 0.707933 0.614623
Si Si6 0.126725 0.109113 0.546998
Si Si7 0.874616 0.212483 0.144691
Si Si8 0.000000 0.211210 0.500000
O O1 0.211792 0.500000 0.739361
O O2 0.281670 0.383290 0.591296
O O3 0.155981 0.307581 0.789568
O O4 0.381547 0.363390 0.607794
O O5 0.905430 0.841327 0.269671
O O6 0.907866 0.877819 0.156905
O O7 0.011095 0.000000 0.138456
O O8 0.136025 0.846842 0.997455
O O9 0.611362 0.853919 0.251924
O O10 0.768261 0.826515 0.195548
O O11 0.761122 0.000000 0.150341
O O12 0.733600 0.500000 0.587190
O O13 0.853935 0.339267 0.490108
O O14 0.713634 0.362731 0.523766
O O15 0.007521 0.816145 0.646735
O O16 0.005916 0.716742 0.549650
O O17 0.068622 0.000000 0.606414
O O18 0.000000 0.249363 0.000000
#
# Coordination Sequence:
#
# PCOD8087357 Si02
#       8
#     8   8   8   8   8   8   8   4
#     4  10  19  33  53  76 101 135 174 214 256 302
#     4   9  18  33  54  74 103 142 176 204 253 318
#     4  10  20  34  50  75 108 141 169 208 260 316
#     4  10  20  35  55  81 104 136 177 219 257 303
#     4  11  20  33  53  80 108 137 170 219 262 302
#     4   9  20  36  55  75 103 138 179 218 257 304
#     4  10  19  33  50  73 106 141 174 206 251 314
#     4  10  19  32  49  74 108 136 167 202 267 314
#
# _framework density 18.279644999999999
#
# number of rings (size 3 to 8) (size 9 to 14) (size 15 to 20)
#    0.000    2.133    1.333    3.000    0.000    2.400 
#    0.000    1.333    0.000    0.000    0.000    3.733 
#    0.000    0.000    0.000    0.000    0.000    0.000 
#
# Total GULP energy -371676.347883 kJ/mol
# GULP energy per Si atom -12389.211596 kJ/mol
# Density = 1.823804 g / cm^3
# Si number density = 18.279645 Si / 1000 Ang^3
#
#
#
# Elastic Constant Matrix: (Units=GPa)
#
#
# Indices 1 2 3 4 5 6 
#
# 1 103.7688 33.6954 48.7184 0.0008 1.6318 -0.0003
# 2 33.6954 80.8492 42.1820 0.0015 -2.9452 -0.0006
# 3 48.7184 42.1820 93.7140 0.0016 -10.1867 -0.0006
# 4 0.0008 0.0015 0.0016 19.0760 -0.0010 0.2088
# 5 1.6318 -2.9452 -10.1867 -0.0010 20.2158 0.0005
# 6 -0.0003 -0.0006 -0.0006 0.2088 0.0005 24.7282
#
#
#
# Elastic Compliance Matrix: (Units=1/GPa)
#
#
# Indices 1 2 3 4 5 6 
#
# 1 0.013530 -0.002449 -0.006442 0.000000 -0.004695 0.000000
# 2 -0.002449 0.016645 -0.006278 -0.000001 -0.000541 0.000000
# 3 -0.006442 -0.006278 0.017776 0.000000 0.008563 0.000000
# 4 0.000000 -0.000001 0.000000 0.052427 0.000002 -0.000443
# 5 -0.004695 -0.000541 0.008563 0.000002 0.054081 -0.000001
# 6 0.000000 0.000000 0.000000 -0.000443 -0.000001 0.040443
#
#
# Mechanical properties :
#
#
# Convention : Reuss Voigt Hill
#
# Bulk Modulus (GPa) = 56.77285 58.61372 57.69328
# Shear Modulus (GPa) = 21.63458 23.05309 22.34383
#
# Velocity S-wave (km/s) = 3.44399 3.55510 3.49998
# Velocity P-wave (km/s) = 6.85128 6.99902 6.92555
#
# Compressibility (1/GPa) = 0.01761405
#
# Stress axis : x y z
#
# Youngs Moduli (GPa) = 73.90827 60.07798 56.25532
#
# Poissons Ratio (x) = 0.14714 0.36239
# Poissons Ratio (y) = 0.18101 0.35316
# Poissons Ratio (z) = 0.47611 0.37715
#
# Static dielectric constant tensor:
#      x y z
#    x 3.370220 0.000000 0.103170 
#    y 0.000000 3.467190 0.000000 
#    z 0.103170 0.000000 3.509380 
# 
# 
# High freq. dielectric constant tensor:
#      x y z
#    x 1.698420 0.000000 0.003580 
#    y 0.000000 1.707220 0.000000 
#    z 0.003580 0.000000 1.699240 
# 
# From -- ./inp_files/322118.got.cif
#   From: 2010.06.25/outbox.cif.g09.slc.cpg/sg12_162_cif.got.tgz:322118.got - 2010.06.28 00:19:55.
