data_PCOD8087064
_publ_section_title
;
Structure prediction by ZEFSAII (Michael W. Deem and Ramdas Pophale) SiO2 
 PCOD8087064
Probable space group: C 2/M
;
_chemical_formula_sum "Si O2"
_cell_formula_units_Z 48
_cell_length_a 18.853641
_cell_length_b 9.156461
_cell_length_c 15.137069
_cell_angle_alpha 90.000000
_cell_angle_beta 89.567561
_cell_angle_gamma 90.000000
_cell_volume 2613.077582
_symmetry_space_group_name_H-M "C 2/M"
_symmetry_group_IT_number 12
_symmetry_cell_setting 'monoclinic'
loop_
_space_group_symop_operation_xyz
x,y,z
-x,y,-z
-x,-y,-z
x,-y,z
1/2+x,1/2+y,z
1/2-x,1/2+y,-z
1/2-x,1/2-y,-z
1/2+x,1/2-y,z
loop_
_atom_site_type_symbol
_atom_site_label
_atom_site_fract_x
_atom_site_fract_y
_atom_site_fract_z
Si Si1 0.328274 0.171885 0.829301
Si Si2 0.578483 0.171618 0.006419
Si Si3 0.079597 0.827455 0.513317
Si Si4 0.663901 0.833458 0.656563
Si Si5 0.674201 0.328235 0.348967
Si Si6 0.683828 0.170142 0.856667
O O1 0.352437 0.242778 0.736971
O O2 0.255700 0.239410 0.866373
O O3 0.317616 0.000000 0.816808
O O4 0.389833 0.208895 0.898353
O O5 0.628652 0.234275 0.928404
O O6 0.573211 0.000000 0.990875
O O7 0.500000 0.242042 0.000000
O O8 0.109179 0.765590 0.604297
O O9 0.127479 0.773475 0.431310
O O10 0.000000 0.769434 0.500000
O O11 0.081380 0.000000 0.520860
O O12 0.744293 0.788417 0.631559
O O13 0.650065 0.807860 0.760284
O O14 0.649957 0.000000 0.629717
O O15 0.665779 0.500000 0.330400
O O16 0.702111 0.000000 0.872579
#
# Coordination Sequence:
#
# PCOD8087064 Si02
#       6
#     8   8   8   8   8   8
#     4  10  19  31  53  80  99 125 169 212 245 285
#     4   9  18  32  50  74 104 136 168 202 243 293
#     4  10  21  35  51  73 102 134 163 198 250 302
#     4   9  18  32  52  75  96 128 170 206 243 287
#     4   9  19  36  54  72  99 133 165 201 250 299
#     4   9  18  34  54  74 101 134 164 202 252 297
#
# _framework density 18.369146000000001
#
# number of rings (size 3 to 8) (size 9 to 14) (size 15 to 20)
#    0.000    2.667    0.000    2.500    0.000    5.000 
#    0.000    2.500    0.000    4.500    0.000    0.000 
#    0.000    0.000    0.000    0.000    0.000    0.000 
#
# Total GULP energy -297635.023470 kJ/mol
# GULP energy per Si atom -12401.459311 kJ/mol
# Density = 1.832734 g / cm^3
# Si number density = 18.369146 Si / 1000 Ang^3
#
#
#
# Elastic Constant Matrix: (Units=GPa)
#
#
# Indices 1 2 3 4 5 6 
#
# 1 89.6781 30.1270 42.1853 0.0000 20.3561 0.0000
# 2 30.1270 41.3706 33.4302 0.0000 10.5833 0.0000
# 3 42.1853 33.4302 78.5509 0.0000 16.3556 0.0000
# 4 0.0000 0.0000 0.0000 26.8682 0.0000 6.2265
# 5 20.3561 10.5833 16.3556 0.0000 25.2801 0.0000
# 6 0.0000 0.0000 0.0000 6.2265 0.0000 20.5569
#
#
#
# Elastic Compliance Matrix: (Units=1/GPa)
#
#
# Indices 1 2 3 4 5 6 
#
# 1 0.017563 -0.006787 -0.004843 0.000000 -0.008168 0.000000
# 2 -0.006787 0.040297 -0.012863 0.000000 -0.003083 0.000000
# 3 -0.004843 -0.012863 0.021811 0.000000 -0.004826 0.000000
# 4 0.000000 0.000000 0.000000 0.040029 0.000000 -0.012124
# 5 -0.008168 -0.003083 -0.004826 0.000000 0.050547 0.000000
# 6 0.000000 0.000000 0.000000 -0.012124 0.000000 0.052318
#
#
# Mechanical properties :
#
#
# Convention : Reuss Voigt Hill
#
# Bulk Modulus (GPa) = 32.58944 46.78719 39.68831
# Shear Modulus (GPa) = 17.74440 21.46483 19.60462
#
# Velocity S-wave (km/s) = 3.11141 3.42208 3.27044
# Velocity P-wave (km/s) = 5.53965 6.41405 5.99282
#
# Compressibility (1/GPa) = 0.03068479
#
# Stress axis : x y z
#
# Youngs Moduli (GPa) = 56.93690 24.81568 45.84873
#
# Poissons Ratio (x) = 0.16842 0.22205
# Poissons Ratio (y) = 0.38643 0.58976
# Poissons Ratio (z) = 0.27576 0.31921
#
# Static dielectric constant tensor:
#      x y z
#    x 3.484930 0.000000 -0.131080 
#    y 0.000000 3.157140 0.000000 
#    z -0.131080 0.000000 3.461280 
# 
# 
# High freq. dielectric constant tensor:
#      x y z
#    x 1.708860 0.000000 -0.001590 
#    y 0.000000 1.690620 0.000000 
#    z -0.001590 0.000000 1.723330 
# 
# From -- ./inp_files/221557.got.cif
#   From: 2010.06.25/outbox.cif.g09.slc.cpg/sg12_111_cif.got.tgz:221557.got - 2010.06.28 00:19:55.
