data_PCOD8087837
_publ_section_title
;
Structure prediction by ZEFSAII (Michael W. Deem and Ramdas Pophale) SiO2 
 PCOD8087837
Probable space group: C 2/M
;
_chemical_formula_sum "Si O2"
_cell_formula_units_Z 64
_cell_length_a 28.118690
_cell_length_b 9.167066
_cell_length_c 14.193858
_cell_angle_alpha 90.000000
_cell_angle_beta 88.022863
_cell_angle_gamma 90.000000
_cell_volume 3656.514282
_symmetry_space_group_name_H-M "C 2/M"
_symmetry_group_IT_number 12
_symmetry_cell_setting 'monoclinic'
loop_
_space_group_symop_operation_xyz
x,y,z
-x,y,-z
-x,-y,-z
x,-y,z
1/2+x,1/2+y,z
1/2-x,1/2+y,-z
1/2-x,1/2-y,-z
1/2+x,1/2-y,z
loop_
_atom_site_type_symbol
_atom_site_label
_atom_site_fract_x
_atom_site_fract_y
_atom_site_fract_z
Si Si1 0.484099 0.829871 0.397029
Si Si2 0.155786 0.327708 0.449004
Si Si3 0.853950 0.168312 0.837851
Si Si4 0.612120 0.332314 0.623468
Si Si5 0.701313 0.329094 0.980052
Si Si6 0.311731 0.334008 0.231754
Si Si7 0.776486 0.829476 0.686719
Si Si8 0.418887 0.167627 0.704545
O O1 0.500000 0.780800 0.500000
O O2 0.439932 0.736100 0.365089
O O3 0.526282 0.797209 0.320547
O O4 0.469830 0.000000 0.399663
O O5 0.162740 0.500000 0.460471
O O6 0.145203 0.256265 0.549694
O O7 0.203934 0.257217 0.405141
O O8 0.111626 0.287228 0.384661
O O9 0.809495 0.205123 0.773873
O O10 0.901484 0.248479 0.798838
O O11 0.866878 0.000000 0.834979
O O12 0.839555 0.221138 0.943503
O O13 0.608086 0.500000 0.590791
O O14 0.636535 0.320183 0.724239
O O15 0.710963 0.500000 0.991950
O O16 0.682991 0.287774 0.877554
O O17 0.750000 0.250000 0.000000
O O18 0.292423 0.500000 0.240640
O O19 0.275932 0.226755 0.287254
O O20 0.774599 0.000000 0.662733
O O21 0.410786 0.000000 0.727361
#
# Coordination Sequence:
#
# PCOD8087837 Si02
#       8
#     8   8   8   8   8   8   8   8
#     4  10  19  36  57  78 103 135 175 215 261 316
#     4  10  19  34  53  74 104 144 178 210 259 313
#     4   9  18  31  50  79 108 130 165 216 262 302
#     4  11  23  36  51  77 107 139 179 219 260 308
#     4  10  19  34  55  78 104 138 175 217 262 308
#     4  10  22  37  52  73 107 145 178 213 261 318
#     4  10  19  32  51  78 107 136 177 221 257 304
#     4   9  18  32  53  78 103 132 169 209 257 315
#
# _framework density 17.503008000000001
#
# number of rings (size 3 to 8) (size 9 to 14) (size 15 to 20)
#    0.000    2.125    2.500    1.125    0.000    3.750 
#    0.000    0.000    0.000    0.750    0.000    5.250 
#    0.000    0.000    0.000    0.000    0.000    0.000 
#
# Total GULP energy -396862.909278 kJ/mol
# GULP energy per Si atom -12401.965915 kJ/mol
# Density = 1.746317 g / cm^3
# Si number density = 17.503008 Si / 1000 Ang^3
#
#
#
# Elastic Constant Matrix: (Units=GPa)
#
#
# Indices 1 2 3 4 5 6 
#
# 1 89.8103 48.6090 59.4578 0.0000 -8.7434 0.0000
# 2 48.6090 78.7255 48.7769 0.0000 -5.0329 0.0000
# 3 59.4578 48.7769 113.1079 0.0000 -11.5419 0.0000
# 4 0.0000 0.0000 0.0000 23.4737 0.0000 -6.9272
# 5 -8.7434 -5.0329 -11.5419 0.0000 24.1869 0.0000
# 6 0.0000 0.0000 0.0000 -6.9272 0.0000 32.4301
#
#
#
# Elastic Compliance Matrix: (Units=1/GPa)
#
#
# Indices 1 2 3 4 5 6 
#
# 1 0.020365 -0.008106 -0.006970 0.000000 0.002349 0.000000
# 2 -0.008106 0.020560 -0.004697 0.000000 -0.000893 0.000000
# 3 -0.006970 -0.004697 0.014899 0.000000 0.003613 0.000000
# 4 0.000000 0.000000 0.000000 0.045467 0.000000 0.009712
# 5 0.002349 -0.000893 0.003613 0.000000 0.043732 0.000000
# 6 0.000000 0.000000 0.000000 0.009712 0.000000 0.032910
#
#
# Mechanical properties :
#
#
# Convention : Reuss Voigt Hill
#
# Bulk Modulus (GPa) = 61.42705 66.14792 63.78748
# Shear Modulus (GPa) = 22.43122 24.33814 23.38468
#
# Velocity S-wave (km/s) = 3.58378 3.73300 3.65915
# Velocity P-wave (km/s) = 7.23159 7.51364 7.37396
#
# Compressibility (1/GPa) = 0.01627947
#
# Stress axis : x y z
#
# Youngs Moduli (GPa) = 49.10444 48.63829 67.11798
#
# Poissons Ratio (x) = 0.39424 0.46782
# Poissons Ratio (y) = 0.39802 0.31523
# Poissons Ratio (z) = 0.34226 0.22843
#
# Static dielectric constant tensor:
#      x y z
#    x 3.147640 0.000000 -0.165100 
#    y 0.000000 3.276610 0.000000 
#    z -0.165100 0.000000 3.333180 
# 
# 
# High freq. dielectric constant tensor:
#      x y z
#    x 1.661850 0.000000 -0.015900 
#    y 0.000000 1.681170 0.000000 
#    z -0.015900 0.000000 1.667380 
# 
# From -- ./inp_files/238802.got.cif
#   From: 2010.06.25/outbox.cif.g09.slc.cpg/sg12_120_cif.got.tgz:238802.got - 2010.06.28 00:19:55.
