data_PCOD8087224
_publ_section_title
;
Structure prediction by ZEFSAII (Michael W. Deem and Ramdas Pophale) SiO2 
 PCOD8087224
Probable space group: C 2/M
;
_chemical_formula_sum "Si O2"
_cell_formula_units_Z 48
_cell_length_a 14.750909
_cell_length_b 22.671292
_cell_length_c 18.182901
_cell_angle_alpha 90.000000
_cell_angle_beta 146.857082
_cell_angle_gamma 90.000000
_cell_volume 3324.532517
_symmetry_space_group_name_H-M "C 2/M"
_symmetry_group_IT_number 12
_symmetry_cell_setting 'monoclinic'
loop_
_space_group_symop_operation_xyz
x,y,z
-x,y,-z
-x,-y,-z
x,-y,z
1/2+x,1/2+y,z
1/2-x,1/2+y,-z
1/2-x,1/2-y,-z
1/2+x,1/2-y,z
loop_
_atom_site_type_symbol
_atom_site_label
_atom_site_fract_x
_atom_site_fract_y
_atom_site_fract_z
Si Si1 0.643102 0.715058 0.294699
Si Si2 0.304865 0.861373 0.519197
Si Si3 0.935360 0.432215 0.375591
Si Si4 0.566707 0.238377 0.728355
Si Si5 0.593982 0.315816 0.494381
Si Si6 0.662978 0.337305 0.151653
O O1 0.690128 0.655803 0.371842
O O2 0.472481 0.740794 0.214693
O O3 0.789215 0.763256 0.396815
O O4 0.609385 0.697376 0.188282
O O5 0.410631 0.920446 0.575542
O O6 0.427481 0.807192 0.610255
O O7 0.198854 0.866561 0.522714
O O8 0.881928 0.500000 0.333971
O O9 0.776925 0.393201 0.247709
O O10 0.000000 0.414582 0.500000
O O11 0.545270 0.292182 0.656764
O O12 0.746364 0.208614 0.842053
O O13 0.500000 0.344849 0.500000
O O14 0.500000 0.361025 0.000000
#
# Coordination Sequence:
#
# PCOD8087224 Si02
#       6
#     8   8   8   8   8   8
#     4   9  15  26  39  59  90 112 138 166 192 251
#     4   8  15  25  42  64  80 104 141 177 205 236
#     4  10  19  32  48  60  77 109 146 181 213 248
#     4   8  16  25  39  60  85 118 137 159 204 238
#     4   9  13  22  44  65  83 109 138 167 197 243
#     4  11  20  28  42  63  89 115 138 174 207 237
#
# _framework density 14.43812
#
# number of rings (size 3 to 8) (size 9 to 14) (size 15 to 20)
#    0.000    2.833    3.333    2.000    0.000    1.000 
#    0.000    0.000    0.000    0.500    0.000    0.000 
#    0.000    0.000    0.000    4.333    0.000    0.000 
#
# Total GULP energy -297357.867936 kJ/mol
# GULP energy per Si atom -12389.911164 kJ/mol
# Density = 1.440526 g / cm^3
# Si number density = 14.438120 Si / 1000 Ang^3
#
#
#
# Elastic Constant Matrix: (Units=GPa)
#
#
# Indices 1 2 3 4 5 6 
#
# 1 129.4074 35.5164 37.8520 0.0003 4.0702 0.0000
# 2 35.5164 46.9889 31.7847 0.0006 2.1598 0.0002
# 3 37.8520 31.7847 74.3135 0.0008 4.0023 0.0002
# 4 0.0003 0.0006 0.0008 10.9784 0.0003 -1.0619
# 5 4.0702 2.1598 4.0023 0.0003 12.8667 0.0000
# 6 0.0000 0.0002 0.0002 -1.0619 0.0000 14.1970
#
#
#
# Elastic Compliance Matrix: (Units=1/GPa)
#
#
# Indices 1 2 3 4 5 6 
#
# 1 0.010132 -0.005845 -0.002585 0.000000 -0.001420 0.000000
# 2 -0.005845 0.033331 -0.011266 -0.000001 -0.000242 0.000000
# 3 -0.002585 -0.011266 0.019777 -0.000001 -0.003443 0.000000
# 4 0.000000 -0.000001 -0.000001 0.091751 -0.000002 0.006863
# 5 -0.001420 -0.000242 -0.003443 -0.000002 0.079281 0.000000
# 6 0.000000 0.000000 0.000000 0.006863 0.000000 0.070951
#
#
# Mechanical properties :
#
#
# Convention : Reuss Voigt Hill
#
# Bulk Modulus (GPa) = 41.92935 51.22403 46.57669
# Shear Modulus (GPa) = 14.18180 17.31221 15.74700
#
# Velocity S-wave (km/s) = 3.13748 3.46650 3.30609
# Velocity P-wave (km/s) = 6.49837 7.18175 6.84859
#
# Compressibility (1/GPa) = 0.02384964
#
# Stress axis : x y z
#
# Youngs Moduli (GPa) = 98.69366 30.00181 50.56387
#
# Poissons Ratio (x) = 0.17536 0.13068
# Poissons Ratio (y) = 0.57686 0.56965
# Poissons Ratio (z) = 0.25508 0.33800
#
# Static dielectric constant tensor:
#      x y z
#    x 3.225650 0.000000 0.129470 
#    y 0.000000 2.547490 0.000000 
#    z 0.129470 0.000000 2.548940 
# 
# 
# High freq. dielectric constant tensor:
#      x y z
#    x 1.568010 0.000000 0.001070 
#    y 0.000000 1.505880 0.000000 
#    z 0.001070 0.000000 1.521950 
# 
# From -- ./inp_files/62774.got.cif
#   From: 2010.06.25/outbox.cif.g09.slc.cpg/sg12_32_cif.got.tgz:62774.got - 2010.06.28 00:19:55.
