data_PCOD8087512
_publ_section_title
;
Structure prediction by ZEFSAII (Michael W. Deem and Ramdas Pophale) SiO2 
 PCOD8087512
Probable space group: C 2/M
;
_chemical_formula_sum "Si O2"
_cell_formula_units_Z 64
_cell_length_a 24.766563
_cell_length_b 8.781589
_cell_length_c 23.519404
_cell_angle_alpha 90.000000
_cell_angle_beta 133.491333
_cell_angle_gamma 90.000000
_cell_volume 3710.989282
_symmetry_space_group_name_H-M "C 2/M"
_symmetry_group_IT_number 12
_symmetry_cell_setting 'monoclinic'
loop_
_space_group_symop_operation_xyz
x,y,z
-x,y,-z
-x,-y,-z
x,-y,z
1/2+x,1/2+y,z
1/2-x,1/2+y,-z
1/2-x,1/2-y,-z
1/2+x,1/2-y,z
loop_
_atom_site_type_symbol
_atom_site_label
_atom_site_fract_x
_atom_site_fract_y
_atom_site_fract_z
Si Si1 0.780156 0.178600 0.579488
Si Si2 0.972662 0.177655 0.594073
Si Si3 0.301646 0.674434 0.168070
Si Si4 0.922629 0.822226 0.159223
Si Si5 0.873149 0.325117 0.320277
Si Si6 0.188917 0.677194 0.995423
Si Si7 0.647812 0.825372 0.566249
Si Si8 0.565093 0.820090 0.314016
O O1 0.750000 0.250000 0.500000
O O2 0.723675 0.216895 0.589354
O O3 0.858251 0.251647 0.653931
O O4 0.790167 0.000000 0.577155
O O5 0.919260 0.218650 0.503022
O O6 0.946327 0.270458 0.629538
O O7 0.056319 0.218061 0.638254
O O8 0.967945 0.000000 0.604962
O O9 0.310757 0.500000 0.193611
O O10 0.365921 0.715576 0.169210
O O11 0.309780 0.782008 0.228669
O O12 0.219041 0.701496 0.081654
O O13 0.999740 0.738220 0.226192
O O14 0.937623 0.000000 0.164260
O O15 0.889292 0.759878 0.075077
O O16 0.897232 0.500000 0.329666
O O17 0.839129 0.295918 0.357700
O O18 0.181456 0.500000 0.975639
O O19 0.250000 0.750000 0.000000
O O20 0.624913 0.000000 0.537770
O O21 0.568991 0.000000 0.314228
#
# Coordination Sequence:
#
# PCOD8087512 Si02
#       8
#     8   8   8   8   8   8   8   8
#     4  11  22  38  58  77 101 134 175 221 266 311
#     4  12  23  35  53  76 104 138 176 216 262 312
#     4   9  18  31  48  72 105 140 173 209 251 304
#     4  10  19  32  50  75 106 136 172 212 257 312
#     4  11  22  35  53  76 105 141 178 214 256 310
#     4   9  17  29  46  70 103 139 173 209 253 305
#     4  10  23  40  55  74 102 137 177 219 263 310
#     4  12  23  35  54  78 105 138 175 217 264 313
#
# _framework density 17.246075999999999
#
# number of rings (size 3 to 8) (size 9 to 14) (size 15 to 20)
#    0.000    1.500    2.500    4.875    0.000    5.500 
#    0.000    0.000    0.000    0.000    0.000    0.875 
#    0.000    7.000    0.000    0.000    0.000    0.000 
#
# Total GULP energy -396851.715331 kJ/mol
# GULP energy per Si atom -12401.616104 kJ/mol
# Density = 1.720682 g / cm^3
# Si number density = 17.246076 Si / 1000 Ang^3
#
#
#
# Elastic Constant Matrix: (Units=GPa)
#
#
# Indices 1 2 3 4 5 6 
#
# 1 59.6784 30.2785 40.8012 0.0000 -7.6048 0.0000
# 2 30.2785 101.8904 53.6399 0.0000 -1.4498 0.0000
# 3 40.8012 53.6399 134.0371 0.0000 4.0259 0.0000
# 4 0.0000 0.0000 0.0000 35.3621 0.0000 3.0227
# 5 -7.6048 -1.4498 4.0259 0.0000 14.3990 0.0000
# 6 0.0000 0.0000 0.0000 3.0227 0.0000 20.9736
#
#
#
# Elastic Compliance Matrix: (Units=1/GPa)
#
#
# Indices 1 2 3 4 5 6 
#
# 1 0.025016 -0.003781 -0.006542 0.000000 0.014660 0.000000
# 2 -0.003781 0.013108 -0.004109 0.000000 0.000472 0.000000
# 3 -0.006542 -0.004109 0.011307 0.000000 -0.007030 0.000000
# 4 0.000000 0.000000 0.000000 0.028632 0.000000 -0.004126
# 5 0.014660 0.000472 -0.007030 0.000000 0.079205 0.000000
# 6 0.000000 0.000000 0.000000 -0.004126 0.000000 0.048274
#
#
# Mechanical properties :
#
#
# Convention : Reuss Voigt Hill
#
# Bulk Modulus (GPa) = 48.62131 60.56057 54.59094
# Shear Modulus (GPa) = 20.72442 25.53935 23.13189
#
# Velocity S-wave (km/s) = 3.47030 3.85239 3.66633
# Velocity P-wave (km/s) = 6.65667 7.41483 7.04595
#
# Compressibility (1/GPa) = 0.02056711
#
# Stress axis : x y z
#
# Youngs Moduli (GPa) = 39.97482 76.29007 88.43735
#
# Poissons Ratio (x) = 0.28847 0.57856
# Poissons Ratio (y) = 0.15115 0.36337
# Poissons Ratio (z) = 0.26151 0.31346
#
# Static dielectric constant tensor:
#      x y z
#    x 3.022840 0.000000 0.046180 
#    y 0.000000 3.388170 0.000000 
#    z 0.046180 0.000000 3.601440 
# 
# 
# High freq. dielectric constant tensor:
#      x y z
#    x 1.622040 0.000000 0.006750 
#    y 0.000000 1.682150 0.000000 
#    z 0.006750 0.000000 1.675970 
# 
# From -- ./inp_files/348588.got.cif
#   From: 2010.06.25/outbox.cif.g09.slc.cpg/sg12_175_cif.got.tgz:348588.got - 2010.06.28 00:19:55.
