data_PCOD8087659
_publ_section_title
;
Structure prediction by ZEFSAII (Michael W. Deem and Ramdas Pophale) SiO2 
 PCOD8087659
Probable space group: C 2/M
;
_chemical_formula_sum "Si O2"
_cell_formula_units_Z 48
_cell_length_a 29.633317
_cell_length_b 9.085857
_cell_length_c 18.235509
_cell_angle_alpha 90.000000
_cell_angle_beta 148.396805
_cell_angle_gamma 90.000000
_cell_volume 2572.900686
_symmetry_space_group_name_H-M "C 2/M"
_symmetry_group_IT_number 12
_symmetry_cell_setting 'monoclinic'
loop_
_space_group_symop_operation_xyz
x,y,z
-x,y,-z
-x,-y,-z
x,-y,z
1/2+x,1/2+y,z
1/2-x,1/2+y,-z
1/2-x,1/2-y,-z
1/2+x,1/2-y,z
loop_
_atom_site_type_symbol
_atom_site_label
_atom_site_fract_x
_atom_site_fract_y
_atom_site_fract_z
Si Si1 0.385692 0.170495 0.190580
Si Si2 0.270912 0.171613 0.301435
Si Si3 0.058993 0.174705 0.414103
Si Si4 0.876010 0.162563 0.648674
Si Si5 0.809318 0.336416 0.681705
Si Si6 0.229912 0.832104 0.078553
O O1 0.471805 0.261117 0.327068
O O2 0.323207 0.199916 0.172709
O O3 0.409087 0.000000 0.213868
O O4 0.341526 0.225946 0.054692
O O5 0.361414 0.254616 0.432789
O O6 0.200104 0.235220 0.259616
O O7 0.233393 0.199397 0.169219
O O8 0.285627 0.000000 0.338401
O O9 0.062280 0.216805 0.331934
O O10 0.063860 0.000000 0.431613
O O11 0.881196 0.269763 0.726018
O O12 0.780338 0.156884 0.484432
O O13 0.903715 0.000000 0.713331
O O14 0.838849 0.500000 0.745815
O O15 0.202632 0.000000 0.024159
#
# Coordination Sequence:
#
# PCOD8087659 Si02
#       6
#     8   8   8   8   8   8
#     4  10  20  35  55  75  97 129 168 206 247 297
#     4  10  19  32  51  74 102 133 166 204 246 292
#     4  10  20  33  50  75 105 132 164 206 248 291
#     4   8  15  27  43  65  95 131 164 195 237 290
#     4   9  16  26  43  69  99 128 161 201 243 289
#     4   9  20  37  54  73  98 131 168 204 245 297
#
# _framework density 18.655987
#
# number of rings (size 3 to 8) (size 9 to 14) (size 15 to 20)
#    0.000    2.667    0.000    3.000    0.000    7.333 
#    0.000    3.333    0.000    1.000    0.000    7.000 
#    0.000    0.000    0.000    0.000    0.000    0.000 
#
# Total GULP energy -297582.059648 kJ/mol
# GULP energy per Si atom -12399.252485 kJ/mol
# Density = 1.861352 g / cm^3
# Si number density = 18.655987 Si / 1000 Ang^3
#
#
#
# Elastic Constant Matrix: (Units=GPa)
#
#
# Indices 1 2 3 4 5 6 
#
# 1 47.6891 21.8506 1.5876 0.0000 -19.4091 0.0000
# 2 21.8506 97.4065 16.0320 0.0000 -13.0692 0.0000
# 3 1.5876 16.0320 17.8038 0.0000 -10.4425 0.0000
# 4 0.0000 0.0000 0.0000 25.1140 0.0000 0.0972
# 5 -19.4091 -13.0692 -10.4425 0.0000 21.2773 0.0000
# 6 0.0000 0.0000 0.0000 0.0972 0.0000 33.1660
#
#
#
# Elastic Compliance Matrix: (Units=1/GPa)
#
#
# Indices 1 2 3 4 5 6 
#
# 1 0.045631 -0.008867 0.035296 0.000000 0.053501 0.000000
# 2 -0.008867 0.013906 -0.016100 0.000000 -0.007449 0.000000
# 3 0.035296 -0.016100 0.113183 0.000000 0.077855 0.000000
# 4 0.000000 0.000000 0.000000 0.039819 0.000000 -0.000117
# 5 0.053501 -0.007449 0.077855 0.000000 0.129436 0.000000
# 6 0.000000 0.000000 0.000000 -0.000117 0.000000 0.030152
#
#
# Mechanical properties :
#
#
# Convention : Reuss Voigt Hill
#
# Bulk Modulus (GPa) = 5.17126 26.87110 16.02118
# Shear Modulus (GPa) = 12.02127 24.14009 18.08068
#
# Velocity S-wave (km/s) = 2.54119 3.60107 3.11651
# Velocity P-wave (km/s) = 3.37463 5.63249 4.64290
#
# Compressibility (1/GPa) = 0.19337639
#
# Stress axis : x y z
#
# Youngs Moduli (GPa) = 21.91475 71.91208 8.83526
#
# Poissons Ratio (x) = 0.63766 -0.31185
# Poissons Ratio (y) = 0.19432 0.14225
# Poissons Ratio (z) = -0.77349 1.15780
#
# Static dielectric constant tensor:
#      x y z
#    x 3.608710 0.000000 -0.001680 
#    y 0.000000 3.633050 0.000000 
#    z -0.001680 0.000000 2.929390 
# 
# 
# High freq. dielectric constant tensor:
#      x y z
#    x 1.730820 0.000000 -0.003360 
#    y 0.000000 1.736970 0.000000 
#    z -0.003360 0.000000 1.676610 
# 
# From -- ./inp_files/274615.got.cif
#   From: 2010.06.25/outbox.cif.g09.slc.cpg/sg12_138_cif.got.tgz:274615.got - 2010.06.28 00:19:55.
