data_PCOD8087353
_publ_section_title
;
Structure prediction by ZEFSAII (Michael W. Deem and Ramdas Pophale) SiO2 
 PCOD8087353
Probable space group: C 2/M
;
_chemical_formula_sum "Si O2"
_cell_formula_units_Z 28
_cell_length_a 5.172177
_cell_length_b 25.840616
_cell_length_c 12.450832
_cell_angle_alpha 90.000000
_cell_angle_beta 76.219133
_cell_angle_gamma 90.000000
_cell_volume 1616.179132
_symmetry_space_group_name_H-M "C 2/M"
_symmetry_group_IT_number 12
_symmetry_cell_setting 'monoclinic'
loop_
_space_group_symop_operation_xyz
x,y,z
-x,y,-z
-x,-y,-z
x,-y,z
1/2+x,1/2+y,z
1/2-x,1/2+y,-z
1/2-x,1/2-y,-z
1/2+x,1/2-y,z
loop_
_atom_site_type_symbol
_atom_site_label
_atom_site_fract_x
_atom_site_fract_y
_atom_site_fract_z
Si Si1 0.474857 0.442749 0.714848
Si Si2 0.636068 0.227928 0.623147
Si Si3 0.293143 0.500000 0.924923
Si Si4 0.483821 0.892304 0.378745
O O1 0.562302 0.500000 0.664714
O O2 0.338575 0.448867 0.846142
O O3 0.263800 0.419768 0.652728
O O4 0.734944 0.406963 0.702997
O O5 0.750000 0.250000 0.500000
O O6 0.372508 0.260395 0.684481
O O7 0.563391 0.168415 0.623973
O O8 0.500000 0.500000 0.000000
O O9 0.000000 0.500000 0.000000
O O10 0.500000 0.910565 0.500000
#
# Coordination Sequence:
#
# PCOD8087353 Si02
#       4
#     8   8   4   8
#     4  10  24  36  51  86 106 143 196 207 272 347
#     4  10  19  32  49  73  99 154 203 211 248 293
#     4  10  20  42  63  72 105 140 176 248 284 312
#     4  12  21  33  54  75 123 158 173 223 253 312
#
# _framework density 17.324812999999999
#
# number of rings (size 3 to 8) (size 9 to 14) (size 15 to 20)
#    0.857    0.571    2.857    5.143    4.000    3.429 
#    0.000    0.000    0.000    0.000    0.000    0.000 
#    0.000   80.000    0.000    0.000    0.000    0.000 
#
# Total GULP energy -173460.762176 kJ/mol
# GULP energy per Si atom -12390.054441 kJ/mol
# Density = 1.728538 g / cm^3
# Si number density = 17.324813 Si / 1000 Ang^3
#
#
#
# Elastic Constant Matrix: (Units=GPa)
#
#
# Indices 1 2 3 4 5 6 
#
# 1 173.7191 70.6170 26.8409 0.0000 -11.0384 0.0000
# 2 70.6170 125.6793 42.9225 0.0000 -6.1552 0.0000
# 3 26.8409 42.9225 54.9357 0.0000 -10.2837 0.0000
# 4 0.0000 0.0000 0.0000 3.1579 0.0000 -7.5739
# 5 -11.0384 -6.1552 -10.2837 0.0000 31.6442 0.0000
# 6 0.0000 0.0000 0.0000 -7.5739 0.0000 37.7681
#
#
#
# Elastic Compliance Matrix: (Units=1/GPa)
#
#
# Indices 1 2 3 4 5 6 
#
# 1 0.007565 -0.004112 -0.000148 0.000000 0.001791 0.000000
# 2 -0.004112 0.013102 -0.008539 0.000000 -0.001661 0.000000
# 3 -0.000148 -0.008539 0.026221 0.000000 0.006809 0.000000
# 4 0.000000 0.000000 0.000000 0.610100 0.000000 0.122348
# 5 0.001791 -0.001661 0.006809 0.000000 0.034116 0.000000
# 6 0.000000 0.000000 0.000000 0.122348 0.000000 0.051013
#
#
# Mechanical properties :
#
#
# Convention : Reuss Voigt Hill
#
# Bulk Modulus (GPa) = 46.96874 70.56611 58.76742
# Shear Modulus (GPa) = 6.45318 28.77763 17.61541
#
# Velocity S-wave (km/s) = 1.93207 4.08004 3.19215
# Velocity P-wave (km/s) = 5.66981 7.93822 6.89790
#
# Compressibility (1/GPa) = 0.02129076
#
# Stress axis : x y z
#
# Youngs Moduli (GPa) = 132.19294 76.32268 38.13672
#
# Poissons Ratio (x) = 0.31386 0.00563
# Poissons Ratio (y) = 0.54362 0.32564
# Poissons Ratio (z) = 0.01953 0.65170
#
# Static dielectric constant tensor:
#      x y z
#    x 2.100030 0.000000 0.128550 
#    y 0.000000 3.322510 0.000000 
#    z 0.128550 0.000000 2.937980 
# 
# 
# High freq. dielectric constant tensor:
#      x y z
#    x 1.708190 0.000000 -0.002680 
#    y 0.000000 1.668210 0.000000 
#    z -0.002680 0.000000 1.613830 
# 
# From -- ./inp_files/115124.got.cif
#   From: 2010.06.25/outbox.cif.g09.slc.cpg/sg12_58_cif.got.tgz:115124.got - 2010.06.28 00:19:55.
