data_PCOD8087074
_publ_section_title
;
Structure prediction by ZEFSAII (Michael W. Deem and Ramdas Pophale) SiO2 
 PCOD8087074
Probable space group: C 2/M
;
_chemical_formula_sum "Si O2"
_cell_formula_units_Z 64
_cell_length_a 30.372308
_cell_length_b 9.111398
_cell_length_c 24.602778
_cell_angle_alpha 90.000000
_cell_angle_beta 151.311243
_cell_angle_gamma 90.000000
_cell_volume 3268.396017
_symmetry_space_group_name_H-M "C 2/M"
_symmetry_group_IT_number 12
_symmetry_cell_setting 'monoclinic'
loop_
_space_group_symop_operation_xyz
x,y,z
-x,y,-z
-x,-y,-z
x,-y,z
1/2+x,1/2+y,z
1/2-x,1/2+y,-z
1/2-x,1/2-y,-z
1/2+x,1/2-y,z
loop_
_atom_site_type_symbol
_atom_site_label
_atom_site_fract_x
_atom_site_fract_y
_atom_site_fract_z
Si Si1 0.839026 0.328264 0.742471
Si Si2 0.813459 0.330214 0.837208
Si Si3 0.820811 0.673168 0.116445
Si Si4 0.796468 0.343163 0.207354
Si Si5 0.013928 0.825599 0.347555
Si Si6 0.504608 0.161878 0.444088
Si Si7 0.985253 0.835106 0.048188
Si Si8 0.795319 0.171583 0.497840
O O1 0.859879 0.500000 0.762550
O O2 0.805744 0.280880 0.766513
O O3 0.933445 0.244767 0.831271
O O4 0.761460 0.278586 0.616753
O O5 0.833723 0.500000 0.863998
O O6 0.720259 0.283690 0.766309
O O7 0.890231 0.247410 0.956213
O O8 0.833657 0.500000 0.117192
O O9 0.765640 0.698046 0.113270
O O10 0.921549 0.750554 0.224472
O O11 0.750000 0.750000 0.000000
O O12 0.753358 0.500000 0.179964
O O13 0.903146 0.364634 0.314079
O O14 0.097785 0.788620 0.396722
O O15 0.046823 0.768180 0.443353
O O16 0.998900 0.000000 0.335924
O O17 0.500000 0.231876 0.500000
O O18 0.554388 0.000000 0.500039
O O19 0.979474 0.000000 0.063802
O O20 0.000000 0.826595 0.000000
O O21 0.750000 0.250000 0.500000
O O22 0.783877 0.000000 0.495378
#
# Coordination Sequence:
#
# PCOD8087074 Si02
#       8
#     8   8   8   8   8   8   8   8
#     4   9  19  36  55  77 109 146 186 234 286 337
#     4  10  19  31  53  81 112 147 183 225 281 342
#     4  10  21  40  64  87 116 152 193 239 289 345
#     4   9  19  34  51  79 116 146 180 229 274 327
#     4  10  21  38  61  88 119 154 194 243 298 349
#     4   9  19  35  55  83 119 156 191 230 282 344
#     4   9  17  31  51  76 106 140 181 225 273 330
#     4  10  23  42  61  84 116 152 197 249 294 345
#
# _framework density 19.581472000000002
#
# number of rings (size 3 to 8) (size 9 to 14) (size 15 to 20)
#    0.000    2.500    0.000    2.250    1.750    6.250 
#    2.250    0.000    0.000    0.000    0.000    0.000 
#    0.000    0.000    0.000    0.000    0.000    0.000 
#
# Total GULP energy -396504.247380 kJ/mol
# GULP energy per Si atom -12390.757731 kJ/mol
# Density = 1.953690 g / cm^3
# Si number density = 19.581472 Si / 1000 Ang^3
#
#
#
# Elastic Constant Matrix: (Units=GPa)
#
#
# Indices 1 2 3 4 5 6 
#
# 1 110.8023 53.9452 47.5750 0.0000 -3.1907 0.0000
# 2 53.9452 91.4963 50.1853 0.0000 -2.9256 0.0000
# 3 47.5750 50.1853 102.3487 0.0000 -7.4801 0.0000
# 4 0.0000 0.0000 0.0000 29.1679 0.0000 1.3698
# 5 -3.1907 -2.9256 -7.4801 0.0000 25.6274 0.0000
# 6 0.0000 0.0000 0.0000 1.3698 0.0000 31.9471
#
#
#
# Elastic Compliance Matrix: (Units=1/GPa)
#
#
# Indices 1 2 3 4 5 6 
#
# 1 0.013392 -0.006130 -0.003217 0.000000 0.000029 0.000000
# 2 -0.006130 0.017761 -0.005893 0.000000 -0.000456 0.000000
# 3 -0.003217 -0.005893 0.014384 0.000000 0.003125 0.000000
# 4 0.000000 0.000000 0.000000 0.034353 0.000000 -0.001473
# 5 0.000029 -0.000456 0.003125 0.000000 0.039884 0.000000
# 6 0.000000 0.000000 0.000000 -0.001473 0.000000 0.031365
#
#
# Mechanical properties :
#
#
# Convention : Reuss Voigt Hill
#
# Bulk Modulus (GPa) = 66.41508 67.56203 66.98855
# Shear Modulus (GPa) = 26.78977 27.54460 27.16719
#
# Velocity S-wave (km/s) = 3.70282 3.75462 3.72881
# Velocity P-wave (km/s) = 7.22995 7.30577 7.26795
#
# Compressibility (1/GPa) = 0.01505682
#
# Stress axis : x y z
#
# Youngs Moduli (GPa) = 74.67303 56.30211 69.52308
#
# Poissons Ratio (x) = 0.34514 0.22365
# Poissons Ratio (y) = 0.45776 0.40969
# Poissons Ratio (z) = 0.24022 0.33178
#
# Static dielectric constant tensor:
#      x y z
#    x 3.573500 0.000000 -0.014530 
#    y 0.000000 3.714400 0.000000 
#    z -0.014530 0.000000 3.600100 
# 
# 
# High freq. dielectric constant tensor:
#      x y z
#    x 1.748520 0.000000 0.001490 
#    y 0.000000 1.765080 0.000000 
#    z 0.001490 0.000000 1.759400 
# 
# From -- ./inp_files/353573.got.cif
#   From: 2010.06.25/outbox.cif.g09.slc.cpg/sg12_177_cif.got.tgz:353573.got - 2010.06.28 00:19:55.
