data_PCOD8087878
_publ_section_title
;
Structure prediction by ZEFSAII (Michael W. Deem and Ramdas Pophale) SiO2 
 PCOD8087878
Probable space group: C 2/M
;
_chemical_formula_sum "Si O2"
_cell_formula_units_Z 60
_cell_length_a 5.212518
_cell_length_b 24.759572
_cell_length_c 22.648951
_cell_angle_alpha 90.000000
_cell_angle_beta 84.831942
_cell_angle_gamma 90.000000
_cell_volume 2911.184217
_symmetry_space_group_name_H-M "C 2/M"
_symmetry_group_IT_number 12
_symmetry_cell_setting 'monoclinic'
loop_
_space_group_symop_operation_xyz
x,y,z
-x,y,-z
-x,-y,-z
x,-y,z
1/2+x,1/2+y,z
1/2-x,1/2+y,-z
1/2-x,1/2-y,-z
1/2+x,1/2-y,z
loop_
_atom_site_type_symbol
_atom_site_label
_atom_site_fract_x
_atom_site_fract_y
_atom_site_fract_z
Si Si1 0.769642 0.000000 0.460240
Si Si2 0.738963 0.722265 0.601749
Si Si3 0.471245 0.935473 0.067510
Si Si4 0.946916 0.937921 0.129960
Si Si5 0.909384 0.393140 0.568615
Si Si6 0.317062 0.278070 0.259645
Si Si7 0.342463 0.596258 0.261148
Si Si8 0.813639 0.436584 0.331802
O O1 0.500000 0.000000 0.500000
O O2 0.779551 0.054440 0.420746
O O3 0.000000 0.000000 0.500000
O O4 0.498033 0.748736 0.572178
O O5 0.746199 0.658267 0.591720
O O6 0.708917 0.734485 0.670872
O O7 0.704284 0.911039 0.101725
O O8 0.209725 0.910953 0.100731
O O9 0.470038 0.000000 0.070851
O O10 0.500000 0.915148 0.000000
O O11 0.927310 0.934101 0.200597
O O12 0.954645 0.000000 0.111412
O O13 0.151360 0.403690 0.607246
O O14 0.000000 0.384945 0.500000
O O15 0.581247 0.251220 0.230830
O O16 0.310208 0.341183 0.246434
O O17 0.071592 0.571883 0.288017
O O18 0.565433 0.588100 0.304924
O O19 0.771150 0.500000 0.345793
#
# Coordination Sequence:
#
# PCOD8087878 Si02
#       8
#     4   8   8   8   8   8   8   8
#     4  10  24  44  64  86 112 146 184 238 289 344
#     4  10  23  41  65  87 114 146 187 240 305 366
#     4   9  17  30  50  77 116 164 201 230 268 319
#     4  10  19  32  51  81 120 155 194 235 276 336
#     4  11  25  45  64  89 116 149 196 247 299 364
#     4  10  21  39  61  84 111 146 195 246 298 357
#     4  12  24  40  62  88 119 159 195 246 304 351
#     4  12  25  41  61  88 120 157 197 239 300 371
#
# _framework density 20.61017
#
# number of rings (size 3 to 8) (size 9 to 14) (size 15 to 20)
#    0.000    1.467    2.000    3.200    3.733    7.467 
#    0.000    0.000    0.000    0.000    0.000    0.000 
#    0.000   10.667    0.000    0.000    0.000    0.000 
#
# Total GULP energy -372008.302867 kJ/mol
# GULP energy per Si atom -12400.276762 kJ/mol
# Density = 2.056326 g / cm^3
# Si number density = 20.610170 Si / 1000 Ang^3
#
#
#
# Elastic Constant Matrix: (Units=GPa)
#
#
# Indices 1 2 3 4 5 6 
#
# 1 140.3304 34.9021 22.8545 0.0000 12.1158 0.0000
# 2 34.9021 101.9186 -10.5921 0.0000 9.5102 0.0000
# 3 22.8545 -10.5921 72.1053 0.0000 12.7720 0.0000
# 4 0.0000 0.0000 0.0000 6.8098 0.0000 2.4908
# 5 12.1158 9.5102 12.7720 0.0000 25.3795 0.0000
# 6 0.0000 0.0000 0.0000 2.4908 0.0000 23.1133
#
#
#
# Elastic Compliance Matrix: (Units=1/GPa)
#
#
# Indices 1 2 3 4 5 6 
#
# 1 0.008484 -0.003070 -0.002884 0.000000 -0.001449 0.000000
# 2 -0.003070 0.011664 0.003514 0.000000 -0.004674 0.000000
# 3 -0.002884 0.003514 0.016784 0.000000 -0.008387 0.000000
# 4 0.000000 0.000000 0.000000 0.152872 0.000000 -0.016474
# 5 -0.001449 -0.004674 -0.008387 0.000000 0.046066 0.000000
# 6 0.000000 0.000000 0.000000 -0.016474 0.000000 0.045041
#
#
# Mechanical properties :
#
#
# Convention : Reuss Voigt Hill
#
# Bulk Modulus (GPa) = 31.19630 45.40923 38.30277
# Shear Modulus (GPa) = 16.86483 28.87316 22.86900
#
# Velocity S-wave (km/s) = 2.86366 3.74694 3.33468
# Velocity P-wave (km/s) = 5.10914 6.38747 5.78373
#
# Compressibility (1/GPa) = 0.03205508
#
# Stress axis : x y z
#
# Youngs Moduli (GPa) = 117.86507 85.73065 59.57913
#
# Poissons Ratio (x) = 0.26319 0.17180
# Poissons Ratio (y) = 0.36184 -0.20939
# Poissons Ratio (z) = 0.33987 -0.30129
#
# Static dielectric constant tensor:
#      x y z
#    x 4.239460 0.000000 0.050000 
#    y 0.000000 3.742600 0.000000 
#    z 0.050000 0.000000 3.497430 
# 
# 
# High freq. dielectric constant tensor:
#      x y z
#    x 1.830270 0.000000 0.002900 
#    y 0.000000 1.780360 0.000000 
#    z 0.002900 0.000000 1.778780 
# 
# From -- ./inp_files/298091.got.cif
#   From: 2010.06.25/outbox.cif.g09.slc.cpg/sg12_150_cif.got.tgz:298091.got - 2010.06.28 00:19:55.
