data_PCOD8087998
_publ_section_title
;
Structure prediction by ZEFSAII (Michael W. Deem and Ramdas Pophale) SiO2 
 PCOD8087998
Probable space group: C 2/M
;
_chemical_formula_sum "Si O2"
_cell_formula_units_Z 56
_cell_length_a 15.858066
_cell_length_b 8.958510
_cell_length_c 22.918180
_cell_angle_alpha 90.000000
_cell_angle_beta 119.952391
_cell_angle_gamma 90.000000
_cell_volume 2821.011848
_symmetry_space_group_name_H-M "C 2/M"
_symmetry_group_IT_number 12
_symmetry_cell_setting 'monoclinic'
loop_
_space_group_symop_operation_xyz
x,y,z
-x,y,-z
-x,-y,-z
x,-y,z
1/2+x,1/2+y,z
1/2-x,1/2+y,-z
1/2-x,1/2-y,-z
1/2+x,1/2-y,z
loop_
_atom_site_type_symbol
_atom_site_label
_atom_site_fract_x
_atom_site_fract_y
_atom_site_fract_z
Si Si1 0.435377 0.322670 0.424136
Si Si2 0.921835 0.665422 0.932149
Si Si3 0.216580 0.323008 0.347898
Si Si4 0.806481 0.678464 0.789394
Si Si5 0.362776 0.828317 0.200170
Si Si6 0.471262 0.828338 0.654652
Si Si7 0.277157 0.666380 0.068018
O O1 0.500000 0.263145 0.500000
O O2 0.434197 0.500000 0.421113
O O3 0.325592 0.260056 0.396296
O O4 0.481044 0.267865 0.379637
O O5 0.965917 0.500000 0.937525
O O6 0.899707 0.735494 0.860463
O O7 0.818742 0.658594 0.926986
O O8 0.000000 0.755154 0.000000
O O9 0.219944 0.500000 0.349851
O O10 0.178383 0.269195 0.271528
O O11 0.138905 0.269149 0.369948
O O12 0.795873 0.500000 0.792034
O O13 0.707549 0.750783 0.777766
O O14 0.470403 0.812719 0.264297
O O15 0.358657 0.752326 0.134528
O O16 0.332196 0.000000 0.181865
O O17 0.470155 0.000000 0.633669
O O18 0.315158 0.500000 0.066521
O O19 0.250000 0.750000 0.000000
#
# Coordination Sequence:
#
# PCOD8087998 Si02
#       7
#     8   8   8   8   8   8   8
#     4  10  21  38  60  84 113 149 185 229 284 336
#     4   8  15  27  46  72  96 125 172 219 256 308
#     4   9  18  34  56  81 110 146 189 228 272 338
#     4   9  16  30  53  73  97 140 180 219 273 328
#     4  10  19  32  52  76 104 138 180 229 277 327
#     4  10  21  36  57  85 113 147 190 232 275 332
#     4  10  20  33  51  74 103 141 181 224 275 328
#
# _framework density 19.851033000000001
#
# number of rings (size 3 to 8) (size 9 to 14) (size 15 to 20)
#    0.000    2.571    1.429    1.714    0.000    2.571 
#    0.000    5.714    0.000   14.143    0.000    0.000 
#    0.000    0.000    0.000    0.000    0.000    0.000 
#
# Total GULP energy -346941.988361 kJ/mol
# GULP energy per Si atom -12390.785299 kJ/mol
# Density = 1.980585 g / cm^3
# Si number density = 19.851033 Si / 1000 Ang^3
#
#
#
# Elastic Constant Matrix: (Units=GPa)
#
#
# Indices 1 2 3 4 5 6 
#
# 1 90.1345 12.9670 43.0009 0.0000 12.7635 0.0000
# 2 12.9670 53.0786 24.7277 0.0000 -3.7047 0.0000
# 3 43.0009 24.7277 137.9065 0.0000 11.3291 0.0000
# 4 0.0000 0.0000 0.0000 22.1702 0.0000 -4.0078
# 5 12.7635 -3.7047 11.3291 0.0000 28.6106 0.0000
# 6 0.0000 0.0000 0.0000 -4.0078 0.0000 19.2943
#
#
#
# Elastic Compliance Matrix: (Units=1/GPa)
#
#
# Indices 1 2 3 4 5 6 
#
# 1 0.013781 -0.002082 -0.003511 0.000000 -0.005027 0.000000
# 2 -0.002082 0.021387 -0.003607 0.000000 0.005126 0.000000
# 3 -0.003511 -0.003607 0.009202 0.000000 -0.002545 0.000000
# 4 0.000000 0.000000 0.000000 0.046865 0.000000 0.009735
# 5 -0.005027 0.005126 -0.002545 0.000000 0.038866 0.000000
# 6 0.000000 0.000000 0.000000 0.009735 0.000000 0.053851
#
#
# Mechanical properties :
#
#
# Convention : Reuss Voigt Hill
#
# Bulk Modulus (GPa) = 38.50547 49.16787 43.83667
# Shear Modulus (GPa) = 23.69585 27.37661 25.53623
#
# Velocity S-wave (km/s) = 3.45872 3.71766 3.59052
# Velocity P-wave (km/s) = 5.94892 6.57648 6.27056
#
# Compressibility (1/GPa) = 0.02597034
#
# Stress axis : x y z
#
# Youngs Moduli (GPa) = 72.56472 46.75809 108.67534
#
# Poissons Ratio (x) = 0.09735 0.38153
# Poissons Ratio (y) = 0.15108 0.39196
# Poissons Ratio (z) = 0.25475 0.16864
#
# Static dielectric constant tensor:
#      x y z
#    x 3.739000 0.000000 0.010200 
#    y 0.000000 3.345730 0.000000 
#    z 0.010200 0.000000 4.207190 
# 
# 
# High freq. dielectric constant tensor:
#      x y z
#    x 1.760560 0.000000 0.003780 
#    y 0.000000 1.736790 0.000000 
#    z 0.003780 0.000000 1.791230 
# 
# From -- ./inp_files/339070.got.cif
#   From: 2010.06.25/outbox.cif.g09.slc.cpg/sg12_170_cif.got.tgz:339070.got - 2010.06.28 00:19:55.
