data_PCOD8087608
_publ_section_title
;
Structure prediction by ZEFSAII (Michael W. Deem and Ramdas Pophale) SiO2 
 PCOD8087608
Probable space group: C 2/M
;
_chemical_formula_sum "Si O2"
_cell_formula_units_Z 56
_cell_length_a 18.658009
_cell_length_b 8.911745
_cell_length_c 20.681160
_cell_angle_alpha 90.000000
_cell_angle_beta 60.097571
_cell_angle_gamma 90.000000
_cell_volume 2980.984587
_symmetry_space_group_name_H-M "C 2/M"
_symmetry_group_IT_number 12
_symmetry_cell_setting 'monoclinic'
loop_
_space_group_symop_operation_xyz
x,y,z
-x,y,-z
-x,-y,-z
x,-y,z
1/2+x,1/2+y,z
1/2-x,1/2+y,-z
1/2-x,1/2-y,-z
1/2+x,1/2-y,z
loop_
_atom_site_type_symbol
_atom_site_label
_atom_site_fract_x
_atom_site_fract_y
_atom_site_fract_z
Si Si1 0.789000 0.821982 0.270492
Si Si2 0.602660 0.324796 0.166964
Si Si3 0.065874 0.177634 0.699020
Si Si4 0.447811 0.177609 0.428038
Si Si5 0.278779 0.821713 0.138901
Si Si6 0.380681 0.822332 0.592941
Si Si7 0.329457 0.675743 0.995015
O O1 0.862426 0.772794 0.284589
O O2 0.805372 0.740948 0.195768
O O3 0.703853 0.758567 0.339305
O O4 0.785781 0.000000 0.261250
O O5 0.602288 0.500000 0.180951
O O6 0.521118 0.253215 0.236143
O O7 0.686678 0.260745 0.161863
O O8 0.598722 0.295994 0.090845
O O9 0.087507 0.243637 0.619495
O O10 0.061725 0.000000 0.695557
O O11 0.542314 0.230986 0.397815
O O12 0.392261 0.232227 0.513721
O O13 0.443117 0.000000 0.421269
O O14 0.345086 0.756396 0.056831
O O15 0.283608 0.000000 0.135681
O O16 0.378833 0.000000 0.592769
O O17 0.315170 0.500000 0.012918
O O18 0.250000 0.750000 0.000000
#
# Coordination Sequence:
#
# PCOD8087608 Si02
#       7
#     8   8   8   8   8   8   8
#     4  10  20  33  49  69  96 130 163 195 235 285
#     4   8  16  31  50  71  95 124 156 193 238 283
#     4  10  20  33  48  70 100 128 157 195 238 285
#     4   9  17  32  53  72  94 125 160 198 237 281
#     4  10  19  32  51  73  97 124 159 203 242 281
#     4   8  16  32  52  73  95 123 161 199 236 280
#     4   9  16  29  50  74  98 124 158 199 241 284
#
# _framework density 18.785740000000001
#
# number of rings (size 3 to 8) (size 9 to 14) (size 15 to 20)
#    0.000    2.857    0.000    3.429    0.000    1.143 
#    0.000    6.429    0.000    4.286    0.000    0.000 
#    0.000    0.000    0.000    0.000    0.000    0.000 
#
# Total GULP energy -347044.948323 kJ/mol
# GULP energy per Si atom -12394.462440 kJ/mol
# Density = 1.874298 g / cm^3
# Si number density = 18.785740 Si / 1000 Ang^3
#
#
#
# Elastic Constant Matrix: (Units=GPa)
#
#
# Indices 1 2 3 4 5 6 
#
# 1 80.8695 26.5800 45.5540 -0.0001 29.5675 -0.0001
# 2 26.5800 39.7706 29.5280 -0.0002 13.8551 -0.0004
# 3 45.5540 29.5280 110.7760 0.0000 36.8738 -0.0001
# 4 -0.0001 -0.0002 0.0000 28.3231 0.0000 8.4860
# 5 29.5675 13.8551 36.8738 0.0000 29.4815 0.0000
# 6 -0.0001 -0.0004 -0.0001 8.4860 0.0000 17.5572
#
#
#
# Elastic Compliance Matrix: (Units=1/GPa)
#
#
# Indices 1 2 3 4 5 6 
#
# 1 0.021681 -0.007751 -0.001412 0.000000 -0.016335 0.000000
# 2 -0.007751 0.035073 -0.005590 0.000000 -0.001718 0.000001
# 3 -0.001412 -0.005590 0.016708 0.000000 -0.016854 0.000000
# 4 0.000000 0.000000 0.000000 0.041285 0.000000 -0.019955
# 5 -0.016335 -0.001718 -0.016854 0.000000 0.072191 0.000000
# 6 0.000000 0.000001 0.000000 -0.019955 0.000000 0.066601
#
#
# Mechanical properties :
#
#
# Convention : Reuss Voigt Hill
#
# Bulk Modulus (GPa) = 22.74948 48.30444 35.52696
# Shear Modulus (GPa) = 16.79555 23.72264 20.25909
#
# Velocity S-wave (km/s) = 2.99332 3.55745 3.28751
# Velocity P-wave (km/s) = 4.90744 6.53017 5.77607
#
# Compressibility (1/GPa) = 0.04395704
#
# Stress axis : x y z
#
# Youngs Moduli (GPa) = 46.12278 28.51195 59.85071
#
# Poissons Ratio (x) = 0.22099 0.08453
# Poissons Ratio (y) = 0.35749 0.33454
# Poissons Ratio (z) = 0.06514 0.15937
#
# Static dielectric constant tensor:
#      x y z
#    x 3.373050 0.000000 -0.101630 
#    y 0.000000 3.145700 0.000000 
#    z -0.101630 0.000000 4.007520 
# 
# 
# High freq. dielectric constant tensor:
#      x y z
#    x 1.705270 0.000000 0.009770 
#    y 0.000000 1.699990 0.000000 
#    z 0.009770 0.000000 1.748600 
# 
# From -- ./inp_files/313749.got.cif
#   From: 2010.06.25/outbox.cif.g09.slc.cpg/sg12_157_cif.got.tgz:313749.got - 2010.06.28 00:19:55.
