data_PCOD8087687
_publ_section_title
;
Structure prediction by ZEFSAII (Michael W. Deem and Ramdas Pophale) SiO2 
 PCOD8087687
Probable space group: C 2/M
;
_chemical_formula_sum "Si O2"
_cell_formula_units_Z 64
_cell_length_a 18.313413
_cell_length_b 9.177002
_cell_length_c 20.535374
_cell_angle_alpha 90.000000
_cell_angle_beta 90.163612
_cell_angle_gamma 90.000000
_cell_volume 3451.206631
_symmetry_space_group_name_H-M "C 2/M"
_symmetry_group_IT_number 12
_symmetry_cell_setting 'monoclinic'
loop_
_space_group_symop_operation_xyz
x,y,z
-x,y,-z
-x,-y,-z
x,-y,z
1/2+x,1/2+y,z
1/2-x,1/2+y,-z
1/2-x,1/2-y,-z
1/2+x,1/2-y,z
loop_
_atom_site_type_symbol
_atom_site_label
_atom_site_fract_x
_atom_site_fract_y
_atom_site_fract_z
Si Si1 0.171788 0.330611 0.927410
Si Si2 0.414623 0.326995 0.431034
Si Si3 0.922341 0.173035 0.575466
Si Si4 0.574336 0.327186 0.181537
Si Si5 0.591039 0.332378 0.814281
Si Si6 0.168263 0.173725 0.302846
Si Si7 0.181655 0.832115 0.686212
Si Si8 0.659052 0.669501 0.055836
O O1 0.153443 0.500000 0.930200
O O2 0.138170 0.263797 0.862802
O O3 0.257752 0.299914 0.924347
O O4 0.136856 0.256352 0.991017
O O5 0.417335 0.500000 0.425859
O O6 0.495440 0.266471 0.413849
O O7 0.392851 0.277609 0.504233
O O8 0.354881 0.268137 0.379874
O O9 0.868944 0.234066 0.631057
O O10 0.924645 0.000000 0.579455
O O11 0.577550 0.500000 0.183911
O O12 0.491488 0.271968 0.186424
O O13 0.620732 0.266399 0.242359
O O14 0.608949 0.270545 0.114164
O O15 0.593797 0.500000 0.837498
O O16 0.621836 0.315094 0.742165
O O17 0.248704 0.236819 0.296256
O O18 0.173397 0.000000 0.302446
O O19 0.205421 0.000000 0.678068
O O20 0.645179 0.500000 0.042034
#
# Coordination Sequence:
#
# PCOD8087687 Si02
#       8
#     8   8   8   8   8   8   8   8
#     4  10  20  34  53  77 103 128 155 194 243 291
#     4   8  14  27  47  72 100 128 164 207 244 281
#     4   8  14  26  48  74  97 127 167 207 242 279
#     4   9  18  33  53  73  93 124 168 209 238 275
#     4  10  20  34  52  72  95 127 166 204 242 286
#     4  10  19  32  51  74  99 128 165 205 243 287
#     4  10  20  32  48  72 101 130 160 200 249 294
#     4   9  18  34  54  73  96 129 164 196 234 284
#
# _framework density 18.544239000000001
#
# number of rings (size 3 to 8) (size 9 to 14) (size 15 to 20)
#    0.000    2.750    0.000    2.625    0.000    6.000 
#    0.000    4.375    0.000    2.250    0.000    1.750 
#    0.000    0.000    0.000    0.000    0.000    0.000 
#
# Total GULP energy -396770.967568 kJ/mol
# GULP energy per Si atom -12399.092736 kJ/mol
# Density = 1.850203 g / cm^3
# Si number density = 18.544239 Si / 1000 Ang^3
#
#
#
# Elastic Constant Matrix: (Units=GPa)
#
#
# Indices 1 2 3 4 5 6 
#
# 1 62.8905 21.6500 21.5294 0.0000 -4.9869 0.0000
# 2 21.6500 34.2250 25.8144 0.0000 3.4870 0.0000
# 3 21.5294 25.8144 94.1621 0.0000 -0.8440 0.0000
# 4 0.0000 0.0000 0.0000 13.2605 0.0000 6.9307
# 5 -4.9869 3.4870 -0.8440 0.0000 40.1018 0.0000
# 6 0.0000 0.0000 0.0000 6.9307 0.0000 18.5537
#
#
#
# Elastic Compliance Matrix: (Units=1/GPa)
#
#
# Indices 1 2 3 4 5 6 
#
# 1 0.021003 -0.012688 -0.001291 0.000000 0.003688 0.000000
# 2 -0.012688 0.044974 -0.009480 0.000000 -0.005688 0.000000
# 3 -0.001291 -0.009480 0.013522 0.000000 0.000948 0.000000
# 4 0.000000 0.000000 0.000000 0.093707 0.000000 -0.035004
# 5 0.003688 -0.005688 0.000948 0.000000 0.025910 0.000000
# 6 0.000000 0.000000 0.000000 -0.035004 0.000000 0.066973
#
#
# Mechanical properties :
#
#
# Convention : Reuss Voigt Hill
#
# Bulk Modulus (GPa) = 30.69114 36.58502 33.63808
# Shear Modulus (GPa) = 15.43844 22.53546 18.98695
#
# Velocity S-wave (km/s) = 2.88847 3.48979 3.20327
# Velocity P-wave (km/s) = 5.26408 6.00079 5.64447
#
# Compressibility (1/GPa) = 0.03258269
#
# Stress axis : x y z
#
# Youngs Moduli (GPa) = 47.61266 22.23491 73.95150
#
# Poissons Ratio (x) = 0.28212 0.09544
# Poissons Ratio (y) = 0.60412 0.70103
# Poissons Ratio (z) = 0.06145 0.21078
#
# Static dielectric constant tensor:
#      x y z
#    x 3.459300 0.000000 -0.047650 
#    y 0.000000 2.981280 0.000000 
#    z -0.047650 0.000000 3.713300 
# 
# 
# High freq. dielectric constant tensor:
#      x y z
#    x 1.720280 0.000000 -0.000710 
#    y 0.000000 1.670840 0.000000 
#    z -0.000710 0.000000 1.737950 
# 
# From -- ./inp_files/314204.got.cif
#   From: 2010.06.25/outbox.cif.g09.slc.cpg/sg12_158_cif.got.tgz:314204.got - 2010.06.28 00:19:55.
