data_PCOD8087846
_publ_section_title
;
Structure prediction by ZEFSAII (Michael W. Deem and Ramdas Pophale) SiO2 
 PCOD8087846
Probable space group: C 2/M
;
_chemical_formula_sum "Si O2"
_cell_formula_units_Z 64
_cell_length_a 33.139665
_cell_length_b 10.978548
_cell_length_c 15.856169
_cell_angle_alpha 90.000000
_cell_angle_beta 36.446187
_cell_angle_gamma 90.000000
_cell_volume 3427.102560
_symmetry_space_group_name_H-M "C 2/M"
_symmetry_group_IT_number 12
_symmetry_cell_setting 'monoclinic'
loop_
_space_group_symop_operation_xyz
x,y,z
-x,y,-z
-x,-y,-z
x,-y,z
1/2+x,1/2+y,z
1/2-x,1/2+y,-z
1/2-x,1/2-y,-z
1/2+x,1/2-y,z
loop_
_atom_site_type_symbol
_atom_site_label
_atom_site_fract_x
_atom_site_fract_y
_atom_site_fract_z
Si Si1 0.153591 0.196696 0.587812
Si Si2 0.273475 0.631760 0.372183
Si Si3 0.130710 0.858873 0.929229
Si Si4 0.420577 0.359083 0.628553
Si Si5 0.170376 0.867343 0.371209
Si Si6 0.987690 0.140754 0.118966
Si Si7 0.332278 0.137961 0.848322
Si Si8 0.724688 0.728809 0.906673
O O1 0.197523 0.318516 0.507614
O O2 0.190719 0.117246 0.597092
O O3 0.151600 0.133250 0.500621
O O4 0.076131 0.222898 0.745206
O O5 0.261701 0.500000 0.352446
O O6 0.322408 0.703027 0.223248
O O7 0.161565 0.840886 0.970338
O O8 0.122324 0.000000 0.920616
O O9 0.054108 0.806179 0.055428
O O10 0.500000 0.332530 0.500000
O O11 0.404909 0.500000 0.686093
O O12 0.397207 0.342893 0.570940
O O13 0.382993 0.252305 0.745325
O O14 0.228896 0.773053 0.248827
O O15 0.199147 0.000000 0.300364
O O16 0.971312 0.000000 0.169650
O O17 0.000000 0.155783 0.000000
O O18 0.268811 0.138815 0.890667
O O19 0.364485 0.000000 0.789469
O O20 0.303076 0.158354 0.991371
#
# Coordination Sequence:
#
# PCOD8087846 Si02
#       8
#     8   8   8   8   8   8   8   8
#     4  11  20  33  54  80 109 145 182 223 278 327
#     4  10  20  34  54  79 107 141 184 227 271 324
#     4  10  19  33  54  80 110 142 183 234 280 327
#     4   9  20  38  58  81 114 149 187 235 285 341
#     4  10  19  32  53  80 108 142 184 229 274 327
#     4  10  19  32  51  78 111 143 178 226 276 322
#     4  10  21  36  58  82 112 149 186 232 288 343
#     4  10  20  35  53  81 112 141 186 229 282 333
#
# _framework density 18.674668
#
# number of rings (size 3 to 8) (size 9 to 14) (size 15 to 20)
#    0.000    2.000    2.500    1.875    0.000    4.750 
#    0.000    2.500    0.000    3.375    0.000    0.000 
#    0.000    0.000    0.000    0.000    0.000    0.000 
#
# Total GULP energy -396457.983199 kJ/mol
# GULP energy per Si atom -12389.311975 kJ/mol
# Density = 1.863216 g / cm^3
# Si number density = 18.674668 Si / 1000 Ang^3
#
#
#
# Elastic Constant Matrix: (Units=GPa)
#
#
# Indices 1 2 3 4 5 6 
#
# 1 108.0390 22.3680 56.6840 0.0000 -15.8537 0.0000
# 2 22.3680 76.4475 40.0821 0.0000 -10.9973 0.0000
# 3 56.6840 40.0821 124.5106 0.0000 -17.2442 0.0000
# 4 0.0000 0.0000 0.0000 14.7343 0.0000 8.1737
# 5 -15.8537 -10.9973 -17.2442 0.0000 39.5667 0.0000
# 6 0.0000 0.0000 0.0000 8.1737 0.0000 3.4915
#
#
#
# Elastic Compliance Matrix: (Units=1/GPa)
#
#
# Indices 1 2 3 4 5 6 
#
# 1 0.012442 -0.000585 -0.005117 0.000000 0.002593 0.000000
# 2 -0.000585 0.015965 -0.004567 0.000000 0.002213 0.000000
# 3 -0.005117 -0.004567 0.012102 0.000000 0.001955 0.000000
# 4 0.000000 0.000000 0.000000 -0.227229 0.000000 0.531954
# 5 0.002593 0.002213 0.001955 0.000000 0.027780 0.000000
# 6 0.000000 0.000000 0.000000 0.531954 0.000000 -0.958919
#
#
# Mechanical properties :
#
#
# Convention : Reuss Voigt Hill
#
# Bulk Modulus (GPa) = 50.07045 60.80727 55.43886
# Shear Modulus (GPa) = -4.58436 24.21602 9.81583
#
# Velocity S-wave (km/s) = -1.56850 3.60492 2.29513
# Velocity P-wave (km/s) = 4.85695 7.06819 6.06421
#
# Compressibility (1/GPa) = 0.01997186
#
# Stress axis : x y z
#
# Youngs Moduli (GPa) = 80.37211 62.63863 82.63216
#
# Poissons Ratio (x) = 0.03662 0.42283
# Poissons Ratio (y) = 0.04698 0.37736
# Poissons Ratio (z) = 0.41127 0.28605
#
# Static dielectric constant tensor:
#      x y z
#    x 3.519160 0.000000 -0.056430 
#    y 0.000000 3.154320 0.000000 
#    z -0.056430 0.000000 3.427060 
# 
# 
# High freq. dielectric constant tensor:
#      x y z
#    x 1.735600 0.000000 0.002630 
#    y 0.000000 1.691130 0.000000 
#    z 0.002630 0.000000 1.722120 
# 
# From -- ./inp_files/250826.got.cif
#   From: 2010.06.25/outbox.cif.g09.slc.cpg/sg12_126_cif.got.tgz:250826.got - 2010.06.28 00:19:55.
