data_PCOD8087397
_publ_section_title
;
Structure prediction by ZEFSAII (Michael W. Deem and Ramdas Pophale) SiO2 
 PCOD8087397
Probable space group: C 2/M
;
_chemical_formula_sum "Si O2"
_cell_formula_units_Z 64
_cell_length_a 14.666427
_cell_length_b 9.390019
_cell_length_c 26.041275
_cell_angle_alpha 90.000000
_cell_angle_beta 90.428374
_cell_angle_gamma 90.000000
_cell_volume 3586.252809
_symmetry_space_group_name_H-M "C 2/M"
_symmetry_group_IT_number 12
_symmetry_cell_setting 'monoclinic'
loop_
_space_group_symop_operation_xyz
x,y,z
-x,y,-z
-x,-y,-z
x,-y,z
1/2+x,1/2+y,z
1/2-x,1/2+y,-z
1/2-x,1/2-y,-z
1/2+x,1/2-y,z
loop_
_atom_site_type_symbol
_atom_site_label
_atom_site_fract_x
_atom_site_fract_y
_atom_site_fract_z
Si Si1 0.899473 0.331177 0.995229
Si Si2 0.348739 0.166398 0.373593
Si Si3 0.000518 0.667213 0.292616
Si Si4 0.362117 0.666177 0.638851
Si Si5 0.499316 0.167539 0.822331
Si Si6 0.485347 0.334600 0.441855
Si Si7 0.170768 0.667824 0.113661
Si Si8 0.158794 0.668350 0.894461
O O1 0.906991 0.500000 0.991656
O O2 0.854760 0.272868 0.943016
O O3 0.844914 0.284473 0.045818
O O4 0.000000 0.265170 0.000000
O O5 0.406171 0.199790 0.322113
O O6 0.243301 0.217367 0.367647
O O7 0.398644 0.249133 0.419756
O O8 0.351227 0.000000 0.387084
O O9 0.023052 0.500000 0.293620
O O10 0.088611 0.746538 0.315926
O O11 0.986926 0.727599 0.234971
O O12 0.364222 0.500000 0.653451
O O13 0.419726 0.696620 0.587323
O O14 0.401948 0.211666 0.843930
O O15 0.572050 0.227026 0.863173
O O16 0.510331 0.000000 0.820513
O O17 0.500000 0.284123 0.500000
O O18 0.459430 0.500000 0.438338
O O19 0.188236 0.500000 0.112321
O O20 0.258873 0.751706 0.132436
O O21 0.169987 0.500000 0.889423
#
# Coordination Sequence:
#
# PCOD8087397 Si02
#       8
#     8   8   8   8   8   8   8   8
#     4   9  15  28  51  71  90 124 162 189 225 287
#     4   9  18  32  50  71  96 127 163 201 240 282
#     4   9  18  33  51  70  92 122 163 204 237 279
#     4   9  18  33  51  72  99 130 161 197 244 286
#     4   9  18  33  51  69  93 126 160 193 235 291
#     4   9  18  32  49  72 103 134 163 196 235 282
#     4  10  19  32  50  71  95 123 156 194 236 284
#     4  10  19  32  51  73  95 123 159 195 235 286
#
# _framework density 17.845925999999999
#
# number of rings (size 3 to 8) (size 9 to 14) (size 15 to 20)
#    0.000    2.750    1.250    0.375    0.000    2.250 
#    0.000    3.125    0.000    0.750    0.000    0.000 
#    0.000    0.000    0.000    0.000    0.000    0.000 
#
# Total GULP energy -396664.862762 kJ/mol
# GULP energy per Si atom -12395.776961 kJ/mol
# Density = 1.780531 g / cm^3
# Si number density = 17.845926 Si / 1000 Ang^3
#
#
#
# Elastic Constant Matrix: (Units=GPa)
#
#
# Indices 1 2 3 4 5 6 
#
# 1 121.3524 32.0827 37.5744 0.0000 1.1726 0.0000
# 2 32.0827 28.5511 24.8294 0.0000 0.3920 0.0000
# 3 37.5744 24.8294 106.5235 0.0000 -16.3670 0.0000
# 4 0.0000 0.0000 0.0000 19.3883 0.0000 3.6636
# 5 1.1726 0.3920 -16.3670 0.0000 17.5301 0.0000
# 6 0.0000 0.0000 0.0000 3.6636 0.0000 27.2985
#
#
#
# Elastic Compliance Matrix: (Units=1/GPa)
#
#
# Indices 1 2 3 4 5 6 
#
# 1 0.011946 -0.011831 -0.001796 0.000000 -0.002211 0.000000
# 2 -0.011831 0.058047 -0.011015 0.000000 -0.010790 0.000000
# 3 -0.001796 -0.011015 0.014762 0.000000 0.014149 0.000000
# 4 0.000000 0.000000 0.000000 0.052920 0.000000 -0.007102
# 5 -0.002211 -0.010790 0.014149 0.000000 0.070644 0.000000
# 6 0.000000 0.000000 0.000000 -0.007102 0.000000 0.037585
#
#
# Mechanical properties :
#
#
# Convention : Reuss Voigt Hill
#
# Bulk Modulus (GPa) = 28.19161 49.48890 38.84026
# Shear Modulus (GPa) = 16.28607 23.63943 19.96275
#
# Velocity S-wave (km/s) = 3.02419 3.64351 3.34820
# Velocity P-wave (km/s) = 5.29394 6.74475 6.06290
#
# Compressibility (1/GPa) = 0.03547154
#
# Stress axis : x y z
#
# Youngs Moduli (GPa) = 83.71182 17.22751 67.73992
#
# Poissons Ratio (x) = 0.20383 0.12163
# Poissons Ratio (y) = 0.99043 0.74613
# Poissons Ratio (z) = 0.15031 0.18975
#
# Static dielectric constant tensor:
#      x y z
#    x 3.412700 0.000000 -0.056800 
#    y 0.000000 2.974720 0.000000 
#    z -0.056800 0.000000 3.470170 
# 
# 
# High freq. dielectric constant tensor:
#      x y z
#    x 1.698820 0.000000 -0.002030 
#    y 0.000000 1.658350 0.000000 
#    z -0.002030 0.000000 1.691370 
# 
# From -- ./inp_files/335280.got.cif
#   From: 2010.06.25/outbox.cif.g09.slc.cpg/sg12_168_cif.got.tgz:335280.got - 2010.06.28 00:19:55.
