data_PCOD8087558
_publ_section_title
;
Structure prediction by ZEFSAII (Michael W. Deem and Ramdas Pophale) SiO2 
 PCOD8087558
Probable space group: C 2/M
;
_chemical_formula_sum "Si O2"
_cell_formula_units_Z 64
_cell_length_a 23.101484
_cell_length_b 9.243962
_cell_length_c 21.622882
_cell_angle_alpha 90.000000
_cell_angle_beta 56.963065
_cell_angle_gamma 90.000000
_cell_volume 3870.981298
_symmetry_space_group_name_H-M "C 2/M"
_symmetry_group_IT_number 12
_symmetry_cell_setting 'monoclinic'
loop_
_space_group_symop_operation_xyz
x,y,z
-x,y,-z
-x,-y,-z
x,-y,z
1/2+x,1/2+y,z
1/2-x,1/2+y,-z
1/2-x,1/2-y,-z
1/2+x,1/2-y,z
loop_
_atom_site_type_symbol
_atom_site_label
_atom_site_fract_x
_atom_site_fract_y
_atom_site_fract_z
Si Si1 0.572855 0.830684 0.729226
Si Si2 0.354526 0.665374 0.410939
Si Si3 0.198132 0.829345 0.856329
Si Si4 0.075124 0.334988 0.984448
Si Si5 0.708823 0.836002 0.728529
Si Si6 0.214558 0.331291 0.076858
Si Si7 0.935156 0.669772 0.871717
Si Si8 0.729935 0.664292 0.430681
O O1 0.583991 0.758784 0.655053
O O2 0.636558 0.793918 0.737407
O O3 0.502626 0.764003 0.799074
O O4 0.565671 0.000000 0.721904
O O5 0.368742 0.500000 0.385029
O O6 0.344773 0.685005 0.491632
O O7 0.281707 0.714650 0.425230
O O8 0.124036 0.760686 0.913202
O O9 0.225401 0.769820 0.775274
O O10 0.252160 0.782785 0.877871
O O11 0.190177 0.000000 0.856427
O O12 0.102664 0.500000 0.969011
O O13 0.073938 0.266952 0.053943
O O14 0.000000 0.327051 0.000000
O O15 0.772252 0.818924 0.642607
O O16 0.703900 0.000000 0.756342
O O17 0.225790 0.500000 0.057808
O O18 0.133236 0.293099 0.127742
O O19 0.250000 0.250000 0.000000
O O20 0.947741 0.500000 0.871487
O O21 0.757423 0.500000 0.429255
#
# Coordination Sequence:
#
# PCOD8087558 Si02
#       8
#     8   8   8   8   8   8   8   8
#     4   9  17  30  47  68  93 121 155 189 222 270
#     4   9  15  24  41  66  95 123 149 183 227 268
#     4  11  22  32  45  69  96 118 146 192 243 276
#     4  10  19  32  51  69  86 118 159 186 215 274
#     4   9  17  30  47  66  92 125 157 185 217 270
#     4  10  20  35  52  68  87 116 155 196 236 275
#     4   9  17  31  50  67  86 117 155 191 224 265
#     4   8  15  27  42  62  90 125 160 185 211 263
#
# _framework density 16.533275
#
# number of rings (size 3 to 8) (size 9 to 14) (size 15 to 20)
#    0.000    2.625    1.250    2.250    0.000    5.250 
#    0.000    1.250    0.000    0.000    0.000    0.875 
#    0.000    7.000    0.000    0.000    0.000    0.000 
#
# Total GULP energy -396586.704533 kJ/mol
# GULP energy per Si atom -12393.334517 kJ/mol
# Density = 1.649564 g / cm^3
# Si number density = 16.533275 Si / 1000 Ang^3
#
#
#
# Elastic Constant Matrix: (Units=GPa)
#
#
# Indices 1 2 3 4 5 6 
#
# 1 59.5422 26.4478 39.0903 0.0006 9.5101 -0.0014
# 2 26.4478 54.1318 45.7254 0.0023 7.8572 -0.0098
# 3 39.0903 45.7254 141.8558 0.0003 10.3427 -0.0002
# 4 0.0006 0.0023 0.0003 29.4908 0.0001 2.9422
# 5 9.5101 7.8572 10.3427 0.0001 12.3753 0.0008
# 6 -0.0014 -0.0098 -0.0002 2.9422 0.0008 9.0094
#
#
#
# Elastic Compliance Matrix: (Units=1/GPa)
#
#
# Indices 1 2 3 4 5 6 
#
# 1 0.024046 -0.007192 -0.003507 0.000000 -0.010981 -0.000003
# 2 -0.007192 0.028724 -0.006762 -0.000005 -0.007059 0.000032
# 3 -0.003507 -0.006762 0.010315 0.000001 -0.001632 -0.000008
# 4 0.000000 -0.000005 0.000001 0.035051 0.000002 -0.011447
# 5 -0.010981 -0.007059 -0.001632 0.000002 0.095091 -0.000019
# 6 -0.000003 0.000032 -0.000008 -0.011447 -0.000019 0.114734
#
#
# Mechanical properties :
#
#
# Convention : Reuss Voigt Hill
#
# Bulk Modulus (GPa) = 35.50943 53.11743 44.31343
# Shear Modulus (GPa) = 14.19366 19.79285 16.99325
#
# Velocity S-wave (km/s) = 2.93318 3.46374 3.20944
# Velocity P-wave (km/s) = 5.74418 6.94219 6.37140
#
# Compressibility (1/GPa) = 0.02816154
#
# Stress axis : x y z
#
# Youngs Moduli (GPa) = 41.58724 34.81413 96.94966
#
# Poissons Ratio (x) = 0.25037 0.34003
# Poissons Ratio (y) = 0.29909 0.65561
# Poissons Ratio (z) = 0.14586 0.23543
#
# Static dielectric constant tensor:
#      x y z
#    x 2.868180 0.000000 -0.019010 
#    y 0.000000 3.051460 0.000000 
#    z -0.019010 0.000000 3.549490 
# 
# 
# High freq. dielectric constant tensor:
#      x y z
#    x 1.588640 0.000000 -0.000520 
#    y 0.000000 1.627580 0.000000 
#    z -0.000520 0.000000 1.653850 
# 
# From -- ./inp_files/323681.got.cif
#   From: 2010.06.25/outbox.cif.g09.slc.cpg/sg12_162_cif.got.tgz:323681.got - 2010.06.28 00:19:55.
