data_PCOD8087897
_publ_section_title
;
Structure prediction by ZEFSAII (Michael W. Deem and Ramdas Pophale) SiO2 
 PCOD8087897
Probable space group: C 2/M
;
_chemical_formula_sum "Si O2"
_cell_formula_units_Z 64
_cell_length_a 31.073428
_cell_length_b 9.473058
_cell_length_c 12.062405
_cell_angle_alpha 90.000000
_cell_angle_beta 82.167618
_cell_angle_gamma 90.000000
_cell_volume 3517.569690
_symmetry_space_group_name_H-M "C 2/M"
_symmetry_group_IT_number 12
_symmetry_cell_setting 'monoclinic'
loop_
_space_group_symop_operation_xyz
x,y,z
-x,y,-z
-x,-y,-z
x,-y,z
1/2+x,1/2+y,z
1/2-x,1/2+y,-z
1/2-x,1/2-y,-z
1/2+x,1/2-y,z
loop_
_atom_site_type_symbol
_atom_site_label
_atom_site_fract_x
_atom_site_fract_y
_atom_site_fract_z
Si Si1 0.745153 0.655241 0.210199
Si Si2 0.215552 0.346349 0.568630
Si Si3 0.818985 0.834410 0.096779
Si Si4 0.601363 0.342703 0.776254
Si Si5 0.638565 0.342155 0.537280
Si Si6 0.547196 0.837092 0.952055
Si Si7 0.645479 0.337550 0.284327
Si Si8 0.875652 0.334770 0.910140
O O1 0.743649 0.500000 0.151908
O O2 0.774650 0.638939 0.306868
O O3 0.770193 0.772694 0.128927
O O4 0.696649 0.703360 0.261649
O O5 0.215996 0.500000 0.511386
O O6 0.250000 0.250000 0.500000
O O7 0.169152 0.279925 0.568172
O O8 0.850495 0.806691 0.191481
O O9 0.814772 0.000000 0.071547
O O10 0.837833 0.753092 0.983741
O O11 0.589157 0.500000 0.819924
O O12 0.599913 0.334303 0.641991
O O13 0.564981 0.239344 0.836487
O O14 0.659947 0.500000 0.535274
O O15 0.625452 0.313255 0.414493
O O16 0.543735 0.000000 0.920898
O O17 0.500000 0.775910 0.000000
O O18 0.578739 0.811700 0.044727
O O19 0.638540 0.500000 0.250545
O O20 0.619261 0.231700 0.213877
O O21 0.863257 0.500000 0.909141
#
# Coordination Sequence:
#
# PCOD8087897 Si02
#       8
#     8   8   8   8   8   8   8   8
#     4  10  20  32  47  69  99 138 182 224 263 298
#     4  11  20  30  46  69  99 137 183 229 268 301
#     4  10  19  32  52  74 100 135 175 220 268 307
#     4   9  18  31  52  82 110 132 163 211 260 304
#     4  10  19  34  51  73 105 140 176 217 262 302
#     4   9  19  37  61  85 107 130 157 200 259 315
#     4  10  21  36  51  69 102 145 182 214 255 303
#     4  10  21  37  55  76 103 131 169 213 256 312
#
# _framework density 18.194379999999999
#
# number of rings (size 3 to 8) (size 9 to 14) (size 15 to 20)
#    0.000    2.125    2.500    1.125    0.000    3.750 
#    0.000    0.000    0.000    0.750    0.000    5.250 
#    0.000    0.000    0.000    0.000    0.000    0.000 
#
# Total GULP energy -396611.052797 kJ/mol
# GULP energy per Si atom -12394.095400 kJ/mol
# Density = 1.815297 g / cm^3
# Si number density = 18.194380 Si / 1000 Ang^3
#
#
#
# Elastic Constant Matrix: (Units=GPa)
#
#
# Indices 1 2 3 4 5 6 
#
# 1 61.3484 42.4310 35.3288 0.0000 -15.4334 0.0000
# 2 42.4310 113.4607 55.9399 0.0000 -8.4503 0.0000
# 3 35.3288 55.9399 115.5591 0.0000 -7.6157 0.0000
# 4 0.0000 0.0000 0.0000 29.1788 0.0000 -3.0834
# 5 -15.4334 -8.4503 -7.6157 0.0000 18.5879 0.0000
# 6 0.0000 0.0000 0.0000 -3.0834 0.0000 22.2842
#
#
#
# Elastic Compliance Matrix: (Units=1/GPa)
#
#
# Indices 1 2 3 4 5 6 
#
# 1 0.028225 -0.007254 -0.003896 0.000000 0.018541 0.000000
# 2 -0.007254 0.013611 -0.004482 0.000000 -0.001671 0.000000
# 3 -0.003896 -0.004482 0.011990 0.000000 -0.000359 0.000000
# 4 0.000000 0.000000 0.000000 0.034780 0.000000 0.004812
# 5 0.018541 -0.001671 -0.000359 0.000000 0.068286 0.000000
# 6 0.000000 0.000000 0.000000 0.004812 0.000000 0.045541
#
#
# Mechanical properties :
#
#
# Convention : Reuss Voigt Hill
#
# Bulk Modulus (GPa) = 44.31646 61.97418 53.14532
# Shear Modulus (GPa) = 20.72818 24.45474 22.59146
#
# Velocity S-wave (km/s) = 3.37896 3.67015 3.52756
# Velocity P-wave (km/s) = 6.29549 7.21777 6.77235
#
# Compressibility (1/GPa) = 0.02256498
#
# Stress axis : x y z
#
# Youngs Moduli (GPa) = 35.42930 73.46769 83.40067
#
# Poissons Ratio (x) = 0.53292 0.32490
# Poissons Ratio (y) = 0.25700 0.37376
# Poissons Ratio (z) = 0.13802 0.32925
#
# Static dielectric constant tensor:
#      x y z
#    x 3.073610 0.000000 -0.024870 
#    y 0.000000 3.558330 0.000000 
#    z -0.024870 0.000000 3.421710 
# 
# 
# High freq. dielectric constant tensor:
#      x y z
#    x 1.658210 0.000000 -0.006510 
#    y 0.000000 1.716980 0.000000 
#    z -0.006510 0.000000 1.705070 
# 
# From -- ./inp_files/187519.got.cif
#   From: 2010.06.25/outbox.cif.g09.slc.cpg/sg12_94_cif.got.tgz:187519.got - 2010.06.28 00:19:55.
