data_PCOD8087421
_publ_section_title
;
Structure prediction by ZEFSAII (Michael W. Deem and Ramdas Pophale) SiO2 
 PCOD8087421
Probable space group: C 2/M
;
_chemical_formula_sum "Si O2"
_cell_formula_units_Z 64
_cell_length_a 21.614557
_cell_length_b 12.560253
_cell_length_c 27.546589
_cell_angle_alpha 90.000000
_cell_angle_beta 152.947673
_cell_angle_gamma 90.000000
_cell_volume 3401.236856
_symmetry_space_group_name_H-M "C 2/M"
_symmetry_group_IT_number 12
_symmetry_cell_setting 'monoclinic'
loop_
_space_group_symop_operation_xyz
x,y,z
-x,y,-z
-x,-y,-z
x,-y,z
1/2+x,1/2+y,z
1/2-x,1/2+y,-z
1/2-x,1/2-y,-z
1/2+x,1/2-y,z
loop_
_atom_site_type_symbol
_atom_site_label
_atom_site_fract_x
_atom_site_fract_y
_atom_site_fract_z
Si Si1 0.668846 0.624417 0.580101
Si Si2 0.053397 0.316071 0.874247
Si Si3 0.404680 0.115555 0.679784
Si Si4 0.581429 0.617558 0.655717
Si Si5 0.845761 0.125807 0.875964
Si Si6 0.843672 0.122119 0.109514
Si Si7 0.812732 0.284691 0.769226
Si Si8 0.111954 0.252378 0.766136
O O1 0.691725 0.500000 0.612990
O O2 0.750282 0.647479 0.586372
O O3 0.509821 0.643051 0.456010
O O4 0.721822 0.711826 0.656225
O O5 0.061486 0.195436 0.858408
O O6 0.983732 0.390692 0.786143
O O7 0.967001 0.314143 0.863673
O O8 0.194616 0.371454 0.983322
O O9 0.479340 0.190559 0.694286
O O10 0.405834 0.000000 0.656104
O O11 0.550654 0.500000 0.653250
O O12 0.741404 0.627844 0.754042
O O13 0.546821 0.698260 0.673902
O O14 0.813633 0.173628 0.799864
O O15 0.739053 0.171012 0.841417
O O16 0.825254 0.000000 0.858242
O O17 0.000000 0.154808 0.000000
O O18 0.836572 0.165125 0.159448
O O19 0.895829 0.000000 0.144853
#
# Coordination Sequence:
#
# PCOD8087421 Si02
#       8
#     8   8   8   8   8   8   8   8
#     4   9  18  33  54  78 100 127 166 209 254 301
#     4   9  19  32  48  74 101 128 165 205 248 299
#     4   9  17  31  51  72  96 128 166 209 252 297
#     4  10  20  33  51  75 102 133 167 205 252 302
#     4  10  21  36  53  73 101 138 173 203 240 293
#     4  10  19  32  50  72 101 132 162 203 252 298
#     4  10  19  33  53  75 100 128 166 207 244 289
#     4  10  20  33  50  73 102 132 169 210 250 295
#
# _framework density 18.816683999999999
#
# number of rings (size 3 to 8) (size 9 to 14) (size 15 to 20)
#    0.000    2.375    0.000    2.625    0.000    3.500 
#    0.000    3.125    0.000   12.000    0.000    0.000 
#    0.000    0.000    0.000    0.000    0.000    0.000 
#
# Total GULP energy -396480.112279 kJ/mol
# GULP energy per Si atom -12390.003509 kJ/mol
# Density = 1.877386 g / cm^3
# Si number density = 18.816684 Si / 1000 Ang^3
#
#
#
# Elastic Constant Matrix: (Units=GPa)
#
#
# Indices 1 2 3 4 5 6 
#
# 1 86.7649 37.4848 15.6426 0.0002 0.4847 0.0002
# 2 37.4848 98.5484 35.6011 0.0022 -4.1779 0.0003
# 3 15.6426 35.6011 59.6463 0.0022 -1.4024 -0.0004
# 4 0.0002 0.0022 0.0022 23.4215 0.0001 -4.1578
# 5 0.4847 -4.1779 -1.4024 0.0001 29.2161 -0.0001
# 6 0.0002 0.0003 -0.0004 -4.1578 -0.0001 19.6347
#
#
#
# Elastic Compliance Matrix: (Units=1/GPa)
#
#
# Indices 1 2 3 4 5 6 
#
# 1 0.013838 -0.005082 -0.000619 0.000000 -0.000986 0.000000
# 2 -0.005082 0.014867 -0.007498 -0.000001 0.001850 0.000000
# 3 -0.000619 -0.007498 0.021402 -0.000001 -0.000035 0.000000
# 4 0.000000 -0.000001 -0.000001 0.044364 0.000000 0.009394
# 5 -0.000986 0.001850 -0.000035 0.000000 0.034507 0.000000
# 6 0.000000 0.000000 0.000000 0.009394 0.000000 0.052919
#
#
# Mechanical properties :
#
#
# Convention : Reuss Voigt Hill
#
# Bulk Modulus (GPa) = 42.17547 46.93517 44.55532
# Shear Modulus (GPa) = 23.12698 24.86986 23.99842
#
# Velocity S-wave (km/s) = 3.50961 3.63945 3.57512
# Velocity P-wave (km/s) = 6.23584 6.53134 6.38530
#
# Compressibility (1/GPa) = 0.02371046
#
# Stress axis : x y z
#
# Youngs Moduli (GPa) = 72.26506 67.26220 46.72427
#
# Poissons Ratio (x) = 0.34180 0.02893
# Poissons Ratio (y) = 0.36723 0.35032
# Poissons Ratio (z) = 0.04475 0.50430
#
# Static dielectric constant tensor:
#      x y z
#    x 3.672640 0.000000 0.149100 
#    y 0.000000 3.310880 -0.000020 
#    z 0.149100 -0.000020 3.423070 
# 
# 
# High freq. dielectric constant tensor:
#      x y z
#    x 1.743370 0.000000 0.012480 
#    y 0.000000 1.712600 0.000000 
#    z 0.012480 0.000000 1.721970 
# 
# From -- ./inp_files/366007.got.cif
#   From: 2010.06.25/outbox.cif.g09.slc.cpg/sg12_184_cif.got.tgz:366007.got - 2010.06.28 00:19:55.
