data_PCOD8087901
_publ_section_title
;
Structure prediction by ZEFSAII (Michael W. Deem and Ramdas Pophale) SiO2 
 PCOD8087901
Probable space group: C 2/M
;
_chemical_formula_sum "Si O2"
_cell_formula_units_Z 40
_cell_length_a 20.862442
_cell_length_b 18.902817
_cell_length_c 13.952799
_cell_angle_alpha 90.000000
_cell_angle_beta 24.875652
_cell_angle_gamma 90.000000
_cell_volume 2314.590885
_symmetry_space_group_name_H-M "C 2/M"
_symmetry_group_IT_number 12
_symmetry_cell_setting 'monoclinic'
loop_
_space_group_symop_operation_xyz
x,y,z
-x,y,-z
-x,-y,-z
x,-y,z
1/2+x,1/2+y,z
1/2-x,1/2+y,-z
1/2-x,1/2-y,-z
1/2+x,1/2-y,z
loop_
_atom_site_type_symbol
_atom_site_label
_atom_site_fract_x
_atom_site_fract_y
_atom_site_fract_z
Si Si1 0.643732 0.678828 0.874620
Si Si2 0.105289 0.917333 0.441444
Si Si3 0.206528 0.327368 0.515802
Si Si4 0.588990 0.832158 0.978673
Si Si5 0.525866 0.417012 0.762252
O O1 0.787403 0.669023 0.608713
O O2 0.657527 0.754614 0.906689
O O3 0.500000 0.677947 0.000000
O O4 0.621443 0.618789 0.986286
O O5 0.274491 0.886968 0.205729
O O6 0.021455 0.900228 0.655253
O O7 0.000000 0.885455 0.500000
O O8 0.127154 0.000000 0.397800
O O9 0.250000 0.250000 0.500000
O O10 0.317715 0.385692 0.409418
O O11 0.033708 0.349246 0.772696
O O12 0.500000 0.835549 0.000000
O O13 0.520927 0.500000 0.790897
#
# Coordination Sequence:
#
# PCOD8087901 Si02
#       5
#     8   8   8   8   8
#     4   9  18  29  50  77 110 138 166 209 265 311
#     4  10  22  38  54  75 107 142 175 218 268 311
#     4  11  17  30  50  81 111 137 165 215 269 306
#     4  11  18  31  57  79 104 136 174 218 261 310
#     4  10  19  32  52  74 104 141 177 210 256 318
#
# _framework density 17.281672
#
# number of rings (size 3 to 8) (size 9 to 14) (size 15 to 20)
#    0.000    1.800    8.000    0.000    0.000    4.800 
#    0.000    1.000    0.000    0.000    0.000    4.200 
#    0.000    0.000    0.000    0.000    0.000    0.000 
#
# Total GULP energy -247888.331338 kJ/mol
# GULP energy per Si atom -12394.416567 kJ/mol
# Density = 1.724234 g / cm^3
# Si number density = 17.281672 Si / 1000 Ang^3
#
#
#
# Elastic Constant Matrix: (Units=GPa)
#
#
# Indices 1 2 3 4 5 6 
#
# 1 69.3820 42.7854 53.1642 0.0006 15.1169 -0.0004
# 2 42.7854 69.8385 55.2698 0.0003 15.5875 0.0003
# 3 53.1642 55.2698 144.9873 0.0000 35.7373 0.0001
# 4 0.0006 0.0003 0.0000 21.9028 -0.0004 12.0486
# 5 15.1169 15.5875 35.7373 -0.0004 27.3738 0.0005
# 6 -0.0004 0.0003 0.0001 12.0486 0.0005 12.7275
#
#
#
# Elastic Compliance Matrix: (Units=1/GPa)
#
#
# Indices 1 2 3 4 5 6 
#
# 1 0.025366 -0.011651 -0.004486 -0.000003 -0.001517 0.000004
# 2 -0.011651 0.025944 -0.005252 0.000001 -0.001482 -0.000002
# 3 -0.004486 -0.005252 0.013560 0.000000 -0.012235 0.000001
# 4 -0.000003 0.000001 0.000000 0.095266 0.000004 -0.090184
# 5 -0.001517 -0.001482 -0.012235 0.000004 0.054186 -0.000006
# 6 0.000004 -0.000002 0.000001 -0.090184 -0.000006 0.163944
#
#
# Mechanical properties :
#
#
# Convention : Reuss Voigt Hill
#
# Bulk Modulus (GPa) = 45.26734 65.18298 55.22516
# Shear Modulus (GPa) = 11.67113 21.26672 16.46892
#
# Velocity S-wave (km/s) = 2.60156 3.51179 3.09037
# Velocity P-wave (km/s) = 5.93927 7.36501 6.69023
#
# Compressibility (1/GPa) = 0.02209098
#
# Stress axis : x y z
#
# Youngs Moduli (GPa) = 39.42348 38.54419 73.74680
#
# Poissons Ratio (x) = 0.44909 0.33080
# Poissons Ratio (y) = 0.45934 0.38735
# Poissons Ratio (z) = 0.17684 0.20245
#
# Static dielectric constant tensor:
#      x y z
#    x 3.132720 0.000000 0.528600 
#    y 0.000000 3.287980 0.000000 
#    z 0.528600 0.000000 3.787000 
# 
# 
# High freq. dielectric constant tensor:
#      x y z
#    x 1.624460 0.000000 0.034500 
#    y 0.000000 1.668140 0.000000 
#    z 0.034500 0.000000 1.676010 
# 
# From -- ./inp_files/47085.got.cif
#   From: 2010.06.25/outbox.cif.g09.slc.cpg/sg12_24_cif.got.tgz:47085.got - 2010.06.28 00:19:55.
