data_PCOD8087656
_publ_section_title
;
Structure prediction by ZEFSAII (Michael W. Deem and Ramdas Pophale) SiO2 
 PCOD8087656
Probable space group: C 2/M
;
_chemical_formula_sum "Si O2"
_cell_formula_units_Z 64
_cell_length_a 31.556133
_cell_length_b 8.993941
_cell_length_c 15.721204
_cell_angle_alpha 90.000000
_cell_angle_beta 53.835483
_cell_angle_gamma 90.000000
_cell_volume 3602.205704
_symmetry_space_group_name_H-M "C 2/M"
_symmetry_group_IT_number 12
_symmetry_cell_setting 'monoclinic'
loop_
_space_group_symop_operation_xyz
x,y,z
-x,y,-z
-x,-y,-z
x,-y,z
1/2+x,1/2+y,z
1/2-x,1/2+y,-z
1/2-x,1/2-y,-z
1/2+x,1/2-y,z
loop_
_atom_site_type_symbol
_atom_site_label
_atom_site_fract_x
_atom_site_fract_y
_atom_site_fract_z
Si Si1 0.858406 0.329022 0.420317
Si Si2 0.781380 0.173466 0.843704
Si Si3 0.533670 0.175538 0.784466
Si Si4 0.208589 0.327107 0.344109
Si Si5 0.071376 0.824793 0.089816
Si Si6 0.308309 0.671070 0.329853
Si Si7 0.081490 0.171205 0.882624
Si Si8 0.671176 0.173631 0.053389
O O1 0.855373 0.500000 0.398252
O O2 0.917519 0.271370 0.332563
O O3 0.843430 0.303891 0.536602
O O4 0.815453 0.250585 0.411666
O O5 0.797699 0.227706 0.731414
O O6 0.816388 0.264825 0.868155
O O7 0.794154 0.000000 0.838722
O O8 0.719881 0.205567 0.932669
O O9 0.481851 0.254673 0.808798
O O10 0.544006 0.228352 0.868777
O O11 0.525314 0.000000 0.792378
O O12 0.216141 0.500000 0.309787
O O13 0.258196 0.266938 0.338786
O O14 0.120854 0.757766 0.078698
O O15 0.071388 0.000000 0.103916
O O16 0.073918 0.779942 0.988221
O O17 0.299390 0.500000 0.361761
O O18 0.358094 0.699354 0.210976
O O19 0.065300 0.000000 0.886915
O O20 0.658868 0.000000 0.074921
#
# Coordination Sequence:
#
# PCOD8087656 Si02
#       8
#     8   8   8   8   8   8   8   8
#     4   9  19  33  48  69 100 137 174 212 251 292
#     4  10  21  36  55  80 106 131 161 198 243 296
#     4  10  20  33  48  69 100 136 174 214 252 291
#     4  10  19  32  51  74 101 135 172 207 249 298
#     4  11  21  33  52  75 100 132 170 209 250 299
#     4   9  17  29  47  71 100 133 168 207 250 297
#     4   9  18  31  46  69 101 134 167 205 251 300
#     4  10  21  37  56  78 105 133 160 196 245 299
#
# _framework density 17.766893
#
# number of rings (size 3 to 8) (size 9 to 14) (size 15 to 20)
#    0.000    2.250    0.000    3.000    0.000    6.500 
#    0.000    2.500    0.000    0.750    0.000    5.250 
#    0.000    0.000    0.000    0.000    0.000    0.000 
#
# Total GULP energy -396874.681796 kJ/mol
# GULP energy per Si atom -12402.333806 kJ/mol
# Density = 1.772645 g / cm^3
# Si number density = 17.766893 Si / 1000 Ang^3
#
#
#
# Elastic Constant Matrix: (Units=GPa)
#
#
# Indices 1 2 3 4 5 6 
#
# 1 109.0886 47.8848 47.8810 0.0000 -9.3968 0.0000
# 2 47.8848 67.8475 33.4921 0.0000 1.9481 -0.0001
# 3 47.8810 33.4921 87.5473 0.0000 6.3979 0.0000
# 4 0.0000 0.0000 0.0000 26.8300 0.0000 3.0672
# 5 -9.3968 1.9481 6.3979 0.0000 19.3787 0.0000
# 6 0.0000 -0.0001 0.0000 3.0672 0.0000 33.3087
#
#
#
# Elastic Compliance Matrix: (Units=1/GPa)
#
#
# Indices 1 2 3 4 5 6 
#
# 1 0.017070 -0.009067 -0.006700 0.000000 0.011401 0.000000
# 2 -0.009067 0.022991 -0.003429 0.000000 -0.005576 0.000000
# 3 -0.006700 -0.003429 0.017022 0.000000 -0.008524 0.000000
# 4 0.000000 0.000000 0.000000 0.037668 0.000000 -0.003469
# 5 0.011401 -0.005576 -0.008524 0.000000 0.060506 0.000000
# 6 0.000000 0.000000 0.000000 -0.003469 0.000000 0.030342
#
#
# Mechanical properties :
#
#
# Convention : Reuss Voigt Hill
#
# Bulk Modulus (GPa) = 53.50538 58.11100 55.80819
# Shear Modulus (GPa) = 21.71823 24.91852 23.31837
#
# Velocity S-wave (km/s) = 3.50008 3.74909 3.62672
# Velocity P-wave (km/s) = 6.82016 7.17770 7.00122
#
# Compressibility (1/GPa) = 0.01868971
#
# Stress axis : x y z
#
# Youngs Moduli (GPa) = 58.58270 43.49496 58.74910
#
# Poissons Ratio (x) = 0.39438 0.39363
# Poissons Ratio (y) = 0.53119 0.20145
# Poissons Ratio (z) = 0.39251 0.14914
#
# Static dielectric constant tensor:
#      x y z
#    x 3.264950 0.000000 -0.169650 
#    y 0.000000 3.293040 0.000000 
#    z -0.169650 0.000000 3.332600 
# 
# 
# High freq. dielectric constant tensor:
#      x y z
#    x 1.675290 0.000000 -0.012630 
#    y 0.000000 1.691570 0.000000 
#    z -0.012630 0.000000 1.682130 
# 
# From -- ./inp_files/248975.got.cif
#   From: 2010.06.25/outbox.cif.g09.slc.cpg/sg12_125_cif.got.tgz:248975.got - 2010.06.28 00:19:55.
