data_PCOD8087513
_publ_section_title
;
Structure prediction by ZEFSAII (Michael W. Deem and Ramdas Pophale) SiO2 
 PCOD8087513
Probable space group: C 2/M
;
_chemical_formula_sum "Si O2"
_cell_formula_units_Z 56
_cell_length_a 19.323133
_cell_length_b 8.681912
_cell_length_c 24.067601
_cell_angle_alpha 90.000000
_cell_angle_beta 48.036490
_cell_angle_gamma 90.000000
_cell_volume 3002.258386
_symmetry_space_group_name_H-M "C 2/M"
_symmetry_group_IT_number 12
_symmetry_cell_setting 'monoclinic'
loop_
_space_group_symop_operation_xyz
x,y,z
-x,y,-z
-x,-y,-z
x,-y,z
1/2+x,1/2+y,z
1/2-x,1/2+y,-z
1/2-x,1/2-y,-z
1/2+x,1/2-y,z
loop_
_atom_site_type_symbol
_atom_site_label
_atom_site_fract_x
_atom_site_fract_y
_atom_site_fract_z
Si Si1 0.881626 0.820953 0.400835
Si Si2 0.065815 0.321855 0.795187
Si Si3 0.707277 0.322293 0.438036
Si Si4 0.738309 0.821319 0.311580
Si Si5 0.567737 0.180598 0.917667
Si Si6 0.223337 0.181731 0.203731
Si Si7 0.047124 0.321006 0.251173
O O1 0.810353 0.719874 0.403631
O O2 0.868026 0.786391 0.473620
O O3 0.985502 0.773391 0.328412
O O4 0.863045 0.000000 0.398048
O O5 0.098231 0.500000 0.775574
O O6 0.984596 0.286591 0.794906
O O7 0.154107 0.217198 0.733406
O O8 0.028582 0.281936 0.877044
O O9 0.708158 0.500000 0.420855
O O10 0.680147 0.225312 0.397803
O O11 0.699886 0.726560 0.279756
O O12 0.725536 0.000000 0.305711
O O13 0.673206 0.243373 0.866777
O O14 0.571005 0.000000 0.926592
O O15 0.500000 0.258736 0.000000
O O16 0.152851 0.264376 0.199510
O O17 0.214538 0.000000 0.201545
O O18 0.039202 0.500000 0.269871
#
# Coordination Sequence:
#
# PCOD8087513 Si02
#       7
#     8   8   8   8   8   8   8
#     4  10  20  32  50  76 105 140 180 223 267 311
#     4   9  18  32  53  79 106 140 177 217 263 310
#     4  10  19  32  50  75 106 138 178 225 270 311
#     4  11  20  32  53  78 104 137 182 226 265 316
#     4   8  15  32  58  83 104 134 177 217 258 314
#     4  10  21  36  55  77 107 141 176 219 269 320
#     4  11  21  34  52  76 110 144 178 221 267 317
#
# _framework density 18.652625
#
# number of rings (size 3 to 8) (size 9 to 14) (size 15 to 20)
#    0.000    2.143    1.429    3.857    0.000    2.286 
#    0.000    1.429    0.000   15.000    0.000    0.000 
#    0.000    0.000    0.000    0.000    0.000    0.000 
#
# Total GULP energy -347210.262386 kJ/mol
# GULP energy per Si atom -12400.366514 kJ/mol
# Density = 1.861017 g / cm^3
# Si number density = 18.652625 Si / 1000 Ang^3
#
#
#
# Elastic Constant Matrix: (Units=GPa)
#
#
# Indices 1 2 3 4 5 6 
#
# 1 108.5499 20.4023 47.4765 0.0000 2.1146 0.0001
# 2 20.4023 52.3172 22.4580 -0.0001 4.6815 0.0002
# 3 47.4765 22.4580 116.2306 0.0000 10.6931 0.0000
# 4 0.0000 -0.0001 0.0000 16.0650 0.0001 -1.8225
# 5 2.1146 4.6815 10.6931 0.0001 21.7319 0.0000
# 6 0.0001 0.0002 0.0000 -1.8225 0.0000 28.7268
#
#
#
# Elastic Compliance Matrix: (Units=1/GPa)
#
#
# Indices 1 2 3 4 5 6 
#
# 1 0.011610 -0.002805 -0.004349 0.000000 0.001614 0.000000
# 2 -0.002805 0.021665 -0.002761 0.000000 -0.003036 0.000000
# 3 -0.004349 -0.002761 0.011333 0.000000 -0.004558 0.000000
# 4 0.000000 0.000000 0.000000 0.062698 0.000000 0.003978
# 5 0.001614 -0.003036 -0.004558 0.000000 0.048755 0.000000
# 6 0.000000 0.000000 0.000000 0.003978 0.000000 0.035063
#
#
# Mechanical properties :
#
#
# Convention : Reuss Voigt Hill
#
# Bulk Modulus (GPa) = 40.35883 50.86348 45.61115
# Shear Modulus (GPa) = 22.80875 25.75546 24.28211
#
# Velocity S-wave (km/s) = 3.50067 3.71994 3.61197
# Velocity P-wave (km/s) = 6.16633 6.76599 6.47311
#
# Compressibility (1/GPa) = 0.02477772
#
# Stress axis : x y z
#
# Youngs Moduli (GPa) = 86.13076 46.15743 88.23943
#
# Poissons Ratio (x) = 0.12949 0.38375
# Poissons Ratio (y) = 0.24162 0.24362
# Poissons Ratio (z) = 0.37457 0.12744
#
# Static dielectric constant tensor:
#      x y z
#    x 3.318110 0.000000 0.171040 
#    y 0.000000 3.305430 0.000000 
#    z 0.171040 0.000000 3.620720 
# 
# 
# High freq. dielectric constant tensor:
#      x y z
#    x 1.708840 0.000000 0.017740 
#    y 0.000000 1.718160 0.000000 
#    z 0.017740 0.000000 1.713530 
# 
# From -- ./inp_files/342275.got.cif
#   From: 2010.06.25/outbox.cif.g09.slc.cpg/sg12_172_cif.got.tgz:342275.got - 2010.06.28 00:19:55.
