data_PCOD8087531
_publ_section_title
;
Structure prediction by ZEFSAII (Michael W. Deem and Ramdas Pophale) SiO2 
 PCOD8087531
Probable space group: C 2/M
;
_chemical_formula_sum "Si O2"
_cell_formula_units_Z 64
_cell_length_a 23.092494
_cell_length_b 13.004542
_cell_length_c 11.920764
_cell_angle_alpha 90.000000
_cell_angle_beta 92.547978
_cell_angle_gamma 90.000000
_cell_volume 3576.353271
_symmetry_space_group_name_H-M "C 2/M"
_symmetry_group_IT_number 12
_symmetry_cell_setting 'monoclinic'
loop_
_space_group_symop_operation_xyz
x,y,z
-x,y,-z
-x,-y,-z
x,-y,z
1/2+x,1/2+y,z
1/2-x,1/2+y,-z
1/2-x,1/2-y,-z
1/2+x,1/2-y,z
loop_
_atom_site_type_symbol
_atom_site_label
_atom_site_fract_x
_atom_site_fract_y
_atom_site_fract_z
Si Si1 0.324315 0.884497 0.667180
Si Si2 0.563018 0.729621 0.540473
Si Si3 0.772939 0.754476 0.232880
Si Si4 0.595949 0.702841 0.301784
Si Si5 0.865794 0.117865 0.107510
Si Si6 0.839636 0.382842 0.410296
Si Si7 0.179547 0.115680 0.136107
Si Si8 0.975860 0.117850 0.252584
O O1 0.265259 0.843756 0.715731
O O2 0.380596 0.819264 0.711337
O O3 0.315005 0.879920 0.533482
O O4 0.335524 0.000000 0.710224
O O5 0.500000 0.772298 0.500000
O O6 0.593862 0.677097 0.434839
O O7 0.598275 0.826748 0.590521
O O8 0.558224 0.642687 0.635195
O O9 0.826487 0.805375 0.174964
O O10 0.793693 0.675281 0.329066
O O11 0.734612 0.690877 0.140581
O O12 0.640906 0.627144 0.244792
O O13 0.532042 0.690570 0.242557
O O14 0.932907 0.137397 0.144802
O O15 0.848618 0.000000 0.134013
O O16 0.859530 0.141895 0.975471
O O17 0.847529 0.500000 0.369016
O O18 0.203139 0.000000 0.132396
O O19 0.996837 0.000000 0.259292
#
# Coordination Sequence:
#
# PCOD8087531 Si02
#       8
#     8   8   8   8   8   8   8   8
#     4   9  19  34  53  77 106 139 175 208 253 311
#     4   9  18  33  51  76 107 138 171 208 254 313
#     4  11  19  34  54  74 104 137 174 214 260 301
#     4   9  19  33  54  76 104 136 169 210 261 302
#     4  10  21  35  53  75 103 136 176 216 256 306
#     4  10  19  32  50  76 108 137 169 214 258 308
#     4  10  21  35  51  77 104 136 175 214 260 307
#     4  10  19  33  53  78 105 136 172 215 259 309
#
# _framework density 17.895323999999999
#
# number of rings (size 3 to 8) (size 9 to 14) (size 15 to 20)
#    0.000    2.250    1.250    1.875    0.000    3.500 
#    0.000    3.750    0.000    0.750    0.000    3.500 
#    0.000    0.000    0.000    0.000    0.000    0.000 
#
# Total GULP energy -396776.783337 kJ/mol
# GULP energy per Si atom -12399.274479 kJ/mol
# Density = 1.785459 g / cm^3
# Si number density = 17.895324 Si / 1000 Ang^3
#
#
#
# Elastic Constant Matrix: (Units=GPa)
#
#
# Indices 1 2 3 4 5 6 
#
# 1 77.8043 43.1535 31.6406 0.0000 13.2072 0.0000
# 2 43.1535 102.1300 43.8591 0.0000 13.2045 0.0000
# 3 31.6406 43.8591 63.1930 0.0000 15.8183 0.0000
# 4 0.0000 0.0000 0.0000 22.8512 0.0000 5.2726
# 5 13.2072 13.2045 15.8183 0.0000 30.6858 0.0000
# 6 0.0000 0.0000 0.0000 5.2726 0.0000 25.3014
#
#
#
# Elastic Compliance Matrix: (Units=1/GPa)
#
#
# Indices 1 2 3 4 5 6 
#
# 1 0.018217 -0.005287 -0.004660 0.000000 -0.003163 0.000000
# 2 -0.005287 0.015520 -0.008062 0.000000 -0.000247 0.000000
# 3 -0.004660 -0.008062 0.025699 0.000000 -0.007773 0.000000
# 4 0.000000 0.000000 0.000000 0.045972 0.000000 -0.009580
# 5 -0.003163 -0.000247 -0.007773 0.000000 0.038063 0.000000
# 6 0.000000 0.000000 0.000000 -0.009580 0.000000 0.041520
#
#
# Mechanical properties :
#
#
# Convention : Reuss Voigt Hill
#
# Bulk Modulus (GPa) = 42.70403 53.38152 48.04277
# Shear Modulus (GPa) = 21.85166 24.06595 22.95880
#
# Velocity S-wave (km/s) = 3.49819 3.67115 3.58571
# Velocity P-wave (km/s) = 6.34283 6.91841 6.63686
#
# Compressibility (1/GPa) = 0.02341699
#
# Stress axis : x y z
#
# Youngs Moduli (GPa) = 54.89286 64.43403 38.91184
#
# Poissons Ratio (x) = 0.34068 0.18132
# Poissons Ratio (y) = 0.29023 0.31372
# Poissons Ratio (z) = 0.25579 0.51949
#
# Static dielectric constant tensor:
#      x y z
#    x 3.290960 0.000000 0.086440 
#    y 0.000000 3.330270 0.000000 
#    z 0.086440 0.000000 3.354030 
# 
# 
# High freq. dielectric constant tensor:
#      x y z
#    x 1.692950 0.000000 0.005910 
#    y 0.000000 1.686670 0.000000 
#    z 0.005910 0.000000 1.688120 
# 
# From -- ./inp_files/174696.got.cif
#   From: 2010.06.25/outbox.cif.g09.slc.cpg/sg12_88_cif.got.tgz:174696.got - 2010.06.28 00:19:55.
