data_PCOD8087649
_publ_section_title
;
Structure prediction by ZEFSAII (Michael W. Deem and Ramdas Pophale) SiO2 
 PCOD8087649
Probable space group: C 2/M
;
_chemical_formula_sum "Si O2"
_cell_formula_units_Z 56
_cell_length_a 18.137550
_cell_length_b 8.979799
_cell_length_c 22.486966
_cell_angle_alpha 90.000000
_cell_angle_beta 125.884403
_cell_angle_gamma 90.000000
_cell_volume 2967.351547
_symmetry_space_group_name_H-M "C 2/M"
_symmetry_group_IT_number 12
_symmetry_cell_setting 'monoclinic'
loop_
_space_group_symop_operation_xyz
x,y,z
-x,y,-z
-x,-y,-z
x,-y,z
1/2+x,1/2+y,z
1/2-x,1/2+y,-z
1/2-x,1/2-y,-z
1/2+x,1/2-y,z
loop_
_atom_site_type_symbol
_atom_site_label
_atom_site_fract_x
_atom_site_fract_y
_atom_site_fract_z
Si Si1 0.839018 0.823298 0.068773
Si Si2 0.803814 0.827234 0.786615
Si Si3 0.975081 0.831897 0.352652
Si Si4 0.636871 0.826748 0.794481
Si Si5 0.585549 0.831978 0.496709
Si Si6 0.304776 0.332908 0.359553
Si Si7 0.490851 0.323285 0.929322
O O1 0.856431 0.767413 0.142938
O O2 0.923185 0.771160 0.068173
O O3 0.827577 0.000000 0.063169
O O4 0.750000 0.750000 0.000000
O O5 0.729399 0.800014 0.802242
O O6 0.779401 0.742214 0.714369
O O7 0.898977 0.761786 0.855506
O O8 0.810618 0.000000 0.773357
O O9 0.949394 0.734041 0.283106
O O10 0.891788 0.832167 0.358498
O O11 0.062320 0.758648 0.425808
O O12 0.999330 0.000000 0.344502
O O13 0.621934 0.000000 0.801749
O O14 0.500000 0.830259 0.500000
O O15 0.672338 0.757114 0.569613
O O16 0.611334 0.000000 0.491375
O O17 0.277366 0.500000 0.364357
O O18 0.484213 0.500000 0.929794
O O19 0.500000 0.256467 0.000000
#
# Coordination Sequence:
#
# PCOD8087649 Si02
#       7
#     8   8   8   8   8   8   8
#     4  11  22  36  55  77 101 129 162 202 247 295
#     4   9  17  31  51  72  96 130 170 207 244 291
#     4   9  16  26  41  64  96 131 166 205 249 293
#     4  10  19  32  51  74 101 132 166 205 248 295
#     4   9  15  23  37  60  92 130 170 207 245 291
#     4   9  16  25  39  63  96 130 163 204 253 296
#     4   9  18  34  55  76  97 126 165 204 242 289
#
# _framework density 18.872046999999998
#
# number of rings (size 3 to 8) (size 9 to 14) (size 15 to 20)
#    0.000    2.571    0.000    3.000    0.000    8.000 
#    0.000    1.429    0.000    3.000    0.000    1.000 
#    0.000    0.000    0.000    0.000    0.000    0.000 
#
# Total GULP energy -347208.837052 kJ/mol
# GULP energy per Si atom -12400.315609 kJ/mol
# Density = 1.882909 g / cm^3
# Si number density = 18.872047 Si / 1000 Ang^3
#
#
#
# Elastic Constant Matrix: (Units=GPa)
#
#
# Indices 1 2 3 4 5 6 
#
# 1 48.7077 35.0379 52.1859 0.0000 4.3207 0.0000
# 2 35.0379 107.7896 66.3450 0.0000 3.3648 0.0000
# 3 52.1859 66.3450 195.6676 0.0000 9.5605 0.0000
# 4 0.0000 0.0000 0.0000 39.5188 0.0000 -4.6318
# 5 4.3207 3.3648 9.5605 0.0000 18.4119 0.0000
# 6 0.0000 0.0000 0.0000 -4.6318 0.0000 13.6206
#
#
#
# Elastic Compliance Matrix: (Units=1/GPa)
#
#
# Indices 1 2 3 4 5 6 
#
# 1 0.032161 -0.006535 -0.006209 0.000000 -0.003129 0.000000
# 2 -0.006535 0.013052 -0.002710 0.000000 0.000555 0.000000
# 3 -0.006209 -0.002710 0.007788 0.000000 -0.002092 0.000000
# 4 0.000000 0.000000 0.000000 0.026355 0.000000 0.008962
# 5 -0.003129 0.000555 -0.002092 0.000000 0.056031 0.000000
# 6 0.000000 0.000000 0.000000 0.008962 0.000000 0.076466
#
#
# Mechanical properties :
#
#
# Convention : Reuss Voigt Hill
#
# Bulk Modulus (GPa) = 45.26167 73.25583 59.25875
# Shear Modulus (GPa) = 19.98997 27.55002 23.77000
#
# Velocity S-wave (km/s) = 3.25812 3.82492 3.55284
# Velocity P-wave (km/s) = 6.17975 7.64252 6.94973
#
# Compressibility (1/GPa) = 0.02209375
#
# Stress axis : x y z
#
# Youngs Moduli (GPa) = 31.09309 76.61581 128.40780
#
# Poissons Ratio (x) = 0.50069 0.79728
# Poissons Ratio (y) = 0.20319 0.34796
# Poissons Ratio (z) = 0.19306 0.20761
#
# Static dielectric constant tensor:
#      x y z
#    x 3.033190 0.000000 0.014870 
#    y 0.000000 3.486410 0.000000 
#    z 0.014870 0.000000 3.905600 
# 
# 
# High freq. dielectric constant tensor:
#      x y z
#    x 1.678240 0.000000 -0.001870 
#    y 0.000000 1.731360 0.000000 
#    z -0.001870 0.000000 1.755950 
# 
# From -- ./inp_files/342493.got.cif
#   From: 2010.06.25/outbox.cif.g09.slc.cpg/sg12_172_cif.got.tgz:342493.got - 2010.06.28 00:19:55.
