data_PCOD8087785
_publ_section_title
;
Structure prediction by ZEFSAII (Michael W. Deem and Ramdas Pophale) SiO2 
 PCOD8087785
Probable space group: C 2/M
;
_chemical_formula_sum "Si O2"
_cell_formula_units_Z 64
_cell_length_a 17.394845
_cell_length_b 14.744845
_cell_length_c 13.809896
_cell_angle_alpha 90.000000
_cell_angle_beta 65.635075
_cell_angle_gamma 90.000000
_cell_volume 3226.556174
_symmetry_space_group_name_H-M "C 2/M"
_symmetry_group_IT_number 12
_symmetry_cell_setting 'monoclinic'
loop_
_space_group_symop_operation_xyz
x,y,z
-x,y,-z
-x,-y,-z
x,-y,z
1/2+x,1/2+y,z
1/2-x,1/2+y,-z
1/2-x,1/2-y,-z
1/2+x,1/2-y,z
loop_
_atom_site_type_symbol
_atom_site_label
_atom_site_fract_x
_atom_site_fract_y
_atom_site_fract_z
Si Si1 0.416778 0.752692 0.417180
Si Si2 0.922788 0.238046 0.109533
Si Si3 0.553777 0.108432 0.755190
Si Si4 0.613233 0.252512 0.355005
Si Si5 0.129753 0.097347 0.203917
Si Si6 0.062243 0.899002 0.730878
Si Si7 0.131906 0.400518 0.206574
Si Si8 0.291564 0.333055 0.028002
O O1 0.407460 0.848672 0.364415
O O2 0.361749 0.749587 0.544429
O O3 0.513780 0.738997 0.394147
O O4 0.385458 0.667060 0.368767
O O5 0.907017 0.332252 0.177083
O O6 0.944760 0.151320 0.163373
O O7 0.840906 0.206813 0.093855
O O8 0.000000 0.258908 0.000000
O O9 0.452407 0.128146 0.809470
O O10 0.574384 0.000000 0.753054
O O11 0.661089 0.331603 0.269155
O O12 0.647207 0.159812 0.292654
O O13 0.029977 0.089524 0.264756
O O14 0.171086 0.000000 0.207890
O O15 0.149381 0.120168 0.082066
O O16 0.103888 0.000000 0.718978
O O17 0.116136 0.500000 0.255889
O O18 0.215651 0.399975 0.097508
O O19 0.250000 0.250000 0.000000
#
# Coordination Sequence:
#
# PCOD8087785 Si02
#       8
#     8   8   8   8   8   8   8   8
#     4   8  16  29  53  80 109 140 172 228 274 316
#     4  11  21  35  56  79 108 146 183 225 271 320
#     4   9  19  37  58  83 111 143 184 228 273 326
#     4   9  16  31  50  79 112 140 178 220 275 321
#     4  10  19  32  51  76 109 145 180 219 265 321
#     4   9  18  32  51  78 107 138 177 219 264 317
#     4  10  20  34  55  81 113 146 182 225 271 324
#     4  12  22  36  54  76 112 147 178 221 274 326
#
# _framework density 19.835391000000001
#
# number of rings (size 3 to 8) (size 9 to 14) (size 15 to 20)
#    0.000    2.250    2.500    1.875    0.000    2.500 
#    0.000    6.250    0.000    3.000    0.000    1.750 
#    0.000    0.000    0.000    0.000    0.000    0.000 
#
# Total GULP energy -396462.610227 kJ/mol
# GULP energy per Si atom -12389.456570 kJ/mol
# Density = 1.979025 g / cm^3
# Si number density = 19.835391 Si / 1000 Ang^3
#
#
#
# Elastic Constant Matrix: (Units=GPa)
#
#
# Indices 1 2 3 4 5 6 
#
# 1 27.6760 19.0871 17.0800 0.0000 5.1388 0.0000
# 2 19.0871 163.2478 57.6179 0.0000 17.8855 0.0000
# 3 17.0800 57.6179 120.5866 0.0000 24.6842 0.0000
# 4 0.0000 0.0000 0.0000 14.5531 0.0000 -5.8911
# 5 5.1388 17.8855 24.6842 0.0000 21.5745 0.0000
# 6 0.0000 0.0000 0.0000 -5.8911 0.0000 8.3674
#
#
#
# Elastic Compliance Matrix: (Units=1/GPa)
#
#
# Indices 1 2 3 4 5 6 
#
# 1 0.041160 -0.003183 -0.003712 0.000000 -0.002919 0.000000
# 2 -0.003183 0.007738 -0.002727 0.000000 -0.002536 0.000000
# 3 -0.003712 -0.002727 0.012377 0.000000 -0.011015 0.000000
# 4 0.000000 0.000000 0.000000 0.096103 0.000000 0.067661
# 5 -0.002919 -0.002536 -0.011015 0.000000 0.061752 0.000000
# 6 0.000000 0.000000 0.000000 0.067661 0.000000 0.167149
#
#
# Mechanical properties :
#
#
# Convention : Reuss Voigt Hill
#
# Bulk Modulus (GPa) = 23.79188 55.45338 39.62263
# Shear Modulus (GPa) = 11.91803 23.41403 17.66603
#
# Velocity S-wave (km/s) = 2.45388 3.43945 2.98758
# Velocity P-wave (km/s) = 4.47765 6.61744 5.64978
#
# Compressibility (1/GPa) = 0.04203114
#
# Stress axis : x y z
#
# Youngs Moduli (GPa) = 24.29545 129.22692 80.79762
#
# Poissons Ratio (x) = 0.41128 0.29990
# Poissons Ratio (y) = 0.07732 0.22037
# Poissons Ratio (z) = 0.09018 0.35246
#
# Static dielectric constant tensor:
#      x y z
#    x 3.255120 0.000000 0.154950 
#    y 0.000000 3.900690 0.000000 
#    z 0.154950 0.000000 3.539450 
# 
# 
# High freq. dielectric constant tensor:
#      x y z
#    x 1.730330 0.000000 0.012790 
#    y 0.000000 1.784860 0.000000 
#    z 0.012790 0.000000 1.769700 
# 
# From -- ./inp_files/225283.got.cif
#   From: 2010.06.25/outbox.cif.g09.slc.cpg/sg12_113_cif.got.tgz:225283.got - 2010.06.28 00:19:55.
