data_PCOD8087440
_publ_section_title
;
Structure prediction by ZEFSAII (Michael W. Deem and Ramdas Pophale) SiO2 
 PCOD8087440
Probable space group: C 2/M
;
_chemical_formula_sum "Si O2"
_cell_formula_units_Z 48
_cell_length_a 27.439143
_cell_length_b 8.761740
_cell_length_c 20.586539
_cell_angle_alpha 90.000000
_cell_angle_beta 32.891252
_cell_angle_gamma 90.000000
_cell_volume 2687.701678
_symmetry_space_group_name_H-M "C 2/M"
_symmetry_group_IT_number 12
_symmetry_cell_setting 'monoclinic'
loop_
_space_group_symop_operation_xyz
x,y,z
-x,y,-z
-x,-y,-z
x,-y,z
1/2+x,1/2+y,z
1/2-x,1/2+y,-z
1/2-x,1/2-y,-z
1/2+x,1/2-y,z
loop_
_atom_site_type_symbol
_atom_site_label
_atom_site_fract_x
_atom_site_fract_y
_atom_site_fract_z
Si Si1 0.015626 0.820928 0.743250
Si Si2 0.688974 0.323622 0.749839
Si Si3 0.192488 0.678772 0.506130
Si Si4 0.674610 0.818738 0.039121
Si Si5 0.530516 0.826679 0.860873
Si Si6 0.674286 0.827147 0.892898
O O1 0.094182 0.753188 0.610428
O O2 0.043212 0.786737 0.786295
O O3 0.007469 0.000000 0.740980
O O4 0.921515 0.743242 0.830050
O O5 0.662602 0.500000 0.778885
O O6 0.763051 0.285969 0.613041
O O7 0.600863 0.222351 0.836482
O O8 0.723980 0.275435 0.782651
O O9 0.184509 0.500000 0.528561
O O10 0.250000 0.750000 0.500000
O O11 0.695748 0.766875 0.941491
O O12 0.672230 0.000000 0.046765
O O13 0.750000 0.750000 0.000000
O O14 0.548982 0.000000 0.816810
O O15 0.431872 0.814194 0.000739
O O16 0.708269 0.000000 0.847313
#
# Coordination Sequence:
#
# PCOD8087440 Si02
#       6
#     8   8   8   8   8   8
#     4  11  21  34  54  81 109 142 184 226 269 319
#     4  11  22  32  48  75 107 144 184 221 263 316
#     4  11  22  35  51  75 109 150 189 225 264 315
#     4  10  21  39  62  86 109 137 174 223 277 328
#     4  10  19  32  50  72 105 145 181 220 265 318
#     4   9  20  35  51  75 106 140 176 215 269 325
#
# _framework density 17.859124999999999
#
# number of rings (size 3 to 8) (size 9 to 14) (size 15 to 20)
#    0.000    1.667    1.667    5.000    0.000    8.000 
#    0.000    0.000    0.000    1.000    0.000    7.000 
#    0.000    0.000    0.000    0.000    0.000    0.000 
#
# Total GULP energy -297620.092241 kJ/mol
# GULP energy per Si atom -12400.837177 kJ/mol
# Density = 1.781848 g / cm^3
# Si number density = 17.859125 Si / 1000 Ang^3
#
#
#
# Elastic Constant Matrix: (Units=GPa)
#
#
# Indices 1 2 3 4 5 6 
#
# 1 109.5610 49.6149 72.1225 -0.0016 -1.0251 0.0021
# 2 49.6149 107.6906 56.9300 0.0162 5.1650 0.0019
# 3 72.1225 56.9300 100.1690 -0.0003 9.7948 0.0028
# 4 -0.0016 0.0162 -0.0003 30.7986 0.0016 0.1384
# 5 -1.0251 5.1650 9.7948 0.0016 24.4253 -0.0027
# 6 0.0021 0.0019 0.0028 0.1384 -0.0027 29.2607
#
#
#
# Elastic Compliance Matrix: (Units=1/GPa)
#
#
# Indices 1 2 3 4 5 6 
#
# 1 0.018554 -0.002090 -0.012792 0.000002 0.006351 0.000001
# 2 -0.002090 0.013511 -0.006126 -0.000007 -0.000488 0.000000
# 3 -0.012792 -0.006126 0.023523 0.000003 -0.008675 -0.000002
# 4 0.000002 -0.000007 0.000003 0.032470 -0.000002 -0.000154
# 5 0.006351 -0.000488 -0.008675 -0.000002 0.044789 0.000005
# 6 0.000001 0.000000 -0.000002 -0.000154 0.000005 0.034176
#
#
# Mechanical properties :
#
#
# Convention : Reuss Voigt Hill
#
# Bulk Modulus (GPa) = 73.68320 74.97281 74.32800
# Shear Modulus (GPa) = 23.41209 26.14713 24.77961
#
# Velocity S-wave (km/s) = 3.62461 3.83048 3.72896
# Velocity P-wave (km/s) = 7.67233 7.85077 7.76206
#
# Compressibility (1/GPa) = 0.01357162
#
# Stress axis : x y z
#
# Youngs Moduli (GPa) = 53.89578 74.01515 42.51075
#
# Poissons Ratio (x) = 0.15472 0.54381
# Poissons Ratio (y) = 0.11266 0.26042
# Poissons Ratio (z) = 0.68945 0.45341
#
# Static dielectric constant tensor:
#      x y z
#    x 3.130220 0.000000 0.097940 
#    y 0.000000 3.370370 0.000010 
#    z 0.097940 0.000010 3.349470 
# 
# 
# High freq. dielectric constant tensor:
#      x y z
#    x 1.666240 0.000000 0.015370 
#    y 0.000000 1.704500 0.000000 
#    z 0.015370 0.000000 1.684940 
# 
# From -- ./inp_files/236837.got.cif
#   From: 2010.06.25/outbox.cif.g09.slc.cpg/sg12_119_cif.got.tgz:236837.got - 2010.06.28 00:19:55.
