data_PCOD8087618
_publ_section_title
;
Structure prediction by ZEFSAII (Michael W. Deem and Ramdas Pophale) SiO2 
 PCOD8087618
Probable space group: C 2/M
;
_chemical_formula_sum "Si O2"
_cell_formula_units_Z 44
_cell_length_a 12.119691
_cell_length_b 16.231792
_cell_length_c 20.907251
_cell_angle_alpha 90.000000
_cell_angle_beta 145.163146
_cell_angle_gamma 90.000000
_cell_volume 2349.496491
_symmetry_space_group_name_H-M "C 2/M"
_symmetry_group_IT_number 12
_symmetry_cell_setting 'monoclinic'
loop_
_space_group_symop_operation_xyz
x,y,z
-x,y,-z
-x,-y,-z
x,-y,z
1/2+x,1/2+y,z
1/2-x,1/2+y,-z
1/2-x,1/2-y,-z
1/2+x,1/2-y,z
loop_
_atom_site_type_symbol
_atom_site_label
_atom_site_fract_x
_atom_site_fract_y
_atom_site_fract_z
Si Si1 0.798486 0.594630 0.498136
Si Si2 0.855172 0.319438 0.654067
Si Si3 0.192073 0.590662 0.049636
Si Si4 0.000000 0.292774 0.500000
Si Si5 0.578008 0.902588 0.185511
Si Si6 0.581936 0.665129 0.735899
O O1 0.862376 0.500000 0.526296
O O2 0.771416 0.622974 0.558421
O O3 0.965202 0.649579 0.545018
O O4 0.597777 0.606049 0.365382
O O5 0.684223 0.264138 0.602038
O O6 0.943766 0.376947 0.751281
O O7 0.020662 0.260631 0.703364
O O8 0.285992 0.500000 0.090197
O O9 0.124189 0.620197 0.946585
O O10 0.348473 0.649318 0.157807
O O11 0.000000 0.586731 0.000000
O O12 0.752116 0.852280 0.236333
O O13 0.620361 0.000000 0.199370
#
# Coordination Sequence:
#
# PCOD8087618 Si02
#       6
#     8   8   8   4   8   8
#     4  11  21  34  52  73  98 130 166 199 238 290
#     4  11  21  33  50  74 103 128 158 201 247 289
#     4   8  15  29  49  72  97 125 160 200 238 281
#     4  10  21  36  49  70 102 132 162 200 241 282
#     4  10  19  33  52  74 100 128 159 199 245 288
#     4  10  19  32  51  73  98 128 165 201 238 284
#
# _framework density 18.727416999999999
#
# number of rings (size 3 to 8) (size 9 to 14) (size 15 to 20)
#    0.000    2.000    0.000    7.909    0.000    0.727 
#    0.000    2.727    0.000    0.000    0.000    0.000 
#    0.000   36.364    0.000    0.000    0.000    0.000 
#
# Total GULP energy -272753.656982 kJ/mol
# GULP energy per Si atom -12397.893499 kJ/mol
# Density = 1.868479 g / cm^3
# Si number density = 18.727417 Si / 1000 Ang^3
#
#
#
# Elastic Constant Matrix: (Units=GPa)
#
#
# Indices 1 2 3 4 5 6 
#
# 1 52.3622 22.1797 36.6588 0.0003 -15.6788 0.0001
# 2 22.1797 76.6508 49.5184 0.0001 -10.1076 0.0000
# 3 36.6588 49.5184 134.4435 0.0006 -21.9121 0.0002
# 4 0.0003 0.0001 0.0006 27.6024 0.0003 -8.9957
# 5 -15.6788 -10.1076 -21.9121 0.0003 22.4473 0.0001
# 6 0.0001 0.0000 0.0002 -8.9957 0.0001 16.3006
#
#
#
# Elastic Compliance Matrix: (Units=1/GPa)
#
#
# Indices 1 2 3 4 5 6 
#
# 1 0.027490 -0.003605 -0.003928 -0.000001 0.013743 0.000000
# 2 -0.003605 0.017657 -0.005512 0.000000 0.000052 0.000000
# 3 -0.003928 -0.005512 0.011521 0.000000 0.006020 0.000000
# 4 -0.000001 0.000000 0.000000 0.044174 -0.000001 0.024378
# 5 0.013743 0.000052 0.006020 -0.000001 0.060048 -0.000001
# 6 0.000000 0.000000 0.000000 0.024378 -0.000001 0.074801
#
#
# Mechanical properties :
#
#
# Convention : Reuss Voigt Hill
#
# Bulk Modulus (GPa) = 32.70333 53.35224 43.02779
# Shear Modulus (GPa) = 18.38425 23.61003 20.99714
#
# Velocity S-wave (km/s) = 3.13657 3.55451 3.35206
# Velocity P-wave (km/s) = 5.53337 6.73771 6.16502
#
# Compressibility (1/GPa) = 0.03057793
#
# Stress axis : x y z
#
# Youngs Moduli (GPa) = 36.37720 56.63461 86.80138
#
# Poissons Ratio (x) = 0.20414 0.34096
# Poissons Ratio (y) = 0.13112 0.47846
# Poissons Ratio (z) = 0.14289 0.31217
#
# Static dielectric constant tensor:
#      x y z
#    x 3.149280 0.000000 -0.174380 
#    y 0.000000 3.385850 0.000000 
#    z -0.174380 0.000000 3.724780 
# 
# 
# High freq. dielectric constant tensor:
#      x y z
#    x 1.695580 0.000000 -0.016290 
#    y 0.000000 1.724440 0.000000 
#    z -0.016290 0.000000 1.737320 
# 
# From -- ./inp_files/177006.got.cif
#   From: 2010.06.25/outbox.cif.g09.slc.cpg/sg12_89_cif.got.tgz:177006.got - 2010.06.28 00:19:55.
