data_PCOD8087909
_publ_section_title
;
Structure prediction by ZEFSAII (Michael W. Deem and Ramdas Pophale) SiO2 
 PCOD8087909
Probable space group: C 2/M
;
_chemical_formula_sum "Si O2"
_cell_formula_units_Z 56
_cell_length_a 13.052199
_cell_length_b 12.877768
_cell_length_c 20.836525
_cell_angle_alpha 90.000000
_cell_angle_beta 63.445552
_cell_angle_gamma 90.000000
_cell_volume 3132.814963
_symmetry_space_group_name_H-M "C 2/M"
_symmetry_group_IT_number 12
_symmetry_cell_setting 'monoclinic'
loop_
_space_group_symop_operation_xyz
x,y,z
-x,y,-z
-x,-y,-z
x,-y,z
1/2+x,1/2+y,z
1/2-x,1/2+y,-z
1/2-x,1/2-y,-z
1/2+x,1/2-y,z
loop_
_atom_site_type_symbol
_atom_site_label
_atom_site_fract_x
_atom_site_fract_y
_atom_site_fract_z
Si Si1 0.936155 0.265126 0.954199
Si Si2 0.946043 0.121229 0.581021
Si Si3 0.939159 0.120440 0.320097
Si Si4 0.351104 0.739401 0.791942
Si Si5 0.271385 0.378025 0.931055
Si Si6 0.481077 0.120804 0.186267
Si Si7 0.270997 0.771462 0.303165
O O1 0.882579 0.161186 0.938773
O O2 0.024339 0.317438 0.879569
O O3 0.840953 0.352057 0.996418
O O4 0.000000 0.228676 0.000000
O O5 0.825735 0.177402 0.625902
O O6 0.000000 0.163573 0.500000
O O7 0.037368 0.144668 0.611657
O O8 0.918582 0.000000 0.584477
O O9 0.824897 0.178168 0.328950
O O10 0.048739 0.156228 0.248938
O O11 0.919219 0.000000 0.312931
O O12 0.264573 0.683306 0.865386
O O13 0.405694 0.843515 0.806567
O O14 0.283821 0.772749 0.746988
O O15 0.280083 0.500000 0.916444
O O16 0.367166 0.143352 0.259200
O O17 0.489856 0.000000 0.169684
#
# Coordination Sequence:
#
# PCOD8087909 Si02
#       7
#     8   8   8   8   8   8   8
#     4  10  21  34  48  71  98 123 159 203 243 285
#     4   9  18  33  52  74 100 128 158 194 235 279
#     4   9  18  32  50  73  99 127 161 197 233 278
#     4   9  19  33  48  70  97 125 161 200 236 281
#     4  10  20  34  51  69  94 129 163 197 240 288
#     4  10  20  33  49  71  97 124 158 199 242 287
#     4  10  19  32  52  74  96 126 161 196 236 282
#
# _framework density 17.875297
#
# number of rings (size 3 to 8) (size 9 to 14) (size 15 to 20)
#    0.000    2.429    0.000    2.143    0.000    5.429 
#    0.000    0.000    0.000   10.714    0.000    0.000 
#    0.000    0.000    0.000    0.000    0.000    0.000 
#
# Total GULP energy -347248.749127 kJ/mol
# GULP energy per Si atom -12401.741040 kJ/mol
# Density = 1.783461 g / cm^3
# Si number density = 17.875297 Si / 1000 Ang^3
#
#
#
# Elastic Constant Matrix: (Units=GPa)
#
#
# Indices 1 2 3 4 5 6 
#
# 1 88.3432 36.0438 35.5059 0.0000 5.5038 0.0000
# 2 36.0438 51.3449 22.9521 0.0000 -1.7351 0.0000
# 3 35.5059 22.9521 103.9337 0.0000 -1.7765 0.0000
# 4 0.0000 0.0000 0.0000 20.6305 0.0000 0.7396
# 5 5.5038 -1.7351 -1.7765 0.0000 27.1573 0.0000
# 6 0.0000 0.0000 0.0000 0.7396 0.0000 20.8530
#
#
#
# Elastic Compliance Matrix: (Units=1/GPa)
#
#
# Indices 1 2 3 4 5 6 
#
# 1 0.017466 -0.010774 -0.003664 0.000000 -0.004468 0.000000
# 2 -0.010774 0.028287 -0.002501 0.000000 0.003827 0.000000
# 3 -0.003664 -0.002501 0.011448 0.000000 0.001332 0.000000
# 4 0.000000 0.000000 0.000000 0.048534 0.000000 -0.001721
# 5 -0.004468 0.003827 0.001332 0.000000 0.038060 0.000000
# 6 0.000000 0.000000 0.000000 -0.001721 0.000000 0.048016
#
#
# Mechanical properties :
#
#
# Convention : Reuss Voigt Hill
#
# Bulk Modulus (GPa) = 42.87490 48.06949 45.47219
# Shear Modulus (GPa) = 21.41675 23.66952 22.54313
#
# Velocity S-wave (km/s) = 3.46514 3.64283 3.55510
# Velocity P-wave (km/s) = 6.32829 6.68158 6.50733
#
# Compressibility (1/GPa) = 0.02332367
#
# Stress axis : x y z
#
# Youngs Moduli (GPa) = 57.25314 35.35219 87.35052
#
# Poissons Ratio (x) = 0.38090 0.32004
# Poissons Ratio (y) = 0.61687 0.21842
# Poissons Ratio (z) = 0.20977 0.08840
#
# Static dielectric constant tensor:
#      x y z
#    x 3.323080 0.000000 0.078680 
#    y 0.000000 3.061280 0.000000 
#    z 0.078680 0.000000 3.428580 
# 
# 
# High freq. dielectric constant tensor:
#      x y z
#    x 1.693660 0.000000 0.003500 
#    y 0.000000 1.673310 0.000000 
#    z 0.003500 0.000000 1.697910 
# 
# From -- ./inp_files/304180.got.cif
#   From: 2010.06.25/outbox.cif.g09.slc.cpg/sg12_153_cif.got.tgz:304180.got - 2010.06.28 00:19:55.
