data_PCOD8087453
_publ_section_title
;
Structure prediction by ZEFSAII (Michael W. Deem and Ramdas Pophale) SiO2 
 PCOD8087453
Probable space group: C 2/M
;
_chemical_formula_sum "Si O2"
_cell_formula_units_Z 56
_cell_length_a 26.938540
_cell_length_b 9.085680
_cell_length_c 14.437239
_cell_angle_alpha 90.000000
_cell_angle_beta 123.009133
_cell_angle_gamma 90.000000
_cell_volume 2963.207574
_symmetry_space_group_name_H-M "C 2/M"
_symmetry_group_IT_number 12
_symmetry_cell_setting 'monoclinic'
loop_
_space_group_symop_operation_xyz
x,y,z
-x,y,-z
-x,-y,-z
x,-y,z
1/2+x,1/2+y,z
1/2-x,1/2+y,-z
1/2-x,1/2-y,-z
1/2+x,1/2-y,z
loop_
_atom_site_type_symbol
_atom_site_label
_atom_site_fract_x
_atom_site_fract_y
_atom_site_fract_z
Si Si1 0.147139 0.674766 0.539315
Si Si2 0.653323 0.172459 0.749865
Si Si3 0.994680 0.672359 0.886195
Si Si4 0.219661 0.826640 0.324151
Si Si5 0.388019 0.827663 0.098560
Si Si6 0.285246 0.326562 0.887819
Si Si7 0.390597 0.675076 0.673339
O O1 0.139881 0.500000 0.519292
O O2 0.129501 0.728297 0.625682
O O3 0.214227 0.731175 0.587576
O O4 0.103552 0.756618 0.423407
O O5 0.608076 0.210861 0.787249
O O6 0.718869 0.233249 0.840464
O O7 0.662190 0.000000 0.746111
O O8 0.983543 0.500000 0.856715
O O9 0.053624 0.728987 0.894023
O O10 0.941434 0.765948 0.791468
O O11 0.000000 0.707048 0.000000
O O12 0.198259 0.779969 0.200163
O O13 0.171987 0.766966 0.349061
O O14 0.222658 0.000000 0.331567
O O15 0.380449 0.000000 0.075133
O O16 0.329720 0.752254 0.001376
O O17 0.291011 0.500000 0.909527
O O18 0.394765 0.500000 0.673116
#
# Coordination Sequence:
#
# PCOD8087453 Si02
#       7
#     8   8   8   8   8   8   8
#     4   9  17  33  54  73  98 130 162 196 239 291
#     4   8  16  31  51  74  99 129 162 197 239 291
#     4  10  22  38  53  71  97 130 167 203 238 282
#     4   8  16  30  49  74 102 131 159 192 239 296
#     4  10  19  32  50  72  98 128 166 206 241 282
#     4   9  16  29  50  75 102 129 158 193 242 298
#     4  11  21  33  51  75 101 128 162 202 244 287
#
# _framework density 18.898440999999998
#
# number of rings (size 3 to 8) (size 9 to 14) (size 15 to 20)
#    0.000    2.714    0.000    3.857    0.000    0.857 
#    0.000    5.714    0.000    4.286    0.000    0.000 
#    0.000    0.000    0.000    0.000    0.000    0.000 
#
# Total GULP energy -347053.377334 kJ/mol
# GULP energy per Si atom -12394.763476 kJ/mol
# Density = 1.885543 g / cm^3
# Si number density = 18.898441 Si / 1000 Ang^3
#
#
#
# Elastic Constant Matrix: (Units=GPa)
#
#
# Indices 1 2 3 4 5 6 
#
# 1 106.7658 26.6641 53.3898 0.0000 -23.8076 0.0000
# 2 26.6641 40.9816 41.9975 0.0000 -3.5643 0.0000
# 3 53.3898 41.9975 128.1760 0.0000 -15.2962 0.0000
# 4 0.0000 0.0000 0.0000 31.5338 0.0000 4.4721
# 5 -23.8076 -3.5643 -15.2962 0.0000 25.0726 0.0000
# 6 0.0000 0.0000 0.0000 4.4721 0.0000 15.7153
#
#
#
# Elastic Compliance Matrix: (Units=1/GPa)
#
#
# Indices 1 2 3 4 5 6 
#
# 1 0.014799 -0.005595 -0.002965 0.000000 0.011448 0.000000
# 2 -0.005595 0.038973 -0.011230 0.000000 -0.006623 0.000000
# 3 -0.002965 -0.011230 0.013147 0.000000 0.003609 0.000000
# 4 0.000000 0.000000 0.000000 0.033046 0.000000 -0.009404
# 5 0.011448 -0.006623 0.003609 0.000000 0.052015 0.000000
# 6 0.000000 0.000000 0.000000 -0.009404 0.000000 0.066308
#
#
# Mechanical properties :
#
#
# Convention : Reuss Voigt Hill
#
# Bulk Modulus (GPa) = 36.57573 57.78069 47.17821
# Shear Modulus (GPa) = 18.72794 24.72247 21.72521
#
# Velocity S-wave (km/s) = 3.15140 3.62079 3.39422
# Velocity P-wave (km/s) = 5.71293 6.93692 6.35447
#
# Compressibility (1/GPa) = 0.02734054
#
# Stress axis : x y z
#
# Youngs Moduli (GPa) = 67.57215 25.65851 76.06296
#
# Poissons Ratio (x) = 0.14355 0.22553
# Poissons Ratio (y) = 0.37803 0.85418
# Poissons Ratio (z) = 0.20035 0.28814
#
# Static dielectric constant tensor:
#      x y z
#    x 3.865040 0.000000 -0.273320 
#    y 0.000000 3.075160 0.000000 
#    z -0.273320 0.000000 3.486550 
# 
# 
# High freq. dielectric constant tensor:
#      x y z
#    x 1.728650 0.000000 -0.017990 
#    y 0.000000 1.699250 0.000000 
#    z -0.017990 0.000000 1.740910 
# 
# From -- ./inp_files/244329.got.cif
#   From: 2010.06.25/outbox.cif.g09.slc.cpg/sg12_123_cif.got.tgz:244329.got - 2010.06.28 00:19:55.
