data_PCOD8087541
_publ_section_title
;
Structure prediction by ZEFSAII (Michael W. Deem and Ramdas Pophale) SiO2 
 PCOD8087541
Probable space group: C 2/M
;
_chemical_formula_sum "Si O2"
_cell_formula_units_Z 48
_cell_length_a 15.027430
_cell_length_b 11.986869
_cell_length_c 27.649826
_cell_angle_alpha 90.000000
_cell_angle_beta 29.896541
_cell_angle_gamma 90.000000
_cell_volume 2482.514294
_symmetry_space_group_name_H-M "C 2/M"
_symmetry_group_IT_number 12
_symmetry_cell_setting 'monoclinic'
loop_
_space_group_symop_operation_xyz
x,y,z
-x,y,-z
-x,-y,-z
x,-y,z
1/2+x,1/2+y,z
1/2-x,1/2+y,-z
1/2-x,1/2-y,-z
1/2+x,1/2-y,z
loop_
_atom_site_type_symbol
_atom_site_label
_atom_site_fract_x
_atom_site_fract_y
_atom_site_fract_z
Si Si1 0.168173 0.378183 0.386217
Si Si2 0.489978 0.239544 0.244846
Si Si3 0.009968 0.795848 0.394098
Si Si4 0.876609 0.375848 0.202546
Si Si5 0.156411 0.374059 0.600087
Si Si6 0.661834 0.129674 0.887639
O O1 0.205165 0.500000 0.347968
O O2 0.348632 0.335844 0.326568
O O3 0.128484 0.300187 0.360804
O O4 0.000000 0.378034 0.500000
O O5 0.476323 0.203916 0.194685
O O6 0.426123 0.133043 0.307144
O O7 0.683562 0.286334 0.167165
O O8 0.159971 0.884593 0.308315
O O9 0.918968 0.732968 0.392482
O O10 0.871039 0.856400 0.495794
O O11 0.954356 0.500000 0.173251
O O12 0.910604 0.334507 0.131419
O O13 0.114603 0.500000 0.599877
O O14 0.726465 0.000000 0.857129
O O15 0.500000 0.147297 0.000000
#
# Coordination Sequence:
#
# PCOD8087541 Si02
#       6
#     8   8   8   8   8   8
#     4  10  19  32  50  76 113 150 190 234 276 330
#     4  11  21  37  57  87 117 152 193 236 291 343
#     4  10  20  35  50  80 114 157 195 230 275 342
#     4  10  21  37  61  87 116 152 191 236 289 348
#     4  11  21  33  52  80 117 157 193 234 281 338
#     4  10  22  42  65  87 112 148 196 246 294 344
#
# _framework density 19.335235999999998
#
# number of rings (size 3 to 8) (size 9 to 14) (size 15 to 20)
#    0.000    1.667    3.333    2.000    0.000    0.667 
#    0.000    2.500    0.000    2.000    0.000    0.000 
#    0.000    0.000    0.000    0.000    0.000    0.000 
#
# Total GULP energy -297321.537341 kJ/mol
# GULP energy per Si atom -12388.397389 kJ/mol
# Density = 1.929123 g / cm^3
# Si number density = 19.335236 Si / 1000 Ang^3
#
#
#
# Elastic Constant Matrix: (Units=GPa)
#
#
# Indices 1 2 3 4 5 6 
#
# 1 96.6779 35.6306 41.2147 0.0001 14.9013 0.0001
# 2 35.6306 87.2084 28.3679 -0.0001 1.3456 0.0002
# 3 41.2147 28.3679 89.8073 -0.0009 13.2706 0.0005
# 4 0.0001 -0.0001 -0.0009 12.9710 -0.0003 -6.7807
# 5 14.9013 1.3456 13.2706 -0.0003 25.9544 0.0002
# 6 0.0001 0.0002 0.0005 -6.7807 0.0002 13.5059
#
#
#
# Elastic Compliance Matrix: (Units=1/GPa)
#
#
# Indices 1 2 3 4 5 6 
#
# 1 0.014849 -0.004509 -0.004506 -0.000001 -0.005988 0.000000
# 2 -0.004509 0.014204 -0.002911 0.000000 0.003341 0.000000
# 3 -0.004506 -0.002911 0.014839 0.000001 -0.004849 0.000000
# 4 -0.000001 0.000000 0.000001 0.104528 0.000001 0.052478
# 5 -0.005988 0.003341 -0.004849 0.000001 0.044273 0.000000
# 6 0.000000 0.000000 0.000000 0.052478 0.000000 0.100388
#
#
# Mechanical properties :
#
#
# Convention : Reuss Voigt Hill
#
# Bulk Modulus (GPa) = 49.89776 53.79112 51.84444
# Shear Modulus (GPa) = 15.45052 21.71831 18.58441
#
# Velocity S-wave (km/s) = 2.82988 3.35513 3.10363
# Velocity P-wave (km/s) = 6.04486 6.54903 6.30199
#
# Compressibility (1/GPa) = 0.02004098
#
# Stress axis : x y z
#
# Youngs Moduli (GPa) = 67.34440 70.40066 67.39074
#
# Poissons Ratio (x) = 0.31743 0.30363
# Poissons Ratio (y) = 0.30365 0.19619
# Poissons Ratio (z) = 0.30342 0.20496
#
# Static dielectric constant tensor:
#      x y z
#    x 3.620600 0.000000 -0.004730 
#    y 0.000000 3.746680 0.000000 
#    z -0.004730 0.000000 3.586940 
# 
# 
# High freq. dielectric constant tensor:
#      x y z
#    x 1.749810 0.000000 0.005920 
#    y 0.000000 1.751580 0.000000 
#    z 0.005920 0.000000 1.734180 
# 
# From -- ./inp_files/212515.got.cif
#   From: 2010.06.25/outbox.cif.g09.slc.cpg/sg12_107_cif.got.tgz:212515.got - 2010.06.28 00:19:55.
