data_PCOD8087987
_publ_section_title
;
Structure prediction by ZEFSAII (Michael W. Deem and Ramdas Pophale) SiO2 
 PCOD8087987
Probable space group: C 2/M
;
_chemical_formula_sum "Si O2"
_cell_formula_units_Z 56
_cell_length_a 17.835644
_cell_length_b 9.001560
_cell_length_c 20.515055
_cell_angle_alpha 90.000000
_cell_angle_beta 118.699714
_cell_angle_gamma 90.000000
_cell_volume 2889.032428
_symmetry_space_group_name_H-M "C 2/M"
_symmetry_group_IT_number 12
_symmetry_cell_setting 'monoclinic'
loop_
_space_group_symop_operation_xyz
x,y,z
-x,y,-z
-x,-y,-z
x,-y,z
1/2+x,1/2+y,z
1/2-x,1/2+y,-z
1/2-x,1/2-y,-z
1/2+x,1/2-y,z
loop_
_atom_site_type_symbol
_atom_site_label
_atom_site_fract_x
_atom_site_fract_y
_atom_site_fract_z
Si Si1 0.187289 0.332497 0.562082
Si Si2 0.755021 0.175769 0.847025
Si Si3 0.563895 0.825718 0.270909
Si Si4 0.752983 0.674429 0.710598
Si Si5 0.624447 0.332885 0.418183
Si Si6 0.899263 0.675676 0.126129
Si Si7 0.903464 0.671737 0.981588
O O1 0.156637 0.500000 0.563685
O O2 0.189256 0.239663 0.629664
O O3 0.279968 0.332599 0.568660
O O4 0.120526 0.255742 0.484742
O O5 0.729462 0.248212 0.768215
O O6 0.684284 0.226741 0.869797
O O7 0.757804 0.000000 0.839681
O O8 0.846427 0.233644 0.908624
O O9 0.649055 0.788409 0.266039
O O10 0.562792 0.745515 0.340311
O O11 0.484249 0.761989 0.196554
O O12 0.556212 0.000000 0.281428
O O13 0.737314 0.500000 0.709551
O O14 0.592013 0.500000 0.416602
O O15 0.908021 0.500000 0.126316
O O16 0.892573 0.737333 0.049873
O O17 0.875112 0.500000 0.965455
O O18 0.000000 0.691884 0.000000
#
# Coordination Sequence:
#
# PCOD8087987 Si02
#       7
#     8   8   8   8   8   8   8
#     4   9  16  27  45  71 103 137 172 212 258 306
#     4  11  22  35  52  76 107 138 168 207 255 307
#     4   9  17  32  53  74  98 133 176 216 254 301
#     4  10  19  32  52  76 102 135 175 217 258 302
#     4   9  16  26  43  72 106 135 167 211 261 308
#     4   9  19  35  54  76 103 136 172 208 251 305
#     4  10  20  37  60  81 102 132 171 212 253 300
#
# _framework density 19.383652000000001
#
# number of rings (size 3 to 8) (size 9 to 14) (size 15 to 20)
#    0.000    2.429    0.000    3.000    0.000    6.571 
#    0.000    2.857    0.000    0.857    0.000    6.000 
#    0.000    0.000    0.000    0.000    0.000    0.000 
#
# Total GULP energy -347260.631882 kJ/mol
# GULP energy per Si atom -12402.165424 kJ/mol
# Density = 1.933953 g / cm^3
# Si number density = 19.383652 Si / 1000 Ang^3
#
#
#
# Elastic Constant Matrix: (Units=GPa)
#
#
# Indices 1 2 3 4 5 6 
#
# 1 44.7607 27.8725 29.6561 0.0000 -16.1727 0.0000
# 2 27.8725 91.4967 50.4864 0.0000 -15.1227 0.0000
# 3 29.6561 50.4864 144.3252 0.0000 -25.2404 0.0000
# 4 0.0000 0.0000 0.0000 38.2315 0.0000 -2.8366
# 5 -16.1727 -15.1227 -25.2404 0.0000 20.0712 0.0000
# 6 0.0000 0.0000 0.0000 -2.8366 0.0000 14.9844
#
#
#
# Elastic Compliance Matrix: (Units=1/GPa)
#
#
# Indices 1 2 3 4 5 6 
#
# 1 0.035017 -0.006424 -0.001103 0.000000 0.021988 0.000000
# 2 -0.006424 0.015203 -0.003718 0.000000 0.001603 0.000000
# 3 -0.001103 -0.003718 0.010013 0.000000 0.008902 0.000000
# 4 0.000000 0.000000 0.000000 0.026529 0.000000 0.005022
# 5 0.021988 0.001603 0.008902 0.000000 0.079942 0.000000
# 6 0.000000 0.000000 0.000000 0.005022 0.000000 0.067687
#
#
# Mechanical properties :
#
#
# Convention : Reuss Voigt Hill
#
# Bulk Modulus (GPa) = 26.49520 55.17919 40.83720
# Shear Modulus (GPa) = 18.55564 26.16193 22.35879
#
# Velocity S-wave (km/s) = 3.09736 3.67780 3.39999
# Velocity P-wave (km/s) = 5.14684 6.82375 6.04374
#
# Compressibility (1/GPa) = 0.03774268
#
# Stress axis : x y z
#
# Youngs Moduli (GPa) = 28.55788 65.77790 99.87414
#
# Poissons Ratio (x) = 0.42259 0.11011
# Poissons Ratio (y) = 0.18347 0.37129
# Poissons Ratio (z) = 0.03149 0.24454
#
# Static dielectric constant tensor:
#      x y z
#    x 3.209890 0.000000 -0.044210 
#    y 0.000000 3.468320 0.000000 
#    z -0.044210 0.000000 3.775090 
# 
# 
# High freq. dielectric constant tensor:
#      x y z
#    x 1.718970 0.000000 -0.002640 
#    y 0.000000 1.745750 0.000000 
#    z -0.002640 0.000000 1.774400 
# 
# From -- ./inp_files/275351.got.cif
#   From: 2010.06.25/outbox.cif.g09.slc.cpg/sg12_138_cif.got.tgz:275351.got - 2010.06.28 00:19:55.
