data_PCOD8087833
_publ_section_title
;
Structure prediction by ZEFSAII (Michael W. Deem and Ramdas Pophale) SiO2 
 PCOD8087833
Probable space group: C 2/M
;
_chemical_formula_sum "Si O2"
_cell_formula_units_Z 56
_cell_length_a 24.587704
_cell_length_b 8.840093
_cell_length_c 19.827192
_cell_angle_alpha 90.000000
_cell_angle_beta 45.512999
_cell_angle_gamma 90.000000
_cell_volume 3074.502709
_symmetry_space_group_name_H-M "C 2/M"
_symmetry_group_IT_number 12
_symmetry_cell_setting 'monoclinic'
loop_
_space_group_symop_operation_xyz
x,y,z
-x,y,-z
-x,-y,-z
x,-y,z
1/2+x,1/2+y,z
1/2-x,1/2+y,-z
1/2-x,1/2-y,-z
1/2+x,1/2-y,z
loop_
_atom_site_type_symbol
_atom_site_label
_atom_site_fract_x
_atom_site_fract_y
_atom_site_fract_z
Si Si1 0.448159 0.821938 0.195132
Si Si2 0.546670 0.824092 0.658082
Si Si3 0.293233 0.180498 0.272096
Si Si4 0.615941 0.820386 0.053661
Si Si5 0.892368 0.178370 0.794176
Si Si6 0.245398 0.320940 0.841940
Si Si7 0.211069 0.322861 0.468912
O O1 0.435024 0.763444 0.282661
O O2 0.380205 0.759369 0.207109
O O3 0.532465 0.772816 0.096903
O O4 0.441262 0.000000 0.200793
O O5 0.473114 0.734742 0.694108
O O6 0.620198 0.792682 0.548452
O O7 0.524792 0.000000 0.679100
O O8 0.265554 0.242902 0.223940
O O9 0.239600 0.248862 0.375693
O O10 0.287938 0.000000 0.281192
O O11 0.628339 0.750916 0.116316
O O12 0.621805 0.000000 0.056375
O O13 0.679365 0.754803 0.947951
O O14 0.827728 0.229535 0.797387
O O15 0.893904 0.000000 0.801918
O O16 0.236831 0.500000 0.848104
O O17 0.229331 0.500000 0.454402
O O18 0.250000 0.250000 0.500000
#
# Coordination Sequence:
#
# PCOD8087833 Si02
#       7
#     8   8   8   8   8   8   8
#     4   8  14  27  49  75  99 126 166 208 249 297
#     4   9  18  34  53  76 101 130 169 212 253 307
#     4  10  19  34  52  75 107 140 171 212 257 304
#     4   9  17  32  52  75 102 137 176 215 255 304
#     4  10  19  32  51  78 103 133 177 220 258 298
#     4   9  19  33  51  74 105 141 178 213 252 305
#     4  11  21  35  56  81 105 132 169 209 256 313
#
# _framework density 18.214327000000001
#
# number of rings (size 3 to 8) (size 9 to 14) (size 15 to 20)
#    0.000    2.571    1.429    2.143    0.000    1.714 
#    0.000    6.429    0.000    4.286    0.000    3.000 
#    0.000    0.000    0.000    0.000    0.000    0.000 
#
# Total GULP energy -347087.096993 kJ/mol
# GULP energy per Si atom -12395.967750 kJ/mol
# Density = 1.817287 g / cm^3
# Si number density = 18.214327 Si / 1000 Ang^3
#
#
#
# Elastic Constant Matrix: (Units=GPa)
#
#
# Indices 1 2 3 4 5 6 
#
# 1 171.9039 38.6008 89.5516 0.0071 -6.8958 -0.0057
# 2 38.6008 43.3549 35.1428 0.0245 -1.9505 -0.0228
# 3 89.5516 35.1428 111.4549 0.0082 -9.0202 -0.0058
# 4 0.0071 0.0245 0.0082 26.0427 -0.0075 -2.1285
# 5 -6.8958 -1.9505 -9.0202 -0.0075 25.0940 0.0088
# 6 -0.0057 -0.0228 -0.0058 -2.1285 0.0088 21.8171
#
#
#
# Elastic Compliance Matrix: (Units=1/GPa)
#
#
# Indices 1 2 3 4 5 6 
#
# 1 0.010350 -0.003323 -0.007270 0.000002 -0.000028 -0.000002
# 2 -0.003323 0.032083 -0.007538 -0.000025 -0.001129 0.000029
# 3 -0.007270 -0.007538 0.017490 0.000004 0.003703 -0.000006
# 4 0.000002 -0.000025 0.000004 0.038707 0.000010 0.003776
# 5 -0.000028 -0.001129 0.003703 0.000010 0.041086 -0.000016
# 6 -0.000002 0.000029 -0.000006 0.003776 -0.000016 0.046204
#
#
# Mechanical properties :
#
#
# Convention : Reuss Voigt Hill
#
# Bulk Modulus (GPa) = 42.26290 72.58934 57.42612
# Shear Modulus (GPa) = 21.73269 25.48533 23.60901
#
# Velocity S-wave (km/s) = 3.45797 3.74463 3.60415
# Velocity P-wave (km/s) = 6.26074 7.65740 6.99402
#
# Compressibility (1/GPa) = 0.02366141
#
# Stress axis : x y z
#
# Youngs Moduli (GPa) = 96.62271 31.16909 57.17541
#
# Poissons Ratio (x) = 0.10357 0.41567
# Poissons Ratio (y) = 0.32106 0.43097
# Poissons Ratio (z) = 0.70246 0.23494
#
# Static dielectric constant tensor:
#      x y z
#    x 3.629110 -0.000010 -0.192250 
#    y -0.000010 3.091830 0.000010 
#    z -0.192250 0.000010 3.465200 
# 
# 
# High freq. dielectric constant tensor:
#      x y z
#    x 1.707960 0.000000 -0.018700 
#    y 0.000000 1.676780 0.000000 
#    z -0.018700 0.000000 1.703260 
# 
# From -- ./inp_files/287325.got.cif
#   From: 2010.06.25/outbox.cif.g09.slc.cpg/sg12_144_cif.got.tgz:287325.got - 2010.06.28 00:19:55.
