data_PCOD8087181
_publ_section_title
;
Structure prediction by ZEFSAII (Michael W. Deem and Ramdas Pophale) SiO2 
 PCOD8087181
Probable space group: C 2/M
;
_chemical_formula_sum "Si O2"
_cell_formula_units_Z 40
_cell_length_a 8.983525
_cell_length_b 22.474456
_cell_length_c 8.992581
_cell_angle_alpha 90.000000
_cell_angle_beta 91.115676
_cell_angle_gamma 90.000000
_cell_volume 1815.256444
_symmetry_space_group_name_H-M "C 2/M"
_symmetry_group_IT_number 12
_symmetry_cell_setting 'monoclinic'
loop_
_space_group_symop_operation_xyz
x,y,z
-x,y,-z
-x,-y,-z
x,-y,z
1/2+x,1/2+y,z
1/2-x,1/2+y,-z
1/2-x,1/2-y,-z
1/2+x,1/2-y,z
loop_
_atom_site_type_symbol
_atom_site_label
_atom_site_fract_x
_atom_site_fract_y
_atom_site_fract_z
Si Si1 0.795224 0.260348 0.831668
Si Si2 0.483853 0.316658 0.326732
Si Si3 0.642677 0.934952 0.605612
Si Si4 0.319824 0.568693 0.331189
Si Si5 0.542200 0.880798 0.164397
O O1 0.655173 0.278149 0.731163
O O2 0.919543 0.311572 0.828049
O O3 0.869068 0.201245 0.762660
O O4 0.750000 0.250000 0.000000
O O5 0.500000 0.301945 0.500000
O O6 0.454219 0.386861 0.291774
O O7 0.500000 0.940837 0.500000
O O8 0.777869 0.913663 0.501738
O O9 0.606103 0.889282 0.737374
O O10 0.680145 0.000000 0.673657
O O11 0.371671 0.500000 0.320395
O O12 0.178525 0.578141 0.221290
O O13 0.500000 0.902038 0.000000
#
# Coordination Sequence:
#
# PCOD8087181 Si02
#       5
#     8   8   8   8   8
#     4  11  24  43  63  89 129 168 202 254 323 374
#     4  11  24  41  67  95 121 160 214 260 301 369
#     4   8  15  30  51  78 115 155 194 242 296 347
#     4   9  20  38  59  87 125 163 200 252 316 369
#     4  10  19  31  56  89 122 163 210 252 299 364
#
# _framework density 22.035451999999999
#
# number of rings (size 3 to 8) (size 9 to 14) (size 15 to 20)
#    0.000    2.200    0.000    4.200    0.000    9.200 
#    0.000    0.000    0.000   10.800    0.000    1.400 
#    0.000    0.800    0.000    0.000    0.000    0.000 
#
# Total GULP energy -247955.461351 kJ/mol
# GULP energy per Si atom -12397.773068 kJ/mol
# Density = 2.198530 g / cm^3
# Si number density = 22.035452 Si / 1000 Ang^3
#
#
#
# Elastic Constant Matrix: (Units=GPa)
#
#
# Indices 1 2 3 4 5 6 
#
# 1 68.7940 62.2224 49.5860 0.0000 -3.4098 0.0000
# 2 62.2224 138.2739 63.3896 0.0000 -21.9967 0.0000
# 3 49.5860 63.3896 164.0513 0.0000 -0.3585 0.0000
# 4 0.0000 0.0000 0.0000 30.1759 0.0000 -9.0181
# 5 -3.4098 -21.9967 -0.3585 0.0000 35.6403 0.0000
# 6 0.0000 0.0000 0.0000 -9.0181 0.0000 27.6162
#
#
#
# Elastic Compliance Matrix: (Units=1/GPa)
#
#
# Indices 1 2 3 4 5 6 
#
# 1 0.027231 -0.011133 -0.003938 0.000000 -0.004306 0.000000
# 2 -0.011133 0.014515 -0.002226 0.000000 0.007871 0.000000
# 3 -0.003938 -0.002226 0.008143 0.000000 -0.001669 0.000000
# 4 0.000000 0.000000 0.000000 0.036723 0.000000 0.011992
# 5 -0.004306 0.007871 -0.001669 0.000000 0.032487 0.000000
# 6 0.000000 0.000000 0.000000 0.011992 0.000000 0.040127
#
#
# Mechanical properties :
#
#
# Convention : Reuss Voigt Hill
#
# Bulk Modulus (GPa) = 65.39032 80.16835 72.77934
# Shear Modulus (GPa) = 25.13597 31.74789 28.44193
#
# Velocity S-wave (km/s) = 3.38110 3.79986 3.59658
# Velocity P-wave (km/s) = 6.70685 7.46407 7.09557
#
# Compressibility (1/GPa) = 0.01529278
#
# Stress axis : x y z
#
# Youngs Moduli (GPa) = 36.72243 68.89639 122.81131
#
# Poissons Ratio (x) = 0.76705 0.48368
# Poissons Ratio (y) = 0.40885 0.27339
# Poissons Ratio (z) = 0.14463 0.15337
#
# Static dielectric constant tensor:
#      x y z
#    x 4.000350 0.000000 -0.098530 
#    y 0.000000 4.026640 0.000000 
#    z -0.098530 0.000000 4.044720 
# 
# 
# High freq. dielectric constant tensor:
#      x y z
#    x 1.859930 0.000000 0.003370 
#    y 0.000000 1.868260 0.000000 
#    z 0.003370 0.000000 1.860550 
# 
# From -- ./inp_files/39319.got.cif
#   From: 2010.06.25/outbox.cif.g09.slc.cpg/sg12_20_cif.got.tgz:39319.got - 2010.06.28 00:19:55.
