data_PCOD8087392
_publ_section_title
;
Structure prediction by ZEFSAII (Michael W. Deem and Ramdas Pophale) SiO2 
 PCOD8087392
Probable space group: C 2/M
;
_chemical_formula_sum "Si O2"
_cell_formula_units_Z 64
_cell_length_a 24.829092
_cell_length_b 9.113546
_cell_length_c 23.645191
_cell_angle_alpha 90.000000
_cell_angle_beta 132.988748
_cell_angle_gamma 90.000000
_cell_volume 3913.794651
_symmetry_space_group_name_H-M "C 2/M"
_symmetry_group_IT_number 12
_symmetry_cell_setting 'monoclinic'
loop_
_space_group_symop_operation_xyz
x,y,z
-x,y,-z
-x,-y,-z
x,-y,z
1/2+x,1/2+y,z
1/2-x,1/2+y,-z
1/2-x,1/2-y,-z
1/2+x,1/2-y,z
loop_
_atom_site_type_symbol
_atom_site_label
_atom_site_fract_x
_atom_site_fract_y
_atom_site_fract_z
Si Si1 0.324263 0.172982 0.840246
Si Si2 0.199431 0.328656 0.693951
Si Si3 0.082275 0.826413 0.420081
Si Si4 0.778886 0.169958 0.407093
Si Si5 0.940789 0.673575 0.828316
Si Si6 0.055659 0.673923 0.993583
Si Si7 0.970629 0.329256 0.418013
Si Si8 0.882676 0.328807 0.668856
O O1 0.247809 0.259057 0.779026
O O2 0.378222 0.222267 0.827973
O O3 0.361604 0.219864 0.927824
O O4 0.308492 0.000000 0.826998
O O5 0.214490 0.500000 0.701448
O O6 0.223167 0.260904 0.651574
O O7 0.115244 0.293570 0.647660
O O8 0.153954 0.774936 0.506216
O O9 0.085339 0.761986 0.359846
O O10 0.009708 0.765334 0.398027
O O11 0.077452 0.000000 0.412784
O O12 0.704502 0.198026 0.388578
O O13 0.787163 0.000000 0.396383
O O14 0.937529 0.500000 0.821514
O O15 0.923412 0.736293 0.753825
O O16 0.022852 0.725877 0.908967
O O17 0.051523 0.500000 0.992906
O O18 0.000000 0.739044 0.000000
O O19 0.988190 0.500000 0.420647
O O20 0.000000 0.278286 0.500000
O O21 0.899918 0.500000 0.671845
#
# Coordination Sequence:
#
# PCOD8087392 Si02
#       8
#     8   8   8   8   8   8   8   8
#     4   9  15  27  46  69  99 127 157 195 234 281
#     4  11  21  31  49  73  96 125 160 200 241 286
#     4  11  23  35  50  72  96 124 163 207 243 281
#     4  10  20  34  50  70  96 128 163 196 236 283
#     4   8  13  24  44  70  96 127 163 191 225 276
#     4   7  11  20  40  68  94 123 158 193 224 269
#     4  10  21  38  54  68  90 124 164 201 244 292
#     4  10  19  32  50  70  99 134 163 193 230 283
#
# _framework density 16.352416000000002
#
# number of rings (size 3 to 8) (size 9 to 14) (size 15 to 20)
#    0.000    2.500    2.500    2.625    0.000    2.250 
#    0.000    0.000    0.000    4.125    0.000    0.875 
#    0.000    0.000    0.000    0.000    0.000    0.000 
#
# Total GULP energy -396570.761122 kJ/mol
# GULP energy per Si atom -12392.836285 kJ/mol
# Density = 1.631520 g / cm^3
# Si number density = 16.352416 Si / 1000 Ang^3
#
#
#
# Elastic Constant Matrix: (Units=GPa)
#
#
# Indices 1 2 3 4 5 6 
#
# 1 69.3908 31.3140 39.7695 0.0000 4.2052 0.0000
# 2 31.3140 42.2919 32.5268 0.0000 6.9650 0.0000
# 3 39.7695 32.5268 135.7443 0.0000 15.4855 0.0000
# 4 0.0000 0.0000 0.0000 14.1854 0.0000 2.0810
# 5 4.2052 6.9650 15.4855 0.0000 14.4666 0.0000
# 6 0.0000 0.0000 0.0000 2.0810 0.0000 21.4179
#
#
#
# Elastic Compliance Matrix: (Units=1/GPa)
#
#
# Indices 1 2 3 4 5 6 
#
# 1 0.022976 -0.014926 -0.003660 0.000000 0.004425 0.000000
# 2 -0.014926 0.039402 -0.003872 0.000000 -0.010487 0.000000
# 3 -0.003660 -0.003872 0.010289 0.000000 -0.008086 0.000000
# 4 0.000000 0.000000 0.000000 0.071514 0.000000 -0.006948
# 5 0.004425 -0.010487 -0.008086 0.000000 0.081542 0.000000
# 6 0.000000 0.000000 0.000000 -0.006948 0.000000 0.047365
#
#
# Mechanical properties :
#
#
# Convention : Reuss Voigt Hill
#
# Bulk Modulus (GPa) = 36.03413 50.51639 43.27526
# Shear Modulus (GPa) = 15.27858 19.60177 17.44017
#
# Velocity S-wave (km/s) = 3.06000 3.46599 3.26930
# Velocity P-wave (km/s) = 5.87951 6.85397 6.38535
#
# Compressibility (1/GPa) = 0.02775146
#
# Stress axis : x y z
#
# Youngs Moduli (GPa) = 43.52342 25.37936 97.18915
#
# Poissons Ratio (x) = 0.37882 0.35567
# Poissons Ratio (y) = 0.64964 0.37633
# Poissons Ratio (z) = 0.15928 0.09827
#
# Static dielectric constant tensor:
#      x y z
#    x 2.775730 0.000000 0.071870 
#    y 0.000000 2.855240 0.000000 
#    z 0.071870 0.000000 3.661690 
# 
# 
# High freq. dielectric constant tensor:
#      x y z
#    x 1.589430 0.000000 0.007000 
#    y 0.000000 1.606510 0.000000 
#    z 0.007000 0.000000 1.647030 
# 
# From -- ./inp_files/348577.got.cif
#   From: 2010.06.25/outbox.cif.g09.slc.cpg/sg12_175_cif.got.tgz:348577.got - 2010.06.28 00:19:55.
