data_PCOD8087156
_publ_section_title
;
Structure prediction by ZEFSAII (Michael W. Deem and Ramdas Pophale) SiO2 
 PCOD8087156
Probable space group: C 2/M
;
_chemical_formula_sum "Si O2"
_cell_formula_units_Z 40
_cell_length_a 13.686605
_cell_length_b 13.549686
_cell_length_c 16.986103
_cell_angle_alpha 90.000000
_cell_angle_beta 130.841078
_cell_angle_gamma 90.000000
_cell_volume 2383.102938
_symmetry_space_group_name_H-M "C 2/M"
_symmetry_group_IT_number 12
_symmetry_cell_setting 'monoclinic'
loop_
_space_group_symop_operation_xyz
x,y,z
-x,y,-z
-x,-y,-z
x,-y,z
1/2+x,1/2+y,z
1/2-x,1/2+y,-z
1/2-x,1/2-y,-z
1/2+x,1/2-y,z
loop_
_atom_site_type_symbol
_atom_site_label
_atom_site_fract_x
_atom_site_fract_y
_atom_site_fract_z
Si Si1 0.920394 0.759363 0.031467
Si Si2 0.996406 0.386547 0.369569
Si Si3 0.796536 0.884504 0.086433
Si Si4 0.210467 0.613614 0.611516
Si Si5 0.971607 0.768322 0.750023
O O1 0.826348 0.847842 0.012272
O O2 0.014838 0.727369 0.153282
O O3 0.836984 0.666251 0.957240
O O4 0.000000 0.801226 0.000000
O O5 0.991091 0.500000 0.339882
O O6 0.120131 0.367936 0.489147
O O7 0.008160 0.321114 0.298579
O O8 0.866979 0.359214 0.349719
O O9 0.915419 0.850019 0.205154
O O10 0.778428 0.000000 0.080936
O O11 0.255648 0.500000 0.639028
O O12 0.332763 0.683298 0.665689
#
# Coordination Sequence:
#
# PCOD8087156 Si02
#       5
#     8   8   8   8   8
#     4   9  21  36  51  76 103 132 175 208 251 300
#     4   9  19  34  52  78 106 131 168 210 252 301
#     4   9  20  36  51  74 102 133 170 213 252 295
#     4   9  18  33  55  79 102 132 167 210 257 299
#     4  10  19  31  55  77 102 133 171 205 254 300
#
# _framework density 16.784838000000001
#
# number of rings (size 3 to 8) (size 9 to 14) (size 15 to 20)
#    1.200    1.600    0.000    2.400    2.800    1.600 
#    0.000    0.000    0.000    0.000    0.000    7.000 
#    0.000    0.000    0.000    0.000    0.000    0.000 
#
# Total GULP energy -247837.254973 kJ/mol
# GULP energy per Si atom -12391.862749 kJ/mol
# Density = 1.674664 g / cm^3
# Si number density = 16.784838 Si / 1000 Ang^3
#
#
#
# Elastic Constant Matrix: (Units=GPa)
#
#
# Indices 1 2 3 4 5 6 
#
# 1 30.8725 4.3425 5.7542 0.0000 -2.6943 0.0000
# 2 4.3425 68.0217 17.3202 0.0000 9.1922 0.0000
# 3 5.7542 17.3202 46.7056 0.0000 -0.6775 0.0000
# 4 0.0000 0.0000 0.0000 22.5257 0.0000 0.3111
# 5 -2.6943 9.1922 -0.6775 0.0000 29.1716 0.0000
# 6 0.0000 0.0000 0.0000 0.3111 0.0000 23.7859
#
#
#
# Elastic Compliance Matrix: (Units=1/GPa)
#
#
# Indices 1 2 3 4 5 6 
#
# 1 0.033590 -0.001752 -0.003437 0.000000 0.003575 0.000000
# 2 -0.001752 0.017174 -0.006236 0.000000 -0.005718 0.000000
# 3 -0.003437 -0.006236 0.024179 0.000000 0.002209 0.000000
# 4 0.000000 0.000000 0.000000 0.044402 0.000000 -0.000581
# 5 0.003575 -0.005718 0.002209 0.000000 0.036463 0.000000
# 6 0.000000 0.000000 0.000000 -0.000581 0.000000 0.042049
#
#
# Mechanical properties :
#
#
# Convention : Reuss Voigt Hill
#
# Bulk Modulus (GPa) = 19.19645 22.27040 20.73343
# Shear Modulus (GPa) = 21.00218 22.97550 21.98884
#
# Velocity S-wave (km/s) = 3.54115 3.70378 3.62338
# Velocity P-wave (km/s) = 5.30860 5.62028 5.46667
#
# Compressibility (1/GPa) = 0.05209296
#
# Stress axis : x y z
#
# Youngs Moduli (GPa) = 29.77049 58.22902 41.35892
#
# Poissons Ratio (x) = 0.10204 0.14214
# Poissons Ratio (y) = 0.05217 0.25790
# Poissons Ratio (z) = 0.10231 0.36310
#
# Static dielectric constant tensor:
#      x y z
#    x 3.002670 0.000000 0.130840 
#    y 0.000000 2.874210 0.000000 
#    z 0.130840 0.000000 3.088100 
# 
# 
# High freq. dielectric constant tensor:
#      x y z
#    x 1.641640 0.000000 0.013160 
#    y 0.000000 1.630520 0.000000 
#    z 0.013160 0.000000 1.645500 
# 
# From -- ./inp_files/261883.got.cif
#   From: 2010.06.25/outbox.cif.g09.slc.cpg/sg12_131_cif.got.tgz:261883.got - 2010.06.28 00:19:55.
