data_PCOD8087240
_publ_section_title
;
Structure prediction by ZEFSAII (Michael W. Deem and Ramdas Pophale) SiO2 
 PCOD8087240
Probable space group: C 2/M
;
_chemical_formula_sum "Si O2"
_cell_formula_units_Z 64
_cell_length_a 33.206803
_cell_length_b 9.205148
_cell_length_c 14.147065
_cell_angle_alpha 90.000000
_cell_angle_beta 53.295168
_cell_angle_gamma 90.000000
_cell_volume 3466.967312
_symmetry_space_group_name_H-M "C 2/M"
_symmetry_group_IT_number 12
_symmetry_cell_setting 'monoclinic'
loop_
_space_group_symop_operation_xyz
x,y,z
-x,y,-z
-x,-y,-z
x,-y,z
1/2+x,1/2+y,z
1/2-x,1/2+y,-z
1/2-x,1/2-y,-z
1/2+x,1/2-y,z
loop_
_atom_site_type_symbol
_atom_site_label
_atom_site_fract_x
_atom_site_fract_y
_atom_site_fract_z
Si Si1 0.797227 0.833188 0.820635
Si Si2 0.606446 0.665695 0.992403
Si Si3 0.357884 0.165776 0.595796
Si Si4 0.442755 0.170065 0.101274
Si Si5 0.570656 0.168496 0.663812
Si Si6 0.681163 0.168051 0.024048
Si Si7 0.946846 0.665899 0.614536
Si Si8 0.474460 0.663190 0.742808
O O1 0.813734 0.770740 0.694837
O O2 0.824507 0.741503 0.865051
O O3 0.814014 0.000000 0.807220
O O4 0.737822 0.816858 0.908931
O O5 0.624949 0.500000 0.951750
O O6 0.597371 0.742740 0.905000
O O7 0.647881 0.751887 0.993224
O O8 0.552597 0.668937 0.118545
O O9 0.376065 0.202978 0.463126
O O10 0.405538 0.194703 0.594557
O O11 0.338797 0.000000 0.628940
O O12 0.426637 0.209819 0.230318
O O13 0.436790 0.000000 0.087883
O O14 0.500000 0.219005 0.000000
O O15 0.527094 0.255421 0.673042
O O16 0.557098 0.000000 0.668935
O O17 0.664755 0.000000 0.056669
O O18 0.948558 0.500000 0.644839
O O19 0.936311 0.761457 0.722372
O O20 0.000000 0.718202 0.500000
O O21 0.485057 0.500000 0.695115
#
# Coordination Sequence:
#
# PCOD8087240 Si02
#       8
#     8   8   8   8   8   8   8   8
#     4  10  21  37  58  85 115 142 177 226 275 326
#     4  11  23  36  54  81 113 143 177 229 282 326
#     4  10  20  34  54  77 105 146 185 220 267 323
#     4  10  20  35  58  81 105 144 189 231 273 323
#     4  10  20  36  54  75 104 142 187 223 259 317
#     4  10  21  38  60  84 110 144 183 223 271 329
#     4  10  19  32  48  68 100 141 180 216 252 308
#     4  11  22  32  46  73 107 142 176 217 269 317
#
# _framework density 18.459938000000001
#
# number of rings (size 3 to 8) (size 9 to 14) (size 15 to 20)
#    0.000    1.750    2.500    2.250    0.000    7.000 
#    0.000    0.000    0.000    0.750    0.000    0.000 
#    0.000    0.000    0.000    0.000    0.000    0.000 
#
# Total GULP energy -396842.652309 kJ/mol
# GULP energy per Si atom -12401.332885 kJ/mol
# Density = 1.841792 g / cm^3
# Si number density = 18.459938 Si / 1000 Ang^3
#
#
#
# Elastic Constant Matrix: (Units=GPa)
#
#
# Indices 1 2 3 4 5 6 
#
# 1 73.3994 47.8380 26.8057 0.0000 15.3684 0.0000
# 2 47.8380 109.6735 46.9354 0.0000 11.4330 0.0000
# 3 26.8057 46.9354 105.4501 0.0000 18.9128 0.0000
# 4 0.0000 0.0000 0.0000 27.9543 0.0000 0.8070
# 5 15.3684 11.4330 18.9128 0.0000 25.0295 0.0000
# 6 0.0000 0.0000 0.0000 0.8070 0.0000 23.1119
#
#
#
# Elastic Compliance Matrix: (Units=1/GPa)
#
#
# Indices 1 2 3 4 5 6 
#
# 1 0.020828 -0.008117 -0.000061 0.000000 -0.009035 0.000000
# 2 -0.008117 0.014480 -0.004730 0.000000 0.001944 0.000000
# 3 -0.000061 -0.004730 0.012967 0.000000 -0.007600 0.000000
# 4 0.000000 0.000000 0.000000 0.035809 0.000000 -0.001250
# 5 -0.009035 0.001944 -0.007600 0.000000 0.050355 0.000000
# 6 0.000000 0.000000 0.000000 -0.001250 0.000000 0.043311
#
#
# Mechanical properties :
#
#
# Convention : Reuss Voigt Hill
#
# Bulk Modulus (GPa) = 44.52658 59.07569 51.80114
# Shear Modulus (GPa) = 23.69052 26.34873 25.01962
#
# Velocity S-wave (km/s) = 3.58627 3.78212 3.68550
# Velocity P-wave (km/s) = 6.42818 7.15152 6.79947
#
# Compressibility (1/GPa) = 0.02245849
#
# Stress axis : x y z
#
# Youngs Moduli (GPa) = 48.01124 69.05973 77.11700
#
# Poissons Ratio (x) = 0.56055 0.00474
# Poissons Ratio (y) = 0.38970 0.36479
# Poissons Ratio (z) = 0.00295 0.32668
#
# Static dielectric constant tensor:
#      x y z
#    x 3.114580 0.000000 0.129110 
#    y 0.000000 3.476030 0.000000 
#    z 0.129110 0.000000 3.651260 
# 
# 
# High freq. dielectric constant tensor:
#      x y z
#    x 1.688770 0.000000 0.006870 
#    y 0.000000 1.721000 0.000000 
#    z 0.006870 0.000000 1.718150 
# 
# From -- ./inp_files/249702.got.cif
#   From: 2010.06.25/outbox.cif.g09.slc.cpg/sg12_125_cif.got.tgz:249702.got - 2010.06.28 00:19:55.
