data_PCOD8087892
_publ_section_title
;
Structure prediction by ZEFSAII (Michael W. Deem and Ramdas Pophale) SiO2 
 PCOD8087892
Probable space group: C 2/M
;
_chemical_formula_sum "Si O2"
_cell_formula_units_Z 64
_cell_length_a 24.709079
_cell_length_b 9.028138
_cell_length_c 16.988324
_cell_angle_alpha 90.000000
_cell_angle_beta 77.196168
_cell_angle_gamma 90.000000
_cell_volume 3695.471178
_symmetry_space_group_name_H-M "C 2/M"
_symmetry_group_IT_number 12
_symmetry_cell_setting 'monoclinic'
loop_
_space_group_symop_operation_xyz
x,y,z
-x,y,-z
-x,-y,-z
x,-y,z
1/2+x,1/2+y,z
1/2-x,1/2+y,-z
1/2-x,1/2-y,-z
1/2+x,1/2-y,z
loop_
_atom_site_type_symbol
_atom_site_label
_atom_site_fract_x
_atom_site_fract_y
_atom_site_fract_z
Si Si1 0.807136 0.670162 0.486004
Si Si2 0.201015 0.327177 0.341126
Si Si3 0.319835 0.174436 0.312365
Si Si4 0.197462 0.831547 0.050466
Si Si5 0.134965 0.675063 0.209466
Si Si6 0.588477 0.333717 0.992882
Si Si7 0.036295 0.173578 0.166994
Si Si8 0.587034 0.673396 0.819889
O O1 0.792518 0.500000 0.484604
O O2 0.750000 0.750000 0.500000
O O3 0.831797 0.706108 0.565052
O O4 0.840965 0.713164 0.395568
O O5 0.216461 0.500000 0.328949
O O6 0.258496 0.237860 0.315336
O O7 0.157882 0.280164 0.287736
O O8 0.364210 0.244276 0.240174
O O9 0.317870 0.000000 0.297679
O O10 0.176476 0.745551 0.133464
O O11 0.211959 0.000000 0.069522
O O12 0.250000 0.750000 0.000000
O O13 0.152627 0.828085 0.995674
O O14 0.132731 0.500000 0.197790
O O15 0.072916 0.741165 0.220208
O O16 0.566430 0.500000 0.989220
O O17 0.581952 0.257102 0.909671
O O18 0.551452 0.261943 0.074806
O O19 0.971519 0.199946 0.205642
O O20 0.052652 0.000000 0.164769
O O21 0.601968 0.500000 0.818457
#
# Coordination Sequence:
#
# PCOD8087892 Si02
#       8
#     8   8   8   8   8   8   8   8
#     4   8  15  30  49  69  96 127 158 194 237 290
#     4   9  18  33  53  73  96 130 167 196 233 298
#     4  10  20  31  47  76 106 127 153 198 253 292
#     4  10  20  33  48  68  99 133 164 199 242 289
#     4  10  20  33  51  73  96 126 165 204 244 290
#     4   8  16  31  50  69  89 122 167 203 233 279
#     4   9  18  34  53  71  93 126 168 209 246 283
#     4  10  19  32  52  73  96 128 165 203 243 294
#
# _framework density 17.318494999999999
#
# number of rings (size 3 to 8) (size 9 to 14) (size 15 to 20)
#    0.000    2.750    0.000    2.250    1.750    3.500 
#    0.000    2.500    0.000    4.500    0.000    5.250 
#    0.000    0.000    0.000    0.000    0.000    0.000 
#
# Total GULP energy -396461.295110 kJ/mol
# GULP energy per Si atom -12389.415472 kJ/mol
# Density = 1.727908 g / cm^3
# Si number density = 17.318495 Si / 1000 Ang^3
#
#
#
# Elastic Constant Matrix: (Units=GPa)
#
#
# Indices 1 2 3 4 5 6 
#
# 1 79.1845 35.9702 55.3477 0.0000 11.1352 0.0000
# 2 35.9702 60.6818 36.1986 0.0000 8.6818 0.0000
# 3 55.3477 36.1986 104.2569 0.0000 23.1683 0.0000
# 4 0.0000 0.0000 0.0000 21.9492 0.0000 0.1915
# 5 11.1352 8.6818 23.1683 0.0000 24.6731 0.0000
# 6 0.0000 0.0000 0.0000 0.1915 0.0000 24.6060
#
#
#
# Elastic Compliance Matrix: (Units=1/GPa)
#
#
# Indices 1 2 3 4 5 6 
#
# 1 0.022795 -0.007959 -0.009698 0.000000 0.001619 0.000000
# 2 -0.007959 0.023572 -0.003683 0.000000 -0.001244 0.000000
# 3 -0.009698 -0.003683 0.018650 0.000000 -0.011840 0.000000
# 4 0.000000 0.000000 0.000000 0.045563 0.000000 -0.000355
# 5 0.001619 -0.001244 -0.011840 0.000000 0.051355 0.000000
# 6 0.000000 0.000000 0.000000 -0.000355 0.000000 0.040643
#
#
# Mechanical properties :
#
#
# Convention : Reuss Voigt Hill
#
# Bulk Modulus (GPa) = 44.76632 55.46178 50.11405
# Shear Modulus (GPa) = 19.78617 22.01943 20.90280
#
# Velocity S-wave (km/s) = 3.38374 3.56959 3.47791
# Velocity P-wave (km/s) = 6.41648 7.00596 6.71769
#
# Compressibility (1/GPa) = 0.02233822
#
# Stress axis : x y z
#
# Youngs Moduli (GPa) = 43.86966 42.42334 53.61991
#
# Poissons Ratio (x) = 0.33763 0.52000
# Poissons Ratio (y) = 0.34914 0.19747
# Poissons Ratio (z) = 0.42544 0.15623
#
# Static dielectric constant tensor:
#      x y z
#    x 2.982960 0.000000 0.414790 
#    y 0.000000 3.133520 0.000000 
#    z 0.414790 0.000000 3.734160 
# 
# 
# High freq. dielectric constant tensor:
#      x y z
#    x 1.651100 0.000000 0.010180 
#    y 0.000000 1.660070 0.000000 
#    z 0.010180 0.000000 1.671010 
# 
# From -- ./inp_files/243818.got.cif
#   From: 2010.06.25/outbox.cif.g09.slc.cpg/sg12_122_cif.got.tgz:243818.got - 2010.06.28 00:19:55.
