data_PCOD8087640
_publ_section_title
;
Structure prediction by ZEFSAII (Michael W. Deem and Ramdas Pophale) SiO2 
 PCOD8087640
Probable space group: C 2/M
;
_chemical_formula_sum "Si O2"
_cell_formula_units_Z 56
_cell_length_a 19.062354
_cell_length_b 9.203158
_cell_length_c 26.321673
_cell_angle_alpha 90.000000
_cell_angle_beta 39.236588
_cell_angle_gamma 90.000000
_cell_volume 2920.814212
_symmetry_space_group_name_H-M "C 2/M"
_symmetry_group_IT_number 12
_symmetry_cell_setting 'monoclinic'
loop_
_space_group_symop_operation_xyz
x,y,z
-x,y,-z
-x,-y,-z
x,-y,z
1/2+x,1/2+y,z
1/2-x,1/2+y,-z
1/2-x,1/2-y,-z
1/2+x,1/2-y,z
loop_
_atom_site_type_symbol
_atom_site_label
_atom_site_fract_x
_atom_site_fract_y
_atom_site_fract_z
Si Si1 0.432015 0.336337 0.673232
Si Si2 0.203741 0.833523 0.978053
Si Si3 0.635366 0.664621 0.173654
Si Si4 0.034302 0.833757 0.925660
Si Si5 0.577142 0.831437 0.730943
Si Si6 0.797819 0.330045 0.238233
Si Si7 0.143197 0.330670 0.580147
O O1 0.472587 0.500000 0.637924
O O2 0.381269 0.329658 0.757475
O O3 0.332659 0.287512 0.691342
O O4 0.535823 0.228644 0.610128
O O5 0.254284 0.756740 0.899771
O O6 0.242655 0.000000 0.957513
O O7 0.250000 0.750000 0.000000
O O8 0.071355 0.821057 0.052003
O O9 0.648438 0.500000 0.146352
O O10 0.532503 0.735514 0.201314
O O11 0.134878 0.747617 0.844205
O O12 0.073124 0.000000 0.910734
O O13 0.000000 0.769662 0.000000
O O14 0.660769 0.785748 0.728947
O O15 0.635213 0.798297 0.644591
O O16 0.543318 0.000000 0.753603
O O17 0.812278 0.500000 0.219989
O O18 0.153554 0.500000 0.562510
O O19 0.250000 0.250000 0.500000
#
# Coordination Sequence:
#
# PCOD8087640 Si02
#       7
#     8   8   8   8   8   8   8
#     4   9  19  35  55  79 105 134 169 208 252 306
#     4  11  22  34  49  70  98 133 174 221 268 311
#     4  10  19  32  51  74 100 132 172 216 260 308
#     4  10  22  37  51  71 102 140 179 219 264 310
#     4   9  19  35  55  79 106 138 174 212 258 310
#     4  10  20  35  55  78 104 135 174 218 261 307
#     4  10  20  36  59  84 109 138 171 208 252 304
#
# _framework density 19.172737000000001
#
# number of rings (size 3 to 8) (size 9 to 14) (size 15 to 20)
#    0.000    2.143    0.000    3.000    0.000    6.000 
#    0.000    0.714    0.000    4.286    0.000    0.000 
#    0.000    0.000    0.000    0.000    0.000    0.000 
#
# Total GULP energy -347246.679084 kJ/mol
# GULP energy per Si atom -12401.667110 kJ/mol
# Density = 1.912910 g / cm^3
# Si number density = 19.172737 Si / 1000 Ang^3
#
#
#
# Elastic Constant Matrix: (Units=GPa)
#
#
# Indices 1 2 3 4 5 6 
#
# 1 96.4993 29.4658 17.4536 0.0001 -12.5084 -0.0001
# 2 29.4658 97.8227 44.6346 0.0001 -13.2169 -0.0002
# 3 17.4536 44.6346 79.9968 0.0001 -16.4463 -0.0001
# 4 0.0001 0.0001 0.0001 36.4094 0.0000 -3.4371
# 5 -12.5084 -13.2169 -16.4463 0.0000 23.8647 0.0001
# 6 -0.0001 -0.0002 -0.0001 -3.4371 0.0001 26.9369
#
#
#
# Elastic Compliance Matrix: (Units=1/GPa)
#
#
# Indices 1 2 3 4 5 6 
#
# 1 0.011858 -0.002954 0.000003 0.000000 0.004581 0.000000
# 2 -0.002954 0.014601 -0.007175 0.000000 0.001594 0.000000
# 3 0.000003 -0.007175 0.018276 0.000000 0.008623 0.000000
# 4 0.000000 0.000000 0.000000 0.027800 0.000000 0.003547
# 5 0.004581 0.001594 0.008623 0.000000 0.051129 0.000000
# 6 0.000000 0.000000 0.000000 0.003547 0.000000 0.037576
#
#
# Mechanical properties :
#
#
# Convention : Reuss Voigt Hill
#
# Bulk Modulus (GPa) = 40.84413 50.82520 45.83466
# Shear Modulus (GPa) = 26.36377 29.62653 27.99515
#
# Velocity S-wave (km/s) = 3.71221 3.93522 3.82534
# Velocity P-wave (km/s) = 6.30266 6.87129 6.59311
#
# Compressibility (1/GPa) = 0.02448332
#
# Stress axis : x y z
#
# Youngs Moduli (GPa) = 84.33033 68.48625 54.71733
#
# Poissons Ratio (x) = 0.20233 -0.00016
# Poissons Ratio (y) = 0.24913 0.39258
# Poissons Ratio (z) = -0.00025 0.49137
#
# Static dielectric constant tensor:
#      x y z
#    x 3.680150 0.000000 -0.107690 
#    y 0.000000 3.628170 0.000000 
#    z -0.107690 0.000000 3.445820 
# 
# 
# High freq. dielectric constant tensor:
#      x y z
#    x 1.751520 0.000000 -0.007760 
#    y 0.000000 1.748230 0.000000 
#    z -0.007760 0.000000 1.730460 
# 
# From -- ./inp_files/363024.got.cif
#   From: 2010.06.25/outbox.cif.g09.slc.cpg/sg12_182_cif.got.tgz:363024.got - 2010.06.28 00:19:55.
