data_PCOD8087140
_publ_section_title
;
Structure prediction by ZEFSAII (Michael W. Deem and Ramdas Pophale) SiO2 
 PCOD8087140
Probable space group: C 2/M
;
_chemical_formula_sum "Si O2"
_cell_formula_units_Z 40
_cell_length_a 22.222670
_cell_length_b 9.350715
_cell_length_c 10.901476
_cell_angle_alpha 90.000000
_cell_angle_beta 121.484678
_cell_angle_gamma 90.000000
_cell_volume 1931.805044
_symmetry_space_group_name_H-M "C 2/M"
_symmetry_group_IT_number 12
_symmetry_cell_setting 'monoclinic'
loop_
_space_group_symop_operation_xyz
x,y,z
-x,y,-z
-x,-y,-z
x,-y,z
1/2+x,1/2+y,z
1/2-x,1/2+y,-z
1/2-x,1/2-y,-z
1/2+x,1/2-y,z
loop_
_atom_site_type_symbol
_atom_site_label
_atom_site_fract_x
_atom_site_fract_y
_atom_site_fract_z
Si Si1 0.088611 0.164709 0.312754
Si Si2 0.922187 0.834220 0.424026
Si Si3 0.836957 0.664748 0.814175
Si Si4 0.213091 0.166879 0.851577
Si Si5 0.034159 0.656520 0.903816
O O1 0.112159 0.184872 0.478137
O O2 0.145547 0.241920 0.286930
O O3 0.009184 0.228386 0.220608
O O4 0.084930 0.000000 0.269480
O O5 0.865852 0.772912 0.264063
O O6 0.000000 0.760100 0.500000
O O7 0.931848 0.000000 0.403035
O O8 0.851779 0.500000 0.794280
O O9 0.757196 0.689516 0.772590
O O10 0.885609 0.707516 0.984364
O O11 0.211417 0.000000 0.885001
O O12 0.250000 0.250000 0.000000
O O13 0.032227 0.500000 0.836843
O O14 0.000000 0.644140 0.000000
#
# Coordination Sequence:
#
# PCOD8087140 Si02
#       5
#     8   8   8   8   8
#     4  10  19  31  54  85 110 142 190 232 271 328
#     4   9  20  38  57  81 116 152 183 228 290 340
#     4   9  19  35  54  79 113 149 181 225 287 336
#     4  10  22  40  61  83 112 151 191 231 282 339
#     4   8  15  29  48  73 110 148 175 214 276 330
#
# _framework density 20.706022999999998
#
# number of rings (size 3 to 8) (size 9 to 14) (size 15 to 20)
#    0.000    2.800    0.000    1.800    2.800    5.200 
#    0.000    2.000    0.000    3.000    0.000    0.000 
#    0.000    0.000    0.000    0.000    0.000    0.000 
#
# Total GULP energy -247829.123796 kJ/mol
# GULP energy per Si atom -12391.456190 kJ/mol
# Density = 2.065889 g / cm^3
# Si number density = 20.706023 Si / 1000 Ang^3
#
#
#
# Elastic Constant Matrix: (Units=GPa)
#
#
# Indices 1 2 3 4 5 6 
#
# 1 88.0448 32.1481 55.3601 0.0000 22.1350 0.0000
# 2 32.1481 77.3682 48.2510 0.0000 2.7739 0.0000
# 3 55.3601 48.2510 132.7742 0.0000 23.8097 0.0000
# 4 0.0000 0.0000 0.0000 25.7332 0.0000 -0.6006
# 5 22.1350 2.7739 23.8097 0.0000 30.3344 0.0000
# 6 0.0000 0.0000 0.0000 -0.6006 0.0000 17.0145
#
#
#
# Elastic Compliance Matrix: (Units=1/GPa)
#
#
# Indices 1 2 3 4 5 6 
#
# 1 0.018015 -0.004552 -0.004160 0.000000 -0.009464 0.000000
# 2 -0.004552 0.018242 -0.005851 0.000000 0.006246 0.000000
# 3 -0.004160 -0.005851 0.012514 0.000000 -0.006251 0.000000
# 4 0.000000 0.000000 0.000000 0.038892 0.000000 0.001373
# 5 -0.009464 0.006246 -0.006251 0.000000 0.044207 0.000000
# 6 0.000000 0.000000 0.000000 0.001373 0.000000 0.058822
#
#
# Mechanical properties :
#
#
# Convention : Reuss Voigt Hill
#
# Bulk Modulus (GPa) = 50.90661 63.30061 57.10361
# Shear Modulus (GPa) = 22.08807 25.44493 23.76650
#
# Velocity S-wave (km/s) = 3.26965 3.50932 3.39160
# Velocity P-wave (km/s) = 6.23642 6.85988 6.55557
#
# Compressibility (1/GPa) = 0.01964382
#
# Stress axis : x y z
#
# Youngs Moduli (GPa) = 55.50963 54.81876 79.91334
#
# Poissons Ratio (x) = 0.24953 0.33244
# Poissons Ratio (y) = 0.25267 0.46761
# Poissons Ratio (z) = 0.23092 0.32077
#
# Static dielectric constant tensor:
#      x y z
#    x 4.202170 0.000000 0.649760 
#    y 0.000000 3.525450 0.000000 
#    z 0.649760 0.000000 4.016900 
# 
# 
# High freq. dielectric constant tensor:
#      x y z
#    x 1.813370 0.000000 0.011820 
#    y 0.000000 1.780070 0.000000 
#    z 0.011820 0.000000 1.802540 
# 
# From -- ./inp_files/172567.got.cif
#   From: 2010.06.25/outbox.cif.g09.slc.cpg/sg12_87_cif.got.tgz:172567.got - 2010.06.28 00:19:55.
