data_PCOD8087148
_publ_section_title
;
Structure prediction by ZEFSAII (Michael W. Deem and Ramdas Pophale) SiO2 
 PCOD8087148
Probable space group: C 2/M
;
_chemical_formula_sum "Si O2"
_cell_formula_units_Z 56
_cell_length_a 28.249298
_cell_length_b 9.276951
_cell_length_c 17.247550
_cell_angle_alpha 90.000000
_cell_angle_beta 43.017983
_cell_angle_gamma 90.000000
_cell_volume 3083.683471
_symmetry_space_group_name_H-M "C 2/M"
_symmetry_group_IT_number 12
_symmetry_cell_setting 'monoclinic'
loop_
_space_group_symop_operation_xyz
x,y,z
-x,y,-z
-x,-y,-z
x,-y,z
1/2+x,1/2+y,z
1/2-x,1/2+y,-z
1/2-x,1/2-y,-z
1/2+x,1/2-y,z
loop_
_atom_site_type_symbol
_atom_site_label
_atom_site_fract_x
_atom_site_fract_y
_atom_site_fract_z
Si Si1 0.637803 0.335824 0.425029
Si Si2 0.300392 0.167590 0.086998
Si Si3 0.775967 0.166405 0.265425
Si Si4 0.415595 0.170286 0.826287
Si Si5 0.357574 0.335403 0.754424
Si Si6 0.052932 0.833321 0.674527
Si Si7 0.314677 0.665764 0.388837
O O1 0.665582 0.500000 0.399200
O O2 0.700359 0.231358 0.372526
O O3 0.612170 0.308438 0.367989
O O4 0.574263 0.308684 0.559265
O O5 0.315059 0.254354 0.148334
O O6 0.223918 0.203034 0.146653
O O7 0.307792 0.000000 0.098085
O O8 0.354959 0.217716 0.957362
O O9 0.821637 0.186526 0.288106
O O10 0.766835 0.000000 0.254241
O O11 0.398555 0.230723 0.762016
O O12 0.486643 0.236727 0.773133
O O13 0.423088 0.000000 0.811606
O O14 0.369914 0.500000 0.766184
O O15 0.114410 0.779079 0.657027
O O16 0.034693 0.000000 0.711922
O O17 0.302712 0.500000 0.425735
O O18 0.250000 0.750000 0.500000
#
# Coordination Sequence:
#
# PCOD8087148 Si02
#       7
#     8   8   8   8   8   8   8
#     4   9  18  34  55  79 108 144 179 212 260 325
#     4   9  20  38  57  77 105 143 183 218 263 324
#     4  10  19  31  54  87 111 131 172 227 271 306
#     4  11  23  37  53  77 108 142 182 227 269 310
#     4   9  18  34  57  80 102 136 182 222 264 321
#     4  10  21  37  55  76 109 149 181 211 260 324
#     4  10  20  34  56  84 110 139 176 216 263 318
#
# _framework density 18.1601
#
# number of rings (size 3 to 8) (size 9 to 14) (size 15 to 20)
#    0.000    2.286    1.429    2.143    0.000    5.714 
#    0.000    3.571    0.000    4.286    0.000    0.000 
#    0.000    0.000    0.000    0.000    0.000    0.000 
#
# Total GULP energy -347263.447589 kJ/mol
# GULP energy per Si atom -12402.265985 kJ/mol
# Density = 1.811877 g / cm^3
# Si number density = 18.160100 Si / 1000 Ang^3
#
#
#
# Elastic Constant Matrix: (Units=GPa)
#
#
# Indices 1 2 3 4 5 6 
#
# 1 104.1399 45.7734 30.2837 -0.0026 -2.0370 0.0032
# 2 45.7734 70.1911 26.1740 -0.0089 -1.6354 0.0032
# 3 30.2837 26.1740 45.3481 -0.0121 -3.7317 0.0101
# 4 -0.0026 -0.0089 -0.0121 30.6567 0.0057 -1.0556
# 5 -2.0370 -1.6354 -3.7317 0.0057 23.4072 0.0021
# 6 0.0032 0.0032 0.0101 -1.0556 0.0021 30.1619
#
#
#
# Elastic Compliance Matrix: (Units=1/GPa)
#
#
# Indices 1 2 3 4 5 6 
#
# 1 0.014413 -0.007402 -0.005362 -0.000003 -0.000118 0.000001
# 2 -0.007402 0.021960 -0.007760 0.000003 -0.000347 0.000001
# 3 -0.005362 -0.007760 0.030428 0.000008 0.003842 -0.000009
# 4 -0.000003 0.000003 0.000008 0.032659 -0.000007 0.001143
# 5 -0.000118 -0.000347 0.003842 -0.000007 0.043300 -0.000005
# 6 0.000001 0.000001 -0.000009 0.001143 -0.000005 0.033194
#
#
# Mechanical properties :
#
#
# Convention : Reuss Voigt Hill
#
# Bulk Modulus (GPa) = 38.83309 47.12683 42.97996
# Shear Modulus (GPa) = 22.16445 24.67502 23.41974
#
# Velocity S-wave (km/s) = 3.49736 3.69012 3.59503
# Velocity P-wave (km/s) = 6.14320 6.64553 6.39929
#
# Compressibility (1/GPa) = 0.02575123
#
# Stress axis : x y z
#
# Youngs Moduli (GPa) = 69.38127 45.53815 32.86477
#
# Poissons Ratio (x) = 0.33709 0.17623
# Poissons Ratio (y) = 0.51358 0.25503
# Poissons Ratio (z) = 0.37205 0.35337
#
# Static dielectric constant tensor:
#      x y z
#    x 3.371080 0.000000 0.166640 
#    y 0.000000 3.337490 0.000000 
#    z 0.166640 0.000000 3.373800 
# 
# 
# High freq. dielectric constant tensor:
#      x y z
#    x 1.701890 0.000000 0.012680 
#    y 0.000000 1.703340 0.000000 
#    z 0.012680 0.000000 1.695330 
# 
# From -- ./inp_files/288262.got.cif
#   From: 2010.06.25/outbox.cif.g09.slc.cpg/sg12_145_cif.got.tgz:288262.got - 2010.06.28 00:19:55.
