data_PCOD8087765
_publ_section_title
;
Structure prediction by ZEFSAII (Michael W. Deem and Ramdas Pophale) SiO2 
 PCOD8087765
Probable space group: C 2/M
;
_chemical_formula_sum "Si O2"
_cell_formula_units_Z 64
_cell_length_a 12.628314
_cell_length_b 14.910286
_cell_length_c 19.340790
_cell_angle_alpha 90.000000
_cell_angle_beta 108.389895
_cell_angle_gamma 90.000000
_cell_volume 3455.735504
_symmetry_space_group_name_H-M "C 2/M"
_symmetry_group_IT_number 12
_symmetry_cell_setting 'monoclinic'
loop_
_space_group_symop_operation_xyz
x,y,z
-x,y,-z
-x,-y,-z
x,-y,z
1/2+x,1/2+y,z
1/2-x,1/2+y,-z
1/2-x,1/2-y,-z
1/2+x,1/2-y,z
loop_
_atom_site_type_symbol
_atom_site_label
_atom_site_fract_x
_atom_site_fract_y
_atom_site_fract_z
Si Si1 0.250585 0.104436 0.149657
Si Si2 0.680407 0.102129 0.375252
Si Si3 0.124909 0.762251 0.205628
Si Si4 0.191118 0.260448 0.649467
Si Si5 0.961174 0.684941 0.266871
Si Si6 0.383836 0.894865 0.889385
Si Si7 0.629586 0.101925 0.522923
Si Si8 0.365683 0.104761 0.038042
O O1 0.140401 0.158921 0.151918
O O2 0.360841 0.123090 0.218446
O O3 0.275171 0.136832 0.075808
O O4 0.221242 0.000000 0.147771
O O5 0.786770 0.160128 0.373125
O O6 0.567078 0.124949 0.310323
O O7 0.668153 0.120455 0.453544
O O8 0.710169 0.000000 0.365560
O O9 0.204257 0.791189 0.284041
O O10 0.169117 0.667836 0.180996
O O11 0.000898 0.752388 0.213204
O O12 0.079537 0.260957 0.673585
O O13 0.190440 0.330370 0.586671
O O14 0.510895 0.857976 0.920592
O O15 0.372331 0.000000 0.867063
O O16 0.325588 0.873806 0.951584
O O17 0.500000 0.121764 0.500000
O O18 0.656159 0.000000 0.551549
O O19 0.383678 0.000000 0.049172
#
# Coordination Sequence:
#
# PCOD8087765 Si02
#       8
#     8   8   8   8   8   8   8   8
#     4  10  19  32  51  76 106 138 174 219 260 305
#     4  10  20  34  56  82 102 133 176 213 256 311
#     4  10  21  31  49  80 107 138 176 209 262 312
#     4  10  21  34  51  79 111 136 167 218 262 303
#     4  10  19  34  51  75 108 140 175 213 257 306
#     4   9  16  30  51  78 107 133 170 219 263 304
#     4  10  19  34  58  83 102 131 174 217 263 307
#     4   8  15  28  51  78 102 133 171 217 267 302
#
# _framework density 18.519936999999999
#
# number of rings (size 3 to 8) (size 9 to 14) (size 15 to 20)
#    0.000    2.375    2.500    1.500    0.000    4.500 
#    0.000    0.625    0.000    1.875    0.000    1.750 
#    0.000    0.000    0.000    0.000    0.000    0.000 
#
# Total GULP energy -396512.479083 kJ/mol
# GULP energy per Si atom -12391.014971 kJ/mol
# Density = 1.847778 g / cm^3
# Si number density = 18.519937 Si / 1000 Ang^3
#
#
#
# Elastic Constant Matrix: (Units=GPa)
#
#
# Indices 1 2 3 4 5 6 
#
# 1 50.1078 42.1312 9.4869 0.0000 -17.8396 0.0000
# 2 42.1312 88.5930 20.5275 0.0000 -16.4895 0.0000
# 3 9.4869 20.5275 46.2110 0.0000 -6.8893 0.0000
# 4 0.0000 0.0000 0.0000 39.2017 0.0000 -1.5494
# 5 -17.8396 -16.4895 -6.8893 0.0000 15.8057 0.0000
# 6 0.0000 0.0000 0.0000 -1.5494 0.0000 25.3574
#
#
#
# Elastic Compliance Matrix: (Units=1/GPa)
#
#
# Indices 1 2 3 4 5 6 
#
# 1 0.045358 -0.015502 0.002990 0.000000 0.036325 0.000000
# 2 -0.015502 0.020163 -0.005611 0.000000 0.001093 0.000000
# 3 0.002990 -0.005611 0.024758 0.000000 0.008312 0.000000
# 4 0.000000 0.000000 0.000000 0.025571 0.000000 0.001562
# 5 0.036325 0.001093 0.008312 0.000000 0.109031 0.000000
# 6 0.000000 0.000000 0.000000 0.001562 0.000000 0.039532
#
#
# Mechanical properties :
#
#
# Convention : Reuss Voigt Hill
#
# Bulk Modulus (GPa) = 18.50761 36.57813 27.54287
# Shear Modulus (GPa) = 15.69021 23.59069 19.64045
#
# Velocity S-wave (km/s) = 2.91384 3.57290 3.26007
# Velocity P-wave (km/s) = 4.61905 6.06749 5.39213
#
# Compressibility (1/GPa) = 0.05403183
#
# Stress axis : x y z
#
# Youngs Moduli (GPa) = 22.04698 49.59497 40.39128
#
# Poissons Ratio (x) = 0.76882 -0.12076
# Poissons Ratio (y) = 0.34177 0.22665
# Poissons Ratio (z) = -0.06592 0.27829
#
# Static dielectric constant tensor:
#      x y z
#    x 3.665900 0.000000 -0.621810 
#    y 0.000000 3.317540 0.000000 
#    z -0.621810 0.000000 3.695590 
# 
# 
# High freq. dielectric constant tensor:
#      x y z
#    x 1.697100 0.000000 -0.036150 
#    y 0.000000 1.700690 0.000000 
#    z -0.036150 0.000000 1.724730 
# 
# From -- ./inp_files/305447.got.cif
#   From: 2010.06.25/outbox.cif.g09.slc.cpg/sg12_153_cif.got.tgz:305447.got - 2010.06.28 00:19:55.
