data_PCOD8087812
_publ_section_title
;
Structure prediction by ZEFSAII (Michael W. Deem and Ramdas Pophale) SiO2 
 PCOD8087812
Probable space group: C 2/M
;
_chemical_formula_sum "Si O2"
_cell_formula_units_Z 64
_cell_length_a 19.919031
_cell_length_b 9.084815
_cell_length_c 25.341998
_cell_angle_alpha 90.000000
_cell_angle_beta 51.844655
_cell_angle_gamma 90.000000
_cell_volume 3606.075024
_symmetry_space_group_name_H-M "C 2/M"
_symmetry_group_IT_number 12
_symmetry_cell_setting 'monoclinic'
loop_
_space_group_symop_operation_xyz
x,y,z
-x,y,-z
-x,-y,-z
x,-y,z
1/2+x,1/2+y,z
1/2-x,1/2+y,-z
1/2-x,1/2-y,-z
1/2+x,1/2-y,z
loop_
_atom_site_type_symbol
_atom_site_label
_atom_site_fract_x
_atom_site_fract_y
_atom_site_fract_z
Si Si1 0.994209 0.828583 0.163399
Si Si2 0.182564 0.828035 0.069370
Si Si3 0.423761 0.828014 0.574878
Si Si4 0.077261 0.667750 0.704523
Si Si5 0.444683 0.169468 0.685238
Si Si6 0.320080 0.674161 0.199109
Si Si7 0.246561 0.826718 0.336331
Si Si8 0.203355 0.174002 0.180213
O O1 0.979104 0.757827 0.227263
O O2 0.920169 0.785655 0.157785
O O3 0.087195 0.781842 0.096497
O O4 0.993254 0.000000 0.175727
O O5 0.193915 0.778270 0.124242
O O6 0.197727 0.000000 0.056004
O O7 0.250000 0.750000 0.000000
O O8 0.500000 0.777956 0.500000
O O9 0.450999 0.787151 0.621104
O O10 0.340775 0.736264 0.597334
O O11 0.403445 0.000000 0.578293
O O12 0.066934 0.500000 0.727161
O O13 0.177517 0.710314 0.658916
O O14 0.038903 0.695053 0.664812
O O15 0.377178 0.271923 0.747223
O O16 0.415642 0.000000 0.706155
O O17 0.304462 0.500000 0.205921
O O18 0.264092 0.742992 0.273159
O O19 0.289279 0.747221 0.159682
O O20 0.238359 0.000000 0.329236
O O21 0.211821 0.000000 0.182683
#
# Coordination Sequence:
#
# PCOD8087812 Si02
#       8
#     8   8   8   8   8   8   8   8
#     4   9  18  34  53  76 106 138 174 216 261 312
#     4  10  22  38  55  78 108 143 178 216 264 316
#     4  10  21  36  53  75 106 144 184 222 263 317
#     4   9  18  31  51  79 105 133 173 220 266 313
#     4  10  19  33  54  78 104 138 180 219 261 314
#     4  10  19  32  54  80 106 137 174 216 263 316
#     4  10  19  32  51  77 108 137 171 219 269 315
#     4  11  21  34  54  81 110 136 173 225 268 306
#
# _framework density 17.747827999999998
#
# number of rings (size 3 to 8) (size 9 to 14) (size 15 to 20)
#    0.000    2.125    2.500    1.125    0.000    2.750 
#    0.000    1.250    0.000    3.750    0.000    0.000 
#    0.000    0.000    0.000    0.000    0.000    0.000 
#
# Total GULP energy -396763.600232 kJ/mol
# GULP energy per Si atom -12398.862507 kJ/mol
# Density = 1.770743 g / cm^3
# Si number density = 17.747828 Si / 1000 Ang^3
#
#
#
# Elastic Constant Matrix: (Units=GPa)
#
#
# Indices 1 2 3 4 5 6 
#
# 1 142.4897 47.9283 69.9174 0.0000 -11.6659 0.0001
# 2 47.9283 59.9285 45.2656 0.0000 -5.4422 0.0006
# 3 69.9174 45.2656 118.5387 0.0000 -11.8740 0.0000
# 4 0.0000 0.0000 0.0000 26.4708 0.0000 -3.1475
# 5 -11.6659 -5.4422 -11.8740 0.0000 25.0684 0.0000
# 6 0.0001 0.0006 0.0000 -3.1475 0.0000 27.6453
#
#
#
# Elastic Compliance Matrix: (Units=1/GPa)
#
#
# Indices 1 2 3 4 5 6 
#
# 1 0.011119 -0.005494 -0.004264 0.000000 0.001962 0.000000
# 2 -0.005494 0.026184 -0.006766 0.000000 -0.000077 -0.000001
# 3 -0.004264 -0.006766 0.013846 0.000000 0.003105 0.000000
# 4 0.000000 0.000000 0.000000 0.038296 0.000000 0.004360
# 5 0.001962 -0.000077 0.003105 0.000000 0.042258 0.000000
# 6 0.000000 -0.000001 0.000000 0.004360 0.000000 0.036669
#
#
# Mechanical properties :
#
#
# Convention : Reuss Voigt Hill
#
# Bulk Modulus (GPa) = 55.24470 71.90883 63.57677
# Shear Modulus (GPa) = 24.10205 26.35994 25.23100
#
# Velocity S-wave (km/s) = 3.68914 3.85807 3.77455
# Velocity P-wave (km/s) = 7.02435 7.77504 7.40921
#
# Compressibility (1/GPa) = 0.01810128
#
# Stress axis : x y z
#
# Youngs Moduli (GPa) = 89.93874 38.19182 72.22459
#
# Poissons Ratio (x) = 0.20981 0.30795
# Poissons Ratio (y) = 0.49408 0.48867
# Poissons Ratio (z) = 0.38348 0.25841
#
# Static dielectric constant tensor:
#      x y z
#    x 3.801590 0.000000 -0.071120 
#    y 0.000000 3.304680 0.000000 
#    z -0.071120 0.000000 3.040830 
# 
# 
# High freq. dielectric constant tensor:
#      x y z
#    x 1.707940 0.000000 -0.007770 
#    y 0.000000 1.689940 0.000000 
#    z -0.007770 0.000000 1.650690 
# 
# From -- ./inp_files/319128.got.cif
#   From: 2010.06.25/outbox.cif.g09.slc.cpg/sg12_160_cif.got.tgz:319128.got - 2010.06.28 00:19:55.
