data_PCOD8087716
_publ_section_title
;
Structure prediction by ZEFSAII (Michael W. Deem and Ramdas Pophale) SiO2 
 PCOD8087716
Probable space group: C 2/M
;
_chemical_formula_sum "Si O2"
_cell_formula_units_Z 48
_cell_length_a 27.687968
_cell_length_b 8.886540
_cell_length_c 11.130934
_cell_angle_alpha 90.000000
_cell_angle_beta 101.796418
_cell_angle_gamma 90.000000
_cell_volume 2680.926598
_symmetry_space_group_name_H-M "C 2/M"
_symmetry_group_IT_number 12
_symmetry_cell_setting 'monoclinic'
loop_
_space_group_symop_operation_xyz
x,y,z
-x,y,-z
-x,-y,-z
x,-y,z
1/2+x,1/2+y,z
1/2-x,1/2+y,-z
1/2-x,1/2-y,-z
1/2+x,1/2-y,z
loop_
_atom_site_type_symbol
_atom_site_label
_atom_site_fract_x
_atom_site_fract_y
_atom_site_fract_z
Si Si1 0.294809 0.822318 0.594139
Si Si2 0.012393 0.330963 0.366705
Si Si3 0.682409 0.673668 0.895423
Si Si4 0.609191 0.325284 0.461112
Si Si5 0.083587 0.827185 0.721431
Si Si6 0.273000 0.674200 0.828671
O O1 0.250000 0.750000 0.500000
O O2 0.345578 0.772883 0.560522
O O3 0.294569 0.771136 0.731732
O O4 0.289545 0.000000 0.584341
O O5 0.023536 0.500000 0.329002
O O6 0.060063 0.227915 0.365724
O O7 0.000000 0.324893 0.500000
O O8 0.964901 0.268977 0.270887
O O9 0.693273 0.500000 0.867964
O O10 0.625984 0.716120 0.838043
O O11 0.717543 0.775899 0.831571
O O12 0.691387 0.704836 0.040154
O O13 0.618523 0.500000 0.437770
O O14 0.604133 0.293090 0.599553
O O15 0.067862 0.000000 0.723693
O O16 0.272061 0.500000 0.791242
#
# Coordination Sequence:
#
# PCOD8087716 Si02
#       6
#     8   8   8   8   8   8
#     4  12  24  37  53  74 102 134 169 207 250 301
#     4   9  17  29  46  71 102 133 166 204 246 293
#     4   9  18  33  53  76 103 134 169 210 252 297
#     4  10  19  32  51  75 104 135 166 203 250 300
#     4   9  17  30  50  75 101 130 165 205 249 296
#     4  10  20  34  52  75 103 135 170 207 252 301
#
# _framework density 17.904257999999999
#
# number of rings (size 3 to 8) (size 9 to 14) (size 15 to 20)
#    0.000    2.167    0.000    4.000    0.000    5.333 
#    0.000    0.000    0.000    1.000    0.000    7.000 
#    0.000    0.000    0.000    0.000    0.000    0.000 
#
# Total GULP energy -297661.024211 kJ/mol
# GULP energy per Si atom -12402.542675 kJ/mol
# Density = 1.786351 g / cm^3
# Si number density = 17.904258 Si / 1000 Ang^3
#
#
#
# Elastic Constant Matrix: (Units=GPa)
#
#
# Indices 1 2 3 4 5 6 
#
# 1 110.2872 54.6716 45.4542 0.0000 24.8299 0.0000
# 2 54.6716 118.0867 40.1605 0.0000 4.5167 0.0000
# 3 45.4542 40.1605 65.4394 0.0000 17.2277 0.0000
# 4 0.0000 0.0000 0.0000 24.5031 0.0000 0.9676
# 5 24.8299 4.5167 17.2277 0.0000 26.3437 0.0000
# 6 0.0000 0.0000 0.0000 0.9676 0.0000 37.3915
#
#
#
# Elastic Compliance Matrix: (Units=1/GPa)
#
#
# Indices 1 2 3 4 5 6 
#
# 1 0.016369 -0.005414 -0.005110 0.000000 -0.011159 0.000000
# 2 -0.005414 0.012689 -0.005795 0.000000 0.006717 0.000000
# 3 -0.005110 -0.005795 0.025195 0.000000 -0.010667 0.000000
# 4 0.000000 0.000000 0.000000 0.040853 0.000000 -0.001057
# 5 -0.011159 0.006717 -0.010667 0.000000 0.054302 0.000000
# 6 0.000000 0.000000 0.000000 -0.001057 0.000000 0.026771
#
#
# Mechanical properties :
#
#
# Convention : Reuss Voigt Hill
#
# Bulk Modulus (GPa) = 46.26260 63.82065 55.04163
# Shear Modulus (GPa) = 23.14577 27.88279 25.51428
#
# Velocity S-wave (km/s) = 3.59939 3.95058 3.77907
# Velocity P-wave (km/s) = 6.57032 7.51880 7.06050
#
# Compressibility (1/GPa) = 0.02161573
#
# Stress axis : x y z
#
# Youngs Moduli (GPa) = 61.08979 78.80932 39.69005
#
# Poissons Ratio (x) = 0.42668 0.20281
# Poissons Ratio (y) = 0.33074 0.23000
# Poissons Ratio (z) = 0.31216 0.45670
#
# Static dielectric constant tensor:
#      x y z
#    x 3.368280 0.000000 0.231130 
#    y 0.000000 3.504560 0.000000 
#    z 0.231130 0.000000 3.227970 
# 
# 
# High freq. dielectric constant tensor:
#      x y z
#    x 1.692190 0.000000 0.021140 
#    y 0.000000 1.704750 0.000000 
#    z 0.021140 0.000000 1.668480 
# 
# From -- ./inp_files/172383.got.cif
#   From: 2010.06.25/outbox.cif.g09.slc.cpg/sg12_87_cif.got.tgz:172383.got - 2010.06.28 00:19:55.
