data_PCOD8087595
_publ_section_title
;
Structure prediction by ZEFSAII (Michael W. Deem and Ramdas Pophale) SiO2 
 PCOD8087595
Probable space group: C 2/M
;
_chemical_formula_sum "Si O2"
_cell_formula_units_Z 56
_cell_length_a 21.866425
_cell_length_b 8.789878
_cell_length_c 18.233803
_cell_angle_alpha 90.000000
_cell_angle_beta 120.417407
_cell_angle_gamma 90.000000
_cell_volume 3022.222536
_symmetry_space_group_name_H-M "C 2/M"
_symmetry_group_IT_number 12
_symmetry_cell_setting 'monoclinic'
loop_
_space_group_symop_operation_xyz
x,y,z
-x,y,-z
-x,-y,-z
x,-y,z
1/2+x,1/2+y,z
1/2-x,1/2+y,-z
1/2-x,1/2-y,-z
1/2+x,1/2-y,z
loop_
_atom_site_type_symbol
_atom_site_label
_atom_site_fract_x
_atom_site_fract_y
_atom_site_fract_z
Si Si1 0.310480 0.327710 0.450787
Si Si2 0.833731 0.170950 0.628378
Si Si3 0.671954 0.818090 0.940458
Si Si4 0.039922 0.328263 0.955101
Si Si5 0.566951 0.321857 0.584288
Si Si6 0.537100 0.170259 0.238788
Si Si7 0.086138 0.178018 0.759722
O O1 0.281598 0.500000 0.425437
O O2 0.247593 0.208491 0.405741
O O3 0.350846 0.309836 0.552639
O O4 0.363737 0.284439 0.419420
O O5 0.880975 0.287333 0.703111
O O6 0.848644 0.000000 0.664020
O O7 0.614928 0.759689 0.968480
O O8 0.644691 0.766554 0.843680
O O9 0.675470 0.000000 0.943742
O O10 0.750000 0.750000 0.000000
O O11 0.057837 0.500000 0.990136
O O12 0.980595 0.321891 0.857082
O O13 0.000000 0.244662 0.000000
O O14 0.500000 0.248085 0.500000
O O15 0.551874 0.500000 0.583880
O O16 0.582384 0.255547 0.674692
O O17 0.491694 0.293867 0.255171
O O18 0.522338 0.000000 0.259785
O O19 0.104916 0.000000 0.773060
#
# Coordination Sequence:
#
# PCOD8087595 Si02
#       7
#     8   8   8   8   8   8   8
#     4   9  18  33  51  71  99 135 175 215 252 302
#     4  10  19  32  51  73 100 134 171 213 261 309
#     4  10  20  36  58  81 109 143 180 223 274 329
#     4   8  16  33  55  78 100 128 173 222 257 304
#     4   9  17  31  52  77 103 135 177 218 256 305
#     4  10  19  32  53  77 102 133 169 211 259 312
#     4  10  19  33  55  80 106 137 177 220 261 313
#
# _framework density 18.529409000000001
#
# number of rings (size 3 to 8) (size 9 to 14) (size 15 to 20)
#    0.000    2.571    0.000    3.429    0.000    2.857 
#    2.571    1.429    0.000   17.571    0.000    0.000 
#    0.000    0.000    0.000    0.000    0.000    0.000 
#
# Total GULP energy -347007.196036 kJ/mol
# GULP energy per Si atom -12393.114144 kJ/mol
# Density = 1.848724 g / cm^3
# Si number density = 18.529409 Si / 1000 Ang^3
#
#
#
# Elastic Constant Matrix: (Units=GPa)
#
#
# Indices 1 2 3 4 5 6 
#
# 1 97.4128 28.5609 73.6790 0.0000 -11.9311 0.0000
# 2 28.5609 55.4464 37.9082 0.0000 1.3647 0.0000
# 3 73.6790 37.9082 115.0539 0.0000 0.9273 0.0000
# 4 0.0000 0.0000 0.0000 27.7560 0.0000 5.4633
# 5 -11.9311 1.3647 0.9273 0.0000 32.7154 0.0000
# 6 0.0000 0.0000 0.0000 5.4633 0.0000 18.6585
#
#
#
# Elastic Compliance Matrix: (Units=1/GPa)
#
#
# Indices 1 2 3 4 5 6 
#
# 1 0.022261 -0.002433 -0.013524 0.000000 0.008603 0.000000
# 2 -0.002433 0.023564 -0.006192 0.000000 -0.001695 0.000000
# 3 -0.013524 -0.006192 0.019434 0.000000 -0.005224 0.000000
# 4 0.000000 0.000000 0.000000 0.038232 0.000000 -0.011194
# 5 0.008603 -0.001695 -0.005224 0.000000 0.033923 0.000000
# 6 0.000000 0.000000 0.000000 -0.011194 0.000000 0.056873
#
#
# Mechanical properties :
#
#
# Convention : Reuss Voigt Hill
#
# Bulk Modulus (GPa) = 47.70516 60.91216 54.30866
# Shear Modulus (GPa) = 20.36066 24.34365 22.35215
#
# Velocity S-wave (km/s) = 3.31846 3.62855 3.47696
# Velocity P-wave (km/s) = 6.36274 7.10632 6.74478
#
# Compressibility (1/GPa) = 0.02096209
#
# Stress axis : x y z
#
# Youngs Moduli (GPa) = 44.92095 42.43774 51.45535
#
# Poissons Ratio (x) = 0.10324 0.69586
# Poissons Ratio (y) = 0.10928 0.31863
# Poissons Ratio (z) = 0.60750 0.26279
#
# Static dielectric constant tensor:
#      x y z
#    x 3.404370 0.000000 -0.072270 
#    y 0.000000 3.197440 0.000000 
#    z -0.072270 0.000000 3.491670 
# 
# 
# High freq. dielectric constant tensor:
#      x y z
#    x 1.716840 0.000000 0.002340 
#    y 0.000000 1.696300 0.000000 
#    z 0.002340 0.000000 1.719370 
# 
# From -- ./inp_files/281661.got.cif
#   From: 2010.06.25/outbox.cif.g09.slc.cpg/sg12_141_cif.got.tgz:281661.got - 2010.06.28 00:19:55.
