data_PCOD8087917
_publ_section_title
;
Structure prediction by ZEFSAII (Michael W. Deem and Ramdas Pophale) SiO2 
 PCOD8087917
Probable space group: C 2/M
;
_chemical_formula_sum "Si O2"
_cell_formula_units_Z 56
_cell_length_a 18.837699
_cell_length_b 9.069140
_cell_length_c 25.043366
_cell_angle_alpha 90.000000
_cell_angle_beta 133.972400
_cell_angle_gamma 90.000000
_cell_volume 3079.092096
_symmetry_space_group_name_H-M "C 2/M"
_symmetry_group_IT_number 12
_symmetry_cell_setting 'monoclinic'
loop_
_space_group_symop_operation_xyz
x,y,z
-x,y,-z
-x,-y,-z
x,-y,z
1/2+x,1/2+y,z
1/2-x,1/2+y,-z
1/2-x,1/2-y,-z
1/2+x,1/2-y,z
loop_
_atom_site_type_symbol
_atom_site_label
_atom_site_fract_x
_atom_site_fract_y
_atom_site_fract_z
Si Si1 0.019158 0.668154 0.072565
Si Si2 0.117007 0.665426 0.402916
Si Si3 0.175207 0.175349 0.002839
Si Si4 0.206930 0.171097 0.141710
Si Si5 0.218639 0.331205 0.564868
Si Si6 0.404520 0.673522 0.419289
Si Si7 0.102004 0.666934 0.693352
O O1 0.020747 0.500000 0.094376
O O2 0.126672 0.741742 0.135647
O O3 0.000000 0.675885 0.000000
O O4 0.935140 0.757286 0.061481
O O5 0.155124 0.500000 0.410035
O O6 0.139553 0.700510 0.476743
O O7 0.172225 0.783205 0.395340
O O8 0.001725 0.680776 0.330155
O O9 0.210484 0.215336 0.081184
O O10 0.172201 0.000000 0.991234
O O11 0.250000 0.250000 0.000000
O O12 0.313663 0.210827 0.220899
O O13 0.180038 0.000000 0.133133
O O14 0.221036 0.500000 0.583128
O O15 0.191793 0.236506 0.602348
O O16 0.500000 0.738043 0.500000
O O17 0.403379 0.500000 0.421738
O O18 0.399936 0.720573 0.356002
O O19 0.116617 0.500000 0.679611
#
# Coordination Sequence:
#
# PCOD8087917 Si02
#       7
#     8   8   8   8   8   8   8
#     4   9  17  31  53  79 107 140 177 213 253 307
#     4   9  18  32  51  74 100 132 170 215 267 319
#     4  10  19  33  55  83 111 141 179 219 262 310
#     4   9  19  35  55  79 107 139 175 217 265 317
#     4  10  19  32  52  74  98 131 174 220 266 316
#     4  11  22  34  51  76 104 134 174 222 265 311
#     4  10  20  36  56  77 104 138 175 218 271 322
#
# _framework density 18.187180999999999
#
# number of rings (size 3 to 8) (size 9 to 14) (size 15 to 20)
#    0.000    2.286    1.429    1.714    0.000    4.571 
#    0.000    1.429    0.000    5.143    0.000    0.000 
#    0.000    0.000    0.000    0.000    0.000    0.000 
#
# Total GULP energy -347192.505159 kJ/mol
# GULP energy per Si atom -12399.732327 kJ/mol
# Density = 1.814579 g / cm^3
# Si number density = 18.187181 Si / 1000 Ang^3
#
#
#
# Elastic Constant Matrix: (Units=GPa)
#
#
# Indices 1 2 3 4 5 6 
#
# 1 113.1030 56.8047 44.8258 0.0000 15.4005 0.0000
# 2 56.8047 91.0698 37.2764 0.0000 6.4634 0.0000
# 3 44.8258 37.2764 84.7099 0.0000 20.1523 0.0000
# 4 0.0000 0.0000 0.0000 19.8413 0.0000 2.1398
# 5 15.4005 6.4634 20.1523 0.0000 27.0861 0.0000
# 6 0.0000 0.0000 0.0000 2.1398 0.0000 37.8805
#
#
#
# Elastic Compliance Matrix: (Units=1/GPa)
#
#
# Indices 1 2 3 4 5 6 
#
# 1 0.014412 -0.007281 -0.003507 0.000000 -0.003848 0.000000
# 2 -0.007281 0.017118 -0.004487 0.000000 0.003393 0.000000
# 3 -0.003507 -0.004487 0.018112 0.000000 -0.010411 0.000000
# 4 0.000000 0.000000 0.000000 0.050709 0.000000 -0.002864
# 5 -0.003848 0.003393 -0.010411 0.000000 0.046043 0.000000
# 6 0.000000 0.000000 0.000000 -0.002864 0.000000 0.026561
#
#
# Mechanical properties :
#
#
# Convention : Reuss Voigt Hill
#
# Bulk Modulus (GPa) = 52.37882 62.96628 57.67255
# Shear Modulus (GPa) = 23.82438 26.95995 25.39216
#
# Velocity S-wave (km/s) = 3.62326 3.85432 3.74057
# Velocity P-wave (km/s) = 6.80928 7.38269 7.10178
#
# Compressibility (1/GPa) = 0.01909169
#
# Stress axis : x y z
#
# Youngs Moduli (GPa) = 69.38580 58.41837 55.21161
#
# Poissons Ratio (x) = 0.42534 0.19363
# Poissons Ratio (y) = 0.50520 0.24774
# Poissons Ratio (z) = 0.24335 0.26213
#
# Static dielectric constant tensor:
#      x y z
#    x 3.355630 0.000000 0.209670 
#    y 0.000000 3.409660 0.000000 
#    z 0.209670 0.000000 3.191380 
# 
# 
# High freq. dielectric constant tensor:
#      x y z
#    x 1.704920 0.000000 0.017750 
#    y 0.000000 1.712360 0.000000 
#    z 0.017750 0.000000 1.675520 
# 
# From -- ./inp_files/362498.got.cif
#   From: 2010.06.25/outbox.cif.g09.slc.cpg/sg12_182_cif.got.tgz:362498.got - 2010.06.28 00:19:55.
