data_PCOD8087884
_publ_section_title
;
Structure prediction by ZEFSAII (Michael W. Deem and Ramdas Pophale) SiO2 
 PCOD8087884
Probable space group: C 2/M
;
_chemical_formula_sum "Si O2"
_cell_formula_units_Z 64
_cell_length_a 25.135074
_cell_length_b 9.243340
_cell_length_c 18.149480
_cell_angle_alpha 90.000000
_cell_angle_beta 62.065364
_cell_angle_gamma 90.000000
_cell_volume 3725.386043
_symmetry_space_group_name_H-M "C 2/M"
_symmetry_group_IT_number 12
_symmetry_cell_setting 'monoclinic'
loop_
_space_group_symop_operation_xyz
x,y,z
-x,y,-z
-x,-y,-z
x,-y,z
1/2+x,1/2+y,z
1/2-x,1/2+y,-z
1/2-x,1/2-y,-z
1/2+x,1/2-y,z
loop_
_atom_site_type_symbol
_atom_site_label
_atom_site_fract_x
_atom_site_fract_y
_atom_site_fract_z
Si Si1 0.745390 0.330352 0.669879
Si Si2 0.837905 0.170126 0.514001
Si Si3 0.620857 0.827800 0.149414
Si Si4 0.488654 0.832685 0.281519
Si Si5 0.696475 0.330875 0.994714
Si Si6 0.547328 0.167099 0.530781
Si Si7 0.273501 0.167388 0.812481
Si Si8 0.125330 0.165819 0.672801
O O1 0.760575 0.500000 0.652175
O O2 0.778322 0.244461 0.583804
O O3 0.764961 0.264546 0.736703
O O4 0.673761 0.305556 0.705789
O O5 0.894837 0.233802 0.521125
O O6 0.844471 0.212794 0.424153
O O7 0.833691 0.000000 0.529477
O O8 0.554129 0.777397 0.214276
O O9 0.635588 0.748004 0.061969
O O10 0.668030 0.771364 0.181589
O O11 0.626497 0.000000 0.135266
O O12 0.483068 0.799126 0.371378
O O13 0.435571 0.753953 0.270912
O O14 0.481792 0.000000 0.268036
O O15 0.694963 0.500000 0.016720
O O16 0.750000 0.250000 0.000000
O O17 0.710855 0.310189 0.898452
O O18 0.500000 0.211095 0.500000
O O19 0.566924 0.000000 0.511535
O O20 0.285993 0.000000 0.792194
O O21 0.105722 0.000000 0.681333
#
# Coordination Sequence:
#
# PCOD8087884 Si02
#       8
#     8   8   8   8   8   8   8   8
#     4  10  19  32  52  71  90 123 163 202 235 274
#     4  10  20  32  45  67  98 126 155 196 242 282
#     4   9  17  30  49  73  98 122 151 190 232 281
#     4   9  18  31  49  71  93 122 159 196 233 275
#     4   9  16  29  48  70  96 125 152 185 231 281
#     4   9  18  31  49  68  90 125 164 196 228 275
#     4   8  16  29  48  72  96 118 149 195 236 270
#     4   9  19  34  49  67  93 125 162 200 238 274
#
# _framework density 17.179428000000001
#
# number of rings (size 3 to 8) (size 9 to 14) (size 15 to 20)
#    0.000    2.875    0.000    1.875    1.750    1.750 
#    0.000    3.125    0.000    0.750    0.000    5.250 
#    0.000    0.000    0.000    0.000    0.000    0.000 
#
# Total GULP energy -396637.674041 kJ/mol
# GULP energy per Si atom -12394.927314 kJ/mol
# Density = 1.714033 g / cm^3
# Si number density = 17.179428 Si / 1000 Ang^3
#
#
#
# Elastic Constant Matrix: (Units=GPa)
#
#
# Indices 1 2 3 4 5 6 
#
# 1 89.1175 32.2036 46.9640 0.0000 -15.5730 -0.0002
# 2 32.2036 51.5058 34.4304 0.0001 -10.3332 -0.0006
# 3 46.9640 34.4304 84.3960 0.0000 -20.5880 0.0000
# 4 0.0000 0.0001 0.0000 26.6996 0.0000 -7.6458
# 5 -15.5730 -10.3332 -20.5880 0.0000 24.1798 0.0000
# 6 -0.0002 -0.0006 0.0000 -7.6458 0.0000 24.9536
#
#
#
# Elastic Compliance Matrix: (Units=1/GPa)
#
#
# Indices 1 2 3 4 5 6 
#
# 1 0.017295 -0.005861 -0.006471 0.000000 0.003125 0.000000
# 2 -0.005861 0.028822 -0.008094 0.000000 0.001650 0.000001
# 3 -0.006471 -0.008094 0.021320 0.000000 0.010526 0.000000
# 4 0.000000 0.000000 0.000000 0.041056 0.000000 0.012580
# 5 0.003125 0.001650 0.010526 0.000000 0.053037 0.000000
# 6 0.000000 0.000001 0.000000 0.012580 0.000000 0.043929
#
#
# Mechanical properties :
#
#
# Convention : Reuss Voigt Hill
#
# Bulk Modulus (GPa) = 37.61619 50.24614 43.93116
# Shear Modulus (GPa) = 19.59463 22.59471 21.09467
#
# Velocity S-wave (km/s) = 3.38092 3.63053 3.50795
# Velocity P-wave (km/s) = 6.09790 6.84731 6.48344
#
# Compressibility (1/GPa) = 0.02658430
#
# Stress axis : x y z
#
# Youngs Moduli (GPa) = 57.81930 34.69612 46.90514
#
# Poissons Ratio (x) = 0.20336 0.30352
# Poissons Ratio (y) = 0.33889 0.37965
# Poissons Ratio (z) = 0.37415 0.28083
#
# Static dielectric constant tensor:
#      x y z
#    x 3.243460 0.000000 -0.110320 
#    y 0.000000 3.147540 0.000000 
#    z -0.110320 0.000000 3.574350 
# 
# 
# High freq. dielectric constant tensor:
#      x y z
#    x 1.648580 0.000000 -0.009370 
#    y 0.000000 1.650820 0.000000 
#    z -0.009370 0.000000 1.655170 
# 
# From -- ./inp_files/323697.got.cif
#   From: 2010.06.25/outbox.cif.g09.slc.cpg/sg12_162_cif.got.tgz:323697.got - 2010.06.28 00:19:55.
