data_PCOD8087125
_publ_section_title
;
Structure prediction by ZEFSAII (Michael W. Deem and Ramdas Pophale) SiO2 
 PCOD8087125
Probable space group: C 2/M
;
_chemical_formula_sum "Si O2"
_cell_formula_units_Z 56
_cell_length_a 32.144787
_cell_length_b 15.162755
_cell_length_c 8.232814
_cell_angle_alpha 90.000000
_cell_angle_beta 48.650112
_cell_angle_gamma 90.000000
_cell_volume 3012.292423
_symmetry_space_group_name_H-M "C 2/M"
_symmetry_group_IT_number 12
_symmetry_cell_setting 'monoclinic'
loop_
_space_group_symop_operation_xyz
x,y,z
-x,y,-z
-x,-y,-z
x,-y,z
1/2+x,1/2+y,z
1/2-x,1/2+y,-z
1/2-x,1/2-y,-z
1/2+x,1/2-y,z
loop_
_atom_site_type_symbol
_atom_site_label
_atom_site_fract_x
_atom_site_fract_y
_atom_site_fract_z
Si Si1 0.773886 0.796876 0.595289
Si Si2 0.623157 0.751501 0.475892
Si Si3 0.045121 0.598031 0.616175
Si Si4 0.925040 0.401351 0.837200
Si Si5 0.438131 0.600213 0.196245
Si Si6 0.838281 0.264169 0.990330
Si Si7 0.656262 0.402357 0.801235
O O1 0.750000 0.750000 0.500000
O O2 0.822384 0.738960 0.553307
O O3 0.801029 0.887729 0.460374
O O4 0.722989 0.809323 0.852209
O O5 0.582971 0.834004 0.619239
O O6 0.589583 0.661756 0.595820
O O7 0.640962 0.751066 0.243872
O O8 0.055349 0.500000 0.660877
O O9 0.061317 0.600273 0.387159
O O10 0.979981 0.622857 0.799265
O O11 0.904375 0.500000 0.937873
O O12 0.878090 0.328333 0.993222
O O13 0.437617 0.500000 0.265135
O O14 0.405613 0.606336 0.109600
O O15 0.500000 0.632818 0.000000
O O16 0.835390 0.167951 0.078138
O O17 0.666710 0.500000 0.845696
#
# Coordination Sequence:
#
# PCOD8087125 Si02
#       7
#     8   8   8   8   8   8   8
#     4   9  19  36  52  71 102 142 178 215 264 328
#     4  10  19  32  55  80 103 136 176 229 272 308
#     4   8  15  29  48  74 108 135 163 206 262 319
#     4   8  15  28  47  74 107 139 165 202 259 321
#     4   9  19  35  52  71 100 142 181 210 255 324
#     4  10  19  31  54  82 106 131 178 227 271 310
#     4   9  19  35  52  72 103 141 176 214 264 317
#
# _framework density 18.590494
#
# number of rings (size 3 to 8) (size 9 to 14) (size 15 to 20)
#    0.000    3.000    0.000    1.286    2.000    1.143 
#    0.000    2.857    0.000   13.286    0.000    0.000 
#    0.000    0.000    0.000    0.000    0.000    0.000 
#
# Total GULP energy -347005.892255 kJ/mol
# GULP energy per Si atom -12393.067581 kJ/mol
# Density = 1.854818 g / cm^3
# Si number density = 18.590494 Si / 1000 Ang^3
#
#
#
# Elastic Constant Matrix: (Units=GPa)
#
#
# Indices 1 2 3 4 5 6 
#
# 1 102.1747 59.6847 46.1298 0.0000 -25.9936 0.0000
# 2 59.6847 121.5922 45.8866 0.0000 -17.4994 0.0000
# 3 46.1298 45.8866 83.7516 0.0000 -20.9482 0.0000
# 4 0.0000 0.0000 0.0000 20.5731 0.0000 1.5802
# 5 -25.9936 -17.4994 -20.9482 0.0000 31.9194 0.0000
# 6 0.0000 0.0000 0.0000 1.5802 0.0000 24.9674
#
#
#
# Elastic Compliance Matrix: (Units=1/GPa)
#
#
# Indices 1 2 3 4 5 6 
#
# 1 0.017026 -0.005577 -0.004330 0.000000 0.007966 0.000000
# 2 -0.005577 0.012343 -0.003750 0.000000 -0.000236 0.000000
# 3 -0.004330 -0.003750 0.017926 0.000000 0.006183 0.000000
# 4 0.000000 0.000000 0.000000 0.048845 0.000000 -0.003091
# 5 0.007966 -0.000236 0.006183 0.000000 0.041745 0.000000
# 6 0.000000 0.000000 0.000000 -0.003091 0.000000 0.040248
#
#
# Mechanical properties :
#
#
# Convention : Reuss Voigt Hill
#
# Bulk Modulus (GPa) = 50.04546 67.88009 58.96277
# Shear Modulus (GPa) = 23.57309 25.87981 24.72645
#
# Velocity S-wave (km/s) = 3.56479 3.73513 3.65095
# Velocity P-wave (km/s) = 6.62737 7.42928 7.03975
#
# Compressibility (1/GPa) = 0.01998183
#
# Stress axis : x y z
#
# Youngs Moduli (GPa) = 58.73203 81.01817 55.78557
#
# Poissons Ratio (x) = 0.45185 0.24155
# Poissons Ratio (y) = 0.32755 0.20918
# Poissons Ratio (z) = 0.25430 0.30379
#
# Static dielectric constant tensor:
#      x y z
#    x 3.500630 0.000000 -0.475520 
#    y 0.000000 3.569750 0.000000 
#    z -0.475520 0.000000 3.586050 
# 
# 
# High freq. dielectric constant tensor:
#      x y z
#    x 1.716640 0.000000 -0.021640 
#    y 0.000000 1.716430 0.000000 
#    z -0.021640 0.000000 1.711040 
# 
# From -- ./inp_files/111569.got.cif
#   From: 2010.06.25/outbox.cif.g09.slc.cpg/sg12_56_cif.got.tgz:111569.got - 2010.06.28 00:19:55.
