data_PCOD8087818
_publ_section_title
;
Structure prediction by ZEFSAII (Michael W. Deem and Ramdas Pophale) SiO2 
 PCOD8087818
Probable space group: C 2/M
;
_chemical_formula_sum "Si O2"
_cell_formula_units_Z 64
_cell_length_a 21.181637
_cell_length_b 16.441420
_cell_length_c 19.872836
_cell_angle_alpha 90.000000
_cell_angle_beta 150.077854
_cell_angle_gamma 90.000000
_cell_volume 3452.271700
_symmetry_space_group_name_H-M "C 2/M"
_symmetry_group_IT_number 12
_symmetry_cell_setting 'monoclinic'
loop_
_space_group_symop_operation_xyz
x,y,z
-x,y,-z
-x,-y,-z
x,-y,z
1/2+x,1/2+y,z
1/2-x,1/2+y,-z
1/2-x,1/2-y,-z
1/2+x,1/2-y,z
loop_
_atom_site_type_symbol
_atom_site_label
_atom_site_fract_x
_atom_site_fract_y
_atom_site_fract_z
Si Si1 0.617685 0.409557 0.242289
Si Si2 0.269114 0.274073 0.179544
Si Si3 0.852524 0.592393 0.547672
Si Si4 0.963307 0.674386 0.775111
Si Si5 0.378001 0.327481 0.064145
Si Si6 0.206873 0.748283 0.270500
Si Si7 0.214473 0.593774 0.027922
Si Si8 0.029037 0.304919 0.452548
O O1 0.636039 0.500000 0.228357
O O2 0.706867 0.398599 0.390352
O O3 0.472235 0.399661 0.129835
O O4 0.656192 0.341663 0.223292
O O5 0.202368 0.282862 0.190189
O O6 0.264394 0.362680 0.141298
O O7 0.414276 0.248554 0.319370
O O8 0.192969 0.207399 0.066533
O O9 0.886892 0.500000 0.597830
O O10 0.871144 0.649501 0.629488
O O11 0.946030 0.619553 0.573857
O O12 0.880946 0.690373 0.765725
O O13 0.040120 0.755723 0.825471
O O14 0.062724 0.602386 0.882089
O O15 0.275492 0.361979 0.020336
O O16 0.348815 0.745959 0.431368
O O17 0.253552 0.500000 0.066977
O O18 0.000000 0.340722 0.500000
#
# Coordination Sequence:
#
# PCOD8087818 Si02
#       8
#     8   8   8   8   8   8   8   8
#     4   9  19  34  52  78 108 135 169 215 262 306
#     4  10  20  37  56  77 103 139 176 208 256 312
#     4  10  19  32  51  77 109 139 172 217 263 302
#     4  10  20  34  53  78 103 137 178 214 253 307
#     4  10  20  34  54  76 105 137 171 212 254 312
#     4   9  20  36  56  77 103 137 177 217 253 305
#     4  11  22  35  53  78 107 135 170 217 261 305
#     4   9  18  34  57  80 102 134 175 215 258 313
#
# _framework density 18.538516999999999
#
# number of rings (size 3 to 8) (size 9 to 14) (size 15 to 20)
#    0.000    2.250    0.000    3.750    0.000   10.250 
#    0.000    6.250    0.000    4.125    0.000    0.000 
#    0.000    0.000    0.000    0.000    0.000    0.000 
#
# Total GULP energy -396804.989973 kJ/mol
# GULP energy per Si atom -12400.155937 kJ/mol
# Density = 1.849632 g / cm^3
# Si number density = 18.538517 Si / 1000 Ang^3
#
#
#
# Elastic Constant Matrix: (Units=GPa)
#
#
# Indices 1 2 3 4 5 6 
#
# 1 131.4709 51.7640 56.7476 0.0007 -0.4883 0.0007
# 2 51.7640 90.6325 41.0934 0.0008 -8.2818 0.0008
# 3 56.7476 41.0934 87.0966 0.0005 1.4054 0.0006
# 4 0.0007 0.0008 0.0005 20.3018 0.0006 3.2000
# 5 -0.4883 -8.2818 1.4054 0.0006 31.2771 0.0006
# 6 0.0007 0.0008 0.0006 3.2000 0.0006 15.5298
#
#
#
# Elastic Compliance Matrix: (Units=1/GPa)
#
#
# Indices 1 2 3 4 5 6 
#
# 1 0.011678 -0.004180 -0.005625 0.000000 -0.000672 0.000000
# 2 -0.004180 0.016056 -0.004923 0.000000 0.004407 -0.000001
# 3 -0.005625 -0.004923 0.017505 0.000000 -0.002178 0.000000
# 4 0.000000 0.000000 0.000000 0.050910 -0.000001 -0.010490
# 5 -0.000672 0.004407 -0.002178 -0.000001 0.033227 -0.000001
# 6 0.000000 -0.000001 0.000000 -0.010490 -0.000001 0.066554
#
#
# Mechanical properties :
#
#
# Convention : Reuss Voigt Hill
#
# Bulk Modulus (GPa) = 63.36744 67.60111 65.48428
# Shear Modulus (GPa) = 21.67818 24.06142 22.86980
#
# Velocity S-wave (km/s) = 3.42330 3.60657 3.51613
# Velocity P-wave (km/s) = 7.06265 7.34081 7.20307
#
# Compressibility (1/GPa) = 0.01578098
#
# Stress axis : x y z
#
# Youngs Moduli (GPa) = 85.63203 62.28217 57.12811
#
# Poissons Ratio (x) = 0.26037 0.32137
# Poissons Ratio (y) = 0.35798 0.28123
# Poissons Ratio (z) = 0.48172 0.30660
#
# Static dielectric constant tensor:
#      x y z
#    x 3.434240 0.000000 0.167580 
#    y 0.000000 3.273180 0.000000 
#    z 0.167580 0.000000 3.551080 
# 
# 
# High freq. dielectric constant tensor:
#      x y z
#    x 1.718890 0.000000 0.010720 
#    y 0.000000 1.699950 0.000000 
#    z 0.010720 0.000000 1.728560 
# 
# From -- ./inp_files/285233.got.cif
#   From: 2010.06.25/outbox.cif.g09.slc.cpg/sg12_143_cif.got.tgz:285233.got - 2010.06.28 00:19:55.
