data_PCOD8087182
_publ_section_title
;
Structure prediction by ZEFSAII (Michael W. Deem and Ramdas Pophale) SiO2 
 PCOD8087182
Probable space group: C 2/M
;
_chemical_formula_sum "Si O2"
_cell_formula_units_Z 64
_cell_length_a 13.748901
_cell_length_b 15.584623
_cell_length_c 23.377015
_cell_angle_alpha 90.000000
_cell_angle_beta 34.513905
_cell_angle_gamma 90.000000
_cell_volume 2838.145678
_symmetry_space_group_name_H-M "C 2/M"
_symmetry_group_IT_number 12
_symmetry_cell_setting 'monoclinic'
loop_
_space_group_symop_operation_xyz
x,y,z
-x,y,-z
-x,-y,-z
x,-y,z
1/2+x,1/2+y,z
1/2-x,1/2+y,-z
1/2-x,1/2-y,-z
1/2+x,1/2-y,z
loop_
_atom_site_type_symbol
_atom_site_label
_atom_site_fract_x
_atom_site_fract_y
_atom_site_fract_z
Si Si1 0.537615 0.598926 0.192574
Si Si2 0.754752 0.898942 0.242066
Si Si3 0.654775 0.191998 0.001497
Si Si4 0.181834 0.846452 0.911091
Si Si5 0.941569 0.102509 0.361858
Si Si6 0.564315 0.899666 0.528227
Si Si7 0.512989 0.900656 0.822411
Si Si8 0.615854 0.398155 0.391710
O O1 0.493278 0.500000 0.218808
O O2 0.397124 0.638030 0.216974
O O3 0.726230 0.613404 0.076551
O O4 0.521672 0.639291 0.263788
O O5 0.760529 0.842009 0.182376
O O6 0.568143 0.880801 0.357482
O O7 0.781690 0.000000 0.215375
O O8 0.622316 0.252437 0.962720
O O9 0.750000 0.250000 0.000000
O O10 0.492958 0.150060 0.113618
O O11 0.336215 0.887091 0.873026
O O12 0.000000 0.900272 0.000000
O O13 0.747045 0.137493 0.459144
O O14 0.042132 0.139534 0.367886
O O15 0.951816 0.000000 0.358329
O O16 0.500000 0.856885 0.500000
O O17 0.587374 0.000000 0.505610
O O18 0.681358 0.871292 0.704272
O O19 0.532404 0.000000 0.828312
O O20 0.500000 0.359935 0.500000
O O21 0.599311 0.500000 0.401657
#
# Coordination Sequence:
#
# PCOD8087182 Si02
#       8
#     8   8   8   8   8   8   8   8
#     4  10  19  35  61  92 119 150 196 255 307 357
#     4  10  19  31  56  92 126 154 191 248 309 363
#     4  10  22  39  57  81 115 163 200 241 299 364
#     4  11  24  39  57  88 122 165 202 245 311 375
#     4   9  17  30  51  83 121 153 190 241 298 354
#     4   9  15  27  49  86 125 154 188 238 303 362
#     4  10  21  39  63  92 122 156 206 260 305 358
#     4   9  19  34  54  85 124 161 196 243 301 359
#
# _framework density 22.549935000000001
#
# number of rings (size 3 to 8) (size 9 to 14) (size 15 to 20)
#    0.000    2.250    1.250    2.250    1.750    3.000 
#    0.000    0.000    0.000    4.500   19.500    0.000 
#    0.000    0.000    0.000    0.000    0.000    0.125 
#
# Total GULP energy -396475.289147 kJ/mol
# GULP energy per Si atom -12389.852786 kJ/mol
# Density = 2.249861 g / cm^3
# Si number density = 22.549935 Si / 1000 Ang^3
#
#
#
# Elastic Constant Matrix: (Units=GPa)
#
#
# Indices 1 2 3 4 5 6 
#
# 1 136.6203 20.7731 70.5048 0.0008 12.7076 -0.0003
# 2 20.7731 34.7752 30.0939 -0.0005 9.3615 0.0000
# 3 70.5048 30.0939 188.7695 -0.0036 5.7840 0.0003
# 4 0.0008 -0.0005 -0.0036 12.4468 0.0003 8.2306
# 5 12.7076 9.3615 5.7840 0.0003 48.5252 0.0001
# 6 -0.0003 0.0000 0.0003 8.2306 0.0001 18.6865
#
#
#
# Elastic Compliance Matrix: (Units=1/GPa)
#
#
# Indices 1 2 3 4 5 6 
#
# 1 0.009442 -0.002548 -0.003071 -0.000002 -0.001615 0.000001
# 2 -0.002548 0.035770 -0.004577 0.000001 -0.005688 0.000000
# 3 -0.003071 -0.004577 0.007148 0.000003 0.000835 -0.000002
# 4 -0.000002 0.000001 0.000003 0.113358 -0.000001 -0.049929
# 5 -0.001615 -0.005688 0.000835 -0.000001 0.022029 0.000000
# 6 0.000001 0.000000 -0.000002 -0.049929 0.000000 0.075506
#
#
# Mechanical properties :
#
#
# Convention : Reuss Voigt Hill
#
# Bulk Modulus (GPa) = 31.27978 66.98984 49.13481
# Shear Modulus (GPa) = 16.98946 31.85125 24.42036
#
# Velocity S-wave (km/s) = 2.74782 3.76237 3.29438
# Velocity P-wave (km/s) = 4.89579 6.97465 6.02555
#
# Compressibility (1/GPa) = 0.03196954
#
# Stress axis : x y z
#
# Youngs Moduli (GPa) = 105.91032 27.95650 139.89077
#
# Poissons Ratio (x) = 0.07123 0.42958
# Poissons Ratio (y) = 0.26985 0.64022
# Poissons Ratio (z) = 0.32524 0.12794
#
# Static dielectric constant tensor:
#      x y z
#    x 4.565280 -0.000010 -0.226620 
#    y -0.000010 3.692250 0.000010 
#    z -0.226620 0.000010 4.946300 
# 
# 
# High freq. dielectric constant tensor:
#      x y z
#    x 1.892430 0.000000 0.003360 
#    y 0.000000 1.838260 0.000000 
#    z 0.003360 0.000000 1.906420 
# 
# From -- ./inp_files/340801.got.cif
#   From: 2010.06.25/outbox.cif.g09.slc.cpg/sg12_171_cif.got.tgz:340801.got - 2010.06.28 00:19:55.
