data_PCOD8087302
_publ_section_title
;
Structure prediction by ZEFSAII (Michael W. Deem and Ramdas Pophale) SiO2 
 PCOD8087302
Probable space group: C 2/M
;
_chemical_formula_sum "Si O2"
_cell_formula_units_Z 64
_cell_length_a 7.985476
_cell_length_b 19.439021
_cell_length_c 23.838221
_cell_angle_alpha 90.000000
_cell_angle_beta 109.571669
_cell_angle_gamma 90.000000
_cell_volume 3486.605707
_symmetry_space_group_name_H-M "C 2/M"
_symmetry_group_IT_number 12
_symmetry_cell_setting 'monoclinic'
loop_
_space_group_symop_operation_xyz
x,y,z
-x,y,-z
-x,-y,-z
x,-y,z
1/2+x,1/2+y,z
1/2-x,1/2+y,-z
1/2-x,1/2-y,-z
1/2+x,1/2-y,z
loop_
_atom_site_type_symbol
_atom_site_label
_atom_site_fract_x
_atom_site_fract_y
_atom_site_fract_z
Si Si1 0.803588 0.672434 0.500000
Si Si2 0.541758 0.423066 0.733790
Si Si3 0.673462 0.671168 0.371333
Si Si4 0.069201 0.671168 0.371332
Si Si5 0.925825 0.576934 0.733791
Si Si6 0.543721 0.581750 0.858760
Si Si7 0.173801 0.581750 0.858760
Si Si8 0.932582 0.582146 0.932581
O O1 0.750000 0.750000 0.500000
O O2 0.677304 0.641563 0.436587
O O3 0.804130 0.641563 0.563413
O O4 0.000000 0.667515 0.500000
O O5 0.462298 0.500000 0.717173
O O6 0.465432 0.374316 0.677544
O O7 0.753448 0.425386 0.753447
O O8 0.498332 0.393245 0.790573
O O9 0.612885 0.750000 0.362886
O O10 0.864058 0.664228 0.364059
O O11 0.110343 0.625684 0.322456
O O12 0.972050 0.500000 0.717173
O O13 0.082817 0.606755 0.790573
O O14 0.557837 0.500000 0.859650
O O15 0.381006 0.605831 0.881004
O O16 0.732786 0.611731 0.900879
O O17 0.161468 0.500000 0.859651
O O18 0.068974 0.611731 0.900879
O O19 0.930677 0.500000 0.930676
O O20 0.000000 0.609403 0.000000
#
# Coordination Sequence:
#
# PCOD8087302 Si02
#       8
#     8   8   8   8   8   8   8   8
#     4   8  16  30  47  66  91 123 159 197 249 302
#     4  10  19  32  49  69  96 131 167 205 251 300
#     4  10  19  32  50  72  96 125 161 206 252 301
#     4  10  19  32  50  72  96 125 161 206 252 301
#     4  10  19  32  49  69  96 131 167 205 251 300
#     4   9  16  27  43  63  90 127 164 198 244 296
#     4   9  16  27  43  63  90 127 164 198 244 296
#     4   9  16  26  40  62  94 127 161 201 240 289
#
# _framework density 18.355961000000001
#
# number of rings (size 3 to 8) (size 9 to 14) (size 15 to 20)
#    0.000    2.625    1.250    1.500    0.000    3.000 
#    0.000    3.125    0.000    3.750    0.000    0.000 
#    0.000    1.000    0.500    0.000    0.000    0.000 
#
# Total GULP energy -396442.976323 kJ/mol
# GULP energy per Si atom -12388.843010 kJ/mol
# Density = 1.831418 g / cm^3
# Si number density = 18.355961 Si / 1000 Ang^3
#
#
#
# Elastic Constant Matrix: (Units=GPa)
#
#
# Indices 1 2 3 4 5 6 
#
# 1 104.9257 11.9952 58.7233 0.0000 -0.4499 0.0000
# 2 11.9952 34.0146 32.9259 0.0000 -1.3679 0.0000
# 3 58.7233 32.9259 152.8573 0.0000 -2.6826 0.0000
# 4 0.0000 0.0000 0.0000 -10.0264 0.0000 1.6368
# 5 -0.4499 -1.3679 -2.6826 0.0000 26.6887 0.0000
# 6 0.0000 0.0000 0.0000 1.6368 0.0000 15.0180
#
#
#
# Elastic Compliance Matrix: (Units=1/GPa)
#
#
# Indices 1 2 3 4 5 6 
#
# 1 0.012145 0.000287 -0.004732 0.000000 -0.000256 0.000000
# 2 0.000287 0.037183 -0.008101 0.000000 0.001096 0.000000
# 3 -0.004732 -0.008101 0.010114 0.000000 0.000522 0.000000
# 4 0.000000 0.000000 0.000000 -0.097993 0.000000 0.010680
# 5 -0.000256 0.001096 0.000522 0.000000 0.037573 0.000000
# 6 0.000000 0.000000 0.000000 0.010680 0.000000 0.065423
#
#
# Mechanical properties :
#
#
# Convention : Reuss Voigt Hill
#
# Bulk Modulus (GPa) = 29.11063 55.45405 42.28234
# Shear Modulus (GPa) = 49.51161 18.87959 34.19560
#
# Velocity S-wave (km/s) = 5.19919 3.21054 4.32083
# Velocity P-wave (km/s) = 7.20663 6.63471 6.92658
#
# Compressibility (1/GPa) = 0.03435171
#
# Stress axis : x y z
#
# Youngs Moduli (GPa) = 82.33813 26.89392 98.87237
#
# Poissons Ratio (x) = -0.00773 0.46788
# Poissons Ratio (y) = -0.02367 0.80092
# Poissons Ratio (z) = 0.38964 0.21786
#
# Static dielectric constant tensor:
#      x y z
#    x 3.658220 0.000000 -0.004360 
#    y 0.000000 2.994290 0.000000 
#    z -0.004360 0.000000 3.724960 
# 
# 
# High freq. dielectric constant tensor:
#      x y z
#    x 1.727220 0.000000 0.000160 
#    y 0.000000 1.635730 0.000000 
#    z 0.000160 0.000000 1.724850 
# 
# From -- ./inp_files/333610.got.cif
#   From: 2010.06.25/outbox.cif.g09.slc.cpg/sg12_167_cif.got.tgz:333610.got - 2010.06.28 00:19:55.
