data_PCOD8087598
_publ_section_title
;
Structure prediction by ZEFSAII (Michael W. Deem and Ramdas Pophale) SiO2 
 PCOD8087598
Probable space group: C 2/M
;
_chemical_formula_sum "Si O2"
_cell_formula_units_Z 56
_cell_length_a 23.501850
_cell_length_b 8.649118
_cell_length_c 18.995386
_cell_angle_alpha 90.000000
_cell_angle_beta 127.798301
_cell_angle_gamma 90.000000
_cell_volume 3051.014586
_symmetry_space_group_name_H-M "C 2/M"
_symmetry_group_IT_number 12
_symmetry_cell_setting 'monoclinic'
loop_
_space_group_symop_operation_xyz
x,y,z
-x,y,-z
-x,-y,-z
x,-y,z
1/2+x,1/2+y,z
1/2-x,1/2+y,-z
1/2-x,1/2-y,-z
1/2+x,1/2-y,z
loop_
_atom_site_type_symbol
_atom_site_label
_atom_site_fract_x
_atom_site_fract_y
_atom_site_fract_z
Si Si1 0.782764 0.830888 0.802863
Si Si2 0.772582 0.170931 0.628665
Si Si3 0.873191 0.819463 0.463732
Si Si4 0.578933 0.181182 0.260516
Si Si5 0.627525 0.815114 0.688710
Si Si6 0.004154 0.180516 0.332290
Si Si7 0.935958 0.814799 0.901935
O O1 0.777726 0.845102 0.715550
O O2 0.708150 0.751160 0.771298
O O3 0.859784 0.748173 0.876725
O O4 0.785117 0.000000 0.839582
O O5 0.700988 0.266952 0.554781
O O6 0.843932 0.255202 0.654453
O O7 0.768228 0.000000 0.590911
O O8 0.889705 0.728285 0.404682
O O9 0.938026 0.777649 0.564493
O O10 0.869281 0.000000 0.443211
O O11 0.520025 0.224023 0.273997
O O12 0.551681 0.253980 0.166977
O O13 0.585002 0.000000 0.254896
O O14 0.574072 0.731313 0.700979
O O15 0.623116 0.000000 0.692436
O O16 0.004684 0.000000 0.314795
O O17 0.932342 0.000000 0.896177
O O18 0.000000 0.754676 0.000000
#
# Coordination Sequence:
#
# PCOD8087598 Si02
#       7
#     8   8   8   8   8   8   8
#     4   7  13  27  48  75 101 126 159 199 243 291
#     4   9  17  32  52  72  99 133 169 211 255 303
#     4  10  20  33  50  73  99 132 176 222 262 298
#     4  11  22  35  52  75 104 135 168 208 258 313
#     4  10  19  32  51  73 101 137 176 216 254 297
#     4  11  23  36  49  68 100 139 178 219 258 302
#     4   9  17  33  59  85 107 132 161 197 248 311
#
# _framework density 18.35455
#
# number of rings (size 3 to 8) (size 9 to 14) (size 15 to 20)
#    0.000    2.429    0.000    5.143    0.000    4.857 
#    0.000    0.714    0.000    0.857    0.000    0.000 
#    0.000    0.000    0.000    0.000    0.000    0.000 
#
# Total GULP energy -347023.053322 kJ/mol
# GULP energy per Si atom -12393.680476 kJ/mol
# Density = 1.831277 g / cm^3
# Si number density = 18.354550 Si / 1000 Ang^3
#
#
#
# Elastic Constant Matrix: (Units=GPa)
#
#
# Indices 1 2 3 4 5 6 
#
# 1 123.3899 15.3052 60.6438 0.0000 20.3098 0.0000
# 2 15.3052 47.8832 18.6562 0.0000 7.0982 0.0000
# 3 60.6438 18.6562 67.4374 0.0000 26.5049 0.0000
# 4 0.0000 0.0000 0.0000 18.6268 0.0000 0.9094
# 5 20.3098 7.0982 26.5049 0.0000 26.5712 0.0000
# 6 0.0000 0.0000 0.0000 0.9094 0.0000 31.6616
#
#
#
# Elastic Compliance Matrix: (Units=1/GPa)
#
#
# Indices 1 2 3 4 5 6 
#
# 1 0.014699 0.000524 -0.014627 0.000000 0.003215 0.000000
# 2 0.000524 0.023428 -0.007131 0.000000 0.000454 0.000000
# 3 -0.014627 -0.007131 0.040812 0.000000 -0.027625 0.000000
# 4 0.000000 0.000000 0.000000 0.053761 0.000000 -0.001544
# 5 0.003215 0.000454 -0.027625 0.000000 0.062612 0.000000
# 6 0.000000 0.000000 0.000000 -0.001544 0.000000 0.031628
#
#
# Mechanical properties :
#
#
# Convention : Reuss Voigt Hill
#
# Bulk Modulus (GPa) = 27.41862 47.54677 37.48270
# Shear Modulus (GPa) = 17.75787 24.97895 21.36841
#
# Velocity S-wave (km/s) = 3.11383 3.69306 3.41574
# Velocity P-wave (km/s) = 5.28192 6.64423 6.00185
#
# Compressibility (1/GPa) = 0.03647156
#
# Stress axis : x y z
#
# Youngs Moduli (GPa) = 68.03182 42.68462 24.50252
#
# Poissons Ratio (x) = -0.02236 0.35839
# Poissons Ratio (y) = -0.03564 0.17472
# Poissons Ratio (z) = 0.99509 0.30437
#
# Static dielectric constant tensor:
#      x y z
#    x 3.658240 0.000000 0.431260 
#    y 0.000000 3.320990 0.000000 
#    z 0.431260 0.000000 3.277120 
# 
# 
# High freq. dielectric constant tensor:
#      x y z
#    x 1.718000 0.000000 0.023090 
#    y 0.000000 1.705840 0.000000 
#    z 0.023090 0.000000 1.678240 
# 
# From -- ./inp_files/288439.got.cif
#   From: 2010.06.25/outbox.cif.g09.slc.cpg/sg12_145_cif.got.tgz:288439.got - 2010.06.28 00:19:55.
