data_PCOD8087180
_publ_section_title
;
Structure prediction by ZEFSAII (Michael W. Deem and Ramdas Pophale) SiO2 
 PCOD8087180
Probable space group: C 2/M
;
_chemical_formula_sum "Si O2"
_cell_formula_units_Z 64
_cell_length_a 18.489207
_cell_length_b 19.491680
_cell_length_c 19.123216
_cell_angle_alpha 90.000000
_cell_angle_beta 151.108176
_cell_angle_gamma 90.000000
_cell_volume 3329.792491
_symmetry_space_group_name_H-M "C 2/M"
_symmetry_group_IT_number 12
_symmetry_cell_setting 'monoclinic'
loop_
_space_group_symop_operation_xyz
x,y,z
-x,y,-z
-x,-y,-z
x,-y,z
1/2+x,1/2+y,z
1/2-x,1/2+y,-z
1/2-x,1/2-y,-z
1/2+x,1/2-y,z
loop_
_atom_site_type_symbol
_atom_site_label
_atom_site_fract_x
_atom_site_fract_y
_atom_site_fract_z
Si Si1 0.265301 0.356640 0.965559
Si Si2 0.877884 0.292411 0.030307
Si Si3 0.883341 0.366450 0.300726
Si Si4 0.209511 0.367454 0.628635
Si Si5 0.293043 0.208872 0.713607
Si Si6 0.329695 0.687926 0.526391
Si Si7 0.946727 0.077372 0.733600
Si Si8 0.857089 0.210954 0.276392
O O1 0.359103 0.288430 0.027907
O O2 0.381398 0.407735 0.101045
O O3 0.130928 0.334701 0.904408
O O4 0.188259 0.394367 0.832823
O O5 0.033107 0.301346 0.120145
O O6 0.746710 0.323085 0.870526
O O7 0.821547 0.399220 0.320469
O O8 0.818006 0.290270 0.250081
O O9 0.063315 0.373854 0.454334
O O10 0.256278 0.288169 0.667102
O O11 0.343116 0.414466 0.713759
O O12 0.277846 0.165552 0.628336
O O13 0.184976 0.178659 0.683295
O O14 0.250000 0.750000 0.500000
O O15 0.376254 0.626420 0.615323
O O16 0.472930 0.710087 0.602468
O O17 0.939038 0.000000 0.698635
#
# Coordination Sequence:
#
# PCOD8087180 Si02
#       8
#     8   8   8   8   8   8   8   8
#     4  10  20  35  54  82 115 155 198 240 291 353
#     4  10  19  31  56  88 118 146 191 249 305 346
#     4   9  19  32  58  83 120 152 197 243 292 345
#     4  10  19  36  53  87 120 157 190 243 296 352
#     4  11  20  31  59  89 123 147 190 249 312 355
#     4  12  21  36  62  89 118 154 201 249 302 349
#     4  12  25  41  58  83 121 166 204 243 298 360
#     4  10  19  33  52  91 124 150 185 247 308 359
#
# _framework density 19.220416
#
# number of rings (size 3 to 8) (size 9 to 14) (size 15 to 20)
#    0.000    1.500    5.000    0.750    5.250    0.500 
#    0.000    3.125    0.000    1.500    0.000    0.875 
#    0.000    0.000    0.000    0.000    0.000    0.000 
#
# Total GULP energy -396426.022175 kJ/mol
# GULP energy per Si atom -12388.313193 kJ/mol
# Density = 1.917667 g / cm^3
# Si number density = 19.220416 Si / 1000 Ang^3
#
#
#
# Elastic Constant Matrix: (Units=GPa)
#
#
# Indices 1 2 3 4 5 6 
#
# 1 124.6091 23.1491 39.2772 -0.0183 6.6429 -0.0054
# 2 23.1491 59.2202 25.7181 -0.0292 -6.7806 -0.0139
# 3 39.2772 25.7181 90.5145 -0.0363 -1.2539 -0.0170
# 4 -0.0183 -0.0292 -0.0363 15.1654 -0.0107 -0.5737
# 5 6.6429 -6.7806 -1.2539 -0.0107 41.8252 -0.0009
# 6 -0.0054 -0.0139 -0.0170 -0.5737 -0.0009 8.9403
#
#
#
# Elastic Compliance Matrix: (Units=1/GPa)
#
#
# Indices 1 2 3 4 5 6 
#
# 1 0.009712 -0.002497 -0.003533 -0.000003 -0.002053 -0.000005
# 2 -0.002497 0.020278 -0.004629 0.000028 0.003545 0.000023
# 3 -0.003533 -0.004629 0.013900 0.000021 0.000227 0.000018
# 4 -0.000003 0.000028 0.000021 0.066100 0.000023 0.004242
# 5 -0.002053 0.003545 0.000227 0.000023 0.024817 0.000009
# 6 -0.000005 0.000023 0.000018 0.004242 0.000009 0.112125
#
#
# Mechanical properties :
#
#
# Convention : Reuss Voigt Hill
#
# Bulk Modulus (GPa) = 44.30423 50.07030 47.18727
# Shear Modulus (GPa) = 18.13073 25.59948 21.86510
#
# Velocity S-wave (km/s) = 3.07466 3.65347 3.37649
# Velocity P-wave (km/s) = 5.97540 6.62603 6.30910
#
# Compressibility (1/GPa) = 0.02257121
#
# Stress axis : x y z
#
# Youngs Moduli (GPa) = 102.96350 49.31333 71.94431
#
# Poissons Ratio (x) = 0.12314 0.25421
# Poissons Ratio (y) = 0.25711 0.33304
# Poissons Ratio (z) = 0.36381 0.22828
#
# Static dielectric constant tensor:
#      x y z
#    x 3.888690 -0.000010 -0.184430 
#    y -0.000010 2.835540 -0.000010 
#    z -0.184430 -0.000010 3.729170 
# 
# 
# High freq. dielectric constant tensor:
#      x y z
#    x 1.766900 0.000000 -0.001510 
#    y 0.000000 1.661750 0.000000 
#    z -0.001510 0.000000 1.764650 
# 
# From -- ./inp_files/279123.got.cif
#   From: 2010.06.25/outbox.cif.g09.slc.cpg/sg12_140_cif.got.tgz:279123.got - 2010.06.28 00:19:55.
