data_PCOD8087007
_publ_section_title
;
Structure prediction by ZEFSAII (Michael W. Deem and Ramdas Pophale) SiO2 
 PCOD8087007
Probable space group: C 2/M
;
_chemical_formula_sum "Si O2"
_cell_formula_units_Z 56
_cell_length_a 30.784104
_cell_length_b 8.785908
_cell_length_c 19.610506
_cell_angle_alpha 90.000000
_cell_angle_beta 35.954156
_cell_angle_gamma 90.000000
_cell_volume 3114.167516
_symmetry_space_group_name_H-M "C 2/M"
_symmetry_group_IT_number 12
_symmetry_cell_setting 'monoclinic'
loop_
_space_group_symop_operation_xyz
x,y,z
-x,y,-z
-x,-y,-z
x,-y,z
1/2+x,1/2+y,z
1/2-x,1/2+y,-z
1/2-x,1/2-y,-z
1/2+x,1/2-y,z
loop_
_atom_site_type_symbol
_atom_site_label
_atom_site_fract_x
_atom_site_fract_y
_atom_site_fract_z
Si Si1 0.683103 0.175487 0.122394
Si Si2 0.301345 0.678137 0.492114
Si Si3 0.282633 0.177862 0.264170
Si Si4 0.742401 0.320666 0.842134
Si Si5 0.058250 0.679461 0.741258
Si Si6 0.896253 0.679122 0.905339
Si Si7 0.925696 0.177329 0.134269
O O1 0.687710 0.223592 0.196502
O O2 0.610483 0.211973 0.168627
O O3 0.700759 0.000000 0.097924
O O4 0.750000 0.250000 0.000000
O O5 0.303457 0.500000 0.476106
O O6 0.250000 0.750000 0.500000
O O7 0.270197 0.719105 0.605873
O O8 0.383905 0.744471 0.383883
O O9 0.241749 0.229633 0.247252
O O10 0.358389 0.272643 0.171917
O O11 0.301472 0.000000 0.237934
O O12 0.738911 0.500000 0.831339
O O13 0.664613 0.270358 0.974417
O O14 0.064848 0.500000 0.725226
O O15 0.078542 0.725242 0.791942
O O16 0.976555 0.738030 0.825936
O O17 0.886427 0.500000 0.933341
O O18 0.920247 0.000000 0.159527
O O19 0.000000 0.217020 0.000000
#
# Coordination Sequence:
#
# PCOD8087007 Si02
#       7
#     8   8   8   8   8   8   8
#     4   8  15  29  49  75 106 139 173 209 252 306
#     4  11  23  39  58  76  98 133 179 225 264 310
#     4  11  23  37  54  75 101 136 175 215 262 314
#     4  10  19  31  52  81 110 139 173 214 261 310
#     4  11  22  35  54  78 104 138 175 214 261 311
#     4   9  18  33  53  78 110 143 174 210 256 313
#     4  11  23  36  52  76 106 138 170 210 259 309
#
# _framework density 17.982334000000002
#
# number of rings (size 3 to 8) (size 9 to 14) (size 15 to 20)
#    0.000    1.857    1.429    3.000    0.000    6.857 
#    0.000    0.000    0.000    0.857    0.000    6.000 
#    0.000    0.000    0.000    0.000    0.000    0.000 
#
# Total GULP energy -347074.387129 kJ/mol
# GULP energy per Si atom -12395.513826 kJ/mol
# Density = 1.794141 g / cm^3
# Si number density = 17.982334 Si / 1000 Ang^3
#
#
#
# Elastic Constant Matrix: (Units=GPa)
#
#
# Indices 1 2 3 4 5 6 
#
# 1 96.0310 17.6376 28.8214 -0.0053 26.9964 0.0029
# 2 17.6376 51.9451 34.6735 0.0197 9.2784 -0.0068
# 3 28.8214 34.6735 83.6005 0.0154 18.0166 -0.0022
# 4 -0.0053 0.0197 0.0154 27.5222 -0.0022 2.5124
# 5 26.9964 9.2784 18.0166 -0.0022 22.9208 -0.0010
# 6 0.0029 -0.0068 -0.0022 2.5124 -0.0010 25.6546
#
#
#
# Elastic Compliance Matrix: (Units=1/GPa)
#
#
# Indices 1 2 3 4 5 6 
#
# 1 0.015865 -0.001575 -0.001116 0.000004 -0.017171 -0.000003
# 2 -0.001575 0.026899 -0.010434 -0.000014 -0.000832 0.000008
# 3 -0.001116 -0.010434 0.018638 -0.000004 -0.009112 -0.000001
# 4 0.000004 -0.000014 -0.000004 0.036662 0.000008 -0.003590
# 5 -0.017171 -0.000832 -0.009112 0.000008 0.071352 0.000003
# 6 -0.000003 0.000008 -0.000001 -0.003590 0.000003 0.039331
#
#
# Mechanical properties :
#
#
# Convention : Reuss Voigt Hill
#
# Bulk Modulus (GPa) = 28.44792 43.76019 36.10406
# Shear Modulus (GPa) = 20.26640 25.24912 22.75776
#
# Velocity S-wave (km/s) = 3.36075 3.75121 3.56133
# Velocity P-wave (km/s) = 5.56002 6.56887 6.08538
#
# Compressibility (1/GPa) = 0.03515195
#
# Stress axis : x y z
#
# Youngs Moduli (GPa) = 63.03369 37.17553 53.65489
#
# Poissons Ratio (x) = 0.05855 0.05986
# Poissons Ratio (y) = 0.09927 0.55985
# Poissons Ratio (z) = 0.07032 0.38790
#
# Static dielectric constant tensor:
#      x y z
#    x 4.000780 -0.000010 0.147040 
#    y -0.000010 3.360440 0.000020 
#    z 0.147040 0.000020 3.295200 
# 
# 
# High freq. dielectric constant tensor:
#      x y z
#    x 1.708350 0.000000 0.011960 
#    y 0.000000 1.707100 0.000000 
#    z 0.011960 0.000000 1.668420 
# 
# From -- ./inp_files/280958.got.cif
#   From: 2010.06.25/outbox.cif.g09.slc.cpg/sg12_141_cif.got.tgz:280958.got - 2010.06.28 00:19:55.
