data_PCOD8087550
_publ_section_title
;
Structure prediction by ZEFSAII (Michael W. Deem and Ramdas Pophale) SiO2 
 PCOD8087550
Probable space group: C 2/M
;
_chemical_formula_sum "Si O2"
_cell_formula_units_Z 56
_cell_length_a 32.312899
_cell_length_b 9.013169
_cell_length_c 23.400465
_cell_angle_alpha 90.000000
_cell_angle_beta 157.073961
_cell_angle_gamma 90.000000
_cell_volume 2654.806281
_symmetry_space_group_name_H-M "C 2/M"
_symmetry_group_IT_number 12
_symmetry_cell_setting 'monoclinic'
loop_
_space_group_symop_operation_xyz
x,y,z
-x,y,-z
-x,-y,-z
x,-y,z
1/2+x,1/2+y,z
1/2-x,1/2+y,-z
1/2-x,1/2-y,-z
1/2+x,1/2-y,z
loop_
_atom_site_type_symbol
_atom_site_label
_atom_site_fract_x
_atom_site_fract_y
_atom_site_fract_z
Si Si1 0.803187 0.673138 0.888327
Si Si2 0.645132 0.172616 0.346437
Si Si3 0.281063 0.832530 0.679770
Si Si4 0.045777 0.830474 0.396669
Si Si5 0.095230 0.330847 0.577053
Si Si6 0.408254 0.673345 0.925818
Si Si7 0.549566 0.172515 0.825789
O O1 0.789303 0.500000 0.857641
O O2 0.695334 0.755997 0.735661
O O3 0.902809 0.736248 0.977930
O O4 0.837479 0.699175 0.998326
O O5 0.750000 0.250000 0.500000
O O6 0.639163 0.205324 0.270836
O O7 0.541934 0.232866 0.247809
O O8 0.659564 0.000000 0.376241
O O9 0.157622 0.817118 0.504969
O O10 0.299159 0.714898 0.753806
O O11 0.301812 0.000000 0.728682
O O12 0.055480 0.751312 0.469816
O O13 0.955698 0.758125 0.241351
O O14 0.013113 0.000000 0.366407
O O15 0.125915 0.500000 0.601152
O O16 0.000000 0.323577 0.500000
O O17 0.417628 0.500000 0.950651
O O18 0.500000 0.731055 0.000000
O O19 0.532881 0.000000 0.791329
#
# Coordination Sequence:
#
# PCOD8087550 Si02
#       7
#     8   8   8   8   8   8   8
#     4  11  23  41  65  93 126 167 211 260 317 375
#     4  10  19  32  50  77 117 164 211 252 294 352
#     4  10  20  34  53  81 116 159 209 257 306 360
#     4  11  22  38  64  94 123 159 203 253 307 372
#     4  11  25  46  72  98 124 157 201 260 326 387
#     4  11  23  36  54  84 122 167 214 260 310 365
#     4  10  22  38  59  88 127 171 209 254 309 364
#
# _framework density 21.093817999999999
#
# number of rings (size 3 to 8) (size 9 to 14) (size 15 to 20)
#    0.000    1.429    2.857    2.571    0.000    5.714 
#    0.000    0.714    0.000    0.000    0.000    0.000 
#    0.000    0.000    0.000    0.000    0.000    0.000 
#
# Total GULP energy -347104.023342 kJ/mol
# GULP energy per Si atom -12396.572262 kJ/mol
# Density = 2.104581 g / cm^3
# Si number density = 21.093818 Si / 1000 Ang^3
#
#
#
# Elastic Constant Matrix: (Units=GPa)
#
#
# Indices 1 2 3 4 5 6 
#
# 1 68.2789 43.9215 41.6140 0.0000 -15.3678 0.0000
# 2 43.9215 112.2674 56.2932 0.0000 -17.8589 0.0000
# 3 41.6140 56.2932 107.8646 0.0000 -31.3497 0.0000
# 4 0.0000 0.0000 0.0000 32.7411 0.0000 -6.0719
# 5 -15.3678 -17.8589 -31.3497 0.0000 32.8084 0.0000
# 6 0.0000 0.0000 0.0000 -6.0719 0.0000 27.8495
#
#
#
# Elastic Compliance Matrix: (Units=1/GPa)
#
#
# Indices 1 2 3 4 5 6 
#
# 1 0.021773 -0.005785 -0.004613 0.000000 0.002642 0.000000
# 2 -0.005785 0.013615 -0.004856 0.000000 0.000062 0.000000
# 3 -0.004613 -0.004856 0.016875 0.000000 0.011321 0.000000
# 4 0.000000 0.000000 0.000000 0.031830 0.000000 0.006940
# 5 0.002642 0.000062 0.011321 0.000000 0.042568 0.000000
# 6 0.000000 0.000000 0.000000 0.006940 0.000000 0.037420
#
#
# Mechanical properties :
#
#
# Convention : Reuss Voigt Hill
#
# Bulk Modulus (GPa) = 45.96514 63.56313 54.76414
# Shear Modulus (GPa) = 24.77191 28.45194 26.61193
#
# Velocity S-wave (km/s) = 3.43062 3.67662 3.55575
# Velocity P-wave (km/s) = 6.12620 6.94423 6.54800
#
# Compressibility (1/GPa) = 0.02175562
#
# Stress axis : x y z
#
# Youngs Moduli (GPa) = 45.92805 73.44807 59.25869
#
# Poissons Ratio (x) = 0.42488 0.27338
# Poissons Ratio (y) = 0.26568 0.28775
# Poissons Ratio (z) = 0.21188 0.35666
#
# Static dielectric constant tensor:
#      x y z
#    x 3.781590 0.000000 -0.074230 
#    y 0.000000 3.775090 0.000000 
#    z -0.074230 0.000000 3.700980 
# 
# 
# High freq. dielectric constant tensor:
#      x y z
#    x 1.812840 0.000000 -0.015670 
#    y 0.000000 1.825630 0.000000 
#    z -0.015670 0.000000 1.826540 
# 
# From -- ./inp_files/329682.got.cif
#   From: 2010.06.25/outbox.cif.g09.slc.cpg/sg12_165_cif.got.tgz:329682.got - 2010.06.28 00:19:55.
