data_PCOD8087484
_publ_section_title
;
Structure prediction by ZEFSAII (Michael W. Deem and Ramdas Pophale) SiO2 
 PCOD8087484
Probable space group: C 2/M
;
_chemical_formula_sum "Si O2"
_cell_formula_units_Z 64
_cell_length_a 9.938378
_cell_length_b 17.919423
_cell_length_c 21.650922
_cell_angle_alpha 90.000000
_cell_angle_beta 62.068638
_cell_angle_gamma 90.000000
_cell_volume 3406.646623
_symmetry_space_group_name_H-M "C 2/M"
_symmetry_group_IT_number 12
_symmetry_cell_setting 'monoclinic'
loop_
_space_group_symop_operation_xyz
x,y,z
-x,y,-z
-x,-y,-z
x,-y,z
1/2+x,1/2+y,z
1/2-x,1/2+y,-z
1/2-x,1/2-y,-z
1/2+x,1/2-y,z
loop_
_atom_site_type_symbol
_atom_site_label
_atom_site_fract_x
_atom_site_fract_y
_atom_site_fract_z
Si Si1 0.150383 0.588614 0.695433
Si Si2 0.943605 0.663146 0.833788
Si Si3 0.435048 0.336967 0.835425
Si Si4 0.407478 0.658522 0.077918
Si Si5 0.952960 0.911262 0.699871
Si Si6 0.076127 0.411310 0.576079
Si Si7 0.728720 0.088701 0.420012
Si Si8 0.907333 0.332188 0.075876
O O1 0.147737 0.500000 0.697194
O O2 0.305972 0.618949 0.693663
O O3 0.138200 0.619582 0.627994
O O4 0.000242 0.618171 0.762219
O O5 0.968352 0.750373 0.814066
O O6 0.771189 0.643302 0.889125
O O7 0.044583 0.633153 0.869021
O O8 0.541452 0.372395 0.865924
O O9 0.453634 0.383138 0.769412
O O10 0.267794 0.346478 0.899296
O O11 0.449908 0.745332 0.069750
O O12 0.500000 0.621896 0.000000
O O13 0.106166 0.879568 0.634671
O O14 0.951809 0.000000 0.700984
O O15 0.077266 0.500000 0.576764
O O16 0.188121 0.382505 0.497668
O O17 0.902850 0.383980 0.599436
O O18 0.733801 0.000000 0.418679
O O19 0.000000 0.370203 0.000000
#
# Coordination Sequence:
#
# PCOD8087484 Si02
#       8
#     8   8   8   8   8   8   8   8
#     4  10  20  33  50  74 104 134 163 198 243 295
#     4  10  19  32  50  74 101 129 165 205 247 294
#     4  10  19  32  50  74 101 129 165 205 247 294
#     4   9  18  30  49  75  94 121 168 216 253 281
#     4  10  20  33  50  74 104 134 163 198 243 295
#     4   8  15  29  49  73  99 128 164 202 240 284
#     4   8  15  29  49  73  99 128 164 202 240 284
#     4   9  16  30  51  71  96 127 164 210 247 285
#
# _framework density 18.786802999999999
#
# number of rings (size 3 to 8) (size 9 to 14) (size 15 to 20)
#    0.000    2.750    1.250    1.500    1.750    3.500 
#    0.000    2.500    0.000    5.250    0.000    0.000 
#    0.000    0.000    0.000    0.000    0.000    0.000 
#
# Total GULP energy -396643.340729 kJ/mol
# GULP energy per Si atom -12395.104398 kJ/mol
# Density = 1.874404 g / cm^3
# Si number density = 18.786803 Si / 1000 Ang^3
#
#
#
# Elastic Constant Matrix: (Units=GPa)
#
#
# Indices 1 2 3 4 5 6 
#
# 1 101.3035 12.3170 50.3994 0.0000 11.3652 0.0000
# 2 12.3170 8.2713 14.7437 0.0000 -0.4622 0.0000
# 3 50.3994 14.7437 131.8932 0.0000 6.7199 0.0000
# 4 0.0000 0.0000 0.0000 26.7520 0.0000 4.0050
# 5 11.3652 -0.4622 6.7199 0.0000 37.4058 0.0000
# 6 0.0000 0.0000 0.0000 4.0050 0.0000 13.5439
#
#
#
# Elastic Compliance Matrix: (Units=1/GPa)
#
#
# Indices 1 2 3 4 5 6 
#
# 1 0.013779 -0.014590 -0.003443 0.000000 -0.003748 0.000000
# 2 -0.014590 0.167346 -0.013587 0.000000 0.008942 0.000000
# 3 -0.003443 -0.013587 0.010468 0.000000 -0.001002 0.000000
# 4 0.000000 0.000000 0.000000 0.039112 0.000000 -0.011565
# 5 -0.003748 0.008942 -0.001002 0.000000 0.028163 0.000000
# 6 0.000000 0.000000 0.000000 -0.011565 0.000000 0.077254
#
#
# Mechanical properties :
#
#
# Convention : Reuss Voigt Hill
#
# Bulk Modulus (GPa) = 7.79113 44.04312 25.91713
# Shear Modulus (GPa) = 11.30847 26.47419 18.89133
#
# Velocity S-wave (km/s) = 2.45610 3.75799 3.17450
# Velocity P-wave (km/s) = 3.49276 6.50573 5.22130
#
# Compressibility (1/GPa) = 0.12835113
#
# Stress axis : x y z
#
# Youngs Moduli (GPa) = 72.57502 5.97564 95.53324
#
# Poissons Ratio (x) = 0.08719 0.32895
# Poissons Ratio (y) = 1.05888 1.29803
# Poissons Ratio (z) = 0.24990 0.08119
#
# Static dielectric constant tensor:
#      x y z
#    x 3.738660 0.000000 0.073340 
#    y 0.000000 2.839140 0.000000 
#    z 0.073340 0.000000 3.663450 
# 
# 
# High freq. dielectric constant tensor:
#      x y z
#    x 1.744270 0.000000 0.002750 
#    y 0.000000 1.659970 0.000000 
#    z 0.002750 0.000000 1.743240 
# 
# From -- ./inp_files/301718.got.cif
#   From: 2010.06.25/outbox.cif.g09.slc.cpg/sg12_151_cif.got.tgz:301718.got - 2010.06.28 00:19:55.
