data_PCOD8087511
_publ_section_title
;
Structure prediction by ZEFSAII (Michael W. Deem and Ramdas Pophale) SiO2 
 PCOD8087511
Probable space group: C 2/M
;
_chemical_formula_sum "Si O2"
_cell_formula_units_Z 56
_cell_length_a 23.917573
_cell_length_b 8.678833
_cell_length_c 16.688621
_cell_angle_alpha 90.000000
_cell_angle_beta 88.015904
_cell_angle_gamma 90.000000
_cell_volume 3462.090718
_symmetry_space_group_name_H-M "C 2/M"
_symmetry_group_IT_number 12
_symmetry_cell_setting 'monoclinic'
loop_
_space_group_symop_operation_xyz
x,y,z
-x,y,-z
-x,-y,-z
x,-y,z
1/2+x,1/2+y,z
1/2-x,1/2+y,-z
1/2-x,1/2-y,-z
1/2+x,1/2-y,z
loop_
_atom_site_type_symbol
_atom_site_label
_atom_site_fract_x
_atom_site_fract_y
_atom_site_fract_z
Si Si1 0.737869 0.825354 0.916378
Si Si2 0.114938 0.682910 0.650580
Si Si3 0.798068 0.175470 0.760115
Si Si4 0.311545 0.317781 0.494443
Si Si5 0.501307 0.817910 0.410487
Si Si6 0.685681 0.318137 0.777334
Si Si7 0.123398 0.318821 0.360686
O O1 0.794090 0.818450 0.857852
O O2 0.688262 0.736142 0.870693
O O3 0.718352 0.000000 0.931082
O O4 0.750000 0.750000 0.000000
O O5 0.118768 0.500000 0.649135
O O6 0.156284 0.749650 0.582613
O O7 0.051954 0.742781 0.636654
O O8 0.131488 0.746313 0.737288
O O9 0.741057 0.253561 0.728448
O O10 0.851454 0.271349 0.726896
O O11 0.801433 0.000000 0.728993
O O12 0.308429 0.500000 0.485963
O O13 0.250000 0.250000 0.500000
O O14 0.343635 0.273375 0.573500
O O15 0.500000 0.746441 0.500000
O O16 0.558488 0.768311 0.363796
O O17 0.497337 0.000000 0.417681
O O18 0.683701 0.500000 0.772123
O O19 0.129876 0.500000 0.376049
#
# Coordination Sequence:
#
# PCOD8087511 Si02
#       7
#     8   8   8   8   8   8   8
#     4   9  18  32  53  79 108 136 164 195 246 305
#     4  11  20  35  53  70  97 131 172 216 254 298
#     4   9  19  33  49  74 106 134 162 200 249 298
#     4  12  24  35  48  68  95 130 169 209 258 305
#     4   9  18  34  53  71  92 129 176 218 258 298
#     4  10  19  32  50  75 106 134 166 203 247 300
#     4  11  20  34  53  72  95 130 173 213 252 299
#
# _framework density 16.175198000000002
#
# number of rings (size 3 to 8) (size 9 to 14) (size 15 to 20)
#    0.857    1.000    1.429    4.714    0.000    0.000 
#    0.000    3.571    0.000    0.000    0.000    1.000 
#    0.000    8.000    0.000    0.000    0.000    0.000 
#
# Total GULP energy -347040.060328 kJ/mol
# GULP energy per Si atom -12394.287869 kJ/mol
# Density = 1.613838 g / cm^3
# Si number density = 16.175198 Si / 1000 Ang^3
#
#
#
# Elastic Constant Matrix: (Units=GPa)
#
#
# Indices 1 2 3 4 5 6 
#
# 1 121.6734 39.7408 54.4148 0.0000 18.2472 0.0000
# 2 39.7408 95.2950 34.4986 0.0000 9.7655 0.0000
# 3 54.4148 34.4986 97.9508 0.0000 17.1022 0.0000
# 4 0.0000 0.0000 0.0000 30.1358 0.0000 0.9743
# 5 18.2472 9.7655 17.1022 0.0000 14.2363 0.0000
# 6 0.0000 0.0000 0.0000 0.9743 0.0000 20.2199
#
#
#
# Elastic Compliance Matrix: (Units=1/GPa)
#
#
# Indices 1 2 3 4 5 6 
#
# 1 0.012371 -0.002669 -0.004408 0.000000 -0.008730 0.000000
# 2 -0.002669 0.012786 -0.002640 0.000000 -0.002178 0.000000
# 3 -0.004408 -0.002640 0.015546 0.000000 -0.011214 0.000000
# 4 0.000000 0.000000 0.000000 0.033235 0.000000 -0.001601
# 5 -0.008730 -0.002178 -0.011214 0.000000 0.096398 0.000000
# 6 0.000000 0.000000 0.000000 -0.001601 0.000000 0.049533
#
#
# Mechanical properties :
#
#
# Convention : Reuss Voigt Hill
#
# Bulk Modulus (GPa) = 47.01844 63.58087 55.29966
# Shear Modulus (GPa) = 20.29274 25.33607 22.81440
#
# Velocity S-wave (km/s) = 3.54582 3.96201 3.75968
# Velocity P-wave (km/s) = 6.77459 7.76679 7.28760
#
# Compressibility (1/GPa) = 0.02126825
#
# Stress axis : x y z
#
# Youngs Moduli (GPa) = 80.83359 78.21251 64.32471
#
# Poissons Ratio (x) = 0.20871 0.28357
# Poissons Ratio (y) = 0.21571 0.16984
# Poissons Ratio (z) = 0.35635 0.20651
#
# Static dielectric constant tensor:
#      x y z
#    x 3.123480 0.000000 0.035290 
#    y 0.000000 3.090550 0.000000 
#    z 0.035290 0.000000 2.989090 
# 
# 
# High freq. dielectric constant tensor:
#      x y z
#    x 1.604850 0.000000 0.004950 
#    y 0.000000 1.632050 0.000000 
#    z 0.004950 0.000000 1.602680 
# 
# From -- ./inp_files/287050.got.cif
#   From: 2010.06.25/outbox.cif.g09.slc.cpg/sg12_144_cif.got.tgz:287050.got - 2010.06.28 00:19:55.
