data_PCOD8087244
_publ_section_title
;
Structure prediction by ZEFSAII (Michael W. Deem and Ramdas Pophale) SiO2 
 PCOD8087244
Probable space group: C 2/M
;
_chemical_formula_sum "Si O2"
_cell_formula_units_Z 56
_cell_length_a 18.872308
_cell_length_b 25.253272
_cell_length_c 7.966880
_cell_angle_alpha 90.000000
_cell_angle_beta 125.469039
_cell_angle_gamma 90.000000
_cell_volume 3092.318946
_symmetry_space_group_name_H-M "C 2/M"
_symmetry_group_IT_number 12
_symmetry_cell_setting 'monoclinic'
loop_
_space_group_symop_operation_xyz
x,y,z
-x,y,-z
-x,-y,-z
x,-y,z
1/2+x,1/2+y,z
1/2-x,1/2+y,-z
1/2-x,1/2-y,-z
1/2+x,1/2-y,z
loop_
_atom_site_type_symbol
_atom_site_label
_atom_site_fract_x
_atom_site_fract_y
_atom_site_fract_z
Si Si1 0.298069 0.186582 0.716628
Si Si2 0.341152 0.609342 0.497385
Si Si3 0.630958 0.763070 0.499959
Si Si4 0.646859 0.616203 0.875752
Si Si5 0.013163 0.181622 0.203087
Si Si6 0.403934 0.500000 0.573803
Si Si7 0.900492 0.000000 0.171829
Si Si8 0.700031 0.804903 0.915302
O O1 0.258083 0.128843 0.617367
O O2 0.365109 0.201479 0.663361
O O3 0.215533 0.225731 0.617959
O O4 0.345442 0.185008 0.964983
O O5 0.372223 0.615920 0.348048
O O6 0.406509 0.641485 0.705341
O O7 0.349095 0.549164 0.568288
O O8 0.541912 0.729155 0.368334
O O9 0.630360 0.799276 0.667620
O O10 0.571492 0.651909 0.849897
O O11 0.647502 0.555304 0.948167
O O12 0.737256 0.645469 0.042482
O O13 0.000000 0.205769 0.000000
O O14 0.407151 0.500000 0.379305
O O15 0.503132 0.500000 0.777477
O O16 0.750000 0.750000 0.000000
#
# Coordination Sequence:
#
# PCOD8087244 Si02
#       8
#     8   8   8   8   8   4   4   8
#     4   8  16  29  46  62  81 114 160 192 233 272
#     4   9  17  30  45  63  86 125 159 198 224 267
#     4   9  18  32  45  61  88 116 155 199 237 279
#     4  10  19  32  48  68  92 126 168 196 232 281
#     4  11  22  29  42  65  92 124 156 194 238 278
#     4   9  14  26  44  64  90 122 159 191 229 263
#     4   9  16  28  46  64  94 128 156 197 230 269
#     4   9  18  30  50  66  85 122 163 198 237 280
#
# _framework density 18.109387000000002
#
# number of rings (size 3 to 8) (size 9 to 14) (size 15 to 20)
#    0.000    2.714    1.429    1.286    8.000    0.000 
#    0.000    1.429    0.000    0.000    0.000    0.000 
#    0.000    0.000    0.000    6.429    0.000    0.929 
#
# Total GULP energy -346891.888101 kJ/mol
# GULP energy per Si atom -12388.996004 kJ/mol
# Density = 1.806817 g / cm^3
# Si number density = 18.109387 Si / 1000 Ang^3
#
#
#
# Elastic Constant Matrix: (Units=GPa)
#
#
# Indices 1 2 3 4 5 6 
#
# 1 36.6969 33.2341 24.6318 0.0000 -11.1941 0.0000
# 2 33.2341 122.1650 45.6364 0.0000 1.6788 0.0000
# 3 24.6318 45.6364 99.0817 0.0000 -14.1682 0.0000
# 4 0.0000 0.0000 0.0000 17.5531 0.0000 4.5871
# 5 -11.1941 1.6788 -14.1682 0.0000 12.4161 0.0000
# 6 0.0000 0.0000 0.0000 4.5871 0.0000 25.1386
#
#
#
# Elastic Compliance Matrix: (Units=1/GPa)
#
#
# Indices 1 2 3 4 5 6 
#
# 1 0.060030 -0.017722 0.001578 0.000000 0.058319 0.000000
# 2 -0.017722 0.015795 -0.006524 0.000000 -0.025558 0.000000
# 3 0.001578 -0.006524 0.015577 0.000000 0.020080 0.000000
# 4 0.000000 0.000000 0.000000 0.059823 0.000000 -0.010916
# 5 0.058319 -0.025558 0.020080 0.000000 0.159488 0.000000
# 6 0.000000 0.000000 0.000000 -0.010916 0.000000 0.041771
#
#
# Mechanical properties :
#
#
# Convention : Reuss Voigt Hill
#
# Bulk Modulus (GPa) = 21.70775 51.66091 36.68433
# Shear Modulus (GPa) = 12.10142 21.31766 16.70954
#
# Velocity S-wave (km/s) = 2.58784 3.43470 3.04089
# Velocity P-wave (km/s) = 4.57627 6.65722 5.71231
#
# Compressibility (1/GPa) = 0.04606650
#
# Stress axis : x y z
#
# Youngs Moduli (GPa) = 16.65834 63.31065 64.19894
#
# Poissons Ratio (x) = 1.12198 -0.10132
# Poissons Ratio (y) = 0.29521 0.41884
# Poissons Ratio (z) = -0.02629 0.41305
#
# Static dielectric constant tensor:
#      x y z
#    x 2.997470 0.000000 -0.242390 
#    y 0.000000 3.665800 0.000000 
#    z -0.242390 0.000000 3.514760 
# 
# 
# High freq. dielectric constant tensor:
#      x y z
#    x 1.654010 0.000000 -0.029050 
#    y 0.000000 1.686170 0.000000 
#    z -0.029050 0.000000 1.691200 
# 
# From -- ./inp_files/99562.got.cif
#   From: 2010.06.25/outbox.cif.g09.slc.cpg/sg12_50_cif.got.tgz:99562.got - 2010.06.28 00:19:55.
