data_PCOD8087756
_publ_section_title
;
Structure prediction by ZEFSAII (Michael W. Deem and Ramdas Pophale) SiO2 
 PCOD8087756
Probable space group: C 2/M
;
_chemical_formula_sum "Si O2"
_cell_formula_units_Z 64
_cell_length_a 24.069869
_cell_length_b 9.588811
_cell_length_c 27.591127
_cell_angle_alpha 90.000000
_cell_angle_beta 146.863236
_cell_angle_gamma 90.000000
_cell_volume 3481.038569
_symmetry_space_group_name_H-M "C 2/M"
_symmetry_group_IT_number 12
_symmetry_cell_setting 'monoclinic'
loop_
_space_group_symop_operation_xyz
x,y,z
-x,y,-z
-x,-y,-z
x,-y,z
1/2+x,1/2+y,z
1/2-x,1/2+y,-z
1/2-x,1/2-y,-z
1/2+x,1/2-y,z
loop_
_atom_site_type_symbol
_atom_site_label
_atom_site_fract_x
_atom_site_fract_y
_atom_site_fract_z
Si Si1 0.442915 0.166021 0.410944
Si Si2 0.307573 0.338817 0.651302
Si Si3 0.033697 0.337544 0.079335
Si Si4 0.663045 0.157618 0.883388
Si Si5 0.214527 0.838155 0.251507
Si Si6 0.102889 0.665645 0.451991
Si Si7 0.445845 0.160239 0.689512
Si Si8 0.647730 0.837794 0.983142
O O1 0.500000 0.226270 0.500000
O O2 0.327339 0.219336 0.322234
O O3 0.504964 0.220851 0.409744
O O4 0.440769 0.000000 0.413277
O O5 0.322972 0.500000 0.649094
O O6 0.304212 0.315532 0.705682
O O7 0.205291 0.278806 0.551849
O O8 0.402040 0.251879 0.700764
O O9 0.057574 0.500000 0.105083
O O10 0.135542 0.250926 0.162864
O O11 0.946604 0.286419 0.053147
O O12 0.000000 0.307582 0.000000
O O13 0.567423 0.174689 0.778138
O O14 0.626879 0.196368 0.911505
O O15 0.705010 0.000000 0.913381
O O16 0.750869 0.256483 0.926867
O O17 0.202484 0.000000 0.228326
O O18 0.101250 0.500000 0.452361
O O19 0.096332 0.719387 0.392169
O O20 0.413701 0.000000 0.674315
O O21 0.667745 0.000000 0.007188
#
# Coordination Sequence:
#
# PCOD8087756 Si02
#       8
#     8   8   8   8   8   8   8   8
#     4   9  15  29  52  76 104 136 173 219 265 307
#     4  10  19  32  51  76 105 136 173 213 254 305
#     4  10  22  39  56  76 107 144 174 207 262 325
#     4   9  18  32  51  75 100 128 165 212 259 301
#     4  10  20  33  56  85 104 131 178 224 263 303
#     4   9  17  30  49  73 103 138 173 212 257 306
#     4  10  20  32  48  74 106 138 171 208 257 312
#     4   9  18  34  54  72  95 132 173 206 249 309
#
# _framework density 18.385318000000002
#
# number of rings (size 3 to 8) (size 9 to 14) (size 15 to 20)
#    0.000    2.500    1.250    1.125    0.000    3.750 
#    0.000    3.750    0.000    1.875    0.000    0.000 
#    0.000    0.000    0.000    0.000    0.000    0.000 
#
# Total GULP energy -396812.447108 kJ/mol
# GULP energy per Si atom -12400.388972 kJ/mol
# Density = 1.834347 g / cm^3
# Si number density = 18.385318 Si / 1000 Ang^3
#
#
#
# Elastic Constant Matrix: (Units=GPa)
#
#
# Indices 1 2 3 4 5 6 
#
# 1 63.5594 27.4497 32.3039 0.0000 14.1880 0.0000
# 2 27.4497 43.3826 43.5870 0.0000 5.3479 0.0001
# 3 32.3039 43.5870 118.2047 -0.0001 6.1021 0.0000
# 4 0.0000 0.0000 -0.0001 24.3810 0.0000 1.2731
# 5 14.1880 5.3479 6.1021 0.0000 30.3601 0.0000
# 6 0.0000 0.0001 0.0000 1.2731 0.0000 21.1475
#
#
#
# Elastic Compliance Matrix: (Units=1/GPa)
#
#
# Indices 1 2 3 4 5 6 
#
# 1 0.023813 -0.012570 -0.001428 0.000000 -0.008627 0.000000
# 2 -0.012570 0.043684 -0.012711 0.000000 0.000734 0.000000
# 3 -0.001428 -0.012711 0.013527 0.000000 0.000187 0.000000
# 4 0.000000 0.000000 0.000000 0.041145 0.000000 -0.002477
# 5 -0.008627 0.000734 0.000187 0.000000 0.036803 0.000000
# 6 0.000000 0.000000 0.000000 -0.002477 0.000000 0.047436
#
#
# Mechanical properties :
#
#
# Convention : Reuss Voigt Hill
#
# Bulk Modulus (GPa) = 36.22052 47.98085 42.10069
# Shear Modulus (GPa) = 18.58541 23.29813 20.94177
#
# Velocity S-wave (km/s) = 3.18289 3.56366 3.37864
# Velocity P-wave (km/s) = 5.76639 6.56406 6.17811
#
# Compressibility (1/GPa) = 0.02760866
#
# Stress axis : x y z
#
# Youngs Moduli (GPa) = 41.99349 22.89143 73.92380
#
# Poissons Ratio (x) = 0.28774 0.10553
# Poissons Ratio (y) = 0.52785 0.93965
# Poissons Ratio (z) = 0.05995 0.29097
#
# Static dielectric constant tensor:
#      x y z
#    x 3.440060 0.000000 0.026390 
#    y 0.000000 3.075320 0.000000 
#    z 0.026390 0.000000 3.436230 
# 
# 
# High freq. dielectric constant tensor:
#      x y z
#    x 1.715730 0.000000 0.002790 
#    y 0.000000 1.677520 0.000000 
#    z 0.002790 0.000000 1.720300 
# 
# From -- ./inp_files/382456.got.cif
#   From: 2010.06.25/outbox.cif.g09.slc.cpg/sg12_192_cif.got.tgz:382456.got - 2010.06.28 00:19:55.
