data_PCOD8087994
_publ_section_title
;
Structure prediction by ZEFSAII (Michael W. Deem and Ramdas Pophale) SiO2 
 PCOD8087994
Probable space group: C 2/M
;
_chemical_formula_sum "Si O2"
_cell_formula_units_Z 64
_cell_length_a 14.178386
_cell_length_b 13.937608
_cell_length_c 17.359188
_cell_angle_alpha 90.000000
_cell_angle_beta 93.852862
_cell_angle_gamma 90.000000
_cell_volume 3422.644458
_symmetry_space_group_name_H-M "C 2/M"
_symmetry_group_IT_number 12
_symmetry_cell_setting 'monoclinic'
loop_
_space_group_symop_operation_xyz
x,y,z
-x,y,-z
-x,-y,-z
x,-y,z
1/2+x,1/2+y,z
1/2-x,1/2+y,-z
1/2-x,1/2-y,-z
1/2+x,1/2-y,z
loop_
_atom_site_type_symbol
_atom_site_label
_atom_site_fract_x
_atom_site_fract_y
_atom_site_fract_z
Si Si1 0.420021 0.888103 0.143456
Si Si2 0.883994 0.708753 0.865540
Si Si3 0.410410 0.392724 0.945985
Si Si4 0.350928 0.891640 0.712382
Si Si5 0.257388 0.388874 0.444688
Si Si6 0.393445 0.782935 0.463848
Si Si7 0.563773 0.110554 0.684343
Si Si8 0.789170 0.392357 0.998708
O O1 0.514266 0.838368 0.118563
O O2 0.394786 0.858337 0.229876
O O3 0.442395 0.000000 0.144123
O O4 0.334529 0.859480 0.082710
O O5 0.896149 0.823713 0.871568
O O6 0.835079 0.681021 0.782357
O O7 0.818044 0.678616 0.932795
O O8 0.423982 0.500000 0.913621
O O9 0.500000 0.358555 0.000000
O O10 0.322958 0.388133 0.999716
O O11 0.268506 0.874881 0.646338
O O12 0.451225 0.873185 0.677418
O O13 0.347864 0.000000 0.745066
O O14 0.281600 0.500000 0.464095
O O15 0.348589 0.323461 0.467527
O O16 0.167395 0.357737 0.490015
O O17 0.500000 0.778853 0.500000
O O18 0.389966 0.820070 0.376040
O O19 0.588249 0.000000 0.666087
O O20 0.823397 0.500000 0.980349
#
# Coordination Sequence:
#
# PCOD8087994 Si02
#       8
#     8   8   8   8   8   8   8   8
#     4   9  18  31  51  84 113 130 161 224 291 329
#     4  11  19  31  55  80 105 135 174 222 273 324
#     4  10  22  37  49  66  98 143 192 230 260 311
#     4   9  18  34  56  83 112 138 171 223 281 331
#     4  10  22  38  57  87 121 150 185 232 283 333
#     4  11  21  35  61  87 111 149 197 228 275 342
#     4   9  17  31  54  83 112 142 178 227 279 330
#     4  10  19  32  52  76 103 135 176 224 276 324
#
# _framework density 18.698990999999999
#
# number of rings (size 3 to 8) (size 9 to 14) (size 15 to 20)
#    0.000    2.125    1.250    3.750    0.000    2.750 
#    0.000    1.250    0.000    9.000    0.000    0.000 
#    0.000    0.000    0.000    0.000    0.000    0.000 
#
# Total GULP energy -396802.588158 kJ/mol
# GULP energy per Si atom -12400.080880 kJ/mol
# Density = 1.865643 g / cm^3
# Si number density = 18.698991 Si / 1000 Ang^3
#
#
#
# Elastic Constant Matrix: (Units=GPa)
#
#
# Indices 1 2 3 4 5 6 
#
# 1 80.5039 25.9809 34.9563 0.0000 -0.8529 0.0000
# 2 25.9809 104.5580 49.5559 0.0000 -10.4680 0.0000
# 3 34.9563 49.5559 96.9428 0.0000 -9.9003 0.0000
# 4 0.0000 0.0000 0.0000 29.3635 0.0000 0.6954
# 5 -0.8529 -10.4680 -9.9003 0.0000 16.3148 0.0000
# 6 0.0000 0.0000 0.0000 0.6954 0.0000 11.0309
#
#
#
# Elastic Compliance Matrix: (Units=1/GPa)
#
#
# Indices 1 2 3 4 5 6 
#
# 1 0.015071 -0.001768 -0.004868 0.000000 -0.003300 0.000000
# 2 -0.001768 0.013142 -0.005574 0.000000 0.004957 0.000000
# 3 -0.004868 -0.005574 0.015488 0.000000 0.005568 0.000000
# 4 0.000000 0.000000 0.000000 0.034107 0.000000 -0.002150
# 5 -0.003300 0.004957 0.005568 0.000000 0.067681 0.000000
# 6 0.000000 0.000000 0.000000 -0.002150 0.000000 0.090790
#
#
# Mechanical properties :
#
#
# Convention : Reuss Voigt Hill
#
# Bulk Modulus (GPa) = 51.86311 55.88786 53.87549
# Shear Modulus (GPa) = 18.71781 22.77596 20.74689
#
# Velocity S-wave (km/s) = 3.16730 3.49382 3.33456
# Velocity P-wave (km/s) = 6.41652 6.79917 6.61061
#
# Compressibility (1/GPa) = 0.01928153
#
# Stress axis : x y z
#
# Youngs Moduli (GPa) = 66.35233 76.09452 64.56419
#
# Poissons Ratio (x) = 0.13456 0.31427
# Poissons Ratio (y) = 0.11733 0.35987
# Poissons Ratio (z) = 0.32297 0.42414
#
# Static dielectric constant tensor:
#      x y z
#    x 3.268700 0.000000 0.064580 
#    y 0.000000 3.487680 0.000000 
#    z 0.064580 0.000000 3.463710 
# 
# 
# High freq. dielectric constant tensor:
#      x y z
#    x 1.715370 0.000000 0.002600 
#    y 0.000000 1.725730 0.000000 
#    z 0.002600 0.000000 1.720360 
# 
# From -- ./inp_files/269910.got.cif
#   From: 2010.06.25/outbox.cif.g09.slc.cpg/sg12_135_cif.got.tgz:269910.got - 2010.06.28 00:19:55.
