data_PCOD8087738
_publ_section_title
;
Structure prediction by ZEFSAII (Michael W. Deem and Ramdas Pophale) SiO2 
 PCOD8087738
Probable space group: C 2/M
;
_chemical_formula_sum "Si O2"
_cell_formula_units_Z 64
_cell_length_a 14.660414
_cell_length_b 9.250621
_cell_length_c 27.105146
_cell_angle_alpha 90.000000
_cell_angle_beta 105.707523
_cell_angle_gamma 90.000000
_cell_volume 3538.670207
_symmetry_space_group_name_H-M "C 2/M"
_symmetry_group_IT_number 12
_symmetry_cell_setting 'monoclinic'
loop_
_space_group_symop_operation_xyz
x,y,z
-x,y,-z
-x,-y,-z
x,-y,z
1/2+x,1/2+y,z
1/2-x,1/2+y,-z
1/2-x,1/2-y,-z
1/2+x,1/2-y,z
loop_
_atom_site_type_symbol
_atom_site_label
_atom_site_fract_x
_atom_site_fract_y
_atom_site_fract_z
Si Si1 0.956676 0.169066 0.237239
Si Si2 0.704983 0.330335 0.424402
Si Si3 0.228842 0.670987 0.764877
Si Si4 0.548291 0.170372 0.056694
Si Si5 0.397634 0.831017 0.505646
Si Si6 0.720280 0.335368 0.119573
Si Si7 0.654536 0.668197 0.310043
Si Si8 0.937351 0.667065 0.137165
O O1 0.044089 0.198419 0.286354
O O2 0.870112 0.247015 0.250859
O O3 0.979403 0.235702 0.187074
O O4 0.936162 0.000000 0.227313
O O5 0.682998 0.500000 0.424185
O O6 0.628872 0.253059 0.448485
O O7 0.814366 0.297450 0.454060
O O8 0.688485 0.266367 0.367155
O O9 0.208847 0.500000 0.759606
O O10 0.285489 0.707357 0.823409
O O11 0.287283 0.734107 0.727319
O O12 0.652400 0.236019 0.077271
O O13 0.484437 0.218673 0.093426
O O14 0.559892 0.000000 0.055367
O O15 0.500000 0.230849 0.000000
O O16 0.500000 0.778096 0.500000
O O17 0.402377 0.000000 0.518990
O O18 0.688676 0.500000 0.107368
O O19 0.825620 0.308430 0.115182
O O20 0.677221 0.500000 0.313480
O O21 0.959688 0.500000 0.152548
#
# Coordination Sequence:
#
# PCOD8087738 Si02
#       8
#     8   8   8   8   8   8   8   8
#     4  10  19  32  51  75  99 125 164 204 235 280
#     4   9  18  33  51  72  99 131 166 201 243 293
#     4   9  18  34  53  73 100 133 164 194 240 296
#     4  10  21  35  51  73  99 126 160 204 249 289
#     4   9  18  33  52  73  97 127 166 210 249 287
#     4   9  18  33  52  72  96 129 164 196 235 291
#     4   9  18  32  50  72 102 136 162 193 242 296
#     4   9  19  36  53  70  98 132 161 194 244 297
#
# _framework density 18.085891
#
# number of rings (size 3 to 8) (size 9 to 14) (size 15 to 20)
#    0.000    2.750    0.000    1.875    0.000    5.500 
#    0.000    4.375    0.000    0.000    0.000    0.000 
#    0.000    0.000    0.000    0.000    0.000    0.000 
#
# Total GULP energy -396785.948101 kJ/mol
# GULP energy per Si atom -12399.560878 kJ/mol
# Density = 1.804473 g / cm^3
# Si number density = 18.085891 Si / 1000 Ang^3
#
#
#
# Elastic Constant Matrix: (Units=GPa)
#
#
# Indices 1 2 3 4 5 6 
#
# 1 76.9401 22.9069 30.9620 0.0000 4.6199 0.0000
# 2 22.9069 36.1099 23.5958 0.0000 5.5974 0.0000
# 3 30.9620 23.5958 96.5444 0.0000 11.3621 0.0000
# 4 0.0000 0.0000 0.0000 24.4252 0.0000 2.1198
# 5 4.6199 5.5974 11.3621 0.0000 20.1869 0.0000
# 6 0.0000 0.0000 0.0000 2.1198 0.0000 24.8352
#
#
#
# Elastic Compliance Matrix: (Units=1/GPa)
#
#
# Indices 1 2 3 4 5 6 
#
# 1 0.016879 -0.008571 -0.003366 0.000000 0.000408 0.000000
# 2 -0.008571 0.037774 -0.005870 0.000000 -0.005208 0.000000
# 3 -0.003366 -0.005870 0.013483 0.000000 -0.005191 0.000000
# 4 0.000000 0.000000 0.000000 0.041247 0.000000 -0.003521
# 5 0.000408 -0.005208 -0.005191 0.000000 0.053809 0.000000
# 6 0.000000 0.000000 0.000000 -0.003521 0.000000 0.040566
#
#
# Mechanical properties :
#
#
# Convention : Reuss Voigt Hill
#
# Bulk Modulus (GPa) = 30.74999 40.50263 35.62631
# Shear Modulus (GPa) = 19.98292 22.69812 21.34052
#
# Velocity S-wave (km/s) = 3.32759 3.54647 3.43877
# Velocity P-wave (km/s) = 5.63941 6.26204 5.95886
#
# Compressibility (1/GPa) = 0.03252034
#
# Stress axis : x y z
#
# Youngs Moduli (GPa) = 59.24477 26.47346 74.16657
#
# Poissons Ratio (x) = 0.22691 0.24968
# Poissons Ratio (y) = 0.50779 0.43538
# Poissons Ratio (z) = 0.19944 0.15541
#
# Static dielectric constant tensor:
#      x y z
#    x 3.347910 0.000000 -0.083670 
#    y 0.000000 3.167090 0.000000 
#    z -0.083670 0.000000 3.500770 
# 
# 
# High freq. dielectric constant tensor:
#      x y z
#    x 1.706300 0.000000 -0.000360 
#    y 0.000000 1.683490 0.000000 
#    z -0.000360 0.000000 1.699870 
# 
# From -- ./inp_files/360009.got.cif
#   From: 2010.06.25/outbox.cif.g09.slc.cpg/sg12_181_cif.got.tgz:360009.got - 2010.06.28 00:19:55.
