data_PCOD8087177
_publ_section_title
;
Structure prediction by ZEFSAII (Michael W. Deem and Ramdas Pophale) SiO2 
 PCOD8087177
Probable space group: C 2/M
;
_chemical_formula_sum "Si O2"
_cell_formula_units_Z 48
_cell_length_a 10.262911
_cell_length_b 18.658489
_cell_length_c 13.960685
_cell_angle_alpha 90.000000
_cell_angle_beta 89.739397
_cell_angle_gamma 90.000000
_cell_volume 2673.309670
_symmetry_space_group_name_H-M "C 2/M"
_symmetry_group_IT_number 12
_symmetry_cell_setting 'monoclinic'
loop_
_space_group_symop_operation_xyz
x,y,z
-x,y,-z
-x,-y,-z
x,-y,z
1/2+x,1/2+y,z
1/2-x,1/2+y,-z
1/2-x,1/2-y,-z
1/2+x,1/2-y,z
loop_
_atom_site_type_symbol
_atom_site_label
_atom_site_fract_x
_atom_site_fract_y
_atom_site_fract_z
Si Si1 0.520490 0.416699 0.734012
Si Si2 0.877836 0.828983 0.436408
Si Si3 0.719507 0.084916 0.743879
Si Si4 0.381696 0.583775 0.058442
Si Si5 0.871553 0.661863 0.441752
Si Si6 0.131912 0.585421 0.953154
O O1 0.523709 0.500000 0.705937
O O2 0.606851 0.371788 0.660997
O O3 0.370690 0.390081 0.740273
O O4 0.597385 0.401328 0.830856
O O5 0.871658 0.745072 0.413605
O O6 0.749475 0.856817 0.489968
O O7 0.000000 0.849241 0.500000
O O8 0.637881 0.118262 0.656857
O O9 0.654555 0.111518 0.843653
O O10 0.711235 0.000000 0.735476
O O11 0.379777 0.500000 0.034606
O O12 0.500000 0.620010 0.000000
O O13 0.246491 0.616390 0.020496
O O14 0.000000 0.639545 0.500000
O O15 0.128392 0.500000 0.954354
O O16 0.000000 0.616969 0.000000
#
# Coordination Sequence:
#
# PCOD8087177 Si02
#       6
#     8   8   8   8   8   8
#     4  10  19  31  56  86 106 132 177 227 261 296
#     4  10  20  37  56  76 102 141 183 211 257 322
#     4  10  19  33  55  82 108 137 174 220 268 304
#     4   9  15  27  47  75 106 135 170 207 253 312
#     4  10  22  37  54  75 106 144 176 213 262 321
#     4   9  17  29  48  75 109 142 167 203 260 320
#
# _framework density 17.955271
#
# number of rings (size 3 to 8) (size 9 to 14) (size 15 to 20)
#    0.000    2.333    3.333    0.000    0.000    2.667 
#    0.000    1.667    0.000    2.000    0.000    0.000 
#    0.000    0.000    0.000    0.000    0.000    0.000 
#
# Total GULP energy -297557.256423 kJ/mol
# GULP energy per Si atom -12398.219018 kJ/mol
# Density = 1.791440 g / cm^3
# Si number density = 17.955271 Si / 1000 Ang^3
#
#
#
# Elastic Constant Matrix: (Units=GPa)
#
#
# Indices 1 2 3 4 5 6 
#
# 1 161.6492 27.4032 96.4361 0.0000 -1.4438 0.0000
# 2 27.4032 25.9921 41.2032 0.0000 -3.6186 0.0000
# 3 96.4361 41.2032 130.4259 0.0000 -8.5957 0.0000
# 4 0.0000 0.0000 0.0000 -3.9994 0.0000 33.6759
# 5 -1.4438 -3.6186 -8.5957 0.0000 35.6570 0.0000
# 6 0.0000 0.0000 0.0000 33.6759 0.0000 301.0198
#
#
#
# Elastic Compliance Matrix: (Units=1/GPa)
#
#
# Indices 1 2 3 4 5 6 
#
# 1 0.011237 0.002547 -0.009213 0.000000 -0.001507 0.000000
# 2 0.002547 0.077784 -0.026348 0.000000 0.001645 0.000000
# 3 -0.009213 -0.026348 0.022967 0.000000 0.002490 0.000000
# 4 0.000000 0.000000 0.000000 -0.128753 0.000000 0.014404
# 5 -0.001507 0.001645 0.002490 0.000000 0.028751 0.000000
# 6 0.000000 0.000000 0.000000 0.014404 0.000000 0.001711
#
#
# Mechanical properties :
#
#
# Convention : Reuss Voigt Hill
#
# Bulk Modulus (GPa) = 21.75763 72.01691 46.88727
# Shear Modulus (GPa) = 52.60757 76.73713 64.67235
#
# Velocity S-wave (km/s) = 5.41875 6.54452 6.00806
# Velocity P-wave (km/s) = 7.16201 9.86427 8.61969
#
# Compressibility (1/GPa) = 0.04596089
#
# Stress axis : x y z
#
# Youngs Moduli (GPa) = 88.99201 12.85613 43.54160
#
# Poissons Ratio (x) = -0.03275 0.40113
# Poissons Ratio (y) = -0.22667 1.14722
# Poissons Ratio (z) = 0.81984 0.33873
#
# Static dielectric constant tensor:
#      x y z
#    x 3.591630 0.000000 0.027660 
#    y 0.000000 2.872120 0.000000 
#    z 0.027660 0.000000 3.337250 
# 
# 
# High freq. dielectric constant tensor:
#      x y z
#    x 1.706530 0.000000 0.000800 
#    y 0.000000 1.646560 0.000000 
#    z 0.000800 0.000000 1.707600 
# 
# From -- ./inp_files/132497.got.cif
#   From: 2010.06.25/outbox.cif.g09.slc.cpg/sg12_67_cif.got.tgz:132497.got - 2010.06.28 00:19:55.
