data_PCOD8087258
_publ_section_title
;
Structure prediction by ZEFSAII (Michael W. Deem and Ramdas Pophale) SiO2 
 PCOD8087258
Probable space group: C 2/M
;
_chemical_formula_sum "Si O2"
_cell_formula_units_Z 56
_cell_length_a 32.011690
_cell_length_b 9.030737
_cell_length_c 11.984491
_cell_angle_alpha 90.000000
_cell_angle_beta 56.706172
_cell_angle_gamma 90.000000
_cell_volume 2895.931665
_symmetry_space_group_name_H-M "C 2/M"
_symmetry_group_IT_number 12
_symmetry_cell_setting 'monoclinic'
loop_
_space_group_symop_operation_xyz
x,y,z
-x,y,-z
-x,-y,-z
x,-y,z
1/2+x,1/2+y,z
1/2-x,1/2+y,-z
1/2-x,1/2-y,-z
1/2+x,1/2-y,z
loop_
_atom_site_type_symbol
_atom_site_label
_atom_site_fract_x
_atom_site_fract_y
_atom_site_fract_z
Si Si1 0.506654 0.176922 0.863498
Si Si2 0.623625 0.826932 0.318876
Si Si3 0.587808 0.824403 0.133968
Si Si4 0.820868 0.673260 0.140479
Si Si5 0.728002 0.674724 0.140226
Si Si6 0.897295 0.673799 0.405255
Si Si7 0.196769 0.674419 0.587888
O O1 0.461822 0.239169 0.851914
O O2 0.557749 0.241664 0.734662
O O3 0.507122 0.000000 0.862214
O O4 0.500000 0.235232 0.000000
O O5 0.590107 0.779054 0.261539
O O6 0.674102 0.735176 0.248789
O O7 0.593817 0.790734 0.476830
O O8 0.637552 0.000000 0.291031
O O9 0.587301 0.000000 0.123523
O O10 0.635946 0.754219 0.999987
O O11 0.826638 0.500000 0.115435
O O12 0.765348 0.721076 0.185124
O O13 0.828340 0.718421 0.257468
O O14 0.725178 0.500000 0.125850
O O15 0.750000 0.750000 0.000000
O O16 0.897008 0.500000 0.383755
O O17 0.842898 0.734191 0.445720
O O18 0.206026 0.500000 0.564884
O O19 0.250000 0.750000 0.500000
#
# Coordination Sequence:
#
# PCOD8087258 Si02
#       7
#     8   8   8   8   8   8   8
#     4   9  16  27  45  71 100 130 167 208 254 300
#     4  10  19  32  48  71 106 136 164 203 252 301
#     4   9  16  27  45  68  96 129 163 202 248 297
#     4   9  17  29  46  68  95 128 161 198 245 290
#     4  11  20  32  50  73 102 134 169 205 247 297
#     4   9  18  30  46  71 102 134 164 206 253 292
#     4  10  19  32  49  69  97 128 162 201 241 291
#
# _framework density 19.337474
#
# number of rings (size 3 to 8) (size 9 to 14) (size 15 to 20)
#    0.000    2.429    1.429    2.143    0.000    4.000 
#    0.000    3.571    0.000    0.000    0.000    3.000 
#    0.000    4.000    0.000    0.000    0.000    0.000 
#
# Total GULP energy -347048.737975 kJ/mol
# GULP energy per Si atom -12394.597785 kJ/mol
# Density = 1.929346 g / cm^3
# Si number density = 19.337474 Si / 1000 Ang^3
#
#
#
# Elastic Constant Matrix: (Units=GPa)
#
#
# Indices 1 2 3 4 5 6 
#
# 1 169.7281 18.0713 86.1997 0.0000 7.2162 0.0000
# 2 18.0713 25.8480 21.4148 0.0000 0.6891 0.0000
# 3 86.1997 21.4148 140.4067 0.0000 0.6053 0.0000
# 4 0.0000 0.0000 0.0000 14.8293 0.0000 -3.3161
# 5 7.2162 0.6891 0.6053 0.0000 37.1509 0.0000
# 6 0.0000 0.0000 0.0000 -3.3161 0.0000 17.2312
#
#
#
# Elastic Compliance Matrix: (Units=1/GPa)
#
#
# Indices 1 2 3 4 5 6 
#
# 1 0.008732 -0.001862 -0.005070 0.000000 -0.001579 0.000000
# 2 -0.001862 0.044700 -0.005673 0.000000 -0.000375 0.000000
# 3 -0.005070 -0.005673 0.011096 0.000000 0.000909 0.000000
# 4 0.000000 0.000000 0.000000 0.070467 0.000000 0.013561
# 5 -0.001579 -0.000375 0.000909 0.000000 0.027216 0.000000
# 6 0.000000 0.000000 0.000000 0.013561 0.000000 0.060644
#
#
# Mechanical properties :
#
#
# Convention : Reuss Voigt Hill
#
# Bulk Modulus (GPa) = 25.43383 65.26161 45.34772
# Shear Modulus (GPa) = 19.14459 27.86206 23.50333
#
# Velocity S-wave (km/s) = 3.14988 3.79995 3.49008
# Velocity P-wave (km/s) = 5.13908 7.28525 6.30417
#
# Compressibility (1/GPa) = 0.03931771
#
# Stress axis : x y z
#
# Youngs Moduli (GPa) = 114.51970 22.37159 90.12193
#
# Poissons Ratio (x) = 0.04166 0.45692
# Poissons Ratio (y) = 0.21328 0.51123
# Poissons Ratio (z) = 0.58062 0.12690
#
# Static dielectric constant tensor:
#      x y z
#    x 3.553730 0.000000 0.400350 
#    y 0.000000 4.156570 0.000000 
#    z 0.400350 0.000000 3.368290 
# 
# 
# High freq. dielectric constant tensor:
#      x y z
#    x 1.765730 0.000000 0.008670 
#    y 0.000000 1.678980 0.000000 
#    z 0.008670 0.000000 1.765020 
# 
# From -- ./inp_files/173887.got.cif
#   From: 2010.06.25/outbox.cif.g09.slc.cpg/sg12_87_cif.got.tgz:173887.got - 2010.06.28 00:19:55.
