data_PCOD8087516
_publ_section_title
;
Structure prediction by ZEFSAII (Michael W. Deem and Ramdas Pophale) SiO2 
 PCOD8087516
Probable space group: C 2/M
;
_chemical_formula_sum "Si O2"
_cell_formula_units_Z 64
_cell_length_a 28.546876
_cell_length_b 8.841331
_cell_length_c 19.543509
_cell_angle_alpha 90.000000
_cell_angle_beta 133.413266
_cell_angle_gamma 90.000000
_cell_volume 3583.141209
_symmetry_space_group_name_H-M "C 2/M"
_symmetry_group_IT_number 12
_symmetry_cell_setting 'monoclinic'
loop_
_space_group_symop_operation_xyz
x,y,z
-x,y,-z
-x,-y,-z
x,-y,z
1/2+x,1/2+y,z
1/2-x,1/2+y,-z
1/2-x,1/2-y,-z
1/2+x,1/2-y,z
loop_
_atom_site_type_symbol
_atom_site_label
_atom_site_fract_x
_atom_site_fract_y
_atom_site_fract_z
Si Si1 0.873680 0.822428 0.051188
Si Si2 0.935984 0.674905 0.897830
Si Si3 0.324062 0.176607 0.283208
Si Si4 0.508499 0.824277 0.339488
Si Si5 0.320825 0.323630 0.858674
Si Si6 0.871348 0.820297 0.199712
Si Si7 0.006704 0.671937 0.184759
Si Si8 0.062778 0.822351 0.519493
O O1 0.851467 0.761897 0.103620
O O2 0.947123 0.779914 0.109995
O O3 0.868928 0.000000 0.050318
O O4 0.830641 0.757502 0.945755
O O5 0.929803 0.500000 0.910440
O O6 0.870446 0.752664 0.855474
O O7 0.940150 0.703394 0.820237
O O8 0.000000 0.740434 0.000000
O O9 0.252018 0.208695 0.238630
O O10 0.325691 0.232499 0.206451
O O11 0.373062 0.272880 0.377268
O O12 0.341596 0.000000 0.304516
O O13 0.444988 0.725026 0.288566
O O14 0.535597 0.798838 0.289596
O O15 0.561913 0.764912 0.446189
O O16 0.492885 0.000000 0.337364
O O17 0.335723 0.500000 0.875716
O O18 0.864614 0.000000 0.202769
O O19 0.981350 0.500000 0.153632
O O20 0.000000 0.775551 0.500000
O O21 0.065255 0.000000 0.508674
#
# Coordination Sequence:
#
# PCOD8087516 Si02
#       8
#     8   8   8   8   8   8   8   8
#     4   9  18  32  50  73 106 143 177 214 256 304
#     4  10  19  33  55  81 109 140 177 219 262 309
#     4  11  23  37  53  75 106 142 180 220 264 314
#     4  10  19  32  54  80 107 137 171 215 264 310
#     4  10  22  37  52  76 108 143 182 220 261 311
#     4  10  19  32  50  75 106 141 179 215 255 307
#     4   9  18  32  51  80 110 136 172 216 260 308
#     4  11  22  36  56  80 106 135 174 221 266 315
#
# _framework density 17.861422000000001
#
# number of rings (size 3 to 8) (size 9 to 14) (size 15 to 20)
#    0.000    2.000    2.500    1.500    0.000    3.750 
#    0.000    0.000    0.000    0.750    0.000    0.000 
#    0.000    0.000    0.000    0.000    0.000    0.000 
#
# Total GULP energy -396734.932799 kJ/mol
# GULP energy per Si atom -12397.966650 kJ/mol
# Density = 1.782077 g / cm^3
# Si number density = 17.861422 Si / 1000 Ang^3
#
#
#
# Elastic Constant Matrix: (Units=GPa)
#
#
# Indices 1 2 3 4 5 6 
#
# 1 104.2324 27.0033 46.4352 0.0000 -4.2912 0.0000
# 2 27.0033 35.3330 23.5072 0.0000 -2.6914 0.0000
# 3 46.4352 23.5072 90.7271 0.0000 -7.5732 0.0000
# 4 0.0000 0.0000 0.0000 22.5641 0.0000 -2.3684
# 5 -4.2912 -2.6914 -7.5732 0.0000 24.8153 0.0000
# 6 0.0000 0.0000 0.0000 -2.3684 0.0000 28.0025
#
#
#
# Elastic Compliance Matrix: (Units=1/GPa)
#
#
# Indices 1 2 3 4 5 6 
#
# 1 0.013736 -0.007032 -0.005206 0.000000 0.000024 0.000000
# 2 -0.007032 0.037823 -0.006115 0.000000 0.001020 0.000000
# 3 -0.005206 -0.006115 0.015536 0.000000 0.003178 0.000000
# 4 0.000000 0.000000 0.000000 0.044715 0.000000 0.003782
# 5 0.000024 0.001020 0.003178 0.000000 0.041382 0.000000
# 6 0.000000 0.000000 0.000000 0.003782 0.000000 0.036031
#
#
# Mechanical properties :
#
#
# Convention : Reuss Voigt Hill
#
# Bulk Modulus (GPa) = 32.90836 47.13154 40.01995
# Shear Modulus (GPa) = 21.18095 23.96618 22.57357
#
# Velocity S-wave (km/s) = 3.44735 3.66701 3.55888
# Velocity P-wave (km/s) = 5.85747 6.66138 6.27231
#
# Compressibility (1/GPa) = 0.03038741
#
# Stress axis : x y z
#
# Youngs Moduli (GPa) = 72.80065 26.43898 64.36466
#
# Poissons Ratio (x) = 0.18593 0.33510
# Poissons Ratio (y) = 0.51195 0.39362
# Poissons Ratio (z) = 0.37902 0.16169
#
# Static dielectric constant tensor:
#      x y z
#    x 3.284270 0.000000 -0.308920 
#    y 0.000000 3.284550 0.000000 
#    z -0.308920 0.000000 3.354110 
# 
# 
# High freq. dielectric constant tensor:
#      x y z
#    x 1.676990 0.000000 -0.021520 
#    y 0.000000 1.694080 0.000000 
#    z -0.021520 0.000000 1.680820 
# 
# From -- ./inp_files/326907.got.cif
#   From: 2010.06.25/outbox.cif.g09.slc.cpg/sg12_164_cif.got.tgz:326907.got - 2010.06.28 00:19:55.
