data_PCOD8087906
_publ_section_title
;
Structure prediction by ZEFSAII (Michael W. Deem and Ramdas Pophale) SiO2 
 PCOD8087906
Probable space group: C 2/M
;
_chemical_formula_sum "Si O2"
_cell_formula_units_Z 56
_cell_length_a 20.384557
_cell_length_b 9.279506
_cell_length_c 16.794135
_cell_angle_alpha 90.000000
_cell_angle_beta 90.503889
_cell_angle_gamma 90.000000
_cell_volume 3176.632534
_symmetry_space_group_name_H-M "C 2/M"
_symmetry_group_IT_number 12
_symmetry_cell_setting 'monoclinic'
loop_
_space_group_symop_operation_xyz
x,y,z
-x,y,-z
-x,-y,-z
x,-y,z
1/2+x,1/2+y,z
1/2-x,1/2+y,-z
1/2-x,1/2-y,-z
1/2+x,1/2-y,z
loop_
_atom_site_type_symbol
_atom_site_label
_atom_site_fract_x
_atom_site_fract_y
_atom_site_fract_z
Si Si1 0.987973 0.328956 0.409576
Si Si2 0.677216 0.167125 0.164383
Si Si3 0.760914 0.333917 0.580157
Si Si4 0.174382 0.831044 0.841896
Si Si5 0.385021 0.171475 0.679124
Si Si6 0.871205 0.835505 0.329613
Si Si7 0.318181 0.831264 0.009479
O O1 0.983056 0.500000 0.406351
O O2 0.046432 0.268263 0.354206
O O3 0.000000 0.276534 0.500000
O O4 0.920140 0.267305 0.376718
O O5 0.751451 0.228764 0.170937
O O6 0.629337 0.233545 0.231795
O O7 0.684252 0.000000 0.184930
O O8 0.645711 0.190837 0.075902
O O9 0.768787 0.500000 0.557856
O O10 0.750000 0.250000 0.500000
O O11 0.826755 0.274324 0.621599
O O12 0.701735 0.308102 0.640045
O O13 0.129635 0.799481 0.764527
O O14 0.143040 0.743198 0.916618
O O15 0.175478 0.000000 0.863028
O O16 0.388058 0.000000 0.679018
O O17 0.892876 0.000000 0.344217
O O18 0.307479 0.000000 0.026702
O O19 0.250000 0.750000 0.000000
#
# Coordination Sequence:
#
# PCOD8087906 Si02
#       7
#     8   8   8   8   8   8   8
#     4  10  21  35  51  73  99 130 167 209 252 292
#     4   8  13  25  46  70  94 123 162 199 234 286
#     4  10  19  32  52  74  96 125 162 205 252 294
#     4   9  16  29  48  71  98 127 163 201 244 294
#     4   9  16  30  51  70  94 129 166 201 242 293
#     4  10  20  34  53  74  99 133 167 202 249 305
#     4   9  16  25  43  71 101 130 160 198 245 293
#
# _framework density 17.628731999999999
#
# number of rings (size 3 to 8) (size 9 to 14) (size 15 to 20)
#    0.000    2.714    1.429    2.143    0.000    2.571 
#    0.000    0.714    0.000    5.143    0.000    6.000 
#    0.000    0.000    0.000    0.000    0.000    0.000 
#
# Total GULP energy -346998.367930 kJ/mol
# GULP energy per Si atom -12392.798855 kJ/mol
# Density = 1.758861 g / cm^3
# Si number density = 17.628732 Si / 1000 Ang^3
#
#
#
# Elastic Constant Matrix: (Units=GPa)
#
#
# Indices 1 2 3 4 5 6 
#
# 1 43.4046 15.5500 16.4754 0.0000 0.2893 0.0000
# 2 15.5500 44.8305 42.3336 0.0000 1.1790 0.0000
# 3 16.4754 42.3336 127.7988 0.0000 -5.7311 0.0000
# 4 0.0000 0.0000 0.0000 30.3839 0.0000 3.9808
# 5 0.2893 1.1790 -5.7311 0.0000 25.2239 0.0000
# 6 0.0000 0.0000 0.0000 3.9808 0.0000 18.6048
#
#
#
# Elastic Compliance Matrix: (Units=1/GPa)
#
#
# Indices 1 2 3 4 5 6 
#
# 1 0.026334 -0.008625 -0.000539 0.000000 -0.000021 0.000000
# 2 -0.008625 0.035689 -0.010892 0.000000 -0.004044 0.000000
# 3 -0.000539 -0.010892 0.011644 0.000000 0.003161 0.000000
# 4 0.000000 0.000000 0.000000 0.033861 0.000000 -0.007245
# 5 -0.000021 -0.004044 0.003161 0.000000 0.040552 0.000000
# 6 0.000000 0.000000 0.000000 -0.007245 0.000000 0.055300
#
#
# Mechanical properties :
#
#
# Convention : Reuss Voigt Hill
#
# Bulk Modulus (GPa) = 29.80064 40.52798 35.16431
# Shear Modulus (GPa) = 19.63279 24.28752 21.96016
#
# Velocity S-wave (km/s) = 3.34081 3.71580 3.53328
# Velocity P-wave (km/s) = 5.64115 6.43810 6.05276
#
# Compressibility (1/GPa) = 0.03355633
#
# Stress axis : x y z
#
# Youngs Moduli (GPa) = 37.97436 28.01972 85.88210
#
# Poissons Ratio (x) = 0.24166 0.04628
# Poissons Ratio (y) = 0.32752 0.93539
# Poissons Ratio (z) = 0.02046 0.30518
#
# Static dielectric constant tensor:
#      x y z
#    x 3.199420 0.000000 -0.376070 
#    y 0.000000 3.089290 0.000000 
#    z -0.376070 0.000000 4.169550 
# 
# 
# High freq. dielectric constant tensor:
#      x y z
#    x 1.645580 0.000000 -0.008230 
#    y 0.000000 1.650030 0.000000 
#    z -0.008230 0.000000 1.704970 
# 
# From -- ./inp_files/280262.got.cif
#   From: 2010.06.25/outbox.cif.g09.slc.cpg/sg12_141_cif.got.tgz:280262.got - 2010.06.28 00:19:55.
