data_PCOD8087648
_publ_section_title
;
Structure prediction by ZEFSAII (Michael W. Deem and Ramdas Pophale) SiO2 
 PCOD8087648
Probable space group: C 2/M
;
_chemical_formula_sum "Si O2"
_cell_formula_units_Z 64
_cell_length_a 24.771558
_cell_length_b 17.930390
_cell_length_c 21.144115
_cell_angle_alpha 90.000000
_cell_angle_beta 22.967714
_cell_angle_gamma 90.000000
_cell_volume 3664.659236
_symmetry_space_group_name_H-M "C 2/M"
_symmetry_group_IT_number 12
_symmetry_cell_setting 'monoclinic'
loop_
_space_group_symop_operation_xyz
x,y,z
-x,y,-z
-x,-y,-z
x,-y,z
1/2+x,1/2+y,z
1/2-x,1/2+y,-z
1/2-x,1/2-y,-z
1/2+x,1/2-y,z
loop_
_atom_site_type_symbol
_atom_site_label
_atom_site_fract_x
_atom_site_fract_y
_atom_site_fract_z
Si Si1 0.795210 0.913656 0.162097
Si Si2 0.052994 0.415265 0.331536
Si Si3 0.763121 0.662091 0.649413
Si Si4 0.477934 0.361473 0.180037
Si Si5 0.975445 0.084427 0.732670
Si Si6 0.945891 0.294693 0.268096
Si Si7 0.841401 0.413676 0.919236
Si Si8 0.175671 0.205084 0.488447
O O1 0.646944 0.897786 0.290828
O O2 0.812362 0.860091 0.204119
O O3 0.808167 0.000000 0.168963
O O4 0.913080 0.895037 0.985490
O O5 0.003561 0.500000 0.385419
O O6 0.141227 0.397762 0.173811
O O7 0.916804 0.367696 0.482088
O O8 0.674547 0.630386 0.685987
O O9 0.776377 0.752316 0.627345
O O10 0.480690 0.408193 0.241470
O O11 0.509972 0.274458 0.159507
O O12 0.071963 0.137085 0.585015
O O13 0.000181 0.000000 0.684233
O O14 0.816071 0.107260 0.894047
O O15 0.904948 0.266442 0.381996
O O16 0.808847 0.326728 0.381913
O O17 0.057313 0.360977 0.149908
O O18 0.873747 0.500000 0.900603
#
# Coordination Sequence:
#
# PCOD8087648 Si02
#       8
#     8   8   8   8   8   8   8   8
#     4  11  22  36  50  72 104 139 175 205 236 286
#     4  10  20  33  47  69 102 135 170 207 238 284
#     4  11  21  34  49  69 100 137 174 205 243 286
#     4  10  21  34  51  72 102 132 170 209 244 293
#     4  10  20  33  50  73 101 128 161 210 256 298
#     4   9  18  34  49  71  98 130 166 209 252 293
#     4  10  19  32  51  74 101 132 166 204 252 302
#     4   9  19  33  48  71  99 128 169 209 247 300
#
# _framework density 17.464106999999998
#
# number of rings (size 3 to 8) (size 9 to 14) (size 15 to 20)
#    0.000    2.000    2.500    2.250    0.000    7.000 
#    0.000    0.000    0.000    0.000    0.000    0.875 
#    0.000    8.000    0.000    0.000    0.000    0.000 
#
# Total GULP energy -396746.832724 kJ/mol
# GULP energy per Si atom -12398.338523 kJ/mol
# Density = 1.742436 g / cm^3
# Si number density = 17.464107 Si / 1000 Ang^3
#
#
#
# Elastic Constant Matrix: (Units=GPa)
#
#
# Indices 1 2 3 4 5 6 
#
# 1 54.9021 32.5606 18.5612 0.0011 -3.3964 -0.0008
# 2 32.5606 72.5839 34.4805 0.0045 -4.2431 0.0006
# 3 18.5612 34.4805 59.8679 0.0033 -9.7174 0.0089
# 4 0.0011 0.0045 0.0033 20.0955 -0.0016 -4.9030
# 5 -3.3964 -4.2431 -9.7174 -0.0016 24.2553 -0.0005
# 6 -0.0008 0.0006 0.0089 -4.9030 -0.0005 26.8479
#
#
#
# Elastic Compliance Matrix: (Units=1/GPa)
#
#
# Indices 1 2 3 4 5 6 
#
# 1 0.024977 -0.010387 -0.001592 0.000002 0.001043 0.000002
# 2 -0.010387 0.023315 -0.010462 -0.000003 -0.001567 0.000002
# 3 -0.001592 -0.010462 0.024481 -0.000003 0.007755 -0.000008
# 4 0.000002 -0.000003 -0.000003 0.052083 0.000002 0.009512
# 5 0.001043 -0.001567 0.007755 0.000002 0.044207 -0.000001
# 6 0.000002 0.000002 -0.000008 0.009512 -0.000001 0.038984
#
#
# Mechanical properties :
#
#
# Convention : Reuss Voigt Hill
#
# Bulk Modulus (GPa) = 35.85433 39.83985 37.84709
# Shear Modulus (GPa) = 19.06735 21.02316 20.04526
#
# Velocity S-wave (km/s) = 3.30783 3.47334 3.39159
# Velocity P-wave (km/s) = 5.92991 6.24078 6.08733
#
# Compressibility (1/GPa) = 0.02789063
#
# Stress axis : x y z
#
# Youngs Moduli (GPa) = 40.03613 42.89030 40.84723
#
# Poissons Ratio (x) = 0.44552 0.06503
# Poissons Ratio (y) = 0.41587 0.42735
# Poissons Ratio (z) = 0.06374 0.44873
#
# Static dielectric constant tensor:
#      x y z
#    x 3.180770 0.000000 -0.123890 
#    y 0.000000 3.260350 0.000000 
#    z -0.123890 0.000000 3.327010 
# 
# 
# High freq. dielectric constant tensor:
#      x y z
#    x 1.648980 0.000000 -0.023690 
#    y 0.000000 1.662450 0.000000 
#    z -0.023690 0.000000 1.680210 
# 
# From -- ./inp_files/97700.got.cif
#   From: 2010.06.25/outbox.cif.g09.slc.cpg/sg12_49_cif.got.tgz:97700.got - 2010.06.28 00:19:55.
