data_PCOD8087889
_publ_section_title
;
Structure prediction by ZEFSAII (Michael W. Deem and Ramdas Pophale) SiO2 
 PCOD8087889
Probable space group: C 2/M
;
_chemical_formula_sum "Si O2"
_cell_formula_units_Z 64
_cell_length_a 30.941786
_cell_length_b 9.021278
_cell_length_c 14.682957
_cell_angle_alpha 90.000000
_cell_angle_beta 117.878941
_cell_angle_gamma 90.000000
_cell_volume 3622.835029
_symmetry_space_group_name_H-M "C 2/M"
_symmetry_group_IT_number 12
_symmetry_cell_setting 'monoclinic'
loop_
_space_group_symop_operation_xyz
x,y,z
-x,y,-z
-x,-y,-z
x,-y,z
1/2+x,1/2+y,z
1/2-x,1/2+y,-z
1/2-x,1/2-y,-z
1/2+x,1/2-y,z
loop_
_atom_site_type_symbol
_atom_site_label
_atom_site_fract_x
_atom_site_fract_y
_atom_site_fract_z
Si Si1 0.966557 0.671732 0.618460
Si Si2 0.031669 0.175164 0.193306
Si Si3 0.806497 0.826043 0.464664
Si Si4 0.931024 0.670415 0.083569
Si Si5 0.891964 0.670174 0.854313
Si Si6 0.392166 0.674358 0.417675
Si Si7 0.081165 0.331222 0.728134
Si Si8 0.303365 0.172670 0.645502
O O1 0.952541 0.500000 0.612217
O O2 0.950183 0.751748 0.695022
O O3 0.938375 0.743601 0.506660
O O4 0.023656 0.694929 0.657195
O O5 0.068175 0.222438 0.149753
O O6 0.977757 0.227271 0.112084
O O7 0.032222 0.000000 0.205380
O O8 0.842471 0.776399 0.419317
O O9 0.751579 0.773276 0.384953
O O10 0.823904 0.752728 0.575960
O O11 0.809027 0.000000 0.482325
O O12 0.949704 0.500000 0.107556
O O13 0.905081 0.710774 0.153919
O O14 0.892444 0.693764 0.963958
O O15 0.905037 0.500000 0.842719
O O16 0.838046 0.711957 0.764982
O O17 0.400580 0.500000 0.431625
O O18 0.388392 0.724838 0.308823
O O19 0.095461 0.500000 0.720001
O O20 0.303565 0.000000 0.623841
#
# Coordination Sequence:
#
# PCOD8087889 Si02
#       8
#     8   8   8   8   8   8   8   8
#     4  10  20  34  50  69  97 131 165 200 235 277
#     4  11  21  31  46  72 104 132 158 193 239 289
#     4   9  19  34  49  71 102 127 150 188 239 290
#     4   9  19  35  51  68  94 128 166 205 238 273
#     4  10  19  32  52  73  93 125 167 203 237 281
#     4  11  21  31  48  73  99 127 158 196 243 291
#     4   9  19  34  49  66  92 127 164 201 238 277
#     4   9  18  33  53  74  95 123 158 193 233 283
#
# _framework density 17.665723
#
# number of rings (size 3 to 8) (size 9 to 14) (size 15 to 20)
#    0.000    2.250    0.000    4.125    0.000    9.500 
#    0.000    0.000    0.000    0.750    0.000    0.000 
#    0.000    0.000    0.000    0.000    0.000    0.375 
#
# Total GULP energy -396848.048875 kJ/mol
# GULP energy per Si atom -12401.501527 kJ/mol
# Density = 1.762551 g / cm^3
# Si number density = 17.665723 Si / 1000 Ang^3
#
#
#
# Elastic Constant Matrix: (Units=GPa)
#
#
# Indices 1 2 3 4 5 6 
#
# 1 91.0074 42.9344 60.2631 0.0000 -18.4300 0.0000
# 2 42.9344 76.0906 41.9209 0.0000 -8.5633 0.0000
# 3 60.2631 41.9209 129.8537 0.0000 -13.2651 0.0000
# 4 0.0000 0.0000 0.0000 19.7533 0.0000 -5.5867
# 5 -18.4300 -8.5633 -13.2651 0.0000 22.4014 0.0000
# 6 0.0000 0.0000 0.0000 -5.5867 0.0000 23.4348
#
#
#
# Elastic Compliance Matrix: (Units=1/GPa)
#
#
# Indices 1 2 3 4 5 6 
#
# 1 0.020515 -0.006978 -0.006191 0.000000 0.010545 0.000000
# 2 -0.006978 0.018585 -0.002791 0.000000 -0.000289 0.000000
# 3 -0.006191 -0.002791 0.011544 0.000000 0.000676 0.000000
# 4 0.000000 0.000000 0.000000 0.054285 0.000000 0.012941
# 5 0.010545 -0.000289 0.000676 0.000000 0.053605 0.000000
# 6 0.000000 0.000000 0.000000 0.012941 0.000000 0.045757
#
#
# Mechanical properties :
#
#
# Convention : Reuss Voigt Hill
#
# Bulk Modulus (GPa) = 53.40706 65.24316 59.32511
# Shear Modulus (GPa) = 20.62278 23.24013 21.93146
#
# Velocity S-wave (km/s) = 3.42041 3.63099 3.52727
# Velocity P-wave (km/s) = 6.77471 7.38857 7.08829
#
# Compressibility (1/GPa) = 0.01872412
#
# Stress axis : x y z
#
# Youngs Moduli (GPa) = 48.74495 53.80770 86.62534
#
# Poissons Ratio (x) = 0.37548 0.53627
# Poissons Ratio (y) = 0.34016 0.24175
# Poissons Ratio (z) = 0.30176 0.15017
#
# Static dielectric constant tensor:
#      x y z
#    x 3.220670 0.000000 -0.076850 
#    y 0.000000 3.246550 0.000000 
#    z -0.076850 0.000000 3.414770 
# 
# 
# High freq. dielectric constant tensor:
#      x y z
#    x 1.662040 0.000000 -0.012320 
#    y 0.000000 1.683000 0.000000 
#    z -0.012320 0.000000 1.680470 
# 
# From -- ./inp_files/249181.got.cif
#   From: 2010.06.25/outbox.cif.g09.slc.cpg/sg12_125_cif.got.tgz:249181.got - 2010.06.28 00:19:55.
