data_PCOD8087274
_publ_section_title
;
Structure prediction by ZEFSAII (Michael W. Deem and Ramdas Pophale) SiO2 
 PCOD8087274
Probable space group: C 2/M
;
_chemical_formula_sum "Si O2"
_cell_formula_units_Z 48
_cell_length_a 8.954380
_cell_length_b 20.025448
_cell_length_c 17.948687
_cell_angle_alpha 90.000000
_cell_angle_beta 119.926488
_cell_angle_gamma 90.000000
_cell_volume 2789.345473
_symmetry_space_group_name_H-M "C 2/M"
_symmetry_group_IT_number 12
_symmetry_cell_setting 'monoclinic'
loop_
_space_group_symop_operation_xyz
x,y,z
-x,y,-z
-x,-y,-z
x,-y,z
1/2+x,1/2+y,z
1/2-x,1/2+y,-z
1/2-x,1/2-y,-z
1/2+x,1/2-y,z
loop_
_atom_site_type_symbol
_atom_site_label
_atom_site_fract_x
_atom_site_fract_y
_atom_site_fract_z
Si Si1 0.519169 0.820166 0.590060
Si Si2 0.659349 0.074295 0.731495
Si Si3 0.303641 0.074295 0.731495
Si Si4 0.339048 0.679834 0.409939
Si Si5 0.332977 0.579315 0.918702
Si Si6 0.004428 0.420685 0.918702
O O1 0.500000 0.843129 0.500000
O O2 0.642237 0.874150 0.659772
O O3 0.618481 0.750000 0.618481
O O4 0.332460 0.814487 0.582459
O O5 0.487068 0.072612 0.737068
O O6 0.815235 0.096557 0.825924
O O7 0.694671 0.000000 0.707698
O O8 0.177307 0.125850 0.659772
O O9 0.336613 0.096557 0.825924
O O10 0.220725 0.000000 0.707698
O O11 0.500000 0.656871 0.500000
O O12 0.333821 0.500000 0.927507
O O13 0.172468 0.610802 0.922468
O O14 0.500000 0.610936 0.000000
O O15 0.021196 0.500000 0.927508
O O16 0.000000 0.389064 0.000000
#
# Coordination Sequence:
#
# PCOD8087274 Si02
#       6
#     8   8   8   8   8   8
#     4  10  19  32  49  66  87 116 149 182 218 263
#     4   8  15  28  46  67  90 117 147 179 218 261
#     4   8  15  28  46  67  90 117 147 179 218 261
#     4  10  19  32  49  66  87 116 149 182 218 263
#     4   8  13  23  40  62  87 113 141 173 211 255
#     4   8  13  23  40  62  87 113 141 173 211 255
#
# _framework density 17.208337
#
# number of rings (size 3 to 8) (size 9 to 14) (size 15 to 20)
#    0.000    3.333    0.000    4.000    0.000    0.667 
#    0.000    3.333    0.000    8.000    0.000    7.000 
#    0.000    0.000    0.000    0.000    0.000    0.000 
#
# Total GULP energy -297342.271716 kJ/mol
# GULP energy per Si atom -12389.261322 kJ/mol
# Density = 1.716917 g / cm^3
# Si number density = 17.208337 Si / 1000 Ang^3
#
#
#
# Elastic Constant Matrix: (Units=GPa)
#
#
# Indices 1 2 3 4 5 6 
#
# 1 55.3187 26.1818 43.6174 0.0000 -0.0001 0.0000
# 2 26.1818 78.9940 93.5046 0.0000 -0.0001 0.0000
# 3 43.6174 93.5046 181.0295 0.0000 -0.0002 0.0000
# 4 0.0000 0.0000 0.0000 5.2272 0.0000 0.0000
# 5 -0.0001 -0.0001 -0.0002 0.0000 26.1605 0.0000
# 6 0.0000 0.0000 0.0000 0.0000 0.0000 13.6895
#
#
#
# Elastic Compliance Matrix: (Units=1/GPa)
#
#
# Indices 1 2 3 4 5 6 
#
# 1 0.022535 -0.002682 -0.004045 0.000000 0.000000 0.000000
# 2 -0.002682 0.032895 -0.016345 0.000000 0.000000 0.000000
# 3 -0.004045 -0.016345 0.014941 0.000000 0.000000 0.000000
# 4 0.000000 0.000000 0.000000 0.191308 0.000000 0.000000
# 5 0.000000 0.000000 0.000000 0.000000 0.038226 0.000000
# 6 0.000000 0.000000 0.000000 0.000000 0.000000 0.073049
#
#
# Mechanical properties :
#
#
# Convention : Reuss Voigt Hill
#
# Bulk Modulus (GPa) = 41.27215 71.32775 56.29995
# Shear Modulus (GPa) = 11.70488 19.15132 15.42810
#
# Velocity S-wave (km/s) = 2.61087 3.33965 2.99749
# Velocity P-wave (km/s) = 5.75541 7.51069 6.69086
#
# Compressibility (1/GPa) = 0.02422941
#
# Stress axis : x y z
#
# Youngs Moduli (GPa) = 44.37480 30.39965 66.93079
#
# Poissons Ratio (x) = 0.08152 0.27071
# Poissons Ratio (y) = 0.11899 1.09397
# Poissons Ratio (z) = 0.17948 0.49687
#
# Static dielectric constant tensor:
#      x y z
#    x 3.095430 0.000000 0.000000 
#    y 0.000000 2.987780 0.000000 
#    z 0.000000 0.000000 3.615780 
# 
# 
# High freq. dielectric constant tensor:
#      x y z
#    x 1.637320 0.000000 0.000000 
#    y 0.000000 1.623190 0.000000 
#    z 0.000000 0.000000 1.683100 
# 
# From -- ./inp_files/257745.got.cif
#   From: 2010.06.25/outbox.cif.g09.slc.cpg/sg12_129_cif.got.tgz:257745.got - 2010.06.28 00:19:55.
