data_PCOD8087278
_publ_section_title
;
Structure prediction by ZEFSAII (Michael W. Deem and Ramdas Pophale) SiO2 
 PCOD8087278
Probable space group: C 2/M
;
_chemical_formula_sum "Si O2"
_cell_formula_units_Z 56
_cell_length_a 25.683027
_cell_length_b 8.525089
_cell_length_c 12.822133
_cell_angle_alpha 90.000000
_cell_angle_beta 86.231988
_cell_angle_gamma 90.000000
_cell_volume 2801.338452
_symmetry_space_group_name_H-M "C 2/M"
_symmetry_group_IT_number 12
_symmetry_cell_setting 'monoclinic'
loop_
_space_group_symop_operation_xyz
x,y,z
-x,y,-z
-x,-y,-z
x,-y,z
1/2+x,1/2+y,z
1/2-x,1/2+y,-z
1/2-x,1/2-y,-z
1/2+x,1/2-y,z
loop_
_atom_site_type_symbol
_atom_site_label
_atom_site_fract_x
_atom_site_fract_y
_atom_site_fract_z
Si Si1 0.394811 0.186614 0.867717
Si Si2 0.200954 0.686386 0.729936
Si Si3 0.509824 0.186821 0.806922
Si Si4 0.156038 0.313428 0.518796
Si Si5 0.041101 0.312893 0.576876
Si Si6 0.613419 0.813838 0.899861
Si Si7 0.311592 0.186328 0.711320
O O1 0.453196 0.255272 0.845093
O O2 0.356215 0.252099 0.783341
O O3 0.396781 0.000000 0.860689
O O4 0.373770 0.240665 0.983973
O O5 0.201904 0.500000 0.734152
O O6 0.189705 0.745720 0.613310
O O7 0.156794 0.753473 0.814405
O O8 0.256183 0.753362 0.759923
O O9 0.524549 0.250891 0.691337
O O10 0.555236 0.246823 0.878729
O O11 0.507331 0.000000 0.808516
O O12 0.155011 0.500000 0.516569
O O13 0.097749 0.247213 0.539450
O O14 0.178929 0.247636 0.407007
O O15 0.041668 0.500000 0.576276
O O16 0.000000 0.245521 0.500000
O O17 0.613808 0.000000 0.890375
O O18 0.312315 0.000000 0.711614
#
# Coordination Sequence:
#
# PCOD8087278 Si02
#       7
#     8   8   8   8   8   8   8
#     4   9  17  27  41  64  94 122 147 183 232 277
#     4  10  19  32  49  67  90 123 159 189 221 267
#     4   9  14  23  39  62  91 120 148 180 226 279
#     4   9  16  28  43  63  92 121 150 185 226 271
#     4   9  14  20  35  60  91 121 144 175 226 279
#     4   9  16  27  43  64  90 120 152 186 227 274
#     4  10  20  32  46  67  95 123 152 190 231 266
#
# _framework density 19.990444
#
# number of rings (size 3 to 8) (size 9 to 14) (size 15 to 20)
#    0.000    2.714    1.429    1.714    0.000    5.714 
#    0.000    0.000    0.000    0.000    0.000    1.000 
#    0.000    4.571    0.000    0.000    0.000    0.000 
#
# Total GULP energy -347086.929511 kJ/mol
# GULP energy per Si atom -12395.961768 kJ/mol
# Density = 1.994494 g / cm^3
# Si number density = 19.990444 Si / 1000 Ang^3
#
#
#
# Elastic Constant Matrix: (Units=GPa)
#
#
# Indices 1 2 3 4 5 6 
#
# 1 176.4894 6.9053 83.8145 0.0000 -0.6563 0.0000
# 2 6.9053 2.9342 7.6073 0.0000 0.4309 0.0000
# 3 83.8145 7.6073 157.6496 0.0000 -0.8151 0.0000
# 4 0.0000 0.0000 0.0000 4.8852 0.0000 -0.6300
# 5 -0.6563 0.4309 -0.8151 0.0000 31.6762 0.0000
# 6 0.0000 0.0000 0.0000 -0.6300 0.0000 17.6126
#
#
#
# Elastic Compliance Matrix: (Units=1/GPa)
#
#
# Indices 1 2 3 4 5 6 
#
# 1 0.007769 -0.008691 -0.003710 0.000000 0.000184 0.000000
# 2 -0.008691 0.400327 -0.014728 0.000000 -0.006005 0.000000
# 3 -0.003710 -0.014728 0.009028 0.000000 0.000356 0.000000
# 4 0.000000 0.000000 0.000000 0.205649 0.000000 0.007356
# 5 0.000184 -0.006005 0.000356 0.000000 0.031664 0.000000
# 6 0.000000 0.000000 0.000000 0.007356 0.000000 0.057041
#
#
# Mechanical properties :
#
#
# Convention : Reuss Voigt Hill
#
# Bulk Modulus (GPa) = 2.75584 59.30303 31.02944
# Shear Modulus (GPa) = 5.63895 26.75121 16.19508
#
# Velocity S-wave (km/s) = 1.68135 3.66211 2.84939
# Velocity P-wave (km/s) = 2.26955 6.90011 5.13626
#
# Compressibility (1/GPa) = 0.36286526
#
# Stress axis : x y z
#
# Youngs Moduli (GPa) = 128.72363 2.49796 110.76575
#
# Poissons Ratio (x) = 0.02171 0.41092
# Poissons Ratio (y) = 1.11874 1.63137
# Poissons Ratio (z) = 0.47754 0.03679
#
# Static dielectric constant tensor:
#      x y z
#    x 3.854480 0.000000 0.007620 
#    y 0.000000 2.730480 0.000000 
#    z 0.007620 0.000000 3.936670 
# 
# 
# High freq. dielectric constant tensor:
#      x y z
#    x 1.794130 0.000000 -0.000090 
#    y 0.000000 1.689340 0.000000 
#    z -0.000090 0.000000 1.793900 
# 
# From -- ./inp_files/173882.got.cif
#   From: 2010.06.25/outbox.cif.g09.slc.cpg/sg12_87_cif.got.tgz:173882.got - 2010.06.28 00:19:55.
