data_PCOD8087628
_publ_section_title
;
Structure prediction by ZEFSAII (Michael W. Deem and Ramdas Pophale) SiO2 
 PCOD8087628
Probable space group: C 2/M
;
_chemical_formula_sum "Si O2"
_cell_formula_units_Z 64
_cell_length_a 18.843686
_cell_length_b 8.973367
_cell_length_c 20.745346
_cell_angle_alpha 90.000000
_cell_angle_beta 90.184439
_cell_angle_gamma 90.000000
_cell_volume 3507.839559
_symmetry_space_group_name_H-M "C 2/M"
_symmetry_group_IT_number 12
_symmetry_cell_setting 'monoclinic'
loop_
_space_group_symop_operation_xyz
x,y,z
-x,y,-z
-x,-y,-z
x,-y,z
1/2+x,1/2+y,z
1/2-x,1/2+y,-z
1/2-x,1/2-y,-z
1/2+x,1/2-y,z
loop_
_atom_site_type_symbol
_atom_site_label
_atom_site_fract_x
_atom_site_fract_y
_atom_site_fract_z
Si Si1 0.177439 0.674350 0.136866
Si Si2 0.420133 0.325263 0.616515
Si Si3 0.674061 0.175134 0.996274
Si Si4 0.661573 0.323196 0.870670
Si Si5 0.414376 0.173885 0.747150
Si Si6 0.673746 0.323923 0.502590
Si Si7 0.078960 0.326352 0.756003
Si Si8 0.917397 0.174706 0.375017
O O1 0.181109 0.500000 0.149113
O O2 0.257914 0.735574 0.139308
O O3 0.130831 0.745397 0.194141
O O4 0.139865 0.705262 0.067090
O O5 0.411119 0.500000 0.624310
O O6 0.390043 0.250788 0.681098
O O7 0.374073 0.265128 0.556692
O O8 0.502294 0.282993 0.604612
O O9 0.631080 0.252091 0.937485
O O10 0.681088 0.000000 0.982857
O O11 0.750000 0.250000 0.000000
O O12 0.656999 0.500000 0.876063
O O13 0.615407 0.266736 0.811854
O O14 0.495973 0.206753 0.762261
O O15 0.399918 0.000000 0.739004
O O16 0.682793 0.500000 0.499083
O O17 0.750000 0.250000 0.500000
O O18 0.634566 0.276333 0.567973
O O19 0.097284 0.500000 0.762752
O O20 0.106962 0.267111 0.687506
O O21 0.911370 0.000000 0.359450
#
# Coordination Sequence:
#
# PCOD8087628 Si02
#       8
#     8   8   8   8   8   8   8   8
#     4   8  16  31  51  72  94 126 166 203 241 291
#     4   9  18  34  54  74  96 127 168 205 239 288
#     4   9  16  29  49  72  98 129 167 208 249 295
#     4  10  19  32  51  73  99 132 168 205 246 296
#     4   9  18  34  53  73  98 128 164 203 245 294
#     4  10  21  35  52  76 104 132 162 202 249 292
#     4  10  20  33  51  75 101 128 161 205 250 292
#     4   9  18  35  56  72  93 131 171 202 239 292
#
# _framework density 18.244848000000001
#
# number of rings (size 3 to 8) (size 9 to 14) (size 15 to 20)
#    0.000    2.750    0.000    2.250    0.000    4.000 
#    0.000    8.125    0.000    7.500    0.000    0.000 
#    0.000    0.000    0.000    0.000    0.000    0.000 
#
# Total GULP energy -396689.525357 kJ/mol
# GULP energy per Si atom -12396.547667 kJ/mol
# Density = 1.820332 g / cm^3
# Si number density = 18.244848 Si / 1000 Ang^3
#
#
#
# Elastic Constant Matrix: (Units=GPa)
#
#
# Indices 1 2 3 4 5 6 
#
# 1 39.2279 18.3522 28.9779 0.0000 2.0278 0.0000
# 2 18.3522 55.2919 39.5786 0.0000 5.4954 0.0000
# 3 28.9779 39.5786 118.8058 0.0000 5.3234 0.0000
# 4 0.0000 0.0000 0.0000 35.5495 0.0000 2.9083
# 5 2.0278 5.4954 5.3234 0.0000 33.4243 0.0000
# 6 0.0000 0.0000 0.0000 2.9083 0.0000 23.3111
#
#
#
# Elastic Compliance Matrix: (Units=1/GPa)
#
#
# Indices 1 2 3 4 5 6 
#
# 1 0.032935 -0.006807 -0.005767 0.000000 0.000040 0.000000
# 2 -0.006807 0.025394 -0.006678 0.000000 -0.002698 0.000000
# 3 -0.005767 -0.006678 0.012070 0.000000 -0.000474 0.000000
# 4 0.000000 0.000000 0.000000 0.028420 0.000000 -0.003546
# 5 0.000040 -0.002698 -0.000474 0.000000 0.030435 0.000000
# 6 0.000000 0.000000 0.000000 -0.003546 0.000000 0.043340
#
#
# Mechanical properties :
#
#
# Convention : Reuss Voigt Hill
#
# Bulk Modulus (GPa) = 31.35483 43.01589 37.18536
# Shear Modulus (GPa) = 22.54988 26.88479 24.71733
#
# Velocity S-wave (km/s) = 3.51943 3.84286 3.68470
# Velocity P-wave (km/s) = 5.80845 6.58166 6.20711
#
# Compressibility (1/GPa) = 0.03189301
#
# Stress axis : x y z
#
# Youngs Moduli (GPa) = 30.36291 39.37947 82.85118
#
# Poissons Ratio (x) = 0.26807 0.47782
# Poissons Ratio (y) = 0.20669 0.55331
# Poissons Ratio (z) = 0.17511 0.26299
#
# Static dielectric constant tensor:
#      x y z
#    x 3.248580 0.000000 -0.103120 
#    y 0.000000 3.293270 0.000000 
#    z -0.103120 0.000000 3.828380 
# 
# 
# High freq. dielectric constant tensor:
#      x y z
#    x 1.683040 0.000000 0.000900 
#    y 0.000000 1.696520 0.000000 
#    z 0.000900 0.000000 1.727680 
# 
# From -- ./inp_files/314174.got.cif
#   From: 2010.06.25/outbox.cif.g09.slc.cpg/sg12_158_cif.got.tgz:314174.got - 2010.06.28 00:19:55.
