data_PCOD8087635
_publ_section_title
;
Structure prediction by ZEFSAII (Michael W. Deem and Ramdas Pophale) SiO2 
 PCOD8087635
Probable space group: C 2/M
;
_chemical_formula_sum "Si O2"
_cell_formula_units_Z 56
_cell_length_a 29.562581
_cell_length_b 8.834664
_cell_length_c 20.529930
_cell_angle_alpha 90.000000
_cell_angle_beta 147.269842
_cell_angle_gamma 90.000000
_cell_volume 2899.096778
_symmetry_space_group_name_H-M "C 2/M"
_symmetry_group_IT_number 12
_symmetry_cell_setting 'monoclinic'
loop_
_space_group_symop_operation_xyz
x,y,z
-x,y,-z
-x,-y,-z
x,-y,z
1/2+x,1/2+y,z
1/2-x,1/2+y,-z
1/2-x,1/2-y,-z
1/2+x,1/2-y,z
loop_
_atom_site_type_symbol
_atom_site_label
_atom_site_fract_x
_atom_site_fract_y
_atom_site_fract_z
Si Si1 0.902399 0.320072 0.061640
Si Si2 0.077480 0.680012 0.635344
Si Si3 0.209889 0.822544 0.298666
Si Si4 0.137281 0.324355 0.432454
Si Si5 0.458530 0.825685 0.267606
Si Si6 0.241442 0.820685 0.193017
Si Si7 0.931770 0.176931 0.776810
O O1 0.902980 0.500000 0.060889
O O2 0.815903 0.256894 0.930424
O O3 0.914441 0.255448 0.149899
O O4 0.980293 0.263637 0.112371
O O5 0.069300 0.500000 0.629119
O O6 0.073635 0.749402 0.704075
O O7 0.163570 0.728992 0.705743
O O8 0.000000 0.746346 0.500000
O O9 0.282842 0.755633 0.433127
O O10 0.215563 0.756245 0.232595
O O11 0.119103 0.786116 0.218650
O O12 0.227268 0.000000 0.315374
O O13 0.148629 0.500000 0.426601
O O14 0.125287 0.229113 0.352451
O O15 0.058222 0.304234 0.384298
O O16 0.433673 0.000000 0.238645
O O17 0.229579 0.000000 0.173600
O O18 0.950041 0.000000 0.792447
#
# Coordination Sequence:
#
# PCOD8087635 Si02
#       7
#     8   8   8   8   8   8   8
#     4  10  21  37  52  69  99 135 170 207 253 300
#     4   9  16  28  51  81 104 124 158 201 243 294
#     4   9  18  31  49  74 103 135 165 203 254 297
#     4   9  16  30  51  75 105 135 163 197 247 304
#     4   8  15  28  48  72  99 131 161 196 243 292
#     4  10  20  34  53  76 101 130 169 210 244 288
#     4  10  19  32  51  74 100 130 169 211 249 292
#
# _framework density 19.316361000000001
#
# number of rings (size 3 to 8) (size 9 to 14) (size 15 to 20)
#    0.000    2.714    0.000    3.000    0.000    4.571 
#    0.000    5.714    0.000    3.857    0.000    0.000 
#    0.000    0.000    0.000    0.000    0.000    0.000 
#
# Total GULP energy -347135.610991 kJ/mol
# GULP energy per Si atom -12397.700393 kJ/mol
# Density = 1.927240 g / cm^3
# Si number density = 19.316361 Si / 1000 Ang^3
#
#
#
# Elastic Constant Matrix: (Units=GPa)
#
#
# Indices 1 2 3 4 5 6 
#
# 1 151.0565 29.7309 62.1331 0.0000 -2.1210 0.0000
# 2 29.7309 36.3326 28.3072 0.0000 3.9029 0.0000
# 3 62.1331 28.3072 141.5915 0.0000 4.4872 0.0000
# 4 0.0000 0.0000 0.0000 26.8076 0.0000 0.8563
# 5 -2.1210 3.9029 4.4872 0.0000 19.2937 0.0000
# 6 0.0000 0.0000 0.0000 0.8563 0.0000 15.0131
#
#
#
# Elastic Compliance Matrix: (Units=1/GPa)
#
#
# Indices 1 2 3 4 5 6 
#
# 1 0.008909 -0.005295 -0.002937 0.000000 0.002734 0.000000
# 2 -0.005295 0.036258 -0.004709 0.000000 -0.006822 0.000000
# 3 -0.002937 -0.004709 0.009342 0.000000 -0.001543 0.000000
# 4 0.000000 0.000000 0.000000 0.037371 0.000000 -0.002131
# 5 0.002734 -0.006822 -0.001543 0.000000 0.053870 0.000000
# 6 0.000000 0.000000 0.000000 -0.002131 0.000000 0.066730
#
#
# Mechanical properties :
#
#
# Convention : Reuss Voigt Hill
#
# Bulk Modulus (GPa) = 34.93356 63.25812 49.09584
# Shear Modulus (GPa) = 20.16906 26.14351 23.15628
#
# Velocity S-wave (km/s) = 3.23483 3.68290 3.46611
# Velocity P-wave (km/s) = 5.66360 7.13474 6.44131
#
# Compressibility (1/GPa) = 0.02862577
#
# Stress axis : x y z
#
# Youngs Moduli (GPa) = 112.24809 27.57999 107.04490
#
# Poissons Ratio (x) = 0.14604 0.31443
# Poissons Ratio (y) = 0.59438 0.50407
# Poissons Ratio (z) = 0.32971 0.12987
#
# Static dielectric constant tensor:
#      x y z
#    x 3.770450 0.000000 -0.123260 
#    y 0.000000 3.066130 0.000000 
#    z -0.123260 0.000000 3.575530 
# 
# 
# High freq. dielectric constant tensor:
#      x y z
#    x 1.761270 0.000000 -0.000750 
#    y 0.000000 1.701740 0.000000 
#    z -0.000750 0.000000 1.754600 
# 
# From -- ./inp_files/329712.got.cif
#   From: 2010.06.25/outbox.cif.g09.slc.cpg/sg12_165_cif.got.tgz:329712.got - 2010.06.28 00:19:55.
