data_PCOD8087695
_publ_section_title
;
Structure prediction by ZEFSAII (Michael W. Deem and Ramdas Pophale) SiO2 
 PCOD8087695
Probable space group: C 2/M
;
_chemical_formula_sum "Si O2"
_cell_formula_units_Z 56
_cell_length_a 31.441152
_cell_length_b 9.145108
_cell_length_c 14.924924
_cell_angle_alpha 90.000000
_cell_angle_beta 134.733969
_cell_angle_gamma 90.000000
_cell_volume 3048.537667
_symmetry_space_group_name_H-M "C 2/M"
_symmetry_group_IT_number 12
_symmetry_cell_setting 'monoclinic'
loop_
_space_group_symop_operation_xyz
x,y,z
-x,y,-z
-x,-y,-z
x,-y,z
1/2+x,1/2+y,z
1/2-x,1/2+y,-z
1/2-x,1/2-y,-z
1/2+x,1/2-y,z
loop_
_atom_site_type_symbol
_atom_site_label
_atom_site_fract_x
_atom_site_fract_y
_atom_site_fract_z
Si Si1 0.058160 0.326328 0.195512
Si Si2 0.865515 0.173434 0.185096
Si Si3 0.678730 0.828875 0.048019
Si Si4 0.105337 0.672256 0.450678
Si Si5 0.013501 0.332402 0.623290
Si Si6 0.312360 0.669459 0.294877
Si Si7 0.075172 0.326237 0.023879
O O1 0.055374 0.500000 0.191342
O O2 0.099814 0.273097 0.339387
O O3 0.085058 0.269870 0.140915
O O4 0.989635 0.270563 0.106607
O O5 0.932224 0.230487 0.266003
O O6 0.842869 0.227202 0.248670
O O7 0.863120 0.000000 0.173496
O O8 0.821970 0.242416 0.046363
O O9 0.741859 0.799464 0.188993
O O10 0.627228 0.764658 0.037069
O O11 0.669770 0.000000 0.014229
O O12 0.115133 0.500000 0.472210
O O13 0.161696 0.747924 0.580567
O O14 0.044449 0.719934 0.409096
O O15 0.030119 0.500000 0.670815
O O16 0.000000 0.310380 0.500000
O O17 0.326785 0.500000 0.328278
O O18 0.078233 0.500000 0.027537
#
# Coordination Sequence:
#
# PCOD8087695 Si02
#       7
#     8   8   8   8   8   8   8
#     4   8  14  26  49  80 102 119 153 204 256 295
#     4  11  22  34  50  73 101 133 167 208 254 296
#     4  10  20  35  54  72  95 132 174 210 244 291
#     4  10  19  32  52  76 102 132 166 204 246 294
#     4  10  19  32  51  75 100 128 165 204 242 291
#     4  10  22  36  48  68 101 138 171 203 246 297
#     4   8  14  28  51  76 100 122 155 207 253 292
#
# _framework density 18.369463
#
# number of rings (size 3 to 8) (size 9 to 14) (size 15 to 20)
#    0.000    2.429    1.429    2.571    0.000    4.286 
#    0.000    0.714    0.000    0.857    0.000    3.000 
#    0.000    0.000    0.000    0.000    0.000    0.000 
#
# Total GULP energy -347172.573007 kJ/mol
# GULP energy per Si atom -12399.020465 kJ/mol
# Density = 1.832765 g / cm^3
# Si number density = 18.369463 Si / 1000 Ang^3
#
#
#
# Elastic Constant Matrix: (Units=GPa)
#
#
# Indices 1 2 3 4 5 6 
#
# 1 66.6858 19.2044 50.6003 0.0000 -3.8883 0.0000
# 2 19.2044 34.9364 36.8476 0.0000 0.8151 0.0000
# 3 50.6003 36.8476 137.9930 0.0000 -10.3270 0.0000
# 4 0.0000 0.0000 0.0000 30.0357 0.0000 4.8829
# 5 -3.8883 0.8151 -10.3270 0.0000 26.0210 0.0000
# 6 0.0000 0.0000 0.0000 4.8829 0.0000 6.2055
#
#
#
# Elastic Compliance Matrix: (Units=1/GPa)
#
#
# Indices 1 2 3 4 5 6 
#
# 1 0.021365 -0.004958 -0.006451 0.000000 0.000788 0.000000
# 2 -0.004958 0.041815 -0.009792 0.000000 -0.005937 0.000000
# 3 -0.006451 -0.009792 0.012551 0.000000 0.004324 0.000000
# 4 0.000000 0.000000 0.000000 0.038177 0.000000 -0.030041
# 5 0.000788 -0.005937 0.004324 0.000000 0.040450 0.000000
# 6 0.000000 0.000000 0.000000 -0.030041 0.000000 0.184785
#
#
# Mechanical properties :
#
#
# Convention : Reuss Voigt Hill
#
# Bulk Modulus (GPa) = 30.00520 50.32444 40.16482
# Shear Modulus (GPa) = 12.73384 21.31663 17.02524
#
# Velocity S-wave (km/s) = 2.63574 3.41022 3.04768
# Velocity P-wave (km/s) = 5.06286 6.55449 5.85636
#
# Compressibility (1/GPa) = 0.03332756
#
# Stress axis : x y z
#
# Youngs Moduli (GPa) = 46.80636 23.91483 79.67757
#
# Poissons Ratio (x) = 0.11858 0.51402
# Poissons Ratio (y) = 0.23208 0.78019
# Poissons Ratio (z) = 0.30196 0.23417
#
# Static dielectric constant tensor:
#      x y z
#    x 3.559200 0.000000 -0.168040 
#    y 0.000000 2.997770 0.000000 
#    z -0.168040 0.000000 3.529830 
# 
# 
# High freq. dielectric constant tensor:
#      x y z
#    x 1.707940 0.000000 -0.006980 
#    y 0.000000 1.671190 0.000000 
#    z -0.006980 0.000000 1.721440 
# 
# From -- ./inp_files/237807.got.cif
#   From: 2010.06.25/outbox.cif.g09.slc.cpg/sg12_119_cif.got.tgz:237807.got - 2010.06.28 00:19:55.
