data_PCOD8087339
_publ_section_title
;
Structure prediction by ZEFSAII (Michael W. Deem and Ramdas Pophale) SiO2 
 PCOD8087339
Probable space group: C 2/M
;
_chemical_formula_sum "Si O2"
_cell_formula_units_Z 56
_cell_length_a 23.539955
_cell_length_b 8.894089
_cell_length_c 19.522787
_cell_angle_alpha 90.000000
_cell_angle_beta 53.123725
_cell_angle_gamma 90.000000
_cell_volume 3269.660370
_symmetry_space_group_name_H-M "C 2/M"
_symmetry_group_IT_number 12
_symmetry_cell_setting 'monoclinic'
loop_
_space_group_symop_operation_xyz
x,y,z
-x,y,-z
-x,-y,-z
x,-y,z
1/2+x,1/2+y,z
1/2-x,1/2+y,-z
1/2-x,1/2-y,-z
1/2+x,1/2-y,z
loop_
_atom_site_type_symbol
_atom_site_label
_atom_site_fract_x
_atom_site_fract_y
_atom_site_fract_z
Si Si1 0.720452 0.175963 0.682167
Si Si2 0.799083 0.178227 0.906164
Si Si3 0.056173 0.322480 0.161289
Si Si4 0.437554 0.821284 0.998601
Si Si5 0.788483 0.678584 0.159697
Si Si6 0.313414 0.324351 0.494713
Si Si7 0.403854 0.822511 0.327039
O O1 0.726873 0.247371 0.753533
O O2 0.795033 0.206855 0.588158
O O3 0.651879 0.239468 0.689979
O O4 0.707070 0.000000 0.699689
O O5 0.879297 0.236093 0.850165
O O6 0.771036 0.228360 0.851638
O O7 0.795928 0.000000 0.918100
O O8 0.750000 0.250000 0.000000
O O9 0.070021 0.500000 0.156184
O O10 0.050345 0.268155 0.087459
O O11 0.983441 0.274323 0.250735
O O12 0.437891 0.000000 0.002516
O O13 0.500000 0.753135 0.000000
O O14 0.363492 0.756124 0.079653
O O15 0.791794 0.500000 0.160902
O O16 0.316054 0.500000 0.477383
O O17 0.250000 0.250000 0.500000
O O18 0.386137 0.249371 0.414611
O O19 0.396521 0.000000 0.338908
#
# Coordination Sequence:
#
# PCOD8087339 Si02
#       7
#     8   8   8   8   8   8   8
#     4   8  14  26  45  72  98 120 152 198 240 273
#     4  11  21  34  51  69  92 126 165 202 239 282
#     4  10  19  32  49  72  97 124 161 201 239 279
#     4   9  15  24  43  71  96 118 149 192 237 278
#     4   9  16  27  45  69  93 118 156 200 236 273
#     4   9  16  27  46  71 100 128 156 191 235 287
#     4   9  17  29  48  73 100 126 155 194 239 286
#
# _framework density 17.127161000000001
#
# number of rings (size 3 to 8) (size 9 to 14) (size 15 to 20)
#    0.000    2.714    1.429    2.571    0.000    4.000 
#    0.000    0.000    0.000    9.857    0.000    6.000 
#    0.000    0.000    0.000    0.000    0.000    0.000 
#
# Total GULP energy -347000.786990 kJ/mol
# GULP energy per Si atom -12392.885250 kJ/mol
# Density = 1.708818 g / cm^3
# Si number density = 17.127161 Si / 1000 Ang^3
#
#
#
# Elastic Constant Matrix: (Units=GPa)
#
#
# Indices 1 2 3 4 5 6 
#
# 1 130.3609 28.8012 79.7369 -0.0006 -4.9117 -0.0011
# 2 28.8012 32.5403 39.7936 -0.0037 -1.6761 0.0020
# 3 79.7369 39.7936 168.0176 0.0004 -15.6335 -0.0008
# 4 -0.0006 -0.0037 0.0004 23.9105 0.0016 -4.7354
# 5 -4.9117 -1.6761 -15.6335 0.0016 17.8139 -0.0027
# 6 -0.0011 0.0020 -0.0008 -4.7354 -0.0027 21.5189
#
#
#
# Elastic Compliance Matrix: (Units=1/GPa)
#
#
# Indices 1 2 3 4 5 6 
#
# 1 0.011351 -0.004769 -0.004364 0.000000 -0.001149 0.000001
# 2 -0.004769 0.045739 -0.009029 0.000007 -0.004935 -0.000004
# 3 -0.004364 -0.009029 0.010857 -0.000002 0.007475 0.000002
# 4 0.000000 0.000007 -0.000002 0.043728 -0.000003 0.009623
# 5 -0.001149 -0.004935 0.007475 -0.000003 0.061915 0.000008
# 6 0.000001 -0.000004 0.000002 0.009623 0.000008 0.048588
#
#
# Mechanical properties :
#
#
# Convention : Reuss Voigt Hill
#
# Bulk Modulus (GPa) = 31.62252 69.73135 50.67693
# Shear Modulus (GPa) = 18.58431 24.82112 21.70272
#
# Velocity S-wave (km/s) = 3.29763 3.81100 3.56357
# Velocity P-wave (km/s) = 5.74479 7.75675 6.82531
#
# Compressibility (1/GPa) = 0.03162304
#
# Stress axis : x y z
#
# Youngs Moduli (GPa) = 88.10013 21.86300 92.10666
#
# Poissons Ratio (x) = 0.10425 0.40198
# Poissons Ratio (y) = 0.42011 0.83165
# Poissons Ratio (z) = 0.38449 0.19741
#
# Static dielectric constant tensor:
#      x y z
#    x 3.205670 -0.000010 0.033410 
#    y -0.000010 2.906130 0.000000 
#    z 0.033410 0.000000 3.736720 
# 
# 
# High freq. dielectric constant tensor:
#      x y z
#    x 1.640290 0.000000 -0.004060 
#    y 0.000000 1.622980 0.000000 
#    z -0.004060 0.000000 1.674570 
# 
# From -- ./inp_files/287407.got.cif
#   From: 2010.06.25/outbox.cif.g09.slc.cpg/sg12_144_cif.got.tgz:287407.got - 2010.06.28 00:19:55.
