data_PCOD8087941
_publ_section_title
;
Structure prediction by ZEFSAII (Michael W. Deem and Ramdas Pophale) SiO2 
 PCOD8087941
Probable space group: C 2/M
;
_chemical_formula_sum "Si O2"
_cell_formula_units_Z 56
_cell_length_a 20.156082
_cell_length_b 9.462718
_cell_length_c 16.891415
_cell_angle_alpha 90.000000
_cell_angle_beta 89.992617
_cell_angle_gamma 90.000000
_cell_volume 3221.721852
_symmetry_space_group_name_H-M "C 2/M"
_symmetry_group_IT_number 12
_symmetry_cell_setting 'monoclinic'
loop_
_space_group_symop_operation_xyz
x,y,z
-x,y,-z
-x,-y,-z
x,-y,z
1/2+x,1/2+y,z
1/2-x,1/2+y,-z
1/2-x,1/2-y,-z
1/2+x,1/2-y,z
loop_
_atom_site_type_symbol
_atom_site_label
_atom_site_fract_x
_atom_site_fract_y
_atom_site_fract_z
Si Si1 0.078399 0.167505 0.827876
Si Si2 0.981020 0.336378 0.588159
Si Si3 0.869611 0.835265 0.669314
Si Si4 0.924224 0.166642 0.000881
Si Si5 0.613142 0.164721 0.681449
Si Si6 0.425237 0.667475 0.831980
Si Si7 0.237689 0.336014 0.579328
O O1 0.121776 0.247816 0.762299
O O2 0.001497 0.214678 0.819801
O O3 0.086259 0.000000 0.815747
O O4 0.106495 0.217838 0.914927
O O5 0.961265 0.500000 0.593734
O O6 0.917430 0.245423 0.609742
O O7 0.000000 0.293537 0.500000
O O8 0.041884 0.299369 0.645127
O O9 0.880652 0.777178 0.758964
O O10 0.794529 0.805369 0.643937
O O11 0.887720 0.000000 0.664517
O O12 0.894976 0.225407 0.916692
O O13 0.918573 0.000000 0.001379
O O14 0.000000 0.213981 0.000000
O O15 0.668888 0.212769 0.618832
O O16 0.621428 0.000000 0.701186
O O17 0.423517 0.500000 0.835760
O O18 0.235574 0.500000 0.555592
O O19 0.250000 0.250000 0.500000
#
# Coordination Sequence:
#
# PCOD8087941 Si02
#       7
#     8   8   8   8   8   8   8
#     4   9  15  26  47  73  97 123 159 197 233 275
#     4  10  20  33  49  68  93 126 157 190 240 295
#     4  10  19  32  52  75  95 118 157 207 244 273
#     4   7  11  20  39  68  98 124 149 187 235 279
#     4  10  20  33  48  68  98 130 158 191 238 294
#     4   8  13  24  44  72 100 120 149 198 244 274
#     4  10  22  38  53  70  94 128 166 199 238 288
#
# _framework density 17.382010000000001
#
# number of rings (size 3 to 8) (size 9 to 14) (size 15 to 20)
#    0.000    2.857    1.429    2.571    0.000    2.571 
#    0.000    0.000    0.000    5.571    0.000    0.000 
#    0.000    0.000    0.000    0.000    0.000    0.000 
#
# Total GULP energy -346916.284041 kJ/mol
# GULP energy per Si atom -12389.867287 kJ/mol
# Density = 1.734245 g / cm^3
# Si number density = 17.382010 Si / 1000 Ang^3
#
#
#
# Elastic Constant Matrix: (Units=GPa)
#
#
# Indices 1 2 3 4 5 6 
#
# 1 33.4247 17.5444 12.8846 0.0000 -9.0032 0.0000
# 2 17.5444 32.5585 35.6334 0.0000 -8.7815 0.0000
# 3 12.8846 35.6334 140.3215 0.0000 -13.2937 0.0000
# 4 0.0000 0.0000 0.0000 21.5472 0.0000 -3.7541
# 5 -9.0032 -8.7815 -13.2937 0.0000 24.5946 0.0000
# 6 0.0000 0.0000 0.0000 -3.7541 0.0000 19.1764
#
#
#
# Elastic Compliance Matrix: (Units=1/GPa)
#
#
# Indices 1 2 3 4 5 6 
#
# 1 0.044130 -0.024724 0.003078 0.000000 0.008991 0.000000
# 2 -0.024724 0.058780 -0.012148 0.000000 0.005371 0.000000
# 3 0.003078 -0.012148 0.010144 0.000000 0.002272 0.000000
# 4 0.000000 0.000000 0.000000 0.048049 0.000000 0.009406
# 5 0.008991 0.005371 0.002272 0.000000 0.047096 0.000000
# 6 0.000000 0.000000 0.000000 0.009406 0.000000 0.053989
#
#
# Mechanical properties :
#
#
# Convention : Reuss Voigt Hill
#
# Bulk Modulus (GPa) = 21.99369 37.60327 29.79848
# Shear Modulus (GPa) = 14.49564 22.41313 18.45438
#
# Velocity S-wave (km/s) = 2.89094 3.59478 3.26190
# Velocity P-wave (km/s) = 4.88098 6.23781 5.60064
#
# Compressibility (1/GPa) = 0.04546759
#
# Stress axis : x y z
#
# Youngs Moduli (GPa) = 22.66007 17.01255 98.58101
#
# Poissons Ratio (x) = 0.42061 -0.30343
# Poissons Ratio (y) = 0.56024 1.19753
# Poissons Ratio (z) = -0.06975 0.20666
#
# Static dielectric constant tensor:
#      x y z
#    x 3.002410 0.000000 0.047760 
#    y 0.000000 2.895080 0.000000 
#    z 0.047760 0.000000 3.873820 
# 
# 
# High freq. dielectric constant tensor:
#      x y z
#    x 1.635450 0.000000 -0.002340 
#    y 0.000000 1.635740 0.000000 
#    z -0.002340 0.000000 1.698740 
# 
# From -- ./inp_files/280241.got.cif
#   From: 2010.06.25/outbox.cif.g09.slc.cpg/sg12_141_cif.got.tgz:280241.got - 2010.06.28 00:19:55.
