data_PCOD8087229
_publ_section_title
;
Structure prediction by ZEFSAII (Michael W. Deem and Ramdas Pophale) SiO2 
 PCOD8087229
Probable space group: C 2/M
;
_chemical_formula_sum "Si O2"
_cell_formula_units_Z 64
_cell_length_a 28.502438
_cell_length_b 8.870760
_cell_length_c 18.836021
_cell_angle_alpha 90.000000
_cell_angle_beta 47.136079
_cell_angle_gamma 90.000000
_cell_volume 3490.752319
_symmetry_space_group_name_H-M "C 2/M"
_symmetry_group_IT_number 12
_symmetry_cell_setting 'monoclinic'
loop_
_space_group_symop_operation_xyz
x,y,z
-x,y,-z
-x,-y,-z
x,-y,z
1/2+x,1/2+y,z
1/2-x,1/2+y,-z
1/2-x,1/2-y,-z
1/2+x,1/2-y,z
loop_
_atom_site_type_symbol
_atom_site_label
_atom_site_fract_x
_atom_site_fract_y
_atom_site_fract_z
Si Si1 0.634181 0.173859 0.689115
Si Si2 0.995624 0.327897 0.812107
Si Si3 0.637361 0.677164 0.533462
Si Si4 0.130143 0.322292 0.215235
Si Si5 0.246780 0.820036 0.172141
Si Si6 0.757176 0.679307 0.320584
Si Si7 0.997037 0.826335 0.665737
Si Si8 0.857252 0.326031 0.959293
O O1 0.560074 0.193730 0.792482
O O2 0.645549 0.248350 0.601578
O O3 0.681244 0.243455 0.700020
O O4 0.651381 0.000000 0.661167
O O5 0.994348 0.500000 0.781837
O O6 0.998399 0.204606 0.748011
O O7 0.927947 0.301391 0.922503
O O8 0.643064 0.500000 0.540239
O O9 0.692742 0.738279 0.424841
O O10 0.569098 0.715343 0.565621
O O11 0.137729 0.500000 0.214356
O O12 0.178803 0.240340 0.216974
O O13 0.058272 0.274726 0.313517
O O14 0.142841 0.263873 0.121440
O O15 0.259663 0.758127 0.237999
O O16 0.245784 0.000000 0.171921
O O17 0.302693 0.749991 0.064110
O O18 0.758134 0.500000 0.317741
O O19 0.980700 0.000000 0.667745
O O20 0.839780 0.500000 0.973552
#
# Coordination Sequence:
#
# PCOD8087229 Si02
#       8
#     8   8   8   8   8   8   8   8
#     4   9  16  28  48  71  94 122 153 185 225 268
#     4   8  14  26  44  68  96 119 144 184 228 264
#     4   9  17  30  48  70  94 119 151 190 226 263
#     4  10  19  32  49  69  93 116 145 190 235 272
#     4  10  19  32  48  65  90 124 158 187 220 269
#     4   9  18  31  46  67  95 124 154 189 225 262
#     4   9  16  27  46  70  91 114 148 186 226 272
#     4   8  15  28  47  69  91 117 149 186 226 267
#
# _framework density 18.334156
#
# number of rings (size 3 to 8) (size 9 to 14) (size 15 to 20)
#    0.000    3.000    0.000    2.250    0.000    0.500 
#    0.000    5.000    0.000    7.500    0.000    0.000 
#    0.000   14.000    0.000    0.000    0.000    0.000 
#
# Total GULP energy -396456.826966 kJ/mol
# GULP energy per Si atom -12389.275843 kJ/mol
# Density = 1.829243 g / cm^3
# Si number density = 18.334156 Si / 1000 Ang^3
#
#
#
# Elastic Constant Matrix: (Units=GPa)
#
#
# Indices 1 2 3 4 5 6 
#
# 1 123.9823 19.3883 71.0780 -0.0159 -19.5032 -0.0053
# 2 19.3883 23.3750 16.0596 -0.0550 -2.0321 0.0257
# 3 71.0780 16.0596 63.5244 -0.0172 -14.3950 -0.0023
# 4 -0.0159 -0.0550 -0.0172 14.7121 0.0145 -2.7188
# 5 -19.5032 -2.0321 -14.3950 0.0145 30.0863 -0.0047
# 6 -0.0053 0.0257 -0.0023 -2.7188 -0.0047 21.2023
#
#
#
# Elastic Compliance Matrix: (Units=1/GPa)
#
#
# Indices 1 2 3 4 5 6 
#
# 1 0.022787 -0.001924 -0.024330 -0.000013 0.003001 0.000004
# 2 -0.001924 0.052196 -0.011807 0.000175 -0.003371 -0.000043
# 3 -0.024330 -0.011807 0.047326 -0.000019 0.006075 0.000012
# 4 -0.000013 0.000175 -0.000019 0.069622 -0.000038 0.008927
# 5 0.003001 -0.003371 0.006075 -0.000038 0.037862 0.000009
# 6 0.000004 -0.000043 0.000012 0.008927 0.000009 0.048310
#
#
# Mechanical properties :
#
#
# Convention : Reuss Voigt Hill
#
# Bulk Modulus (GPa) = 21.65083 47.10370 34.37727
# Shear Modulus (GPa) = 13.52750 20.15719 16.84235
#
# Velocity S-wave (km/s) = 2.71925 3.31937 3.03418
# Velocity P-wave (km/s) = 4.65766 6.35913 5.57370
#
# Compressibility (1/GPa) = 0.04618760
#
# Stress axis : x y z
#
# Youngs Moduli (GPa) = 43.88551 19.15872 21.12999
#
# Poissons Ratio (x) = 0.03686 0.51409
# Poissons Ratio (y) = 0.08443 0.24947
# Poissons Ratio (z) = 1.06772 0.22620
#
# Static dielectric constant tensor:
#      x y z
#    x 3.540130 -0.000030 -0.383020 
#    y -0.000030 3.083460 0.000030 
#    z -0.383020 0.000030 3.606770 
# 
# 
# High freq. dielectric constant tensor:
#      x y z
#    x 1.707550 0.000000 -0.036960 
#    y 0.000000 1.681660 0.000000 
#    z -0.036960 0.000000 1.697120 
# 
# From -- ./inp_files/326853.got.cif
#   From: 2010.06.25/outbox.cif.g09.slc.cpg/sg12_164_cif.got.tgz:326853.got - 2010.06.28 00:19:55.
