data_PCOD8087574
_publ_section_title
;
Structure prediction by ZEFSAII (Michael W. Deem and Ramdas Pophale) SiO2 
 PCOD8087574
Probable space group: C 2/M
;
_chemical_formula_sum "Si O2"
_cell_formula_units_Z 64
_cell_length_a 19.048234
_cell_length_b 9.399106
_cell_length_c 28.143120
_cell_angle_alpha 90.000000
_cell_angle_beta 132.634016
_cell_angle_gamma 90.000000
_cell_volume 3706.904284
_symmetry_space_group_name_H-M "C 2/M"
_symmetry_group_IT_number 12
_symmetry_cell_setting 'monoclinic'
loop_
_space_group_symop_operation_xyz
x,y,z
-x,y,-z
-x,-y,-z
x,-y,z
1/2+x,1/2+y,z
1/2-x,1/2+y,-z
1/2-x,1/2-y,-z
1/2+x,1/2-y,z
loop_
_atom_site_type_symbol
_atom_site_label
_atom_site_fract_x
_atom_site_fract_y
_atom_site_fract_z
Si Si1 0.179694 0.664315 0.262435
Si Si2 0.317488 0.667038 0.640389
Si Si3 0.844513 0.835685 0.262808
Si Si4 0.701300 0.157588 0.118104
Si Si5 0.681699 0.839829 0.500149
Si Si6 0.463870 0.167036 0.640069
Si Si7 0.534070 0.157588 0.117727
Si Si8 0.415892 0.659213 0.999810
O O1 0.176793 0.500000 0.277757
O O2 0.187055 0.770122 0.309501
O O3 0.270651 0.691567 0.271185
O O4 0.082483 0.703476 0.189585
O O5 0.344253 0.500000 0.654870
O O6 0.210427 0.689565 0.568366
O O7 0.396973 0.749973 0.646495
O O8 0.796429 0.796525 0.190069
O O9 0.931264 0.729876 0.310109
O O10 0.878084 0.000000 0.278205
O O11 0.614858 0.154909 0.115083
O O12 0.714456 0.000000 0.102441
O O13 0.678198 0.264687 0.064512
O O14 0.750000 0.750000 0.500000
O O15 0.573724 0.810461 0.432101
O O16 0.708782 0.000000 0.500097
O O17 0.466191 0.000000 0.654603
O O18 0.450056 0.264677 0.063993
O O19 0.489520 0.000000 0.101935
O O20 0.386427 0.500000 0.999743
O O21 0.500000 0.661984 0.000000
#
# Coordination Sequence:
#
# PCOD8087574 Si02
#       8
#     8   8   8   8   8   8   8   8
#     4   9  18  32  48  68  96 127 158 193 233 277
#     4  10  19  32  51  72  94 121 155 194 234 278
#     4   9  18  32  48  68  96 127 158 193 233 277
#     4   8  14  25  40  57  82 118 153 184 223 270
#     4   8  16  30  47  68  91 117 151 191 233 274
#     4  10  19  32  51  72  94 121 155 194 234 278
#     4   8  14  25  40  57  82 118 153 184 223 270
#     4   9  15  21  33  57  86 113 146 189 228 263
#
# _framework density 17.265080999999999
#
# number of rings (size 3 to 8) (size 9 to 14) (size 15 to 20)
#    0.000    3.125    0.000    2.625    0.000    4.000 
#    0.000    3.125    0.000    3.750    0.000    0.875 
#    0.000    0.000    0.000    0.000    0.000    0.000 
#
# Total GULP energy -396433.577043 kJ/mol
# GULP energy per Si atom -12388.549283 kJ/mol
# Density = 1.722578 g / cm^3
# Si number density = 17.265081 Si / 1000 Ang^3
#
#
#
# Elastic Constant Matrix: (Units=GPa)
#
#
# Indices 1 2 3 4 5 6 
#
# 1 28.1759 34.0075 39.1611 0.0000 -7.2731 0.0000
# 2 34.0075 128.3411 99.6674 0.0000 2.0735 0.0000
# 3 39.1611 99.6674 168.3849 0.0000 12.3664 0.0000
# 4 0.0000 0.0000 0.0000 33.8666 0.0000 0.8759
# 5 -7.2731 2.0735 12.3664 0.0000 -37.9042 0.0000
# 6 0.0000 0.0000 0.0000 0.8759 0.0000 23.4822
#
#
#
# Elastic Compliance Matrix: (Units=1/GPa)
#
#
# Indices 1 2 3 4 5 6 
#
# 1 0.051026 -0.008886 -0.005716 0.000000 -0.012142 0.000000
# 2 -0.008886 0.015821 -0.007312 0.000000 0.000185 0.000000
# 3 -0.005716 -0.007312 0.011275 0.000000 0.004375 0.000000
# 4 0.000000 0.000000 0.000000 0.029556 0.000000 -0.001102
# 5 -0.012142 0.000185 0.004375 0.000000 -0.022615 0.000000
# 6 0.000000 0.000000 0.000000 -0.001102 0.000000 0.042627
#
#
# Mechanical properties :
#
#
# Convention : Reuss Voigt Hill
#
# Bulk Modulus (GPa) = 29.15832 74.50819 51.83325
# Shear Modulus (GPa) = 27.33000 14.02665 20.67833
#
# Velocity S-wave (km/s) = 3.98296 2.85341 3.46453
# Velocity P-wave (km/s) = 6.17068 7.35561 6.78905
#
# Compressibility (1/GPa) = 0.03429553
#
# Stress axis : x y z
#
# Youngs Moduli (GPa) = 19.59771 63.20519 88.69443
#
# Poissons Ratio (x) = 0.56163 0.50697
# Poissons Ratio (y) = 0.17414 0.64852
# Poissons Ratio (z) = 0.11202 0.46214
#
# Static dielectric constant tensor:
#      x y z
#    x 2.520120 0.000000 0.108910 
#    y 0.000000 3.381700 0.000000 
#    z 0.108910 0.000000 3.807160 
# 
# 
# High freq. dielectric constant tensor:
#      x y z
#    x 1.597270 0.000000 0.007680 
#    y 0.000000 1.676040 0.000000 
#    z 0.007680 0.000000 1.688560 
# 
# From -- ./inp_files/365194.got.cif
#   From: 2010.06.25/outbox.cif.g09.slc.cpg/sg12_183_cif.got.tgz:365194.got - 2010.06.28 00:19:55.
