data_PCOD8087037
_publ_section_title
;
Structure prediction by ZEFSAII (Michael W. Deem and Ramdas Pophale) SiO2 
 PCOD8087037
Probable space group: C 2/M
;
_chemical_formula_sum "Si O2"
_cell_formula_units_Z 64
_cell_length_a 20.613265
_cell_length_b 8.993483
_cell_length_c 20.065726
_cell_angle_alpha 90.000000
_cell_angle_beta 65.963445
_cell_angle_gamma 90.000000
_cell_volume 3397.318577
_symmetry_space_group_name_H-M "C 2/M"
_symmetry_group_IT_number 12
_symmetry_cell_setting 'monoclinic'
loop_
_space_group_symop_operation_xyz
x,y,z
-x,y,-z
-x,-y,-z
x,-y,z
1/2+x,1/2+y,z
1/2-x,1/2+y,-z
1/2-x,1/2-y,-z
1/2+x,1/2-y,z
loop_
_atom_site_type_symbol
_atom_site_label
_atom_site_fract_x
_atom_site_fract_y
_atom_site_fract_z
Si Si1 0.175264 0.828669 0.541162
Si Si2 0.290012 0.328310 0.073517
Si Si3 0.805807 0.174076 0.214140
Si Si4 0.402837 0.328444 0.289957
Si Si5 0.850816 0.827092 0.909649
Si Si6 0.917851 0.675023 0.528318
Si Si7 0.449540 0.175986 0.771313
Si Si8 0.149698 0.676850 0.306223
O O1 0.250000 0.750000 0.500000
O O2 0.152865 0.810139 0.627066
O O3 0.114407 0.757202 0.521457
O O4 0.183864 0.000000 0.517956
O O5 0.264697 0.500000 0.082001
O O6 0.327414 0.291759 0.128481
O O7 0.220343 0.228545 0.096399
O O8 0.345679 0.294879 0.991154
O O9 0.865314 0.237683 0.239064
O O10 0.728349 0.243274 0.262109
O O11 0.800594 0.000000 0.230423
O O12 0.425829 0.500000 0.271501
O O13 0.471382 0.230394 0.275388
O O14 0.919364 0.741619 0.853149
O O15 0.859989 0.000000 0.890891
O O16 0.907304 0.500000 0.522388
O O17 0.878602 0.733056 0.610955
O O18 0.000000 0.717585 0.500000
O O19 0.401231 0.236433 0.730994
O O20 0.449162 0.000000 0.776187
O O21 0.149554 0.500000 0.303718
#
# Coordination Sequence:
#
# PCOD8087037 Si02
#       8
#     8   8   8   8   8   8   8   8
#     4  11  23  39  59  82 112 149 187 231 281 336
#     4   9  17  32  55  81 108 143 186 226 267 322
#     4   9  16  32  56  78 101 137 186 229 263 313
#     4  10  22  38  57  80 110 144 181 229 276 320
#     4  10  19  31  52  83 115 142 175 226 279 322
#     4  10  20  35  56  82 111 143 184 232 280 333
#     4  11  21  36  58  81 110 148 185 222 270 333
#     4   9  17  31  55  80 102 137 184 228 267 317
#
# _framework density 18.838386
#
# number of rings (size 3 to 8) (size 9 to 14) (size 15 to 20)
#    0.000    2.125    1.250    2.625    0.000    4.750 
#    0.000    2.500    0.000    3.750    0.000    0.000 
#    0.000    0.000    0.000    0.000    0.000    0.000 
#
# Total GULP energy -396840.229475 kJ/mol
# GULP energy per Si atom -12401.257171 kJ/mol
# Density = 1.879551 g / cm^3
# Si number density = 18.838386 Si / 1000 Ang^3
#
#
#
# Elastic Constant Matrix: (Units=GPa)
#
#
# Indices 1 2 3 4 5 6 
#
# 1 107.6615 35.3255 31.4339 0.0000 13.1489 -0.0001
# 2 35.3255 63.0194 29.3399 -0.0001 -0.0349 -0.0003
# 3 31.4339 29.3399 89.7576 0.0000 13.9912 -0.0001
# 4 0.0000 -0.0001 0.0000 26.5372 0.0000 -3.0191
# 5 13.1489 -0.0349 13.9912 0.0000 33.6142 -0.0001
# 6 -0.0001 -0.0003 -0.0001 -3.0191 -0.0001 27.4992
#
#
#
# Elastic Compliance Matrix: (Units=1/GPa)
#
#
# Indices 1 2 3 4 5 6 
#
# 1 0.012283 -0.006114 -0.001661 0.000000 -0.004120 0.000000
# 2 -0.006114 0.022000 -0.005803 0.000000 0.004830 0.000000
# 3 -0.001661 -0.005803 0.014457 0.000000 -0.005374 0.000000
# 4 0.000000 0.000000 0.000000 0.038160 0.000000 0.004189
# 5 -0.004120 0.004830 -0.005374 0.000000 0.033603 0.000000
# 6 0.000000 0.000000 0.000000 0.004189 0.000000 0.036825
#
#
# Mechanical properties :
#
#
# Convention : Reuss Voigt Hill
#
# Bulk Modulus (GPa) = 46.33046 50.29303 48.31174
# Shear Modulus (GPa) = 26.08563 28.48607 27.28585
#
# Velocity S-wave (km/s) = 3.72520 3.89283 3.80994
# Velocity P-wave (km/s) = 6.56886 6.85278 6.71232
#
# Compressibility (1/GPa) = 0.02158407
#
# Stress axis : x y z
#
# Youngs Moduli (GPa) = 81.41650 45.45517 69.16950
#
# Poissons Ratio (x) = 0.27792 0.11487
# Poissons Ratio (y) = 0.49779 0.40138
# Poissons Ratio (z) = 0.13521 0.26377
#
# Static dielectric constant tensor:
#      x y z
#    x 3.463300 0.000000 0.116960 
#    y 0.000000 3.243190 0.000000 
#    z 0.116960 0.000000 3.685980 
# 
# 
# High freq. dielectric constant tensor:
#      x y z
#    x 1.724240 0.000000 0.005470 
#    y 0.000000 1.707100 0.000000 
#    z 0.005470 0.000000 1.747590 
# 
# From -- ./inp_files/319891.got.cif
#   From: 2010.06.25/outbox.cif.g09.slc.cpg/sg12_160_cif.got.tgz:319891.got - 2010.06.28 00:19:55.
