data_PCOD8087457
_publ_section_title
;
Structure prediction by ZEFSAII (Michael W. Deem and Ramdas Pophale) SiO2 
 PCOD8087457
Probable space group: C 2/M
;
_chemical_formula_sum "Si O2"
_cell_formula_units_Z 48
_cell_length_a 23.977353
_cell_length_b 8.753759
_cell_length_c 13.841470
_cell_angle_alpha 90.000000
_cell_angle_beta 108.131336
_cell_angle_gamma 90.000000
_cell_volume 2760.956992
_symmetry_space_group_name_H-M "C 2/M"
_symmetry_group_IT_number 12
_symmetry_cell_setting 'monoclinic'
loop_
_space_group_symop_operation_xyz
x,y,z
-x,y,-z
-x,-y,-z
x,-y,z
1/2+x,1/2+y,z
1/2-x,1/2+y,-z
1/2-x,1/2-y,-z
1/2+x,1/2-y,z
loop_
_atom_site_type_symbol
_atom_site_label
_atom_site_fract_x
_atom_site_fract_y
_atom_site_fract_z
Si Si1 0.372290 0.675528 0.378743
Si Si2 0.517603 0.319658 0.112253
Si Si3 0.367926 0.320551 0.717886
Si Si4 0.460041 0.324164 0.273285
Si Si5 0.568335 0.822395 0.419535
Si Si6 0.248403 0.679352 0.392269
O O1 0.380625 0.500000 0.415258
O O2 0.393319 0.695791 0.277513
O O3 0.416092 0.782610 0.462417
O O4 0.305323 0.726205 0.359730
O O5 0.520974 0.500000 0.102103
O O6 0.581978 0.260513 0.180591
O O7 0.467995 0.274358 0.165303
O O8 0.500000 0.243991 0.000000
O O9 0.358802 0.500000 0.722102
O O10 0.387643 0.278495 0.620813
O O11 0.305647 0.239532 0.701834
O O12 0.480965 0.500000 0.293946
O O13 0.501471 0.221043 0.362406
O O14 0.578671 0.000000 0.404153
O O15 0.242922 0.500000 0.402871
O O16 0.250000 0.750000 0.500000
#
# Coordination Sequence:
#
# PCOD8087457 Si02
#       6
#     8   8   8   8   8   8
#     4  10  20  32  46  65  95 134 166 194 235 288
#     4   8  15  30  54  78  94 115 157 210 253 290
#     4  10  19  32  50  72  99 129 164 204 244 289
#     4   9  18  32  49  69  95 126 160 199 244 293
#     4  11  20  29  45  69  98 130 162 199 239 286
#     4  11  21  32  48  69  98 135 172 202 235 282
#
# _framework density 17.385273999999999
#
# number of rings (size 3 to 8) (size 9 to 14) (size 15 to 20)
#    0.000    2.167    1.667    4.000    0.000    3.333 
#    0.000    0.000    0.000   13.500    0.000    0.000 
#    0.000    0.000    0.000    0.000    0.000    0.833 
#
# Total GULP energy -297439.560381 kJ/mol
# GULP energy per Si atom -12393.315016 kJ/mol
# Density = 1.734570 g / cm^3
# Si number density = 17.385274 Si / 1000 Ang^3
#
#
#
# Elastic Constant Matrix: (Units=GPa)
#
#
# Indices 1 2 3 4 5 6 
#
# 1 148.1503 30.4577 69.5106 0.0000 -11.7457 0.0000
# 2 30.4577 50.4638 22.6974 0.0000 -0.5597 0.0000
# 3 69.5106 22.6974 110.7890 0.0000 -6.2392 0.0000
# 4 0.0000 0.0000 0.0000 11.3845 0.0000 5.4234
# 5 -11.7457 -0.5597 -6.2392 0.0000 15.9416 0.0000
# 6 0.0000 0.0000 0.0000 5.4234 0.0000 23.1006
#
#
#
# Elastic Compliance Matrix: (Units=1/GPa)
#
#
# Indices 1 2 3 4 5 6 
#
# 1 0.010571 -0.003828 -0.005539 0.000000 0.005486 0.000000
# 2 -0.003828 0.023229 -0.002526 0.000000 -0.002993 0.000000
# 3 -0.005539 -0.002526 0.013072 0.000000 0.000946 0.000000
# 4 0.000000 0.000000 0.000000 0.098900 0.000000 -0.023219
# 5 0.005486 -0.002993 0.000946 0.000000 0.067036 0.000000
# 6 0.000000 0.000000 0.000000 -0.023219 0.000000 0.048740
#
#
# Mechanical properties :
#
#
# Convention : Reuss Voigt Hill
#
# Bulk Modulus (GPa) = 43.31502 61.63716 52.47609
# Shear Modulus (GPa) = 17.06311 22.53451 19.79881
#
# Velocity S-wave (km/s) = 3.13624 3.60416 3.37831
# Velocity P-wave (km/s) = 6.17119 7.26984 6.74293
#
# Compressibility (1/GPa) = 0.02308668
#
# Stress axis : x y z
#
# Youngs Moduli (GPa) = 94.60156 43.04888 76.49812
#
# Poissons Ratio (x) = 0.16478 0.42372
# Poissons Ratio (y) = 0.36212 0.19323
# Poissons Ratio (z) = 0.52400 0.10874
#
# Static dielectric constant tensor:
#      x y z
#    x 3.464740 0.000000 -0.017290 
#    y 0.000000 3.094440 0.000000 
#    z -0.017290 0.000000 3.231010 
# 
# 
# High freq. dielectric constant tensor:
#      x y z
#    x 1.677610 0.000000 -0.006040 
#    y 0.000000 1.659970 0.000000 
#    z -0.006040 0.000000 1.632680 
# 
# From -- ./inp_files/236597.got.cif
#   From: 2010.06.25/outbox.cif.g09.slc.cpg/sg12_119_cif.got.tgz:236597.got - 2010.06.28 00:19:55.
