data_PCOD8087346
_publ_section_title
;
Structure prediction by ZEFSAII (Michael W. Deem and Ramdas Pophale) SiO2 
 PCOD8087346
Probable space group: C 2/M
;
_chemical_formula_sum "Si O2"
_cell_formula_units_Z 64
_cell_length_a 23.140439
_cell_length_b 8.944441
_cell_length_c 17.796439
_cell_angle_alpha 90.000000
_cell_angle_beta 93.825103
_cell_angle_gamma 90.000000
_cell_volume 3675.270988
_symmetry_space_group_name_H-M "C 2/M"
_symmetry_group_IT_number 12
_symmetry_cell_setting 'monoclinic'
loop_
_space_group_symop_operation_xyz
x,y,z
-x,y,-z
-x,-y,-z
x,-y,z
1/2+x,1/2+y,z
1/2-x,1/2+y,-z
1/2-x,1/2-y,-z
1/2+x,1/2-y,z
loop_
_atom_site_type_symbol
_atom_site_label
_atom_site_fract_x
_atom_site_fract_y
_atom_site_fract_z
Si Si1 0.292686 0.176523 0.734908
Si Si2 0.188509 0.677014 0.982098
Si Si3 0.505470 0.324250 0.085053
Si Si4 0.830823 0.678093 0.281432
Si Si5 0.811549 0.165789 0.587871
Si Si6 0.824861 0.334873 0.446981
Si Si7 0.385724 0.676971 0.150479
Si Si8 0.878648 0.325575 0.874547
O O1 0.232615 0.260575 0.744208
O O2 0.322928 0.227467 0.659946
O O3 0.334915 0.224445 0.805689
O O4 0.281050 0.000000 0.731748
O O5 0.195233 0.500000 0.974363
O O6 0.162592 0.745897 0.904625
O O7 0.250000 0.750000 0.000000
O O8 0.147515 0.721595 0.047713
O O9 0.514050 0.500000 0.082467
O O10 0.449094 0.278313 0.127190
O O11 0.560448 0.255879 0.132109
O O12 0.500000 0.259196 0.000000
O O13 0.830233 0.500000 0.270641
O O14 0.848541 0.721899 0.368460
O O15 0.878494 0.756572 0.233218
O O16 0.844712 0.228171 0.516881
O O17 0.744063 0.159060 0.564587
O O18 0.835500 0.000000 0.607299
O O19 0.849038 0.500000 0.466558
O O20 0.375831 0.500000 0.149183
O O21 0.890587 0.500000 0.871368
#
# Coordination Sequence:
#
# PCOD8087346 Si02
#       8
#     8   8   8   8   8   8   8   8
#     4  10  19  32  49  73 106 138 168 207 254 302
#     4  11  22  35  52  75 102 133 167 204 249 300
#     4  10  21  38  57  75  95 126 168 213 257 300
#     4  10  20  33  50  75 104 136 171 207 252 301
#     4   9  16  26  43  69  99 134 172 203 241 295
#     4   8  15  27  43  66  98 133 168 203 242 293
#     4  11  22  36  53  74 100 131 168 208 254 303
#     4  10  22  36  52  74  98 129 169 210 253 297
#
# _framework density 17.413682000000001
#
# number of rings (size 3 to 8) (size 9 to 14) (size 15 to 20)
#    0.000    2.125    1.250    3.375    0.000    7.250 
#    0.000    0.000    0.000    0.000    0.000    0.875 
#    0.000    7.000    0.000    0.000    0.000    0.000 
#
# Total GULP energy -396815.680291 kJ/mol
# GULP energy per Si atom -12400.490009 kJ/mol
# Density = 1.737405 g / cm^3
# Si number density = 17.413682 Si / 1000 Ang^3
#
#
#
# Elastic Constant Matrix: (Units=GPa)
#
#
# Indices 1 2 3 4 5 6 
#
# 1 70.9720 33.8277 29.2410 0.0000 -19.0437 0.0000
# 2 33.8277 71.8938 38.0859 0.0000 -13.5250 0.0000
# 3 29.2410 38.0859 108.3704 0.0000 -30.3128 0.0000
# 4 0.0000 0.0000 0.0000 31.2202 0.0000 -1.3553
# 5 -19.0437 -13.5250 -30.3128 0.0000 18.6071 0.0000
# 6 0.0000 0.0000 0.0000 -1.3553 0.0000 26.1417
#
#
#
# Elastic Compliance Matrix: (Units=1/GPa)
#
#
# Indices 1 2 3 4 5 6 
#
# 1 0.022643 -0.008034 0.002871 0.000000 0.022011 0.000000
# 2 -0.008034 0.020183 -0.005735 0.000000 -0.002895 0.000000
# 3 0.002871 -0.005735 0.018600 0.000000 0.029071 0.000000
# 4 0.000000 0.000000 0.000000 0.032103 0.000000 0.001664
# 5 0.022011 -0.002895 0.029071 0.000000 0.121524 0.000000
# 6 0.000000 0.000000 0.000000 0.001664 0.000000 0.038339
#
#
# Mechanical properties :
#
#
# Convention : Reuss Voigt Hill
#
# Bulk Modulus (GPa) = 25.23404 50.39394 37.81399
# Shear Modulus (GPa) = 17.33710 25.19926 21.26818
#
# Velocity S-wave (km/s) = 3.15874 3.80820 3.49857
# Velocity P-wave (km/s) = 5.27503 6.95260 6.17108
#
# Compressibility (1/GPa) = 0.03962901
#
# Stress axis : x y z
#
# Youngs Moduli (GPa) = 44.16451 49.54628 53.76312
#
# Poissons Ratio (x) = 0.39805 -0.15433
# Poissons Ratio (y) = 0.35481 0.30834
# Poissons Ratio (z) = -0.12678 0.28416
#
# Static dielectric constant tensor:
#      x y z
#    x 2.900500 0.000000 -0.174380 
#    y 0.000000 3.384030 0.000000 
#    z -0.174380 0.000000 3.517250 
# 
# 
# High freq. dielectric constant tensor:
#      x y z
#    x 1.630000 0.000000 -0.012210 
#    y 0.000000 1.683420 0.000000 
#    z -0.012210 0.000000 1.682270 
# 
# From -- ./inp_files/281233.got.cif
#   From: 2010.06.25/outbox.cif.g09.slc.cpg/sg12_141_cif.got.tgz:281233.got - 2010.06.28 00:19:55.
