data_PCOD8087004
_publ_section_title
;
Structure prediction by ZEFSAII (Michael W. Deem and Ramdas Pophale) SiO2 
 PCOD8087004
Probable space group: C 2/M
;
_chemical_formula_sum "Si O2"
_cell_formula_units_Z 64
_cell_length_a 25.945094
_cell_length_b 8.913452
_cell_length_c 13.934969
_cell_angle_alpha 90.000000
_cell_angle_beta 84.258102
_cell_angle_gamma 90.000000
_cell_volume 3206.436949
_symmetry_space_group_name_H-M "C 2/M"
_symmetry_group_IT_number 12
_symmetry_cell_setting 'monoclinic'
loop_
_space_group_symop_operation_xyz
x,y,z
-x,y,-z
-x,-y,-z
x,-y,z
1/2+x,1/2+y,z
1/2-x,1/2+y,-z
1/2-x,1/2-y,-z
1/2+x,1/2-y,z
loop_
_atom_site_type_symbol
_atom_site_label
_atom_site_fract_x
_atom_site_fract_y
_atom_site_fract_z
Si Si1 0.617298 0.675312 0.923002
Si Si2 0.821922 0.325822 0.243814
Si Si3 0.905939 0.168863 0.346739
Si Si4 0.941360 0.330460 0.515148
Si Si5 0.232069 0.821320 0.402340
Si Si6 0.861341 0.671243 0.684376
Si Si7 0.518631 0.330018 0.829726
Si Si8 0.403478 0.323877 0.857889
O O1 0.617624 0.500000 0.899123
O O2 0.667542 0.744335 0.860107
O O3 0.562663 0.742343 0.891537
O O4 0.622139 0.709283 0.034392
O O5 0.820447 0.500000 0.221781
O O6 0.868313 0.287567 0.305948
O O7 0.769720 0.274388 0.307357
O O8 0.909868 0.214826 0.455892
O O9 0.961648 0.179049 0.283691
O O10 0.883450 0.000000 0.343562
O O11 0.936436 0.500000 0.475521
O O12 0.918392 0.320873 0.626261
O O13 0.000000 0.276089 0.500000
O O14 0.250000 0.750000 0.500000
O O15 0.176687 0.758783 0.380400
O O16 0.230323 0.000000 0.416494
O O17 0.842330 0.500000 0.698921
O O18 0.866074 0.745389 0.787921
O O19 0.510322 0.500000 0.866183
O O20 0.461857 0.253405 0.846660
O O21 0.404866 0.500000 0.833776
#
# Coordination Sequence:
#
# PCOD8087004 Si02
#       8
#     8   8   8   8   8   8   8   8
#     4   9  18  33  56  85 113 146 189 231 272 320
#     4  10  21  37  57  81 109 139 174 221 277 331
#     4  10  19  31  52  81 109 140 181 225 268 320
#     4  10  21  36  52  74 110 150 181 215 265 323
#     4  11  24  42  64  87 110 140 179 225 279 333
#     4  11  24  39  56  81 112 147 187 228 273 327
#     4   8  15  29  51  81 114 147 184 225 269 319
#     4  10  19  34  56  80 112 151 188 230 276 321
#
# _framework density 19.959851
#
# number of rings (size 3 to 8) (size 9 to 14) (size 15 to 20)
#    0.000    2.125    0.000    4.125    0.000    8.250 
#    0.000    3.125    0.000    3.750    0.000    0.000 
#    0.000    0.000    0.000    0.000    0.000    0.000 
#
# Total GULP energy -396676.405778 kJ/mol
# GULP energy per Si atom -12396.137681 kJ/mol
# Density = 1.991442 g / cm^3
# Si number density = 19.959851 Si / 1000 Ang^3
#
#
#
# Elastic Constant Matrix: (Units=GPa)
#
#
# Indices 1 2 3 4 5 6 
#
# 1 83.3527 31.9142 45.4522 0.0000 -4.8995 0.0000
# 2 31.9142 58.9916 47.7083 0.0000 -3.0041 0.0000
# 3 45.4522 47.7083 126.1564 0.0000 5.9388 0.0000
# 4 0.0000 0.0000 0.0000 33.7417 0.0000 0.6322
# 5 -4.8995 -3.0041 5.9388 0.0000 32.5647 0.0000
# 6 0.0000 0.0000 0.0000 0.6322 0.0000 25.3337
#
#
#
# Elastic Compliance Matrix: (Units=1/GPa)
#
#
# Indices 1 2 3 4 5 6 
#
# 1 0.016436 -0.005567 -0.003942 0.000000 0.002678 0.000000
# 2 -0.005567 0.026826 -0.008287 0.000000 0.003148 0.000000
# 3 -0.003942 -0.008287 0.012654 0.000000 -0.003665 0.000000
# 4 0.000000 0.000000 0.000000 0.029651 0.000000 -0.000740
# 5 0.002678 0.003148 -0.003665 0.000000 0.032070 0.000000
# 6 0.000000 0.000000 0.000000 -0.000740 0.000000 0.039492
#
#
# Mechanical properties :
#
#
# Convention : Reuss Voigt Hill
#
# Bulk Modulus (GPa) = 49.20770 57.62782 53.41776
# Shear Modulus (GPa) = 25.06334 27.88975 26.47654
#
# Velocity S-wave (km/s) = 3.54741 3.74209 3.64605
# Velocity P-wave (km/s) = 6.44094 6.89968 6.67425
#
# Compressibility (1/GPa) = 0.02032202
#
# Stress axis : x y z
#
# Youngs Moduli (GPa) = 60.84225 37.27772 79.02937
#
# Poissons Ratio (x) = 0.20753 0.31157
# Poissons Ratio (y) = 0.33871 0.65493
# Poissons Ratio (z) = 0.23987 0.30892
#
# Static dielectric constant tensor:
#      x y z
#    x 3.556710 0.000000 -0.197490 
#    y 0.000000 3.479170 0.000000 
#    z -0.197490 0.000000 3.730830 
# 
# 
# High freq. dielectric constant tensor:
#      x y z
#    x 1.762520 0.000000 -0.011350 
#    y 0.000000 1.762600 0.000000 
#    z -0.011350 0.000000 1.784980 
# 
# From -- ./inp_files/244012.got.cif
#   From: 2010.06.25/outbox.cif.g09.slc.cpg/sg12_123_cif.got.tgz:244012.got - 2010.06.28 00:19:55.
