data_PCOD8087735
_publ_section_title
;
Structure prediction by ZEFSAII (Michael W. Deem and Ramdas Pophale) SiO2 
 PCOD8087735
Probable space group: C 2/M
;
_chemical_formula_sum "Si O2"
_cell_formula_units_Z 56
_cell_length_a 20.055024
_cell_length_b 9.098708
_cell_length_c 31.267813
_cell_angle_alpha 90.000000
_cell_angle_beta 149.838429
_cell_angle_gamma 90.000000
_cell_volume 2866.716587
_symmetry_space_group_name_H-M "C 2/M"
_symmetry_group_IT_number 12
_symmetry_cell_setting 'monoclinic'
loop_
_space_group_symop_operation_xyz
x,y,z
-x,y,-z
-x,-y,-z
x,-y,z
1/2+x,1/2+y,z
1/2-x,1/2+y,-z
1/2-x,1/2-y,-z
1/2+x,1/2-y,z
loop_
_atom_site_type_symbol
_atom_site_label
_atom_site_fract_x
_atom_site_fract_y
_atom_site_fract_z
Si Si1 0.462799 0.172514 0.727501
Si Si2 0.056100 0.335695 0.930401
Si Si3 0.175250 0.333388 0.132462
Si Si4 0.745028 0.325768 0.089642
Si Si5 0.835383 0.672659 0.743152
Si Si6 0.877063 0.330403 0.588178
Si Si7 0.346003 0.829723 0.295699
O O1 0.604980 0.234458 0.821633
O O2 0.352935 0.208770 0.702782
O O3 0.417205 0.238915 0.656700
O O4 0.481387 0.000000 0.732129
O O5 0.107555 0.500000 0.948928
O O6 0.964745 0.334774 0.921644
O O7 0.969516 0.277174 0.842308
O O8 0.183209 0.232284 0.010435
O O9 0.221158 0.500000 0.148033
O O10 0.158307 0.241897 0.079767
O O11 0.286015 0.254697 0.222334
O O12 0.736090 0.500000 0.085093
O O13 0.811809 0.500000 0.738834
O O14 0.707698 0.760896 0.689693
O O15 0.840156 0.500000 0.573817
O O16 0.750000 0.250000 0.500000
O O17 0.995426 0.310969 0.619475
O O18 0.304584 0.000000 0.270212
#
# Coordination Sequence:
#
# PCOD8087735 Si02
#       7
#     8   8   8   8   8   8   8
#     4   9  19  38  58  79 110 148 184 225 277 327
#     4   9  19  32  46  73 108 144 187 233 272 314
#     4  10  19  32  51  75 108 147 188 230 272 325
#     4  11  20  31  50  76 108 147 189 232 278 319
#     4   9  19  37  59  78 108 153 192 222 264 327
#     4  10  21  39  62  87 113 140 175 224 276 331
#     4  10  19  35  58  84 114 143 177 227 279 323
#
# _framework density 19.534542999999999
#
# number of rings (size 3 to 8) (size 9 to 14) (size 15 to 20)
#    0.000    2.286    1.429    2.571    0.000    6.286 
#    0.000    2.857    0.000    4.286    0.000    0.000 
#    0.000    0.000    0.000    0.000    0.000    0.000 
#
# Total GULP energy -347137.274328 kJ/mol
# GULP energy per Si atom -12397.759797 kJ/mol
# Density = 1.949008 g / cm^3
# Si number density = 19.534543 Si / 1000 Ang^3
#
#
#
# Elastic Constant Matrix: (Units=GPa)
#
#
# Indices 1 2 3 4 5 6 
#
# 1 87.0796 31.0269 49.1792 0.0000 -10.6067 0.0000
# 2 31.0269 81.6248 43.3029 0.0002 6.5106 -0.0001
# 3 49.1792 43.3029 108.7085 0.0001 11.0398 0.0000
# 4 0.0000 0.0002 0.0001 31.4322 0.0000 3.7458
# 5 -10.6067 6.5106 11.0398 0.0000 17.2993 0.0000
# 6 0.0000 -0.0001 0.0000 3.7458 0.0000 22.7159
#
#
#
# Elastic Compliance Matrix: (Units=1/GPa)
#
#
# Indices 1 2 3 4 5 6 
#
# 1 0.021297 -0.004477 -0.009997 0.000000 0.021122 0.000000
# 2 -0.004477 0.016542 -0.003906 0.000000 -0.006478 0.000000
# 3 -0.009997 -0.003906 0.016842 0.000000 -0.015407 0.000000
# 4 0.000000 0.000000 0.000000 0.032452 0.000000 -0.005351
# 5 0.021122 -0.006478 -0.015407 0.000000 0.083027 0.000000
# 6 0.000000 0.000000 0.000000 -0.005351 0.000000 0.044904
#
#
# Mechanical properties :
#
#
# Convention : Reuss Voigt Hill
#
# Bulk Modulus (GPa) = 55.79751 58.27012 57.03382
# Shear Modulus (GPa) = 19.39506 24.54975 21.97240
#
# Velocity S-wave (km/s) = 3.15439 3.54889 3.35744
# Velocity P-wave (km/s) = 6.47243 6.83278 6.65505
#
# Compressibility (1/GPa) = 0.01792195
#
# Stress axis : x y z
#
# Youngs Moduli (GPa) = 46.95403 60.45272 59.37571
#
# Poissons Ratio (x) = 0.27065 0.59355
# Poissons Ratio (y) = 0.21021 0.23193
# Poissons Ratio (z) = 0.46938 0.23613
#
# Static dielectric constant tensor:
#      x y z
#    x 3.630470 0.000000 -0.083510 
#    y 0.000000 3.449990 0.000000 
#    z -0.083510 0.000000 3.429020 
# 
# 
# High freq. dielectric constant tensor:
#      x y z
#    x 1.761540 0.000000 -0.001740 
#    y 0.000000 1.745790 0.000000 
#    z -0.001740 0.000000 1.741260 
# 
# From -- ./inp_files/281699.got.cif
#   From: 2010.06.25/outbox.cif.g09.slc.cpg/sg12_141_cif.got.tgz:281699.got - 2010.06.28 00:19:55.
