data_PCOD8087786
_publ_section_title
;
Structure prediction by ZEFSAII (Michael W. Deem and Ramdas Pophale) SiO2 
 PCOD8087786
Probable space group: C 2/M
;
_chemical_formula_sum "Si O2"
_cell_formula_units_Z 48
_cell_length_a 22.327202
_cell_length_b 13.584638
_cell_length_c 13.886599
_cell_angle_alpha 90.000000
_cell_angle_beta 140.321819
_cell_angle_gamma 90.000000
_cell_volume 2689.193228
_symmetry_space_group_name_H-M "C 2/M"
_symmetry_group_IT_number 12
_symmetry_cell_setting 'monoclinic'
loop_
_space_group_symop_operation_xyz
x,y,z
-x,y,-z
-x,-y,-z
x,-y,z
1/2+x,1/2+y,z
1/2-x,1/2+y,-z
1/2-x,1/2-y,-z
1/2+x,1/2-y,z
loop_
_atom_site_type_symbol
_atom_site_label
_atom_site_fract_x
_atom_site_fract_y
_atom_site_fract_z
Si Si1 0.877091 0.114453 0.604369
Si Si2 0.690158 0.114101 0.258943
Si Si3 0.975618 0.115264 0.366838
Si Si4 0.463290 0.754729 0.854513
Si Si5 0.336833 0.786998 0.972586
Si Si6 0.716678 0.386768 0.972123
O O1 0.774235 0.134528 0.436321
O O2 0.893036 0.175091 0.721743
O O3 0.952676 0.157321 0.622843
O O4 0.893307 0.000000 0.647731
O O5 0.594452 0.145978 0.193245
O O6 0.707012 0.175833 0.182094
O O7 0.683680 0.000000 0.222272
O O8 0.000000 0.164536 0.500000
O O9 0.994478 0.000000 0.397492
O O10 0.869498 0.138369 0.205822
O O11 0.500000 0.707779 0.000000
O O12 0.550348 0.782804 0.893679
O O13 0.294075 0.679039 0.944837
O O14 0.310050 0.860281 0.027353
O O15 0.718181 0.500000 0.006689
#
# Coordination Sequence:
#
# PCOD8087786 Si02
#       6
#     8   8   8   8   8   8
#     4  10  19  34  54  78 108 138 172 220 270 313
#     4  10  21  36  55  77 105 139 181 223 259 306
#     4   9  16  27  48  76 103 132 166 210 262 308
#     4  10  21  35  53  79 109 140 178 215 260 317
#     4  10  20  33  52  79 106 141 179 216 264 313
#     4  10  19  32  51  76 110 139 174 219 265 317
#
# _framework density 17.849219000000002
#
# number of rings (size 3 to 8) (size 9 to 14) (size 15 to 20)
#    0.000    2.167    1.667    2.000    0.000    6.667 
#    0.000    2.500    0.000    1.000    0.000    1.167 
#    0.000    0.000    0.000    0.000    0.000    0.000 
#
# Total GULP energy -297563.246820 kJ/mol
# GULP energy per Si atom -12398.468617 kJ/mol
# Density = 1.780859 g / cm^3
# Si number density = 17.849219 Si / 1000 Ang^3
#
#
#
# Elastic Constant Matrix: (Units=GPa)
#
#
# Indices 1 2 3 4 5 6 
#
# 1 118.0900 47.6803 39.9883 0.0000 6.3051 0.0000
# 2 47.6803 103.7495 62.4907 0.0000 -7.5256 0.0000
# 3 39.9883 62.4907 101.3508 0.0000 -11.1509 0.0000
# 4 0.0000 0.0000 0.0000 29.6886 0.0000 -3.5592
# 5 6.3051 -7.5256 -11.1509 0.0000 22.6838 0.0000
# 6 0.0000 0.0000 0.0000 -3.5592 0.0000 24.1057
#
#
#
# Elastic Compliance Matrix: (Units=1/GPa)
#
#
# Indices 1 2 3 4 5 6 
#
# 1 0.011285 -0.004041 -0.002594 0.000000 -0.005753 0.000000
# 2 -0.004041 0.016785 -0.008477 0.000000 0.002525 0.000000
# 3 -0.002594 -0.008477 0.016795 0.000000 0.006165 0.000000
# 4 0.000000 0.000000 0.000000 0.034290 0.000000 0.005063
# 5 -0.005753 0.002525 0.006165 0.000000 0.049551 0.000000
# 6 0.000000 0.000000 0.000000 0.005063 0.000000 0.042231
#
#
# Mechanical properties :
#
#
# Convention : Reuss Voigt Hill
#
# Bulk Modulus (GPa) = 68.30041 69.27874 68.78957
# Shear Modulus (GPa) = 24.26686 26.83103 25.54895
#
# Velocity S-wave (km/s) = 3.69120 3.88132 3.78746
# Velocity P-wave (km/s) = 7.51764 7.68009 7.59930
#
# Compressibility (1/GPa) = 0.01464120
#
# Stress axis : x y z
#
# Youngs Moduli (GPa) = 88.61052 59.57752 59.54163
#
# Poissons Ratio (x) = 0.24078 0.15443
# Poissons Ratio (y) = 0.35811 0.50472
# Poissons Ratio (z) = 0.22983 0.50503
#
# Static dielectric constant tensor:
#      x y z
#    x 3.438400 0.000000 0.015220 
#    y 0.000000 3.155580 0.000000 
#    z 0.015220 0.000000 3.305020 
# 
# 
# High freq. dielectric constant tensor:
#      x y z
#    x 1.701200 0.000000 0.006090 
#    y 0.000000 1.668840 0.000000 
#    z 0.006090 0.000000 1.684260 
# 
# From -- ./inp_files/143554.got.cif
#   From: 2010.06.25/outbox.cif.g09.slc.cpg/sg12_72_cif.got.tgz:143554.got - 2010.06.28 00:19:55.
