data_PCOD8087606
_publ_section_title
;
Structure prediction by ZEFSAII (Michael W. Deem and Ramdas Pophale) SiO2 
 PCOD8087606
Probable space group: C 2/M
;
_chemical_formula_sum "Si O2"
_cell_formula_units_Z 56
_cell_length_a 12.249776
_cell_length_b 13.093968
_cell_length_c 21.478605
_cell_angle_alpha 90.000000
_cell_angle_beta 113.123198
_cell_angle_gamma 90.000000
_cell_volume 3168.356236
_symmetry_space_group_name_H-M "C 2/M"
_symmetry_group_IT_number 12
_symmetry_cell_setting 'monoclinic'
loop_
_space_group_symop_operation_xyz
x,y,z
-x,y,-z
-x,-y,-z
x,-y,z
1/2+x,1/2+y,z
1/2-x,1/2+y,-z
1/2-x,1/2-y,-z
1/2+x,1/2-y,z
loop_
_atom_site_type_symbol
_atom_site_label
_atom_site_fract_x
_atom_site_fract_y
_atom_site_fract_z
Si Si1 0.721507 0.385034 0.313543
Si Si2 0.876131 0.120288 0.005463
Si Si3 0.275433 0.716766 0.232571
Si Si4 0.336400 0.230066 0.108041
Si Si5 0.957251 0.382982 0.787160
Si Si6 0.024399 0.245261 0.327083
Si Si7 0.018616 0.384687 0.574688
O O1 0.684472 0.500000 0.288120
O O2 0.725417 0.323725 0.249328
O O3 0.625157 0.337780 0.338687
O O4 0.843443 0.381176 0.377919
O O5 0.866129 0.176750 0.069118
O O6 0.866646 0.000000 0.015576
O O7 0.767582 0.156267 0.938487
O O8 0.000000 0.148844 0.000000
O O9 0.295931 0.722726 0.164063
O O10 0.179336 0.628779 0.223081
O O11 0.396472 0.688405 0.296682
O O12 0.456833 0.165175 0.141551
O O13 0.990124 0.500000 0.787020
O O14 0.981693 0.332259 0.726479
O O15 0.050556 0.303430 0.397708
O O16 0.968827 0.500000 0.573165
O O17 0.000000 0.348879 0.500000
#
# Coordination Sequence:
#
# PCOD8087606 Si02
#       7
#     8   8   8   8   8   8   8
#     4   9  18  32  50  72  98 128 162 199 240 288
#     4  10  21  36  53  72  97 129 162 197 238 287
#     4   9  19  33  49  72  98 123 156 199 241 285
#     4  10  20  35  52  73  98 125 161 200 240 287
#     4  10  19  32  51  73  96 124 158 197 243 290
#     4   9  18  32  49  72 100 128 160 201 244 283
#     4   9  17  30  49  72  98 131 169 204 239 283
#
# _framework density 17.674780999999999
#
# number of rings (size 3 to 8) (size 9 to 14) (size 15 to 20)
#    0.000    2.571    0.000    1.714    0.000    5.714 
#    0.000    8.571    0.000    5.143    0.000    0.000 
#    0.000    0.000    0.000    0.000    0.000    0.000 
#
# Total GULP energy -347197.667468 kJ/mol
# GULP energy per Si atom -12399.916695 kJ/mol
# Density = 1.763455 g / cm^3
# Si number density = 17.674781 Si / 1000 Ang^3
#
#
#
# Elastic Constant Matrix: (Units=GPa)
#
#
# Indices 1 2 3 4 5 6 
#
# 1 87.9383 26.8711 20.0253 0.0000 -10.6496 0.0000
# 2 26.8711 70.6746 22.5140 0.0000 -4.9204 0.0000
# 3 20.0253 22.5140 88.8144 0.0000 -14.9144 0.0000
# 4 0.0000 0.0000 0.0000 20.4296 0.0000 0.1358
# 5 -10.6496 -4.9204 -14.9144 0.0000 18.0696 0.0000
# 6 0.0000 0.0000 0.0000 0.1358 0.0000 26.3606
#
#
#
# Elastic Compliance Matrix: (Units=1/GPa)
#
#
# Indices 1 2 3 4 5 6 
#
# 1 0.013690 -0.004486 -0.000928 0.000000 0.006081 0.000000
# 2 -0.004486 0.016882 -0.003413 0.000000 -0.000864 0.000000
# 3 -0.000928 -0.003413 0.014031 0.000000 0.010104 0.000000
# 4 0.000000 0.000000 0.000000 0.048950 0.000000 -0.000252
# 5 0.006081 -0.000864 0.010104 0.000000 0.067030 0.000000
# 6 0.000000 0.000000 0.000000 -0.000252 0.000000 0.037937
#
#
# Mechanical properties :
#
#
# Convention : Reuss Voigt Hill
#
# Bulk Modulus (GPa) = 37.10880 42.91644 40.01262
# Shear Modulus (GPa) = 22.20663 24.83975 23.52319
#
# Velocity S-wave (km/s) = 3.54842 3.75290 3.65209
# Velocity P-wave (km/s) = 6.15055 6.56604 6.36169
#
# Compressibility (1/GPa) = 0.02694779
#
# Stress axis : x y z
#
# Youngs Moduli (GPa) = 73.04494 59.23429 71.27188
#
# Poissons Ratio (x) = 0.26573 0.06617
# Poissons Ratio (y) = 0.32768 0.24326
# Poissons Ratio (z) = 0.06782 0.20218
#
# Static dielectric constant tensor:
#      x y z
#    x 3.431330 0.000000 0.074040 
#    y 0.000000 3.190350 0.000000 
#    z 0.074040 0.000000 3.232290 
# 
# 
# High freq. dielectric constant tensor:
#      x y z
#    x 1.692530 0.000000 0.001940 
#    y 0.000000 1.674150 0.000000 
#    z 0.001940 0.000000 1.680010 
# 
# From -- ./inp_files/304143.got.cif
#   From: 2010.06.25/outbox.cif.g09.slc.cpg/sg12_153_cif.got.tgz:304143.got - 2010.06.28 00:19:55.
