data_PCOD8087643
_publ_section_title
;
Structure prediction by ZEFSAII (Michael W. Deem and Ramdas Pophale) SiO2 
 PCOD8087643
Probable space group: C 2/M
;
_chemical_formula_sum "Si O2"
_cell_formula_units_Z 48
_cell_length_a 19.201128
_cell_length_b 9.080311
_cell_length_c 15.873842
_cell_angle_alpha 90.000000
_cell_angle_beta 76.763208
_cell_angle_gamma 90.000000
_cell_volume 2694.109038
_symmetry_space_group_name_H-M "C 2/M"
_symmetry_group_IT_number 12
_symmetry_cell_setting 'monoclinic'
loop_
_space_group_symop_operation_xyz
x,y,z
-x,y,-z
-x,-y,-z
x,-y,z
1/2+x,1/2+y,z
1/2-x,1/2+y,-z
1/2-x,1/2-y,-z
1/2+x,1/2-y,z
loop_
_atom_site_type_symbol
_atom_site_label
_atom_site_fract_x
_atom_site_fract_y
_atom_site_fract_z
Si Si1 0.949883 0.174783 0.255624
Si Si2 0.522652 0.672216 0.405033
Si Si3 0.920471 0.670481 0.854060
Si Si4 0.180598 0.670730 0.783848
Si Si5 0.314587 0.830313 0.027032
Si Si6 0.657729 0.669602 0.268994
O O1 0.870706 0.233530 0.260701
O O2 0.973807 0.230942 0.341689
O O3 0.005228 0.241108 0.172181
O O4 0.951682 0.000000 0.247814
O O5 0.500000 0.748277 0.500000
O O6 0.509251 0.500000 0.416445
O O7 0.605950 0.707662 0.362157
O O8 0.935422 0.500000 0.830695
O O9 0.861657 0.729621 0.804840
O O10 0.888588 0.692900 0.956267
O O11 0.158519 0.500000 0.783849
O O12 0.174408 0.728947 0.881392
O O13 0.260681 0.697432 0.726780
O O14 0.292066 0.000000 0.037351
O O15 0.250000 0.750000 0.000000
O O16 0.645853 0.500000 0.244469
#
# Coordination Sequence:
#
# PCOD8087643 Si02
#       6
#     8   8   8   8   8   8
#     4  10  21  35  52  74 101 134 169 208 255 302
#     4   8  15  31  55  78  97 124 166 209 249 301
#     4  10  19  32  51  74 100 134 172 211 251 292
#     4  10  20  34  50  72 105 138 167 206 253 298
#     4  10  20  32  50  74 101 135 173 211 247 289
#     4   9  17  31  53  76 100 134 170 203 247 302
#
# _framework density 17.816649999999999
#
# number of rings (size 3 to 8) (size 9 to 14) (size 15 to 20)
#    0.000    2.500    1.667    2.000    0.000    2.667 
#    0.000    4.167    0.000   12.500    0.000    0.000 
#    0.000    0.000    0.000    0.000    0.000    0.000 
#
# Total GULP energy -297565.034653 kJ/mol
# GULP energy per Si atom -12398.543111 kJ/mol
# Density = 1.777610 g / cm^3
# Si number density = 17.816650 Si / 1000 Ang^3
#
#
#
# Elastic Constant Matrix: (Units=GPa)
#
#
# Indices 1 2 3 4 5 6 
#
# 1 134.5268 44.1570 64.5652 0.0000 -0.5891 0.0000
# 2 44.1570 60.3487 30.2904 0.0000 -0.2496 0.0000
# 3 64.5652 30.2904 119.3215 0.0000 -13.5201 0.0000
# 4 0.0000 0.0000 0.0000 16.4673 0.0000 2.7783
# 5 -0.5891 -0.2496 -13.5201 0.0000 23.2727 0.0000
# 6 0.0000 0.0000 0.0000 2.7783 0.0000 33.9114
#
#
#
# Elastic Compliance Matrix: (Units=1/GPa)
#
#
# Indices 1 2 3 4 5 6 
#
# 1 0.011938 -0.006126 -0.005222 0.000000 -0.002797 0.000000
# 2 -0.006126 0.022303 -0.002502 0.000000 -0.001370 0.000000
# 3 -0.005222 -0.002502 0.012656 0.000000 0.007194 0.000000
# 4 0.000000 0.000000 0.000000 0.061578 0.000000 -0.005045
# 5 -0.002797 -0.001370 0.007194 0.000000 0.047062 0.000000
# 6 0.000000 0.000000 0.000000 -0.005045 0.000000 0.029902
#
#
# Mechanical properties :
#
#
# Convention : Reuss Voigt Hill
#
# Bulk Modulus (GPa) = 52.08814 65.80245 58.94529
# Shear Modulus (GPa) = 22.77515 26.40922 24.59219
#
# Velocity S-wave (km/s) = 3.57922 3.85421 3.71926
# Velocity P-wave (km/s) = 6.81030 7.53790 7.18332
#
# Compressibility (1/GPa) = 0.01919823
#
# Stress axis : x y z
#
# Youngs Moduli (GPa) = 83.76635 44.83737 79.01144
#
# Poissons Ratio (x) = 0.27466 0.41256
# Poissons Ratio (y) = 0.51313 0.19770
# Poissons Ratio (z) = 0.43739 0.11219
#
# Static dielectric constant tensor:
#      x y z
#    x 3.312590 0.000000 -0.184890 
#    y 0.000000 3.167680 0.000000 
#    z -0.184890 0.000000 3.489900 
# 
# 
# High freq. dielectric constant tensor:
#      x y z
#    x 1.690900 0.000000 -0.013430 
#    y 0.000000 1.674970 0.000000 
#    z -0.013430 0.000000 1.675580 
# 
# From -- ./inp_files/221636.got.cif
#   From: 2010.06.25/outbox.cif.g09.slc.cpg/sg12_111_cif.got.tgz:221636.got - 2010.06.28 00:19:55.
