data_PCOD8087793
_publ_section_title
;
Structure prediction by ZEFSAII (Michael W. Deem and Ramdas Pophale) SiO2 
 PCOD8087793
Probable space group: C 2/M
;
_chemical_formula_sum "Si O2"
_cell_formula_units_Z 56
_cell_length_a 29.876952
_cell_length_b 8.997407
_cell_length_c 16.829931
_cell_angle_alpha 90.000000
_cell_angle_beta 45.881547
_cell_angle_gamma 90.000000
_cell_volume 3247.889413
_symmetry_space_group_name_H-M "C 2/M"
_symmetry_group_IT_number 12
_symmetry_cell_setting 'monoclinic'
loop_
_space_group_symop_operation_xyz
x,y,z
-x,y,-z
-x,-y,-z
x,-y,z
1/2+x,1/2+y,z
1/2-x,1/2+y,-z
1/2-x,1/2-y,-z
1/2+x,1/2-y,z
loop_
_atom_site_type_symbol
_atom_site_label
_atom_site_fract_x
_atom_site_fract_y
_atom_site_fract_z
Si Si1 0.304330 0.325297 0.481826
Si Si2 0.563134 0.671535 0.091152
Si Si3 0.922611 0.829472 0.237181
Si Si4 0.283669 0.672045 0.845966
Si Si5 0.346011 0.828517 0.908307
Si Si6 0.116532 0.676466 0.870808
Si Si7 0.257166 0.324271 0.706039
O O1 0.293318 0.500000 0.489832
O O2 0.250000 0.250000 0.500000
O O3 0.371235 0.277391 0.364951
O O4 0.299982 0.273103 0.579236
O O5 0.582115 0.500000 0.058251
O O6 0.489391 0.690575 0.195804
O O7 0.596100 0.738798 0.127743
O O8 0.582282 0.758506 0.989049
O O9 0.919321 0.728656 0.163306
O O10 0.911353 0.000000 0.225489
O O11 0.302819 0.500000 0.829776
O O12 0.331647 0.767877 0.838204
O O13 0.287310 0.733296 0.751135
O O14 0.213011 0.696302 0.961859
O O15 0.364463 0.000000 0.879203
O O16 0.113764 0.500000 0.879701
O O17 0.187266 0.737839 0.780322
O O18 0.252170 0.500000 0.718791
#
# Coordination Sequence:
#
# PCOD8087793 Si02
#       7
#     8   8   8   8   8   8   8
#     4  10  19  34  54  75 100 134 173 216 255 294
#     4  11  22  35  50  72 106 143 173 207 254 306
#     4  10  22  36  50  73 105 140 177 211 251 305
#     4   9  17  32  51  74 103 131 161 205 261 309
#     4  10  19  32  51  77 104 130 167 209 253 308
#     4  11  20  33  52  77 104 136 174 211 254 303
#     4   9  17  31  52  76 103 130 164 210 255 299
#
# _framework density 17.241966000000001
#
# number of rings (size 3 to 8) (size 9 to 14) (size 15 to 20)
#    0.000    2.000    2.857    1.714    0.000    3.429 
#    0.000    0.714    0.000    0.857    0.000    6.000 
#    0.000    0.000    0.000    0.000    0.000    0.000 
#
# Total GULP energy -347241.372540 kJ/mol
# GULP energy per Si atom -12401.477591 kJ/mol
# Density = 1.720272 g / cm^3
# Si number density = 17.241966 Si / 1000 Ang^3
#
#
#
# Elastic Constant Matrix: (Units=GPa)
#
#
# Indices 1 2 3 4 5 6 
#
# 1 135.5164 49.3627 57.3328 -0.0001 10.4972 0.0001
# 2 49.3627 67.5686 31.0465 0.0000 -3.1333 0.0009
# 3 57.3328 31.0465 86.1322 -0.0008 0.2037 0.0006
# 4 -0.0001 0.0000 -0.0008 15.6883 -0.0001 -1.8743
# 5 10.4972 -3.1333 0.2037 -0.0001 28.5155 0.0001
# 6 0.0001 0.0009 0.0006 -1.8743 0.0001 28.5703
#
#
#
# Elastic Compliance Matrix: (Units=1/GPa)
#
#
# Indices 1 2 3 4 5 6 
#
# 1 0.012875 -0.006864 -0.006083 0.000000 -0.005450 0.000000
# 2 -0.006864 0.021511 -0.003196 0.000000 0.004913 -0.000001
# 3 -0.006083 -0.003196 0.016807 0.000001 0.001768 0.000000
# 4 0.000000 0.000000 0.000001 0.064245 0.000000 0.004215
# 5 -0.005450 0.004913 0.001768 0.000000 0.037602 0.000000
# 6 0.000000 -0.000001 0.000000 0.004215 0.000000 0.035278
#
#
# Mechanical properties :
#
#
# Convention : Reuss Voigt Hill
#
# Bulk Modulus (GPa) = 52.89241 62.74457 57.81849
# Shear Modulus (GPa) = 22.03544 24.65317 23.34431
#
# Velocity S-wave (km/s) = 3.57881 3.78542 3.68356
# Velocity P-wave (km/s) = 6.91522 7.45490 7.19012
#
# Compressibility (1/GPa) = 0.01890630
#
# Stress axis : x y z
#
# Youngs Moduli (GPa) = 77.66915 46.48879 59.49792
#
# Poissons Ratio (x) = 0.31908 0.36194
# Poissons Ratio (y) = 0.53309 0.19018
# Poissons Ratio (z) = 0.47248 0.14860
#
# Static dielectric constant tensor:
#      x y z
#    x 3.698120 0.000000 0.219980 
#    y 0.000000 3.168960 0.000000 
#    z 0.219980 0.000000 3.303750 
# 
# 
# High freq. dielectric constant tensor:
#      x y z
#    x 1.667470 0.000000 0.007720 
#    y 0.000000 1.660110 0.000000 
#    z 0.007720 0.000000 1.648540 
# 
# From -- ./inp_files/288481.got.cif
#   From: 2010.06.25/outbox.cif.g09.slc.cpg/sg12_145_cif.got.tgz:288481.got - 2010.06.28 00:19:55.
