data_PCOD8087170
_publ_section_title
;
Structure prediction by ZEFSAII (Michael W. Deem and Ramdas Pophale) SiO2 
 PCOD8087170
Probable space group: C 2/M
;
_chemical_formula_sum "Si O2"
_cell_formula_units_Z 40
_cell_length_a 19.188909
_cell_length_b 8.812471
_cell_length_c 21.690313
_cell_angle_alpha 90.000000
_cell_angle_beta 34.162513
_cell_angle_gamma 90.000000
_cell_volume 2059.662881
_symmetry_space_group_name_H-M "C 2/M"
_symmetry_group_IT_number 12
_symmetry_cell_setting 'monoclinic'
loop_
_space_group_symop_operation_xyz
x,y,z
-x,y,-z
-x,-y,-z
x,-y,z
1/2+x,1/2+y,z
1/2-x,1/2+y,-z
1/2-x,1/2-y,-z
1/2+x,1/2-y,z
loop_
_atom_site_type_symbol
_atom_site_label
_atom_site_fract_x
_atom_site_fract_y
_atom_site_fract_z
Si Si1 0.097885 0.679947 0.780003
Si Si2 0.347386 0.320054 0.382418
Si Si3 0.176132 0.327888 0.855705
Si Si4 0.140017 0.178439 0.003300
Si Si5 0.623064 0.328333 0.201070
O O1 0.097642 0.500000 0.772809
O O2 0.178931 0.755056 0.666461
O O3 0.160866 0.735129 0.797847
O O4 0.957425 0.744976 0.878220
O O5 0.335157 0.500000 0.392294
O O6 0.250000 0.250000 0.500000
O O7 0.484412 0.262344 0.302597
O O8 0.126009 0.500000 0.895832
O O9 0.099628 0.231630 0.963219
O O10 0.322251 0.321259 0.768817
O O11 0.281376 0.235238 0.913219
O O12 0.131552 0.000000 0.016212
O O13 0.621574 0.500000 0.176605
#
# Coordination Sequence:
#
# PCOD8087170 Si02
#       5
#     8   8   8   8   8
#     4  11  21  35  58  84 114 150 185 223 269 329
#     4  11  24  42  61  79 107 144 187 236 277 324
#     4   8  17  35  56  82 114 148 183 218 267 332
#     4  10  19  31  55  88 120 145 176 227 276 324
#     4   8  18  38  58  78 110 149 184 220 270 330
#
# _framework density 19.420653000000001
#
# number of rings (size 3 to 8) (size 9 to 14) (size 15 to 20)
#    1.200    1.200    0.000    3.000    0.000    6.400 
#    0.000    1.000    0.000    6.000    0.000    0.000 
#    0.000    0.000    0.000    0.000    0.000    0.000 
#
# Total GULP energy -247843.965607 kJ/mol
# GULP energy per Si atom -12392.198280 kJ/mol
# Density = 1.937645 g / cm^3
# Si number density = 19.420653 Si / 1000 Ang^3
#
#
#
# Elastic Constant Matrix: (Units=GPa)
#
#
# Indices 1 2 3 4 5 6 
#
# 1 42.5576 15.6687 44.2370 0.0000 7.3318 0.0000
# 2 15.6687 85.8431 44.6511 0.0000 7.6179 0.0001
# 3 44.2370 44.6511 132.8896 0.0001 19.2797 0.0000
# 4 0.0000 0.0000 0.0001 33.6676 0.0000 3.0504
# 5 7.3318 7.6179 19.2797 0.0000 24.7852 0.0000
# 6 0.0000 0.0001 0.0000 3.0504 0.0000 23.6823
#
#
#
# Elastic Compliance Matrix: (Units=1/GPa)
#
#
# Indices 1 2 3 4 5 6 
#
# 1 0.035990 -0.000385 -0.011637 0.000000 -0.001476 0.000000
# 2 -0.000385 0.014132 -0.004516 0.000000 -0.000717 0.000000
# 3 -0.011637 -0.004516 0.013769 0.000000 -0.005880 0.000000
# 4 0.000000 0.000000 0.000000 0.030053 0.000000 -0.003871
# 5 -0.001476 -0.000717 -0.005880 0.000000 0.045578 0.000000
# 6 0.000000 0.000000 0.000000 -0.003871 0.000000 0.042724
#
#
# Mechanical properties :
#
#
# Convention : Reuss Voigt Hill
#
# Bulk Modulus (GPa) = 32.45211 52.26709 42.35960
# Shear Modulus (GPa) = 22.16366 26.87592 24.51979
#
# Velocity S-wave (km/s) = 3.38189 3.72409 3.55711
# Velocity P-wave (km/s) = 5.65650 6.74266 6.22332
#
# Compressibility (1/GPa) = 0.03081464
#
# Stress axis : x y z
#
# Youngs Moduli (GPa) = 27.78558 70.76059 72.62482
#
# Poissons Ratio (x) = 0.02726 0.84513
# Poissons Ratio (y) = 0.01070 0.32799
# Poissons Ratio (z) = 0.32334 0.31957
#
# Static dielectric constant tensor:
#      x y z
#    x 3.709140 0.000000 -0.076520 
#    y 0.000000 3.385030 0.000000 
#    z -0.076520 0.000000 3.334830 
# 
# 
# High freq. dielectric constant tensor:
#      x y z
#    x 1.763580 0.000000 -0.001210 
#    y 0.000000 1.751630 0.000000 
#    z -0.001210 0.000000 1.725980 
# 
# From -- ./inp_files/345811.got.cif
#   From: 2010.06.25/outbox.cif.g09.slc.cpg/sg12_173_cif.got.tgz:345811.got - 2010.06.28 00:19:55.
