data_PCOD8087183
_publ_section_title
;
Structure prediction by ZEFSAII (Michael W. Deem and Ramdas Pophale) SiO2 
 PCOD8087183
Probable space group: C 2/M
;
_chemical_formula_sum "Si O2"
_cell_formula_units_Z 48
_cell_length_a 11.958377
_cell_length_b 22.596167
_cell_length_c 11.115902
_cell_angle_alpha 90.000000
_cell_angle_beta 60.983701
_cell_angle_gamma 90.000000
_cell_volume 2626.651651
_symmetry_space_group_name_H-M "C 2/M"
_symmetry_group_IT_number 12
_symmetry_cell_setting 'monoclinic'
loop_
_space_group_symop_operation_xyz
x,y,z
-x,y,-z
-x,-y,-z
x,-y,z
1/2+x,1/2+y,z
1/2-x,1/2+y,-z
1/2-x,1/2-y,-z
1/2+x,1/2-y,z
loop_
_atom_site_type_symbol
_atom_site_label
_atom_site_fract_x
_atom_site_fract_y
_atom_site_fract_z
Si Si1 0.945790 0.931750 0.724841
Si Si2 0.896110 0.169765 0.945661
Si Si3 0.124063 0.704235 0.169105
Si Si4 0.805484 0.066438 0.553791
Si Si5 0.636447 0.254485 0.414430
Si Si6 0.641700 0.829549 0.639817
O O1 0.920704 0.885914 0.846080
O O2 0.840058 0.925358 0.676152
O O3 0.080745 0.915145 0.594754
O O4 0.945973 0.000000 0.772852
O O5 0.906756 0.232632 0.874634
O O6 0.746508 0.167062 0.061442
O O7 0.000000 0.167292 0.000000
O O8 0.144078 0.710574 0.299582
O O9 0.992740 0.667438 0.219294
O O10 0.680659 0.104194 0.585256
O O11 0.765225 0.000000 0.548546
O O12 0.500000 0.288330 0.500000
O O13 0.646643 0.212682 0.523463
O O14 0.745356 0.303247 0.335195
#
# Coordination Sequence:
#
# PCOD8087183 Si02
#       6
#     8   8   8   8   8   8
#     4   9  20  37  57  82 106 138 187 229 263 311
#     4  11  23  36  57  75 113 151 181 217 263 322
#     4  10  22  37  48  82 114 143 177 218 270 325
#     4   9  19  35  58  83 107 135 177 234 275 307
#     4   9  19  31  52  82 108 139 178 221 265 319
#     4  10  19  31  57  81 109 138 176 222 275 321
#
# _framework density 18.274215999999999
#
# number of rings (size 3 to 8) (size 9 to 14) (size 15 to 20)
#    0.000    2.333    0.000    3.000   11.667    1.667 
#    0.000    0.833    0.000    6.500    0.000    0.000 
#    0.000    0.000    0.000    0.000    0.000    0.000 
#
# Total GULP energy -297335.802626 kJ/mol
# GULP energy per Si atom -12388.991776 kJ/mol
# Density = 1.823262 g / cm^3
# Si number density = 18.274216 Si / 1000 Ang^3
#
#
#
# Elastic Constant Matrix: (Units=GPa)
#
#
# Indices 1 2 3 4 5 6 
#
# 1 97.6722 50.6727 48.8631 0.0000 -33.8918 0.0000
# 2 50.6727 99.2403 50.9440 0.0000 -21.7373 0.0000
# 3 48.8631 50.9440 89.6883 0.0000 -28.1590 0.0000
# 4 0.0000 0.0000 0.0000 23.7273 0.0000 -15.2988
# 5 -33.8918 -21.7373 -28.1590 0.0000 30.0836 0.0000
# 6 0.0000 0.0000 0.0000 -15.2988 0.0000 0.3766
#
#
#
# Elastic Compliance Matrix: (Units=1/GPa)
#
#
# Indices 1 2 3 4 5 6 
#
# 1 0.019924 -0.005188 -0.002886 0.000000 0.015997 0.000000
# 2 -0.005188 0.015896 -0.006276 0.000000 -0.000233 0.000000
# 3 -0.002886 -0.006276 0.019603 0.000000 0.010564 0.000000
# 4 0.000000 0.000000 0.000000 -0.001673 0.000000 -0.067960
# 5 0.015997 -0.000233 0.010564 0.000000 0.060982 0.000000
# 6 0.000000 0.000000 0.000000 -0.067960 0.000000 -0.105401
#
#
# Mechanical properties :
#
#
# Convention : Reuss Voigt Hill
#
# Bulk Modulus (GPa) = 37.41917 65.28446 51.35182
# Shear Modulus (GPa) = 106.52001 19.91225 63.21613
#
# Velocity S-wave (km/s) = 7.64306 3.30455 5.88797
# Velocity P-wave (km/s) = 9.92015 7.09665 8.62473
#
# Compressibility (1/GPa) = 0.02672427
#
# Stress axis : x y z
#
# Youngs Moduli (GPa) = 50.18953 62.90772 51.01219
#
# Poissons Ratio (x) = 0.32639 0.14720
# Poissons Ratio (y) = 0.26040 0.32015
# Poissons Ratio (z) = 0.14482 0.39480
#
# Static dielectric constant tensor:
#      x y z
#    x 3.689180 0.000000 -0.169210 
#    y 0.000000 3.278280 0.000000 
#    z -0.169210 0.000000 3.425720 
# 
# 
# High freq. dielectric constant tensor:
#      x y z
#    x 1.710140 0.000000 -0.006060 
#    y 0.000000 1.696670 0.000000 
#    z -0.006060 0.000000 1.704440 
# 
# From -- ./inp_files/132992.got.cif
#   From: 2010.06.25/outbox.cif.g09.slc.cpg/sg12_67_cif.got.tgz:132992.got - 2010.06.28 00:19:55.
