data_PCOD8087269
_publ_section_title
;
Structure prediction by ZEFSAII (Michael W. Deem and Ramdas Pophale) SiO2 
 PCOD8087269
Probable space group: C 2/M
;
_chemical_formula_sum "Si O2"
_cell_formula_units_Z 56
_cell_length_a 28.050485
_cell_length_b 9.516992
_cell_length_c 17.432511
_cell_angle_alpha 90.000000
_cell_angle_beta 40.799749
_cell_angle_gamma 90.000000
_cell_volume 3040.819541
_symmetry_space_group_name_H-M "C 2/M"
_symmetry_group_IT_number 12
_symmetry_cell_setting 'monoclinic'
loop_
_space_group_symop_operation_xyz
x,y,z
-x,y,-z
-x,-y,-z
x,-y,z
1/2+x,1/2+y,z
1/2-x,1/2+y,-z
1/2-x,1/2-y,-z
1/2+x,1/2-y,z
loop_
_atom_site_type_symbol
_atom_site_label
_atom_site_fract_x
_atom_site_fract_y
_atom_site_fract_z
Si Si1 0.857207 0.848324 0.282264
Si Si2 0.919199 0.663480 0.336783
Si Si3 0.549052 0.656155 0.147437
Si Si4 0.285953 0.336353 0.024149
Si Si5 0.427368 0.242253 0.049947
Si Si6 0.775096 0.657172 0.186144
Si Si7 0.207173 0.658548 0.395102
O O1 0.885387 0.722917 0.299886
O O2 0.893641 0.848444 0.153400
O O3 0.770190 0.833701 0.382157
O O4 0.876137 0.000000 0.296438
O O5 0.931304 0.500000 0.308502
O O6 0.868957 0.694757 0.471165
O O7 0.997451 0.734770 0.254766
O O8 0.519681 0.500000 0.198299
O O9 0.627495 0.675321 0.090003
O O10 0.548194 0.677384 0.056566
O O11 0.260832 0.500000 0.054958
O O12 0.263365 0.261877 0.130124
O O13 0.250000 0.250000 0.000000
O O14 0.359974 0.140332 0.109532
O O15 0.500000 0.169102 0.000000
O O16 0.748011 0.500000 0.198955
O O17 0.722117 0.721945 0.314630
O O18 0.204932 0.500000 0.362460
#
# Coordination Sequence:
#
# PCOD8087269 Si02
#       7
#     8   8   8   8   8   8   8
#     4  10  19  32  50  69  96 142 194 233 268 315
#     4  11  22  33  48  72 106 143 183 230 273 311
#     4  10  21  36  54  79 108 143 183 217 266 327
#     4  10  21  39  63  88 113 140 170 214 268 328
#     4  10  19  32  48  75 108 145 182 222 268 315
#     4  10  21  35  55  83 109 139 180 224 268 319
#     4   9  20  37  51  69 102 146 188 226 268 316
#
# _framework density 18.416087000000001
#
# number of rings (size 3 to 8) (size 9 to 14) (size 15 to 20)
#    0.000    2.000    1.429    2.143    0.000   10.571 
#    0.000    0.000    0.000    0.857    0.000    6.000 
#    0.000    0.000    0.000    0.000    0.000    0.000 
#
# Total GULP energy -347013.593862 kJ/mol
# GULP energy per Si atom -12393.342638 kJ/mol
# Density = 1.837417 g / cm^3
# Si number density = 18.416087 Si / 1000 Ang^3
#
#
#
# Elastic Constant Matrix: (Units=GPa)
#
#
# Indices 1 2 3 4 5 6 
#
# 1 89.9635 50.8816 32.3458 -0.0006 2.2025 -0.0010
# 2 50.8816 158.8809 70.3264 -0.0253 3.1644 0.0112
# 3 32.3458 70.3264 107.2655 -0.0133 -1.7068 0.0052
# 4 -0.0006 -0.0253 -0.0133 22.7458 -0.0001 -0.2326
# 5 2.2025 3.1644 -1.7068 -0.0001 13.4326 0.0004
# 6 -0.0010 0.0112 0.0052 -0.2326 0.0004 26.3204
#
#
#
# Elastic Compliance Matrix: (Units=1/GPa)
#
#
# Indices 1 2 3 4 5 6 
#
# 1 0.013848 -0.003581 -0.001855 -0.000005 -0.001663 0.000002
# 2 -0.003581 0.009902 -0.005451 0.000008 -0.002438 -0.000003
# 3 -0.001855 -0.005451 0.013508 0.000002 0.003305 0.000000
# 4 -0.000005 0.000008 0.000002 0.043968 -0.000001 0.000389
# 5 -0.001663 -0.002438 0.003305 -0.000001 0.075713 -0.000001
# 6 0.000002 -0.000003 0.000000 0.000389 -0.000001 0.037997
#
#
# Mechanical properties :
#
#
# Convention : Reuss Voigt Hill
#
# Bulk Modulus (GPa) = 64.57605 73.69084 69.13344
# Shear Modulus (GPa) = 22.53550 26.00351 24.26951
#
# Velocity S-wave (km/s) = 3.50192 3.76174 3.63415
# Velocity P-wave (km/s) = 7.17582 7.67911 7.43173
#
# Compressibility (1/GPa) = 0.01548562
#
# Stress axis : x y z
#
# Youngs Moduli (GPa) = 72.21021 100.98708 74.02754
#
# Poissons Ratio (x) = 0.36162 0.13730
# Poissons Ratio (y) = 0.25858 0.40354
# Poissons Ratio (z) = 0.13393 0.55050
#
# Static dielectric constant tensor:
#      x y z
#    x 3.213130 -0.000010 -0.138970 
#    y -0.000010 3.362700 0.000010 
#    z -0.138970 0.000010 3.455420 
# 
# 
# High freq. dielectric constant tensor:
#      x y z
#    x 1.681200 0.000000 -0.007370 
#    y 0.000000 1.718780 0.000000 
#    z -0.007370 0.000000 1.714440 
# 
# From -- ./inp_files/287369.got.cif
#   From: 2010.06.25/outbox.cif.g09.slc.cpg/sg12_144_cif.got.tgz:287369.got - 2010.06.28 00:19:55.
