data_PCOD8087488
_publ_section_title
;
Structure prediction by ZEFSAII (Michael W. Deem and Ramdas Pophale) SiO2 
 PCOD8087488
Probable space group: C 2/M
;
_chemical_formula_sum "Si O2"
_cell_formula_units_Z 64
_cell_length_a 25.262945
_cell_length_b 8.824515
_cell_length_c 23.781762
_cell_angle_alpha 90.000000
_cell_angle_beta 45.835385
_cell_angle_gamma 90.000000
_cell_volume 3803.159350
_symmetry_space_group_name_H-M "C 2/M"
_symmetry_group_IT_number 12
_symmetry_cell_setting 'monoclinic'
loop_
_space_group_symop_operation_xyz
x,y,z
-x,y,-z
-x,-y,-z
x,-y,z
1/2+x,1/2+y,z
1/2-x,1/2+y,-z
1/2-x,1/2-y,-z
1/2+x,1/2-y,z
loop_
_atom_site_type_symbol
_atom_site_label
_atom_site_fract_x
_atom_site_fract_y
_atom_site_fract_z
Si Si1 0.302657 0.678757 0.693040
Si Si2 0.435989 0.832447 0.001466
Si Si3 0.540908 0.822946 0.411467
Si Si4 0.773818 0.679483 0.595046
Si Si5 0.373918 0.823250 0.331927
Si Si6 0.438423 0.823181 0.166620
Si Si7 0.415102 0.178671 0.423558
Si Si8 0.331496 0.322760 0.157365
O O1 0.298111 0.500000 0.693295
O O2 0.384723 0.728493 0.647491
O O3 0.275066 0.745543 0.654811
O O4 0.247364 0.739448 0.782024
O O5 0.477044 0.780216 0.913323
O O6 0.401429 0.000000 0.020104
O O7 0.500000 0.835160 0.000000
O O8 0.371401 0.719554 0.068831
O O9 0.500000 0.789699 0.500000
O O10 0.488875 0.762077 0.399567
O O11 0.560152 0.000000 0.391787
O O12 0.777023 0.500000 0.600282
O O13 0.700021 0.725952 0.617352
O O14 0.842535 0.743176 0.508192
O O15 0.428722 0.788286 0.239663
O O16 0.415860 0.772668 0.357726
O O17 0.352103 0.000000 0.350153
O O18 0.380127 0.725382 0.174887
O O19 0.423502 0.000000 0.163701
O O20 0.413188 0.000000 0.431871
O O21 0.318075 0.500000 0.169163
#
# Coordination Sequence:
#
# PCOD8087488 Si02
#       8
#     8   8   8   8   8   8   8   8
#     4  12  23  34  50  73  99 130 168 209 252 301
#     4   8  15  28  44  65  97 133 161 191 237 291
#     4  10  19  36  56  72  96 129 166 210 255 295
#     4  11  20  33  50  72 100 134 169 206 250 290
#     4  10  19  32  50  74 102 136 170 200 238 292
#     4   9  17  29  46  69 101 135 163 194 237 290
#     4   9  19  34  52  72  98 132 170 207 247 292
#     4  11  20  30  47  71  98 127 163 203 246 295
#
# _framework density 16.828113999999999
#
# number of rings (size 3 to 8) (size 9 to 14) (size 15 to 20)
#    0.000    2.000    2.500    3.750    0.000    2.500 
#    0.000    1.250    0.000    0.000    0.000    0.875 
#    0.000    0.000    0.000    0.000    0.000    0.000 
#
# Total GULP energy -396752.164572 kJ/mol
# GULP energy per Si atom -12398.505143 kJ/mol
# Density = 1.678981 g / cm^3
# Si number density = 16.828114 Si / 1000 Ang^3
#
#
#
# Elastic Constant Matrix: (Units=GPa)
#
#
# Indices 1 2 3 4 5 6 
#
# 1 93.6347 34.5396 44.1586 -0.0037 -2.7517 0.0011
# 2 34.5396 81.8506 44.5309 -0.0081 -7.4173 0.0084
# 3 44.1586 44.5309 114.7146 -0.0061 -7.7336 0.0025
# 4 -0.0037 -0.0081 -0.0061 23.1530 0.0023 -6.4148
# 5 -2.7517 -7.4173 -7.7336 0.0023 16.0141 -0.0005
# 6 0.0011 0.0084 0.0025 -6.4148 -0.0005 20.4804
#
#
#
# Elastic Compliance Matrix: (Units=1/GPa)
#
#
# Indices 1 2 3 4 5 6 
#
# 1 0.013924 -0.003841 -0.003957 0.000000 -0.001297 0.000001
# 2 -0.003841 0.016856 -0.004737 0.000002 0.004860 -0.000005
# 3 -0.003957 -0.004737 0.012285 0.000001 0.003059 0.000001
# 4 0.000000 0.000002 0.000001 0.047295 -0.000005 0.014814
# 5 -0.001297 0.004860 0.003059 -0.000005 0.065950 -0.000002
# 6 0.000001 -0.000005 0.000001 0.014814 -0.000002 0.053467
#
#
# Mechanical properties :
#
#
# Convention : Reuss Voigt Hill
#
# Bulk Modulus (GPa) = 55.56609 59.62869 57.59739
# Shear Modulus (GPa) = 20.76017 23.06090 21.91054
#
# Velocity S-wave (km/s) = 3.51616 3.70588 3.61227
# Velocity P-wave (km/s) = 7.04102 7.33637 7.19021
#
# Compressibility (1/GPa) = 0.01799659
#
# Stress axis : x y z
#
# Youngs Moduli (GPa) = 71.81632 59.32696 81.39705
#
# Poissons Ratio (x) = 0.22787 0.32205
# Poissons Ratio (y) = 0.27583 0.38559
# Poissons Ratio (z) = 0.28415 0.28104
#
# Static dielectric constant tensor:
#      x y z
#    x 3.008970 0.000000 -0.017100 
#    y 0.000000 3.034450 0.000000 
#    z -0.017100 0.000000 3.577170 
# 
# 
# High freq. dielectric constant tensor:
#      x y z
#    x 1.609080 0.000000 -0.004900 
#    y 0.000000 1.639630 0.000000 
#    z -0.004900 0.000000 1.661090 
# 
# From -- ./inp_files/287764.got.cif
#   From: 2010.06.25/outbox.cif.g09.slc.cpg/sg12_144_cif.got.tgz:287764.got - 2010.06.28 00:19:55.
