data_PCOD8087383
_publ_section_title
;
Structure prediction by ZEFSAII (Michael W. Deem and Ramdas Pophale) SiO2 
 PCOD8087383
Probable space group: C 2/M
;
_chemical_formula_sum "Si O2"
_cell_formula_units_Z 64
_cell_length_a 20.332341
_cell_length_b 9.359983
_cell_length_c 19.523813
_cell_angle_alpha 90.000000
_cell_angle_beta 97.168962
_cell_angle_gamma 90.000000
_cell_volume 3686.537239
_symmetry_space_group_name_H-M "C 2/M"
_symmetry_group_IT_number 12
_symmetry_cell_setting 'monoclinic'
loop_
_space_group_symop_operation_xyz
x,y,z
-x,y,-z
-x,-y,-z
x,-y,z
1/2+x,1/2+y,z
1/2-x,1/2+y,-z
1/2-x,1/2-y,-z
1/2+x,1/2-y,z
loop_
_atom_site_type_symbol
_atom_site_label
_atom_site_fract_x
_atom_site_fract_y
_atom_site_fract_z
Si Si1 0.184408 0.835218 0.916182
Si Si2 0.023084 0.831755 0.668541
Si Si3 0.762002 0.665101 0.570667
Si Si4 0.169108 0.334761 0.050372
Si Si5 0.616814 0.663572 0.565704
Si Si6 0.528061 0.165730 0.078043
Si Si7 0.383632 0.332027 0.589038
Si Si8 0.944051 0.832302 0.177775
O O1 0.260336 0.796797 0.904077
O O2 0.133334 0.799802 0.848423
O O3 0.179739 0.000000 0.936412
O O4 0.161450 0.748591 0.978925
O O5 0.069491 0.760809 0.615612
O O6 0.041495 0.768136 0.745064
O O7 0.947335 0.795442 0.642218
O O8 0.036078 0.000000 0.671589
O O9 0.779827 0.500000 0.558735
O O10 0.750000 0.750000 0.500000
O O11 0.692689 0.676807 0.602918
O O12 0.823041 0.744338 0.616535
O O13 0.165869 0.500000 0.029555
O O14 0.106948 0.297750 0.091179
O O15 0.594539 0.500000 0.556845
O O16 0.606769 0.726477 0.487721
O O17 0.492628 0.258538 0.130590
O O18 0.514583 0.000000 0.092060
O O19 0.500000 0.207303 0.000000
O O20 0.366436 0.500000 0.586664
O O21 0.959425 0.000000 0.176574
#
# Coordination Sequence:
#
# PCOD8087383 Si02
#       8
#     8   8   8   8   8   8   8   8
#     4   9  17  29  46  69  93 115 145 189 233 272
#     4   9  17  30  47  68  94 125 160 197 238 282
#     4   9  16  27  46  72  98 123 155 198 242 281
#     4   9  17  30  48  69  90 116 151 186 227 276
#     4   8  14  26  47  72  92 118 162 202 230 271
#     4  10  19  32  50  70  93 124 156 188 230 288
#     4   9  16  28  49  72  94 124 160 200 239 278
#     4  10  20  32  48  70  96 123 154 197 242 281
#
# _framework density 17.360465000000001
#
# number of rings (size 3 to 8) (size 9 to 14) (size 15 to 20)
#    0.000    2.875    1.250    1.500    0.000    2.250 
#    0.000    1.875    0.000   13.500    0.000    0.000 
#    0.000    0.000    0.000    0.000    0.000    0.000 
#
# Total GULP energy -396545.627418 kJ/mol
# GULP energy per Si atom -12392.050857 kJ/mol
# Density = 1.732095 g / cm^3
# Si number density = 17.360465 Si / 1000 Ang^3
#
#
#
# Elastic Constant Matrix: (Units=GPa)
#
#
# Indices 1 2 3 4 5 6 
#
# 1 116.4248 36.8847 53.3583 0.0000 21.7790 0.0000
# 2 36.8847 41.8654 22.4294 0.0000 7.0882 0.0000
# 3 53.3583 22.4294 92.2158 0.0000 17.7008 0.0000
# 4 0.0000 0.0000 0.0000 12.9042 0.0000 2.3517
# 5 21.7790 7.0882 17.7008 0.0000 19.3439 0.0000
# 6 0.0000 0.0000 0.0000 2.3517 0.0000 25.2367
#
#
#
# Elastic Compliance Matrix: (Units=1/GPa)
#
#
# Indices 1 2 3 4 5 6 
#
# 1 0.015659 -0.009543 -0.004885 0.000000 -0.009664 0.000000
# 2 -0.009543 0.033652 -0.002861 0.000000 0.001031 0.000000
# 3 -0.004885 -0.002861 0.015903 0.000000 -0.008004 0.000000
# 4 0.000000 0.000000 0.000000 0.078833 0.000000 -0.007346
# 5 -0.009664 0.001031 -0.008004 0.000000 0.069522 0.000000
# 6 0.000000 0.000000 0.000000 -0.007346 0.000000 0.040309
#
#
# Mechanical properties :
#
#
# Convention : Reuss Voigt Hill
#
# Bulk Modulus (GPa) = 32.64124 52.87233 42.75678
# Shear Modulus (GPa) = 16.74102 20.68588 18.71345
#
# Velocity S-wave (km/s) = 3.10872 3.45563 3.28675
# Velocity P-wave (km/s) = 5.63279 6.81495 6.25188
#
# Compressibility (1/GPa) = 0.03063610
#
# Stress axis : x y z
#
# Youngs Moduli (GPa) = 63.86155 29.71594 62.88205
#
# Poissons Ratio (x) = 0.28358 0.30715
# Poissons Ratio (y) = 0.60942 0.17992
# Poissons Ratio (z) = 0.31194 0.08503
#
# Static dielectric constant tensor:
#      x y z
#    x 3.826710 0.000000 0.159840 
#    y 0.000000 3.105180 0.000000 
#    z 0.159840 0.000000 3.119170 
# 
# 
# High freq. dielectric constant tensor:
#      x y z
#    x 1.691600 0.000000 0.011820 
#    y 0.000000 1.643610 0.000000 
#    z 0.011820 0.000000 1.635250 
# 
# From -- ./inp_files/319215.got.cif
#   From: 2010.06.25/outbox.cif.g09.slc.cpg/sg12_160_cif.got.tgz:319215.got - 2010.06.28 00:19:55.
