data_PCOD8087838
_publ_section_title
;
Structure prediction by ZEFSAII (Michael W. Deem and Ramdas Pophale) SiO2 
 PCOD8087838
Probable space group: C 2/M
;
_chemical_formula_sum "Si O2"
_cell_formula_units_Z 64
_cell_length_a 20.246488
_cell_length_b 8.864397
_cell_length_c 32.705388
_cell_angle_alpha 90.000000
_cell_angle_beta 145.859681
_cell_angle_gamma 90.000000
_cell_volume 3294.219638
_symmetry_space_group_name_H-M "C 2/M"
_symmetry_group_IT_number 12
_symmetry_cell_setting 'monoclinic'
loop_
_space_group_symop_operation_xyz
x,y,z
-x,y,-z
-x,-y,-z
x,-y,z
1/2+x,1/2+y,z
1/2-x,1/2+y,-z
1/2-x,1/2-y,-z
1/2+x,1/2-y,z
loop_
_atom_site_type_symbol
_atom_site_label
_atom_site_fract_x
_atom_site_fract_y
_atom_site_fract_z
Si Si1 0.967229 0.829283 0.232262
Si Si2 0.822528 0.172620 0.602984
Si Si3 0.064450 0.678411 0.491767
Si Si4 0.124883 0.669469 0.886338
Si Si5 0.558568 0.169258 0.073951
Si Si6 0.378717 0.669636 0.032864
Si Si7 0.197436 0.674807 0.792608
Si Si8 0.996036 0.323667 0.629116
O O1 0.959894 0.786248 0.180784
O O2 0.886080 0.703782 0.211669
O O3 0.099149 0.812628 0.316127
O O4 0.921530 0.000000 0.216086
O O5 0.696820 0.243271 0.552178
O O6 0.885020 0.249630 0.595877
O O7 0.804391 0.000000 0.580453
O O8 0.071318 0.500000 0.501116
O O9 0.995641 0.722783 0.414599
O O10 0.000000 0.745469 0.500000
O O11 0.079267 0.500000 0.855794
O O12 0.121089 0.705977 0.932001
O O13 0.262941 0.687390 0.944731
O O14 0.493631 0.297794 0.065891
O O15 0.694318 0.214108 0.145794
O O16 0.546104 0.000000 0.085616
O O17 0.500000 0.172626 0.000000
O O18 0.384795 0.500000 0.053860
O O19 0.235859 0.500000 0.811249
O O20 0.121526 0.721076 0.713454
O O21 0.973557 0.500000 0.622139
#
# Coordination Sequence:
#
# PCOD8087838 Si02
#       8
#     8   8   8   8   8   8   8   8
#     4  10  19  32  51  78 107 137 176 220 266 316
#     4   9  18  32  53  81 107 140 183 223 267 319
#     4   9  17  32  54  80 110 142 179 223 271 324
#     4  10  20  35  55  77 104 138 175 218 268 317
#     4  11  23  37  54  77 106 141 179 222 270 320
#     4  10  21  36  54  76 102 136 178 222 265 319
#     4  10  20  34  52  78 107 138 179 223 271 322
#     4   9  18  33  55  81 106 141 183 226 272 321
#
# _framework density 19.427970999999999
#
# number of rings (size 3 to 8) (size 9 to 14) (size 15 to 20)
#    0.000    2.250    0.000    3.000    0.000    5.500 
#    2.250    0.000    0.000    1.500    0.000    0.000 
#    0.000    0.000    0.000    0.000    0.000    0.000 
#
# Total GULP energy -396570.950178 kJ/mol
# GULP energy per Si atom -12392.842193 kJ/mol
# Density = 1.938375 g / cm^3
# Si number density = 19.427971 Si / 1000 Ang^3
#
#
#
# Elastic Constant Matrix: (Units=GPa)
#
#
# Indices 1 2 3 4 5 6 
#
# 1 85.3626 28.9397 47.2108 0.0002 1.2964 0.0001
# 2 28.9397 65.0581 41.8999 0.0020 -0.8646 0.0011
# 3 47.2108 41.8999 115.1973 -0.0002 -4.7197 -0.0001
# 4 0.0002 0.0020 -0.0002 -113.4282 -0.0002 -54.8913
# 5 1.2964 -0.8646 -4.7197 -0.0002 28.9283 -0.0001
# 6 0.0001 0.0011 -0.0001 -54.8913 -0.0001 5.8332
#
#
#
# Elastic Compliance Matrix: (Units=1/GPa)
#
#
# Indices 1 2 3 4 5 6 
#
# 1 0.015894 -0.003726 -0.005227 0.000000 -0.001677 0.000000
# 2 -0.003726 0.020957 -0.006104 0.000000 -0.000203 0.000000
# 3 -0.005227 -0.006104 0.013133 0.000000 0.002195 0.000000
# 4 0.000000 0.000000 0.000000 -0.001587 0.000000 -0.014938
# 5 -0.001677 -0.000203 0.002195 0.000000 0.034995 0.000000
# 6 0.000000 0.000000 0.000000 -0.014938 0.000000 0.030867
#
#
# Mechanical properties :
#
#
# Convention : Reuss Voigt Hill
#
# Bulk Modulus (GPa) = 50.32719 55.74653 53.03686
# Shear Modulus (GPa) = 33.11329 -5.89550 13.60889
#
# Velocity S-wave (km/s) = 4.13293 -1.74388 2.64953
# Velocity P-wave (km/s) = 6.98109 4.97005 6.05958
#
# Compressibility (1/GPa) = 0.01986998
#
# Stress axis : x y z
#
# Youngs Moduli (GPa) = 62.91500 47.71764 76.14375
#
# Poissons Ratio (x) = 0.17779 0.39804
# Poissons Ratio (y) = 0.23442 0.46476
# Poissons Ratio (z) = 0.32888 0.29125
#
# Static dielectric constant tensor:
#      x y z
#    x 3.428710 0.000000 -0.012720 
#    y 0.000000 3.401710 0.000000 
#    z -0.012720 0.000000 3.835680 
# 
# 
# High freq. dielectric constant tensor:
#      x y z
#    x 1.734920 0.000000 -0.005100 
#    y 0.000000 1.747470 0.000000 
#    z -0.005100 0.000000 1.766070 
# 
# From -- ./inp_files/378504.got.cif
#   From: 2010.06.25/outbox.cif.g09.slc.cpg/sg12_190_cif.got.tgz:378504.got - 2010.06.28 00:19:55.
