data_PCOD8087075
_publ_section_title
;
Structure prediction by ZEFSAII (Michael W. Deem and Ramdas Pophale) SiO2 
 PCOD8087075
Probable space group: C 2/M
;
_chemical_formula_sum "Si O2"
_cell_formula_units_Z 56
_cell_length_a 28.433317
_cell_length_b 8.839321
_cell_length_c 14.233029
_cell_angle_alpha 90.000000
_cell_angle_beta 60.179931
_cell_angle_gamma 90.000000
_cell_volume 3103.551580
_symmetry_space_group_name_H-M "C 2/M"
_symmetry_group_IT_number 12
_symmetry_cell_setting 'monoclinic'
loop_
_space_group_symop_operation_xyz
x,y,z
-x,y,-z
-x,-y,-z
x,-y,z
1/2+x,1/2+y,z
1/2-x,1/2+y,-z
1/2-x,1/2-y,-z
1/2+x,1/2-y,z
loop_
_atom_site_type_symbol
_atom_site_label
_atom_site_fract_x
_atom_site_fract_y
_atom_site_fract_z
Si Si1 0.779490 0.173457 0.721237
Si Si2 0.402617 0.674470 0.930118
Si Si3 0.492416 0.178282 0.114708
Si Si4 0.673187 0.667152 0.828757
Si Si5 0.700166 0.821771 0.492640
Si Si6 0.385950 0.671424 0.302338
Si Si7 0.803582 0.823419 0.903923
O O1 0.716724 0.204198 0.808174
O O2 0.797800 0.283016 0.619669
O O3 0.811948 0.209529 0.784809
O O4 0.786800 0.000000 0.682578
O O5 0.417226 0.500000 0.894973
O O6 0.456803 0.773785 0.870947
O O7 0.357860 0.736754 0.901185
O O8 0.380173 0.697359 0.057515
O O9 0.440350 0.250105 0.214538
O O10 0.485368 0.000000 0.122846
O O11 0.500000 0.237456 0.000000
O O12 0.696723 0.500000 0.830284
O O13 0.658638 0.674049 0.734642
O O14 0.750000 0.750000 0.500000
O O15 0.641787 0.761482 0.584852
O O16 0.703476 0.000000 0.503506
O O17 0.399005 0.500000 0.320586
O O18 0.797141 0.000000 0.930238
O O19 0.750000 0.750000 0.000000
#
# Coordination Sequence:
#
# PCOD8087075 Si02
#       7
#     8   8   8   8   8   8   8
#     4  11  22  35  54  82 116 151 188 230 280 334
#     4  10  20  36  55  79 113 151 190 228 273 331
#     4  11  23  36  54  82 115 149 187 230 278 331
#     4  10  19  31  53  81 113 149 187 225 270 332
#     4  12  24  38  57  82 113 149 188 231 281 334
#     4  11  22  37  57  82 113 149 187 229 279 333
#     4  10  21  35  55  83 114 150 189 232 280 333
#
# _framework density 18.043842999999999
#
# number of rings (size 3 to 8) (size 9 to 14) (size 15 to 20)
#    0.000    1.286    4.286    2.571    0.000    2.857 
#    0.000    0.000    0.000    0.857    0.000    6.000 
#    0.000    0.000    0.000    0.000    0.000    0.000 
#
# Total GULP energy -347213.727091 kJ/mol
# GULP energy per Si atom -12400.490253 kJ/mol
# Density = 1.800277 g / cm^3
# Si number density = 18.043843 Si / 1000 Ang^3
#
#
#
# Elastic Constant Matrix: (Units=GPa)
#
#
# Indices 1 2 3 4 5 6 
#
# 1 100.3823 42.7994 44.8607 0.0000 -4.8081 0.0000
# 2 42.7994 95.2881 48.3114 0.0000 -7.5703 0.0000
# 3 44.8607 48.3114 97.8727 0.0000 -7.1881 0.0000
# 4 0.0000 0.0000 0.0000 32.0929 0.0000 -5.7330
# 5 -4.8081 -7.5703 -7.1881 0.0000 29.6823 0.0000
# 6 0.0000 0.0000 0.0000 -5.7330 0.0000 28.1191
#
#
#
# Elastic Compliance Matrix: (Units=1/GPa)
#
#
# Indices 1 2 3 4 5 6 
#
# 1 0.013542 -0.003906 -0.004267 0.000000 0.000164 0.000000
# 2 -0.003906 0.015234 -0.005590 0.000000 0.001899 0.000000
# 3 -0.004267 -0.005590 0.015044 0.000000 0.001526 0.000000
# 4 0.000000 0.000000 0.000000 0.032337 0.000000 0.006593
# 5 0.000164 0.001899 0.001526 0.000000 0.034571 0.000000
# 6 0.000000 0.000000 0.000000 0.006593 0.000000 0.036907
#
#
# Mechanical properties :
#
#
# Convention : Reuss Voigt Hill
#
# Bulk Modulus (GPa) = 61.36979 62.83179 62.10079
# Shear Modulus (GPa) = 27.68656 28.48361 28.08509
#
# Velocity S-wave (km/s) = 3.92140 3.97744 3.94952
# Velocity P-wave (km/s) = 7.38840 7.48270 7.43570
#
# Compressibility (1/GPa) = 0.01629466
#
# Stress axis : x y z
#
# Youngs Moduli (GPa) = 73.84378 65.64318 66.46972
#
# Poissons Ratio (x) = 0.25641 0.28362
# Poissons Ratio (y) = 0.28845 0.37155
# Poissons Ratio (z) = 0.31509 0.36693
#
# Static dielectric constant tensor:
#      x y z
#    x 3.319760 0.000000 0.109370 
#    y 0.000000 3.396920 0.000000 
#    z 0.109370 0.000000 3.355370 
# 
# 
# High freq. dielectric constant tensor:
#      x y z
#    x 1.683870 0.000000 0.000970 
#    y 0.000000 1.704000 0.000000 
#    z 0.000970 0.000000 1.692580 
# 
# From -- ./inp_files/243657.got.cif
#   From: 2010.06.25/outbox.cif.g09.slc.cpg/sg12_122_cif.got.tgz:243657.got - 2010.06.28 00:19:55.
