data_PCOD8087420
_publ_section_title
;
Structure prediction by ZEFSAII (Michael W. Deem and Ramdas Pophale) SiO2 
 PCOD8087420
Probable space group: C 2/M
;
_chemical_formula_sum "Si O2"
_cell_formula_units_Z 64
_cell_length_a 18.432069
_cell_length_b 13.939989
_cell_length_c 29.407532
_cell_angle_alpha 90.000000
_cell_angle_beta 27.535745
_cell_angle_gamma 90.000000
_cell_volume 3493.178481
_symmetry_space_group_name_H-M "C 2/M"
_symmetry_group_IT_number 12
_symmetry_cell_setting 'monoclinic'
loop_
_space_group_symop_operation_xyz
x,y,z
-x,y,-z
-x,-y,-z
x,-y,z
1/2+x,1/2+y,z
1/2-x,1/2+y,-z
1/2-x,1/2-y,-z
1/2+x,1/2-y,z
loop_
_atom_site_type_symbol
_atom_site_label
_atom_site_fract_x
_atom_site_fract_y
_atom_site_fract_z
Si Si1 0.490166 0.721613 0.451515
Si Si2 0.717975 0.894130 0.714595
Si Si3 0.132084 0.107825 0.019244
Si Si4 0.519057 0.283874 0.818307
Si Si5 0.620649 0.818259 0.180973
Si Si6 0.817626 0.391106 0.680409
Si Si7 0.821497 0.108712 0.143177
Si Si8 0.702835 0.104236 0.617087
O O1 0.500000 0.722267 0.500000
O O2 0.620919 0.651842 0.356015
O O3 0.523805 0.829729 0.415491
O O4 0.319231 0.683456 0.530102
O O5 0.571812 0.823028 0.805351
O O6 0.744304 0.904610 0.646577
O O7 0.687907 0.000000 0.752976
O O8 0.109516 0.176945 0.075031
O O9 0.004290 0.131420 0.050859
O O10 0.106235 0.000000 0.051383
O O11 0.304707 0.119819 0.902108
O O12 0.441713 0.277993 0.810193
O O13 0.673831 0.350530 0.729529
O O14 0.754243 0.810584 0.145625
O O15 0.479056 0.868544 0.286511
O O16 0.851489 0.500000 0.646825
O O17 0.771235 0.383361 0.758438
O O18 0.802864 0.000000 0.133331
O O19 0.728618 0.000000 0.579375
#
# Coordination Sequence:
#
# PCOD8087420 Si02
#       8
#     8   8   8   8   8   8   8   8
#     4   9  16  27  44  69  96 124 162 199 237 286
#     4   8  14  25  42  64  92 123 153 190 237 286
#     4  10  19  32  50  72 100 132 163 197 241 294
#     4   9  18  30  46  73 102 123 155 201 246 288
#     4  11  19  29  46  71 100 126 160 203 249 294
#     4   9  18  34  53  72  98 132 166 199 237 286
#     4   9  18  32  50  71  96 128 163 200 244 293
#     4   9  16  25  40  64  95 125 153 194 241 282
#
# _framework density 18.321422999999999
#
# number of rings (size 3 to 8) (size 9 to 14) (size 15 to 20)
#    0.000    2.750    0.000    4.125    0.000    3.750 
#    0.000    0.625    0.000    0.000    0.000   17.500 
#    0.000   17.000    0.000    0.000    0.000    0.000 
#
# Total GULP energy -396420.051194 kJ/mol
# GULP energy per Si atom -12388.126600 kJ/mol
# Density = 1.827972 g / cm^3
# Si number density = 18.321423 Si / 1000 Ang^3
#
#
#
# Elastic Constant Matrix: (Units=GPa)
#
#
# Indices 1 2 3 4 5 6 
#
# 1 63.5137 26.4478 12.8043 -0.0014 -8.4409 -0.0009
# 2 26.4478 112.8069 35.2303 -0.0039 -4.9135 -0.0010
# 3 12.8043 35.2303 80.1822 -0.0070 -15.6691 -0.0015
# 4 -0.0014 -0.0039 -0.0070 26.1750 -0.0022 2.2213
# 5 -8.4409 -4.9135 -15.6691 -0.0022 12.5835 -0.0012
# 6 -0.0009 -0.0010 -0.0015 2.2213 -0.0012 19.8894
#
#
#
# Elastic Compliance Matrix: (Units=1/GPa)
#
#
# Indices 1 2 3 4 5 6 
#
# 1 0.018958 -0.004313 0.001353 0.000002 0.012718 0.000001
# 2 -0.004313 0.011299 -0.005259 0.000000 -0.005030 0.000000
# 3 0.001353 -0.005259 0.018955 0.000006 0.022457 0.000002
# 4 0.000002 0.000000 0.000006 0.038570 0.000015 -0.004308
# 5 0.012718 -0.005030 0.022457 0.000015 0.113999 0.000007
# 6 0.000001 0.000000 0.000002 -0.004308 0.000007 0.050759
#
#
# Mechanical properties :
#
#
# Convention : Reuss Voigt Hill
#
# Bulk Modulus (GPa) = 30.51218 45.05196 37.78207
# Shear Modulus (GPa) = 17.86336 23.86429 20.86382
#
# Velocity S-wave (km/s) = 3.12588 3.61298 3.37822
# Velocity P-wave (km/s) = 5.45144 6.48444 5.99025
#
# Compressibility (1/GPa) = 0.03277379
#
# Stress axis : x y z
#
# Youngs Moduli (GPa) = 52.74778 88.50149 52.75782
#
# Poissons Ratio (x) = 0.38174 -0.07138
# Poissons Ratio (y) = 0.22752 0.27744
# Poissons Ratio (z) = -0.07137 0.46540
#
# Static dielectric constant tensor:
#      x y z
#    x 3.096440 0.000000 -0.189200 
#    y 0.000000 3.536400 0.000010 
#    z -0.189200 0.000010 3.492990 
# 
# 
# High freq. dielectric constant tensor:
#      x y z
#    x 1.666020 0.000000 -0.019280 
#    y 0.000000 1.690880 0.000000 
#    z -0.019280 0.000000 1.715500 
# 
# From -- ./inp_files/379351.got.cif
#   From: 2010.06.25/outbox.cif.g09.slc.cpg/sg12_190_cif.got.tgz:379351.got - 2010.06.28 00:19:55.
