data_PCOD8087359
_publ_section_title
;
Structure prediction by ZEFSAII (Michael W. Deem and Ramdas Pophale) SiO2 
 PCOD8087359
Probable space group: C 2/M
;
_chemical_formula_sum "Si O2"
_cell_formula_units_Z 64
_cell_length_a 30.290725
_cell_length_b 9.383045
_cell_length_c 15.141717
_cell_angle_alpha 90.000000
_cell_angle_beta 51.179062
_cell_angle_gamma 90.000000
_cell_volume 3352.947657
_symmetry_space_group_name_H-M "C 2/M"
_symmetry_group_IT_number 12
_symmetry_cell_setting 'monoclinic'
loop_
_space_group_symop_operation_xyz
x,y,z
-x,y,-z
-x,-y,-z
x,-y,z
1/2+x,1/2+y,z
1/2-x,1/2+y,-z
1/2-x,1/2-y,-z
1/2+x,1/2-y,z
loop_
_atom_site_type_symbol
_atom_site_label
_atom_site_fract_x
_atom_site_fract_y
_atom_site_fract_z
Si Si1 0.494575 0.329984 0.752269
Si Si2 0.628825 0.668333 0.149505
Si Si3 0.533934 0.159344 0.868069
Si Si4 0.320441 0.669999 0.729347
Si Si5 0.296779 0.668105 0.106689
Si Si6 0.303669 0.345286 0.434736
Si Si7 0.869035 0.155050 0.182736
Si Si8 0.889184 0.168353 0.472967
O O1 0.495590 0.500000 0.764959
O O2 0.434846 0.274677 0.788088
O O3 0.501750 0.257931 0.838438
O O4 0.545638 0.280122 0.622525
O O5 0.626617 0.500000 0.147199
O O6 0.648416 0.721016 0.220747
O O7 0.674892 0.722437 0.020185
O O8 0.593464 0.224471 0.820490
O O9 0.542433 0.000000 0.818790
O O10 0.500000 0.154183 0.000000
O O11 0.311687 0.500000 0.737587
O O12 0.259538 0.744033 0.801412
O O13 0.360276 0.725526 0.599166
O O14 0.282338 0.500000 0.123030
O O15 0.343471 0.704690 0.121923
O O16 0.288360 0.500000 0.495009
O O17 0.250000 0.250000 0.500000
O O18 0.318711 0.365388 0.314368
O O19 0.353500 0.277500 0.432782
O O20 0.900060 0.000000 0.132291
O O21 0.890272 0.000000 0.475437
#
# Coordination Sequence:
#
# PCOD8087359 Si02
#       8
#     8   8   8   8   8   8   8   8
#     4  10  19  37  60  79 107 146 184 228 273 322
#     4   9  19  34  56  83 107 139 187 231 275 325
#     4  11  23  36  52  80 114 142 175 221 273 328
#     4  10  20  35  55  81 111 144 180 227 281 328
#     4  10  20  35  54  81 111 141 185 231 267 326
#     4  10  19  32  49  75 105 137 177 217 260 317
#     4  10  20  35  55  77 105 143 185 218 258 319
#     4   9  18  33  54  79 109 139 180 226 267 322
#
# _framework density 19.087682999999998
#
# number of rings (size 3 to 8) (size 9 to 14) (size 15 to 20)
#    0.000    2.125    1.250    2.250    0.000    3.500 
#    0.000    4.375    0.000    0.000    0.000    1.750 
#    0.000    0.000    0.000    0.000    0.000    0.000 
#
# Total GULP energy -396630.778912 kJ/mol
# GULP energy per Si atom -12394.711841 kJ/mol
# Density = 1.904424 g / cm^3
# Si number density = 19.087683 Si / 1000 Ang^3
#
#
#
# Elastic Constant Matrix: (Units=GPa)
#
#
# Indices 1 2 3 4 5 6 
#
# 1 84.6562 27.6529 28.6050 0.0000 2.1281 0.0000
# 2 27.6529 52.4670 18.2444 0.0000 -6.5327 0.0000
# 3 28.6050 18.2444 100.4231 0.0000 3.8479 0.0000
# 4 0.0000 0.0000 0.0000 23.0920 0.0000 -6.2326
# 5 2.1281 -6.5327 3.8479 0.0000 40.0164 0.0000
# 6 0.0000 0.0000 0.0000 -6.2326 0.0000 21.4000
#
#
#
# Elastic Compliance Matrix: (Units=1/GPa)
#
#
# Indices 1 2 3 4 5 6 
#
# 1 0.015206 -0.007197 -0.002959 0.000000 -0.001699 0.000000
# 2 -0.007197 0.024309 -0.002542 0.000000 0.004596 0.000000
# 3 -0.002959 -0.002542 0.011314 0.000000 -0.001346 0.000000
# 4 0.000000 0.000000 0.000000 0.046999 0.000000 0.013688
# 5 -0.001699 0.004596 -0.001346 0.000000 0.025960 0.000000
# 6 0.000000 0.000000 0.000000 0.013688 0.000000 0.050716
#
#
# Mechanical properties :
#
#
# Convention : Reuss Voigt Hill
#
# Bulk Modulus (GPa) = 39.31932 42.95010 41.13471
# Shear Modulus (GPa) = 23.99490 27.77127 25.88308
#
# Velocity S-wave (km/s) = 3.54939 3.81849 3.68640
# Velocity P-wave (km/s) = 6.11895 6.48009 6.30211
#
# Compressibility (1/GPa) = 0.02543279
#
# Stress axis : x y z
#
# Youngs Moduli (GPa) = 65.76429 41.13684 88.38534
#
# Poissons Ratio (x) = 0.29606 0.26150
# Poissons Ratio (y) = 0.47331 0.22471
# Poissons Ratio (z) = 0.19458 0.10459
#
# Static dielectric constant tensor:
#      x y z
#    x 3.835840 0.000000 0.132850 
#    y 0.000000 3.453210 0.000000 
#    z 0.132850 0.000000 3.651430 
# 
# 
# High freq. dielectric constant tensor:
#      x y z
#    x 1.745290 0.000000 0.002440 
#    y 0.000000 1.708780 0.000000 
#    z 0.002440 0.000000 1.753480 
# 
# From -- ./inp_files/249733.got.cif
#   From: 2010.06.25/outbox.cif.g09.slc.cpg/sg12_125_cif.got.tgz:249733.got - 2010.06.28 00:19:55.
