data_PCOD8087605
_publ_section_title
;
Structure prediction by ZEFSAII (Michael W. Deem and Ramdas Pophale) SiO2 
 PCOD8087605
Probable space group: C 2/M
;
_chemical_formula_sum "Si O2"
_cell_formula_units_Z 64
_cell_length_a 22.468871
_cell_length_b 22.318354
_cell_length_c 9.166075
_cell_angle_alpha 90.000000
_cell_angle_beta 56.650163
_cell_angle_gamma 90.000000
_cell_volume 3839.588084
_symmetry_space_group_name_H-M "C 2/M"
_symmetry_group_IT_number 12
_symmetry_cell_setting 'monoclinic'
loop_
_space_group_symop_operation_xyz
x,y,z
-x,y,-z
-x,-y,-z
x,-y,z
1/2+x,1/2+y,z
1/2-x,1/2+y,-z
1/2-x,1/2-y,-z
1/2+x,1/2-y,z
loop_
_atom_site_type_symbol
_atom_site_label
_atom_site_fract_x
_atom_site_fract_y
_atom_site_fract_z
Si Si1 0.429888 0.735826 0.009384
Si Si2 0.339882 0.357670 0.636365
Si Si3 0.565719 0.566483 0.707637
Si Si4 0.426247 0.746623 0.674188
Si Si5 0.715201 0.569044 0.027501
Si Si6 0.202098 0.323692 0.155391
Si Si7 0.720201 0.775089 0.809822
Si Si8 0.585899 0.400210 0.995032
O O1 0.442540 0.741265 0.821676
O O2 0.414162 0.667169 0.066571
O O3 0.500000 0.759425 0.000000
O O4 0.359644 0.774854 0.150515
O O5 0.386372 0.386800 0.446453
O O6 0.387910 0.313674 0.670923
O O7 0.307101 0.409810 0.781007
O O8 0.275549 0.318325 0.647896
O O9 0.571976 0.500000 0.629397
O O10 0.484108 0.588352 0.812519
O O11 0.589485 0.560583 0.843841
O O12 0.500000 0.758112 0.500000
O O13 0.379482 0.805907 0.703033
O O14 0.736907 0.500000 0.004590
O O15 0.650999 0.581344 0.005737
O O16 0.783533 0.605028 0.870026
O O17 0.251704 0.293458 0.214174
O O18 0.224097 0.299535 0.968152
#
# Coordination Sequence:
#
# PCOD8087605 Si02
#       8
#     8   8   8   8   8   8   8   8
#     4  11  18  31  52  70  98 127 158 194 233 290
#     4  10  20  33  51  71  95 123 160 208 236 272
#     4  11  22  34  44  64  99 134 162 192 235 276
#     4  10  19  32  51  73  96 123 157 198 246 282
#     4  11  19  31  51  72  92 125 168 197 228 277
#     4   8  15  30  49  68  95 124 154 195 239 282
#     4   8  15  31  49  68  93 125 155 193 244 279
#     4  11  20  33  46  64  97 135 163 187 226 284
#
# _framework density 16.668454000000001
#
# number of rings (size 3 to 8) (size 9 to 14) (size 15 to 20)
#    0.000    2.000    3.750    4.125    0.000    0.000 
#    0.000    3.125    0.000    0.375    0.000    0.000 
#    0.000   50.000    0.000    0.000    0.000    0.000 
#
# Total GULP energy -396550.555112 kJ/mol
# GULP energy per Si atom -12392.204847 kJ/mol
# Density = 1.663052 g / cm^3
# Si number density = 16.668454 Si / 1000 Ang^3
#
#
#
# Elastic Constant Matrix: (Units=GPa)
#
#
# Indices 1 2 3 4 5 6 
#
# 1 96.3347 48.4656 37.6675 0.0000 -12.8342 0.0000
# 2 48.4656 113.2590 43.1112 0.0000 -19.5861 0.0000
# 3 37.6675 43.1112 62.5191 0.0000 -16.1939 0.0000
# 4 0.0000 0.0000 0.0000 10.4197 0.0000 0.4520
# 5 -12.8342 -19.5861 -16.1939 0.0000 21.2967 0.0000
# 6 0.0000 0.0000 0.0000 0.4520 0.0000 17.5344
#
#
#
# Elastic Compliance Matrix: (Units=1/GPa)
#
#
# Indices 1 2 3 4 5 6 
#
# 1 0.014805 -0.003912 -0.006031 0.000000 0.000738 0.000000
# 2 -0.003912 0.013630 -0.005486 0.000000 0.006006 0.000000
# 3 -0.006031 -0.005486 0.026355 0.000000 0.011360 0.000000
# 4 0.000000 0.000000 0.000000 0.096080 0.000000 -0.002477
# 5 0.000738 0.006006 0.011360 0.000000 0.061562 0.000000
# 6 0.000000 0.000000 0.000000 -0.002477 0.000000 0.057094
#
#
# Mechanical properties :
#
#
# Convention : Reuss Voigt Hill
#
# Bulk Modulus (GPa) = 41.78704 58.95570 50.37137
# Shear Modulus (GPa) = 16.21468 19.37472 17.79470
#
# Velocity S-wave (km/s) = 3.12232 3.41304 3.27091
# Velocity P-wave (km/s) = 6.17434 7.13990 6.67460
#
# Compressibility (1/GPa) = 0.02393087
#
# Stress axis : x y z
#
# Youngs Moduli (GPa) = 67.54376 73.36578 37.94414
#
# Poissons Ratio (x) = 0.28701 0.22885
# Poissons Ratio (y) = 0.26423 0.20817
# Poissons Ratio (z) = 0.40737 0.40251
#
# Static dielectric constant tensor:
#      x y z
#    x 3.302440 0.000000 -0.146230 
#    y 0.000000 3.191260 0.000000 
#    z -0.146230 0.000000 3.016330 
# 
# 
# High freq. dielectric constant tensor:
#      x y z
#    x 1.635530 0.000000 -0.005820 
#    y 0.000000 1.625360 0.000000 
#    z -0.005820 0.000000 1.625910 
# 
# From -- ./inp_files/99518.got.cif
#   From: 2010.06.25/outbox.cif.g09.slc.cpg/sg12_50_cif.got.tgz:99518.got - 2010.06.28 00:19:55.
