data_PCOD8087414
_publ_section_title
;
Structure prediction by ZEFSAII (Michael W. Deem and Ramdas Pophale) SiO2 
 PCOD8087414
Probable space group: C 2/M
;
_chemical_formula_sum "Si O2"
_cell_formula_units_Z 56
_cell_length_a 25.044842
_cell_length_b 13.708364
_cell_length_c 9.440213
_cell_angle_alpha 90.000000
_cell_angle_beta 62.344422
_cell_angle_gamma 90.000000
_cell_volume 2870.772122
_symmetry_space_group_name_H-M "C 2/M"
_symmetry_group_IT_number 12
_symmetry_cell_setting 'monoclinic'
loop_
_space_group_symop_operation_xyz
x,y,z
-x,y,-z
-x,-y,-z
x,-y,z
1/2+x,1/2+y,z
1/2-x,1/2+y,-z
1/2-x,1/2-y,-z
1/2+x,1/2-y,z
loop_
_atom_site_type_symbol
_atom_site_label
_atom_site_fract_x
_atom_site_fract_y
_atom_site_fract_z
Si Si1 0.100420 0.612056 0.659307
Si Si2 0.345042 0.389829 0.959991
Si Si3 0.611943 0.113688 0.325273
Si Si4 0.779597 0.385641 0.008578
Si Si5 0.973321 0.308836 0.792944
Si Si6 0.026816 0.891921 0.311535
Si Si7 0.861669 0.288386 0.116994
O O1 0.118210 0.500000 0.670477
O O2 0.119714 0.644251 0.478538
O O3 0.135407 0.686178 0.720737
O O4 0.028459 0.621516 0.762266
O O5 0.333148 0.500000 0.026572
O O6 0.358774 0.327077 0.085019
O O7 0.286330 0.345331 0.953603
O O8 0.400002 0.383634 0.780137
O O9 0.555209 0.169815 0.326610
O O10 0.597432 0.000000 0.328599
O O11 0.673728 0.142617 0.172444
O O12 0.775342 0.500000 0.038458
O O13 0.802015 0.338917 0.127371
O O14 0.996705 0.195477 0.761129
O O15 0.922716 0.331484 0.972450
O O16 0.000000 0.878104 0.500000
O O17 0.008328 0.000000 0.275882
#
# Coordination Sequence:
#
# PCOD8087414 Si02
#       7
#     8   8   8   8   8   8   8
#     4  11  21  32  48  73 104 132 161 204 253 292
#     4   9  18  33  53  73  96 131 169 202 240 292
#     4   9  18  31  49  73 100 132 167 201 239 291
#     4   9  17  32  53  74  98 131 168 200 238 293
#     4  10  19  32  50  71  99 135 168 197 240 299
#     4   9  17  30  50  76 100 121 156 207 249 280
#     4  10  20  32  48  74 103 128 162 207 249 288
#
# _framework density 19.506945999999999
#
# number of rings (size 3 to 8) (size 9 to 14) (size 15 to 20)
#    0.000    2.429    0.000    3.000    0.000    3.429 
#    0.000    1.429    0.000    4.286    0.000    6.000 
#    0.000    0.000    0.000    0.000    0.000    0.000 
#
# Total GULP energy -347103.124611 kJ/mol
# GULP energy per Si atom -12396.540165 kJ/mol
# Density = 1.946255 g / cm^3
# Si number density = 19.506946 Si / 1000 Ang^3
#
#
#
# Elastic Constant Matrix: (Units=GPa)
#
#
# Indices 1 2 3 4 5 6 
#
# 1 92.2383 38.1330 45.2546 0.0000 11.9378 0.0000
# 2 38.1330 61.8204 28.2184 0.0000 11.6934 0.0000
# 3 45.2546 28.2184 58.0294 0.0000 19.3445 0.0000
# 4 0.0000 0.0000 0.0000 24.0602 0.0000 0.6722
# 5 11.9378 11.6934 19.3445 0.0000 30.2887 0.0000
# 6 0.0000 0.0000 0.0000 0.6722 0.0000 28.2968
#
#
#
# Elastic Compliance Matrix: (Units=1/GPa)
#
#
# Indices 1 2 3 4 5 6 
#
# 1 0.019649 -0.006742 -0.013125 0.000000 0.003241 0.000000
# 2 -0.006742 0.023199 -0.004985 0.000000 -0.003115 0.000000
# 3 -0.013125 -0.004985 0.034972 0.000000 -0.015238 0.000000
# 4 0.000000 0.000000 0.000000 0.041590 0.000000 -0.000988
# 5 0.003241 -0.003115 -0.015238 0.000000 0.042673 0.000000
# 6 0.000000 0.000000 0.000000 -0.000988 0.000000 0.035363
#
#
# Mechanical properties :
#
#
# Convention : Reuss Voigt Hill
#
# Bulk Modulus (GPa) = 35.56703 48.36667 41.96685
# Shear Modulus (GPa) = 19.49140 23.22795 21.35968
#
# Velocity S-wave (km/s) = 3.16445 3.45447 3.31264
# Velocity P-wave (km/s) = 5.62354 6.38432 6.01597
#
# Compressibility (1/GPa) = 0.02811592
#
# Stress axis : x y z
#
# Youngs Moduli (GPa) = 50.89333 43.10463 28.59405
#
# Poissons Ratio (x) = 0.29062 0.37531
# Poissons Ratio (y) = 0.34313 0.14254
# Poissons Ratio (z) = 0.66799 0.21487
#
# Static dielectric constant tensor:
#      x y z
#    x 3.469600 0.000000 -0.134260 
#    y 0.000000 3.793170 0.000000 
#    z -0.134260 0.000000 3.408380 
# 
# 
# High freq. dielectric constant tensor:
#      x y z
#    x 1.738920 0.000000 -0.013230 
#    y 0.000000 1.774800 0.000000 
#    z -0.013230 0.000000 1.735970 
# 
# From -- ./inp_files/96776.got.cif
#   From: 2010.06.25/outbox.cif.g09.slc.cpg/sg12_49_cif.got.tgz:96776.got - 2010.06.28 00:19:55.
