data_PCOD8087201
_publ_section_title
;
Structure prediction by ZEFSAII (Michael W. Deem and Ramdas Pophale) SiO2 
 PCOD8087201
Probable space group: C 2/M
;
_chemical_formula_sum "Si O2"
_cell_formula_units_Z 56
_cell_length_a 28.739365
_cell_length_b 8.873517
_cell_length_c 17.542800
_cell_angle_alpha 90.000000
_cell_angle_beta 51.650694
_cell_angle_gamma 90.000000
_cell_volume 3508.507152
_symmetry_space_group_name_H-M "C 2/M"
_symmetry_group_IT_number 12
_symmetry_cell_setting 'monoclinic'
loop_
_space_group_symop_operation_xyz
x,y,z
-x,y,-z
-x,-y,-z
x,-y,z
1/2+x,1/2+y,z
1/2-x,1/2+y,-z
1/2-x,1/2-y,-z
1/2+x,1/2-y,z
loop_
_atom_site_type_symbol
_atom_site_label
_atom_site_fract_x
_atom_site_fract_y
_atom_site_fract_z
Si Si1 0.565982 0.166082 0.901092
Si Si2 0.099081 0.321273 0.029180
Si Si3 0.024979 0.177147 0.801821
Si Si4 0.566318 0.666464 0.464113
Si Si5 0.970588 0.676284 0.355501
Si Si6 0.091967 0.175423 0.276180
Si Si7 0.186667 0.823326 0.054149
O O1 0.568842 0.280717 0.827255
O O2 0.585276 0.000000 0.852704
O O3 0.500000 0.158200 0.000000
O O4 0.606461 0.218325 0.931469
O O5 0.095324 0.500000 0.045353
O O6 0.039744 0.249483 0.123772
O O7 0.155845 0.252702 0.012873
O O8 0.053862 0.239387 0.694689
O O9 0.017379 0.000000 0.805387
O O10 0.500000 0.665228 0.500000
O O11 0.584386 0.500000 0.474658
O O12 0.571384 0.780041 0.530059
O O13 0.606602 0.714966 0.350239
O O14 0.966684 0.500000 0.346035
O O15 0.038465 0.723228 0.300129
O O16 0.149930 0.210856 0.168186
O O17 0.072724 0.000000 0.288730
O O18 0.192800 0.000000 0.032656
O O19 0.250000 0.750000 0.000000
#
# Coordination Sequence:
#
# PCOD8087201 Si02
#       7
#     8   8   8   8   8   8   8
#     4   8  16  29  43  61  86 114 145 181 222 266
#     4  10  19  32  47  63  86 116 149 188 230 267
#     4  11  19  27  42  64  90 120 152 181 217 266
#     4   8  15  28  43  59  83 113 146 180 219 267
#     4  11  19  26  41  64  90 118 149 182 220 264
#     4   9  18  32  46  60  83 117 150 185 227 268
#     4  11  22  34  49  67  89 119 157 194 228 265
#
# _framework density 15.961205
#
# number of rings (size 3 to 8) (size 9 to 14) (size 15 to 20)
#    0.000    2.286    1.429    5.143    0.000    6.286 
#    0.000    0.000    0.000    0.000    0.000    0.000 
#    0.000    1.143    0.000    3.429    0.000    4.571 
#
# Total GULP energy -347070.816647 kJ/mol
# GULP energy per Si atom -12395.386309 kJ/mol
# Density = 1.592488 g / cm^3
# Si number density = 15.961205 Si / 1000 Ang^3
#
#
#
# Elastic Constant Matrix: (Units=GPa)
#
#
# Indices 1 2 3 4 5 6 
#
# 1 85.9763 47.2719 52.7913 0.0000 22.1793 0.0001
# 2 47.2719 110.8292 47.9470 0.0011 19.6962 -0.0004
# 3 52.7913 47.9470 90.3646 0.0002 26.4711 -0.0003
# 4 0.0000 0.0011 0.0002 21.3070 -0.0001 9.0188
# 5 22.1793 19.6962 26.4711 -0.0001 25.1794 0.0001
# 6 0.0001 -0.0004 -0.0003 9.0188 0.0001 21.1015
#
#
#
# Elastic Compliance Matrix: (Units=1/GPa)
#
#
# Indices 1 2 3 4 5 6 
#
# 1 0.020385 -0.004168 -0.007792 0.000001 -0.006504 0.000000
# 2 -0.004168 0.012820 -0.003620 -0.000001 -0.002551 0.000001
# 3 -0.007792 -0.003620 0.021241 0.000000 -0.012635 0.000000
# 4 0.000001 -0.000001 0.000000 0.057299 0.000001 -0.024490
# 5 -0.006504 -0.002551 -0.012635 0.000001 0.060722 -0.000001
# 6 0.000000 0.000001 0.000000 -0.024490 -0.000001 0.057857
#
#
# Mechanical properties :
#
#
# Convention : Reuss Voigt Hill
#
# Bulk Modulus (GPa) = 42.94577 64.79895 53.87236
# Shear Modulus (GPa) = 18.57035 22.79491 20.68263
#
# Velocity S-wave (km/s) = 3.41467 3.78318 3.60364
# Velocity P-wave (km/s) = 6.52007 7.73105 7.15124
#
# Compressibility (1/GPa) = 0.02328518
#
# Stress axis : x y z
#
# Youngs Moduli (GPa) = 49.05510 78.00236 47.07973
#
# Poissons Ratio (x) = 0.32510 0.36687
# Poissons Ratio (y) = 0.20446 0.17043
# Poissons Ratio (z) = 0.38226 0.28237
#
# Static dielectric constant tensor:
#      x y z
#    x 2.909390 0.000000 0.506090 
#    y 0.000000 3.082790 0.000000 
#    z 0.506090 0.000000 3.258990 
# 
# 
# High freq. dielectric constant tensor:
#      x y z
#    x 1.570110 0.000000 0.046250 
#    y 0.000000 1.622630 0.000000 
#    z 0.046250 0.000000 1.599860 
# 
# From -- ./inp_files/291436.got.cif
#   From: 2010.06.25/outbox.cif.g09.slc.cpg/sg12_146_cif.got.tgz:291436.got - 2010.06.28 00:19:55.
