data_PCOD8087187
_publ_section_title
;
Structure prediction by ZEFSAII (Michael W. Deem and Ramdas Pophale) SiO2 
 PCOD8087187
Probable space group: C 2/M
;
_chemical_formula_sum "Si O2"
_cell_formula_units_Z 52
_cell_length_a 5.141905
_cell_length_b 30.734330
_cell_length_c 23.144196
_cell_angle_alpha 90.000000
_cell_angle_beta 69.398047
_cell_angle_gamma 90.000000
_cell_volume 3423.637734
_symmetry_space_group_name_H-M "C 2/M"
_symmetry_group_IT_number 12
_symmetry_cell_setting 'monoclinic'
loop_
_space_group_symop_operation_xyz
x,y,z
-x,y,-z
-x,-y,-z
x,-y,z
1/2+x,1/2+y,z
1/2-x,1/2+y,-z
1/2-x,1/2-y,-z
1/2+x,1/2-y,z
loop_
_atom_site_type_symbol
_atom_site_label
_atom_site_fract_x
_atom_site_fract_y
_atom_site_fract_z
Si Si1 0.161342 0.948355 0.750750
Si Si2 0.926544 0.584562 0.616178
Si Si3 0.480118 0.371267 0.568942
Si Si4 0.307384 0.948081 0.963766
Si Si5 0.458099 0.948466 0.174689
Si Si6 0.321809 0.000000 0.457516
Si Si7 0.559394 0.729075 0.429281
O O1 0.234020 0.924410 0.685956
O O2 0.366917 0.931783 0.784498
O O3 0.856572 0.932946 0.793306
O O4 0.177302 0.000000 0.739977
O O5 0.724556 0.602048 0.581539
O O6 0.168055 0.618387 0.614689
O O7 0.099080 0.541872 0.585740
O O8 0.500000 0.383337 0.500000
O O9 0.523274 0.320439 0.577132
O O10 0.417143 0.929017 0.894348
O O11 0.310463 0.000000 0.962027
O O12 0.500000 0.930357 0.000000
O O13 0.000000 0.930336 0.000000
O O14 0.475571 0.000000 0.170163
O O15 0.500000 0.000000 0.500000
O O16 0.000000 0.000000 0.500000
O O17 0.500000 0.742519 0.500000
O O18 0.386105 0.759152 0.397570
#
# Coordination Sequence:
#
# PCOD8087187 Si02
#       7
#     8   8   8   8   8   4   8
#     4  10  19  32  43  56  75 107 148 181 211 247
#     4  12  22  35  47  63  84 112 146 185 221 258
#     4  11  22  34  50  68  88 106 134 175 225 274
#     4   9  15  23  36  56  78  96 119 159 216 266
#     4   9  17  27  42  56  74 101 135 173 213 255
#     4  12  24  36  48  60  80 110 144 184 230 270
#     4   9  17  31  50  70  88 106 124 152 205 275
#
# _framework density 15.188523999999999
#
# number of rings (size 3 to 8) (size 9 to 14) (size 15 to 20)
#    0.000    1.846    0.769    5.538    0.000    6.154 
#    0.000    0.000    0.000    0.000    0.000    0.000 
#    0.000    0.000    0.000    0.000    0.000    0.000 
#
# Total GULP energy -322340.943655 kJ/mol
# GULP energy per Si atom -12397.728602 kJ/mol
# Density = 1.515395 g / cm^3
# Si number density = 15.188524 Si / 1000 Ang^3
#
#
#
# Elastic Constant Matrix: (Units=GPa)
#
#
# Indices 1 2 3 4 5 6 
#
# 1 133.2129 29.4780 37.8946 0.0000 -2.4781 0.0000
# 2 29.4780 39.8546 21.9090 0.0000 2.5188 0.0000
# 3 37.8946 21.9090 89.9233 0.0000 -4.7753 0.0000
# 4 0.0000 0.0000 0.0000 4.5658 0.0000 -1.8775
# 5 -2.4781 2.5188 -4.7753 0.0000 25.8593 0.0000
# 6 0.0000 0.0000 0.0000 -1.8775 0.0000 16.1345
#
#
#
# Elastic Compliance Matrix: (Units=1/GPa)
#
#
# Indices 1 2 3 4 5 6 
#
# 1 0.009515 -0.005687 -0.002572 0.000000 0.000991 0.000000
# 2 -0.005687 0.032822 -0.005856 0.000000 -0.004823 0.000000
# 3 -0.002572 -0.005856 0.013784 0.000000 0.002869 0.000000
# 4 0.000000 0.000000 0.000000 0.230024 0.000000 0.026766
# 5 0.000991 -0.004823 0.002869 0.000000 0.039765 0.000000
# 6 0.000000 0.000000 0.000000 0.026766 0.000000 0.065093
#
#
# Mechanical properties :
#
#
# Convention : Reuss Voigt Hill
#
# Bulk Modulus (GPa) = 35.85413 49.06152 42.45783
# Shear Modulus (GPa) = 11.66782 20.89256 16.28019
#
# Velocity S-wave (km/s) = 2.77465 3.71286 3.27750
# Velocity P-wave (km/s) = 5.82428 7.12406 6.50671
#
# Compressibility (1/GPa) = 0.02789079
#
# Stress axis : x y z
#
# Youngs Moduli (GPa) = 105.09569 30.46778 72.55033
#
# Poissons Ratio (x) = 0.17326 0.18657
# Poissons Ratio (y) = 0.59765 0.42488
# Poissons Ratio (z) = 0.27027 0.17843
#
# Static dielectric constant tensor:
#      x y z
#    x 3.237110 0.000000 -0.041250 
#    y 0.000000 2.456500 0.000000 
#    z -0.041250 0.000000 2.889790 
# 
# 
# High freq. dielectric constant tensor:
#      x y z
#    x 1.612210 0.000000 -0.003680 
#    y 0.000000 1.524920 0.000000 
#    z -0.003680 0.000000 1.562920 
# 
# From -- ./inp_files/253802.got.cif
#   From: 2010.06.25/outbox.cif.g09.slc.cpg/sg12_127_cif.got.tgz:253802.got - 2010.06.28 00:19:55.
