data_PCOD8087136
_publ_section_title
;
Structure prediction by ZEFSAII (Michael W. Deem and Ramdas Pophale) SiO2 
 PCOD8087136
Probable space group: C 2/M
;
_chemical_formula_sum "Si O2"
_cell_formula_units_Z 64
_cell_length_a 20.663359
_cell_length_b 9.101774
_cell_length_c 20.096816
_cell_angle_alpha 90.000000
_cell_angle_beta 66.455015
_cell_angle_gamma 90.000000
_cell_volume 3465.002797
_symmetry_space_group_name_H-M "C 2/M"
_symmetry_group_IT_number 12
_symmetry_cell_setting 'monoclinic'
loop_
_space_group_symop_operation_xyz
x,y,z
-x,y,-z
-x,-y,-z
x,-y,z
1/2+x,1/2+y,z
1/2-x,1/2+y,-z
1/2-x,1/2-y,-z
1/2+x,1/2-y,z
loop_
_atom_site_type_symbol
_atom_site_label
_atom_site_fract_x
_atom_site_fract_y
_atom_site_fract_z
Si Si1 0.787764 0.669133 0.075267
Si Si2 0.646292 0.326966 0.307151
Si Si3 0.149641 0.670281 0.088067
Si Si4 0.697396 0.828013 0.783823
Si Si5 0.419972 0.172951 0.539688
Si Si6 0.176866 0.328765 0.542221
Si Si7 0.049472 0.172783 0.222215
Si Si8 0.598379 0.826484 0.708932
O O1 0.760803 0.500000 0.086382
O O2 0.720375 0.771682 0.093596
O O3 0.823849 0.708268 0.131130
O O4 0.845099 0.694891 0.993770
O O5 0.646142 0.500000 0.319267
O O6 0.725075 0.263845 0.263720
O O7 0.614863 0.250727 0.383966
O O8 0.600719 0.285087 0.261580
O O9 0.140814 0.500000 0.109606
O O10 0.081500 0.757839 0.141710
O O11 0.638381 0.764824 0.758159
O O12 0.701031 0.000000 0.769573
O O13 0.500000 0.227990 0.500000
O O14 0.379537 0.221188 0.489697
O O15 0.416745 0.000000 0.553186
O O16 0.191917 0.500000 0.531221
O O17 0.250000 0.250000 0.500000
O O18 0.146936 0.285630 0.626396
O O19 0.974172 0.241231 0.268601
O O20 0.041893 0.000000 0.215288
O O21 0.582671 0.000000 0.718614
#
# Coordination Sequence:
#
# PCOD8087136 Si02
#       8
#     8   8   8   8   8   8   8   8
#     4   9  17  33  55  81 113 144 180 225 268 314
#     4  10  20  35  57  80 102 136 180 222 268 320
#     4  10  19  31  54  84 111 144 182 221 269 323
#     4   9  17  34  57  80 106 139 178 224 267 310
#     4  10  21  36  53  76 107 139 172 220 275 317
#     4  10  21  37  57  80 108 144 181 223 271 323
#     4  11  22  37  56  79 112 147 179 225 278 325
#     4  10  21  37  58  80 107 144 185 224 267 324
#
# _framework density 18.470403000000001
#
# number of rings (size 3 to 8) (size 9 to 14) (size 15 to 20)
#    0.000    2.125    1.250    2.250    0.000    4.750 
#    0.000    1.875    0.000    3.750    0.000    0.000 
#    0.000    0.000    0.000    0.000    0.000    0.000 
#
# Total GULP energy -396844.112280 kJ/mol
# GULP energy per Si atom -12401.378509 kJ/mol
# Density = 1.842836 g / cm^3
# Si number density = 18.470403 Si / 1000 Ang^3
#
#
#
# Elastic Constant Matrix: (Units=GPa)
#
#
# Indices 1 2 3 4 5 6 
#
# 1 94.0179 45.2146 43.6219 -0.0001 -6.5334 -0.0002
# 2 45.2146 53.7831 47.9228 -0.0002 1.9534 -0.0006
# 3 43.6219 47.9228 119.7762 0.0000 11.8454 0.0000
# 4 -0.0001 -0.0002 0.0000 32.9801 0.0000 -5.2594
# 5 -6.5334 1.9534 11.8454 0.0000 21.2428 -0.0001
# 6 -0.0002 -0.0006 0.0000 -5.2594 -0.0001 28.0200
#
#
#
# Elastic Compliance Matrix: (Units=1/GPa)
#
#
# Indices 1 2 3 4 5 6 
#
# 1 0.019185 -0.014719 -0.001921 0.000000 0.008325 0.000000
# 2 -0.014719 0.040513 -0.010618 0.000000 -0.002331 0.000001
# 3 -0.001921 -0.010618 0.014033 0.000000 -0.007439 0.000000
# 4 0.000000 0.000000 0.000000 0.031257 0.000000 0.005867
# 5 0.008325 -0.002331 -0.007439 0.000000 0.053998 0.000000
# 6 0.000000 0.000001 0.000000 0.005867 0.000000 0.036790
#
#
# Mechanical properties :
#
#
# Convention : Reuss Voigt Hill
#
# Bulk Modulus (GPa) = 52.04593 60.12175 56.08384
# Shear Modulus (GPa) = 19.47827 25.16979 22.32403
#
# Velocity S-wave (km/s) = 3.25093 3.69549 3.48032
# Velocity P-wave (km/s) = 6.50620 7.12951 6.82497
#
# Compressibility (1/GPa) = 0.01921380
#
# Stress axis : x y z
#
# Youngs Moduli (GPa) = 52.12498 24.68352 71.26168
#
# Poissons Ratio (x) = 0.36331 0.13692
# Poissons Ratio (y) = 0.76721 0.75668
# Poissons Ratio (z) = 0.10015 0.26210
#
# Static dielectric constant tensor:
#      x y z
#    x 3.486390 0.000000 0.119200 
#    y 0.000000 3.267360 0.000000 
#    z 0.119200 0.000000 3.596970 
# 
# 
# High freq. dielectric constant tensor:
#      x y z
#    x 1.710850 0.000000 0.004720 
#    y 0.000000 1.701330 0.000000 
#    z 0.004720 0.000000 1.732870 
# 
# From -- ./inp_files/319879.got.cif
#   From: 2010.06.25/outbox.cif.g09.slc.cpg/sg12_160_cif.got.tgz:319879.got - 2010.06.28 00:19:55.
