data_PCOD8087880
_publ_section_title
;
Structure prediction by ZEFSAII (Michael W. Deem and Ramdas Pophale) SiO2 
 PCOD8087880
Probable space group: C 2/M
;
_chemical_formula_sum "Si O2"
_cell_formula_units_Z 60
_cell_length_a 5.266685
_cell_length_b 24.418580
_cell_length_c 22.628151
_cell_angle_alpha 90.000000
_cell_angle_beta 87.246314
_cell_angle_gamma 90.000000
_cell_volume 2906.732368
_symmetry_space_group_name_H-M "C 2/M"
_symmetry_group_IT_number 12
_symmetry_cell_setting 'monoclinic'
loop_
_space_group_symop_operation_xyz
x,y,z
-x,y,-z
-x,-y,-z
x,-y,z
1/2+x,1/2+y,z
1/2-x,1/2+y,-z
1/2-x,1/2-y,-z
1/2+x,1/2-y,z
loop_
_atom_site_type_symbol
_atom_site_label
_atom_site_fract_x
_atom_site_fract_y
_atom_site_fract_z
Si Si1 0.763538 0.000000 0.460870
Si Si2 0.345411 0.768965 0.569546
Si Si3 0.487957 0.935216 0.066051
Si Si4 0.972769 0.934920 0.135847
Si Si5 0.899158 0.389572 0.566981
Si Si6 0.568571 0.276272 0.301258
Si Si7 0.447898 0.601189 0.266774
Si Si8 0.920993 0.437988 0.326978
O O1 0.500000 0.000000 0.500000
O O2 0.784318 0.943196 0.422850
O O3 0.000000 0.000000 0.500000
O O4 0.629073 0.765927 0.535877
O O5 0.260039 0.831954 0.581188
O O6 0.437351 0.737589 0.628644
O O7 0.733259 0.915511 0.099692
O O8 0.228856 0.916100 0.100099
O O9 0.490972 0.000000 0.061455
O O10 0.500000 0.909859 0.000000
O O11 0.959906 0.901326 0.196332
O O12 0.967044 0.000000 0.148369
O O13 0.115816 0.399127 0.614571
O O14 0.000000 0.388161 0.500000
O O15 0.344379 0.240432 0.272560
O O16 0.507367 0.338759 0.289942
O O17 0.168607 0.582244 0.288794
O O18 0.670503 0.562823 0.289754
O O19 0.963416 0.500000 0.348104
#
# Coordination Sequence:
#
# PCOD8087880 Si02
#       8
#     4   8   8   8   8   8   8   8
#     4  10  24  44  64  86 114 148 188 236 297 368
#     4  10  21  39  62  88 114 145 189 242 308 364
#     4   9  17  30  51  80 121 170 210 246 288 339
#     4  10  19  32  51  82 123 163 206 247 291 356
#     4  11  25  45  66  89 119 155 199 256 314 385
#     4  10  20  38  60  83 112 148 194 251 313 366
#     4  12  24  40  62  88 123 163 204 258 315 363
#     4  12  24  40  60  86 119 159 204 246 308 385
#
# _framework density 20.641735000000001
#
# number of rings (size 3 to 8) (size 9 to 14) (size 15 to 20)
#    0.000    1.467    0.667    6.400    0.000    7.467 
#    0.000    0.000    0.000    0.000    0.000    0.000 
#    0.000   10.667    0.000    0.000    0.000    0.000 
#
# Total GULP energy -371824.383689 kJ/mol
# GULP energy per Si atom -12394.146123 kJ/mol
# Density = 2.059475 g / cm^3
# Si number density = 20.641735 Si / 1000 Ang^3
#
#
#
# Elastic Constant Matrix: (Units=GPa)
#
#
# Indices 1 2 3 4 5 6 
#
# 1 155.5444 27.6008 49.3915 0.0000 12.2084 0.0000
# 2 27.6008 124.7968 20.4827 0.0000 5.2274 0.0000
# 3 49.3915 20.4827 140.3261 0.0000 3.2700 0.0000
# 4 0.0000 0.0000 0.0000 15.7090 0.0000 0.0232
# 5 12.2084 5.2274 3.2700 0.0000 29.2727 0.0000
# 6 0.0000 0.0000 0.0000 0.0232 0.0000 17.4272
#
#
#
# Elastic Compliance Matrix: (Units=1/GPa)
#
#
# Indices 1 2 3 4 5 6 
#
# 1 0.007627 -0.001172 -0.002451 0.000000 -0.002698 0.000000
# 2 -0.001172 0.008442 -0.000798 0.000000 -0.000930 0.000000
# 3 -0.002451 -0.000798 0.008099 0.000000 0.000260 0.000000
# 4 0.000000 0.000000 0.000000 0.063658 0.000000 -0.000085
# 5 -0.002698 -0.000930 0.000260 0.000000 0.035424 0.000000
# 6 0.000000 0.000000 0.000000 -0.000085 0.000000 0.057382
#
#
# Mechanical properties :
#
#
# Convention : Reuss Voigt Hill
#
# Bulk Modulus (GPa) = 65.24250 68.40189 66.82220
# Shear Modulus (GPa) = 25.69617 34.02793 29.86205
#
# Velocity S-wave (km/s) = 3.53209 4.06458 3.80766
# Velocity P-wave (km/s) = 6.95053 7.43218 7.19539
#
# Compressibility (1/GPa) = 0.01532743
#
# Stress axis : x y z
#
# Youngs Moduli (GPa) = 131.11599 118.45405 123.46802
#
# Poissons Ratio (x) = 0.13878 0.30257
# Poissons Ratio (y) = 0.15361 0.09855
# Poissons Ratio (z) = 0.32131 0.09455
#
# Static dielectric constant tensor:
#      x y z
#    x 4.361400 0.000000 0.107950 
#    y 0.000000 4.002040 0.000000 
#    z 0.107950 0.000000 3.737690 
# 
# 
# High freq. dielectric constant tensor:
#      x y z
#    x 1.831310 0.000000 0.010500 
#    y 0.000000 1.786060 0.000000 
#    z 0.010500 0.000000 1.791570 
# 
# From -- ./inp_files/298090.got.cif
#   From: 2010.06.25/outbox.cif.g09.slc.cpg/sg12_150_cif.got.tgz:298090.got - 2010.06.28 00:19:55.
