data_PCOD8087758
_publ_section_title
;
Structure prediction by ZEFSAII (Michael W. Deem and Ramdas Pophale) SiO2 
 PCOD8087758
Probable space group: C 2/M
;
_chemical_formula_sum "Si O2"
_cell_formula_units_Z 64
_cell_length_a 26.154707
_cell_length_b 9.474852
_cell_length_c 31.075819
_cell_angle_alpha 90.000000
_cell_angle_beta 154.917181
_cell_angle_gamma 90.000000
_cell_volume 3264.651529
_symmetry_space_group_name_H-M "C 2/M"
_symmetry_group_IT_number 12
_symmetry_cell_setting 'monoclinic'
loop_
_space_group_symop_operation_xyz
x,y,z
-x,y,-z
-x,-y,-z
x,-y,z
1/2+x,1/2+y,z
1/2-x,1/2+y,-z
1/2-x,1/2-y,-z
1/2+x,1/2-y,z
loop_
_atom_site_type_symbol
_atom_site_label
_atom_site_fract_x
_atom_site_fract_y
_atom_site_fract_z
Si Si1 0.540620 0.664022 0.722511
Si Si2 0.449615 0.332668 0.368365
Si Si3 0.999928 0.843059 0.050276
Si Si4 0.414551 0.833229 0.696200
Si Si5 0.274463 0.168428 0.745053
Si Si6 0.810010 0.655512 0.942945
Si Si7 0.863124 0.655481 0.078209
Si Si8 0.701794 0.332468 0.594689
O O1 0.503414 0.500000 0.695647
O O2 0.551422 0.719489 0.681776
O O3 0.437238 0.751734 0.668643
O O4 0.669290 0.692024 0.843647
O O5 0.451980 0.500000 0.371485
O O6 0.331812 0.279423 0.304034
O O7 0.568875 0.272559 0.482885
O O8 0.103462 0.742552 0.147285
O O9 0.010019 0.000000 0.078643
O O10 0.000000 0.856780 0.000000
O O11 0.869355 0.775165 0.959395
O O12 0.517559 0.786250 0.808326
O O13 0.290487 0.782607 0.623848
O O14 0.413984 0.000000 0.686639
O O15 0.243274 0.221454 0.673135
O O16 0.292757 0.000000 0.761054
O O17 0.816630 0.500000 0.925522
O O18 0.885943 0.650902 0.044756
O O19 0.833641 0.500000 0.073768
O O20 0.750000 0.750000 0.000000
O O21 0.700732 0.500000 0.595217
#
# Coordination Sequence:
#
# PCOD8087758 Si02
#       8
#     8   8   8   8   8   8   8   8
#     4  10  20  34  53  79 111 145 184 227 266 317
#     4   9  18  33  57  86 109 136 179 231 281 322
#     4  11  24  38  53  79 115 149 178 216 271 332
#     4  10  20  33  51  77 111 148 183 220 269 326
#     4  10  19  36  63  86 106 138 182 230 277 325
#     4  10  20  35  55  79 108 143 186 230 268 315
#     4  10  19  32  51  76 105 138 179 222 265 314
#     4   9  18  34  57  85 112 137 177 232 279 323
#
# _framework density 19.603929000000001
#
# number of rings (size 3 to 8) (size 9 to 14) (size 15 to 20)
#    0.000    2.125    1.250    2.250    0.000    7.000 
#    0.000    2.500    0.000    3.000    0.000    0.000 
#    0.000    0.000    0.000    0.000    0.000    0.000 
#
# Total GULP energy -396728.432367 kJ/mol
# GULP energy per Si atom -12397.763511 kJ/mol
# Density = 1.955931 g / cm^3
# Si number density = 19.603929 Si / 1000 Ang^3
#
#
#
# Elastic Constant Matrix: (Units=GPa)
#
#
# Indices 1 2 3 4 5 6 
#
# 1 121.7441 35.6284 22.2278 -0.0024 6.4803 -0.0012
# 2 35.6284 58.1514 21.3312 -0.0018 9.1777 0.0007
# 3 22.2278 21.3312 72.7129 0.0012 2.6075 -0.0038
# 4 -0.0024 -0.0018 0.0012 14.5512 0.0017 1.2072
# 5 6.4803 9.1777 2.6075 0.0017 34.2434 -0.0002
# 6 -0.0012 0.0007 -0.0038 1.2072 -0.0002 27.9348
#
#
#
# Elastic Compliance Matrix: (Units=1/GPa)
#
#
# Indices 1 2 3 4 5 6 
#
# 1 0.010143 -0.005641 -0.001435 0.000001 -0.000298 0.000000
# 2 -0.005641 0.023209 -0.004913 0.000003 -0.004779 -0.000002
# 3 -0.001435 -0.004913 0.015618 -0.000002 0.000399 0.000002
# 4 0.000001 0.000003 -0.000002 0.068970 -0.000004 -0.002980
# 5 -0.000298 -0.004779 0.000399 -0.000004 0.030510 0.000001
# 6 0.000000 -0.000002 0.000002 -0.002980 0.000001 0.035926
#
#
# Mechanical properties :
#
#
# Convention : Reuss Voigt Hill
#
# Bulk Modulus (GPa) = 40.01206 45.66480 42.83843
# Shear Modulus (GPa) = 23.07510 26.90728 24.99119
#
# Velocity S-wave (km/s) = 3.43456 3.70881 3.57431
# Velocity P-wave (km/s) = 6.01521 6.45636 6.23969
#
# Compressibility (1/GPa) = 0.02499246
#
# Stress axis : x y z
#
# Youngs Moduli (GPa) = 98.59412 43.08708 64.02721
#
# Poissons Ratio (x) = 0.24304 0.09188
# Poissons Ratio (y) = 0.55614 0.31456
# Poissons Ratio (z) = 0.14149 0.21168
#
# Static dielectric constant tensor:
#      x y z
#    x 3.728470 0.000000 -0.029180 
#    y 0.000000 3.359700 0.000000 
#    z -0.029180 0.000000 3.744160 
# 
# 
# High freq. dielectric constant tensor:
#      x y z
#    x 1.771080 0.000000 0.000310 
#    y 0.000000 1.724890 0.000000 
#    z 0.000310 0.000000 1.768480 
# 
# From -- ./inp_files/382426.got.cif
#   From: 2010.06.25/outbox.cif.g09.slc.cpg/sg12_192_cif.got.tgz:382426.got - 2010.06.28 00:19:55.
