data_PCOD8087989
_publ_section_title
;
Structure prediction by ZEFSAII (Michael W. Deem and Ramdas Pophale) SiO2 
 PCOD8087989
Probable space group: C 2/M
;
_chemical_formula_sum "Si O2"
_cell_formula_units_Z 56
_cell_length_a 31.874658
_cell_length_b 18.225129
_cell_length_c 9.459947
_cell_angle_alpha 90.000000
_cell_angle_beta 31.704648
_cell_angle_gamma 90.000000
_cell_volume 2888.093027
_symmetry_space_group_name_H-M "C 2/M"
_symmetry_group_IT_number 12
_symmetry_cell_setting 'monoclinic'
loop_
_space_group_symop_operation_xyz
x,y,z
-x,y,-z
-x,-y,-z
x,-y,z
1/2+x,1/2+y,z
1/2-x,1/2+y,-z
1/2-x,1/2-y,-z
1/2+x,1/2-y,z
loop_
_atom_site_type_symbol
_atom_site_label
_atom_site_fract_x
_atom_site_fract_y
_atom_site_fract_z
Si Si1 0.748246 0.413092 0.172228
Si Si2 0.072959 0.083321 0.705614
Si Si3 0.583852 0.085041 0.822169
Si Si4 0.175228 0.337984 0.797935
Si Si5 0.324077 0.668685 0.173103
Si Si6 0.024634 0.082990 0.279479
Si Si7 0.765278 0.585141 0.801336
O O1 0.746452 0.500000 0.189495
O O2 0.660791 0.380337 0.468494
O O3 0.816567 0.382171 0.079140
O O4 0.769574 0.389571 0.951600
O O5 0.052855 0.085538 0.597312
O O6 0.078268 0.000000 0.747734
O O7 0.000000 0.123124 0.000000
O O8 0.603299 0.130667 0.908676
O O9 0.648526 0.098728 0.514757
O O10 0.579648 0.000000 0.878054
O O11 0.500000 0.112867 0.000000
O O12 0.257078 0.349147 0.479231
O O13 0.158531 0.254606 0.887328
O O14 0.299670 0.635776 0.090862
O O15 0.404431 0.629276 0.995164
O O16 0.000000 0.117898 0.500000
O O17 0.055472 0.000000 0.211956
O O18 0.739427 0.500000 0.861452
#
# Coordination Sequence:
#
# PCOD8087989 Si02
#       7
#     8   8   8   8   8   8   8
#     4  10  19  33  53  78 106 135 176 224 265 314
#     4   9  17  28  45  72 102 130 162 204 255 303
#     4   9  18  36  59  78  98 129 174 224 270 318
#     4  10  21  35  53  77 105 140 179 218 266 321
#     4  10  20  35  51  74 108 142 179 215 257 321
#     4  10  19  32  52  76 102 136 177 217 256 306
#     4   9  18  33  55  78 100 134 174 214 264 315
#
# _framework density 19.389956999999999
#
# number of rings (size 3 to 8) (size 9 to 14) (size 15 to 20)
#    0.000    2.429    0.000    2.571    0.000    5.714 
#    0.000    7.143    0.000    3.429    0.000    0.000 
#    0.000    0.000    0.000    0.000    0.000    0.000 
#
# Total GULP energy -347172.982586 kJ/mol
# GULP energy per Si atom -12399.035092 kJ/mol
# Density = 1.934582 g / cm^3
# Si number density = 19.389957 Si / 1000 Ang^3
#
#
#
# Elastic Constant Matrix: (Units=GPa)
#
#
# Indices 1 2 3 4 5 6 
#
# 1 138.6892 50.1206 37.8383 0.0000 -0.0305 0.0000
# 2 50.1206 65.9783 28.2748 0.0000 -1.7840 0.0000
# 3 37.8383 28.2748 57.0688 0.0000 -4.7891 0.0000
# 4 0.0000 0.0000 0.0000 19.8477 0.0000 0.3593
# 5 -0.0305 -1.7840 -4.7891 0.0000 34.9904 0.0000
# 6 0.0000 0.0000 0.0000 0.3593 0.0000 12.6866
#
#
#
# Elastic Compliance Matrix: (Units=1/GPa)
#
#
# Indices 1 2 3 4 5 6 
#
# 1 0.010589 -0.006383 -0.003930 0.000000 -0.000854 0.000000
# 2 -0.006383 0.023093 -0.007194 0.000000 0.000187 0.000000
# 3 -0.003930 -0.007194 0.023937 0.000000 0.002906 0.000000
# 4 0.000000 0.000000 0.000000 0.050410 0.000000 -0.001428
# 5 -0.000854 0.000187 0.002906 0.000000 0.028986 0.000000
# 6 0.000000 0.000000 0.000000 -0.001428 0.000000 0.078864
#
#
# Mechanical properties :
#
#
# Convention : Reuss Voigt Hill
#
# Bulk Modulus (GPa) = 44.23763 54.91153 49.57458
# Shear Modulus (GPa) = 19.34783 23.20510 21.27647
#
# Velocity S-wave (km/s) = 3.16227 3.46317 3.31614
# Velocity P-wave (km/s) = 6.01643 6.66127 6.34705
#
# Compressibility (1/GPa) = 0.02260519
#
# Stress axis : x y z
#
# Youngs Moduli (GPa) = 94.43628 43.30273 41.77708
#
# Poissons Ratio (x) = 0.27640 0.16419
# Poissons Ratio (y) = 0.60278 0.30054
# Poissons Ratio (z) = 0.37115 0.31151
#
# Static dielectric constant tensor:
#      x y z
#    x 3.604690 0.000000 0.010580 
#    y 0.000000 3.255160 0.000000 
#    z 0.010580 0.000000 3.507470 
# 
# 
# High freq. dielectric constant tensor:
#      x y z
#    x 1.765090 0.000000 0.003770 
#    y 0.000000 1.720630 0.000000 
#    z 0.003770 0.000000 1.745930 
# 
# From -- ./inp_files/87827.got.cif
#   From: 2010.06.25/outbox.cif.g09.slc.cpg/sg12_44_cif.got.tgz:87827.got - 2010.06.28 00:19:55.
