data_PCOD8087463
_publ_section_title
;
Structure prediction by ZEFSAII (Michael W. Deem and Ramdas Pophale) SiO2 
 PCOD8087463
Probable space group: C 2/M
;
_chemical_formula_sum "Si O2"
_cell_formula_units_Z 64
_cell_length_a 22.754073
_cell_length_b 9.066709
_cell_length_c 22.896796
_cell_angle_alpha 90.000000
_cell_angle_beta 131.356818
_cell_angle_gamma 90.000000
_cell_volume 3545.663040
_symmetry_space_group_name_H-M "C 2/M"
_symmetry_group_IT_number 12
_symmetry_cell_setting 'monoclinic'
loop_
_space_group_symop_operation_xyz
x,y,z
-x,y,-z
-x,-y,-z
x,-y,z
1/2+x,1/2+y,z
1/2-x,1/2+y,-z
1/2-x,1/2-y,-z
1/2+x,1/2-y,z
loop_
_atom_site_type_symbol
_atom_site_label
_atom_site_fract_x
_atom_site_fract_y
_atom_site_fract_z
Si Si1 0.572601 0.331806 0.768265
Si Si2 0.757088 0.830402 0.065607
Si Si3 0.639475 0.830819 0.197083
Si Si4 0.070761 0.672272 0.270895
Si Si5 0.193252 0.165811 0.128299
Si Si6 0.719178 0.669566 0.423179
Si Si7 0.720371 0.167800 0.657480
Si Si8 0.866894 0.337105 0.293857
O O1 0.543719 0.500000 0.749936
O O2 0.655216 0.311370 0.853773
O O3 0.512703 0.228683 0.762722
O O4 0.579699 0.280329 0.705156
O O5 0.695350 0.758611 0.069976
O O6 0.734106 0.000000 0.042665
O O7 0.750000 0.750000 0.000000
O O8 0.572349 0.801215 0.201583
O O9 0.629439 0.734559 0.131504
O O10 0.719714 0.791304 0.282133
O O11 0.642227 0.000000 0.179268
O O12 0.080891 0.500000 0.292060
O O13 0.138140 0.760832 0.348495
O O14 0.277528 0.171769 0.213828
O O15 0.167459 0.000000 0.096186
O O16 0.702940 0.500000 0.427995
O O17 0.750000 0.750000 0.500000
O O18 0.786575 0.684283 0.417192
O O19 0.638338 0.193728 0.639162
O O20 0.750455 0.000000 0.691623
O O21 0.901526 0.500000 0.304258
#
# Coordination Sequence:
#
# PCOD8087463 Si02
#       8
#     8   8   8   8   8   8   8   8
#     4  10  20  32  48  72  99 127 159 197 240 285
#     4  10  20  33  50  73 100 129 162 199 241 288
#     4   9  16  26  43  68  94 119 154 198 238 277
#     4  10  20  33  50  72  98 130 164 198 240 287
#     4   9  16  27  45  68  94 124 157 194 238 283
#     4  10  19  32  50  73 101 130 162 199 240 287
#     4   8  15  27  44  66  92 123 157 194 236 281
#     4   8  14  26  44  66  91 120 155 193 233 278
#
# _framework density 18.050221000000001
#
# number of rings (size 3 to 8) (size 9 to 14) (size 15 to 20)
#    0.000    2.750    0.000    3.000    0.000    6.500 
#    0.000    0.000    0.000    1.500    0.000   10.500 
#    0.000    0.000    0.000    0.000    0.000    0.000 
#
# Total GULP energy -396552.223888 kJ/mol
# GULP energy per Si atom -12392.256997 kJ/mol
# Density = 1.800914 g / cm^3
# Si number density = 18.050221 Si / 1000 Ang^3
#
#
#
# Elastic Constant Matrix: (Units=GPa)
#
#
# Indices 1 2 3 4 5 6 
#
# 1 122.5754 68.4305 34.8298 0.0000 -36.4318 0.0000
# 2 68.4305 132.5181 38.1908 0.0000 -23.2142 0.0000
# 3 34.8298 38.1908 47.0915 0.0000 -27.7558 0.0000
# 4 0.0000 0.0000 0.0000 26.3407 0.0000 -7.1938
# 5 -36.4318 -23.2142 -27.7558 0.0000 29.4873 0.0000
# 6 0.0000 0.0000 0.0000 -7.1938 0.0000 31.9164
#
#
#
# Elastic Compliance Matrix: (Units=1/GPa)
#
#
# Indices 1 2 3 4 5 6 
#
# 1 0.016049 -0.006218 0.004435 0.000000 0.019108 0.000000
# 2 -0.006218 0.012261 -0.009396 0.000000 -0.006875 0.000000
# 3 0.004435 -0.009396 0.054907 0.000000 0.049765 0.000000
# 4 0.000000 0.000000 0.000000 0.040454 0.000000 0.009118
# 5 0.019108 -0.006875 0.049765 0.000000 0.098951 0.000000
# 6 0.000000 0.000000 0.000000 0.009118 0.000000 0.033387
#
#
# Mechanical properties :
#
#
# Convention : Reuss Voigt Hill
#
# Bulk Modulus (GPa) = 16.43182 65.00970 40.72076
# Shear Modulus (GPa) = 16.74178 28.26446 22.50312
#
# Velocity S-wave (km/s) = 3.04881 3.96141 3.53469
# Velocity P-wave (km/s) = 4.63862 7.55102 6.26637
#
# Compressibility (1/GPa) = 0.06085753
#
# Stress axis : x y z
#
# Youngs Moduli (GPa) = 62.31068 81.56089 18.21260
#
# Poissons Ratio (x) = 0.50716 -0.08077
# Poissons Ratio (y) = 0.38746 0.17113
# Poissons Ratio (z) = -0.27635 0.76637
#
# Static dielectric constant tensor:
#      x y z
#    x 3.630160 0.000000 -0.487070 
#    y 0.000000 3.517820 0.000000 
#    z -0.487070 0.000000 2.944460 
# 
# 
# High freq. dielectric constant tensor:
#      x y z
#    x 1.703790 0.000000 -0.044190 
#    y 0.000000 1.715390 0.000000 
#    z -0.044190 0.000000 1.642750 
# 
# From -- ./inp_files/345566.got.cif
#   From: 2010.06.25/outbox.cif.g09.slc.cpg/sg12_173_cif.got.tgz:345566.got - 2010.06.28 00:19:55.
