data_PCOD8087214
_publ_section_title
;
Structure prediction by ZEFSAII (Michael W. Deem and Ramdas Pophale) SiO2 
 PCOD8087214
Probable space group: C 2/M
;
_chemical_formula_sum "Si O2"
_cell_formula_units_Z 48
_cell_length_a 22.787870
_cell_length_b 7.772887
_cell_length_c 17.537441
_cell_angle_alpha 90.000000
_cell_angle_beta 119.336017
_cell_angle_gamma 90.000000
_cell_volume 2708.008224
_symmetry_space_group_name_H-M "C 2/M"
_symmetry_group_IT_number 12
_symmetry_cell_setting 'monoclinic'
loop_
_space_group_symop_operation_xyz
x,y,z
-x,y,-z
-x,-y,-z
x,-y,z
1/2+x,1/2+y,z
1/2-x,1/2+y,-z
1/2-x,1/2-y,-z
1/2+x,1/2-y,z
loop_
_atom_site_type_symbol
_atom_site_label
_atom_site_fract_x
_atom_site_fract_y
_atom_site_fract_z
Si Si1 0.491315 0.194466 0.379266
Si Si2 0.395822 0.305090 0.442641
Si Si3 0.601214 0.500000 0.111593
Si Si4 0.257755 0.298707 0.417872
Si Si5 0.012928 0.303029 0.795411
Si Si6 0.635091 0.802211 0.235556
Si Si7 0.952143 0.000000 0.081095
O O1 0.423889 0.202890 0.387424
O O2 0.550639 0.306294 0.454015
O O3 0.475246 0.257326 0.283858
O O4 0.517902 0.000000 0.393159
O O5 0.384138 0.500000 0.408951
O O6 0.325990 0.217379 0.425736
O O7 0.636851 0.674558 0.164171
O O8 0.525086 0.500000 0.090634
O O9 0.603938 0.500000 0.021268
O O10 0.265246 0.500000 0.416962
O O11 0.250000 0.250000 0.500000
O O12 0.193208 0.236727 0.329382
O O13 0.036981 0.500000 0.824984
O O14 0.934171 0.284097 0.762875
O O15 0.056930 0.173903 0.875156
O O16 0.645916 0.000000 0.215009
#
# Coordination Sequence:
#
# PCOD8087214 Si02
#       7
#     8   8   4   8   8   8   4
#     4  10  19  32  47  67  98 130 164 202 244 290
#     4  10  20  31  46  69  96 130 169 201 241 284
#     4   9  18  32  48  76  96 131 160 192 249 303
#     4  10  21  33  47  70  99 131 169 202 236 283
#     4   9  18  30  49  73  98 129 161 197 251 293
#     4   9  18  33  48  69 102 131 162 200 240 292
#     4   9  18  30  50  73 104 120 158 203 243 305
#
# _framework density 17.725206
#
# number of rings (size 3 to 8) (size 9 to 14) (size 15 to 20)
#    0.000    2.500    0.000    3.000    3.500    3.333 
#    0.000    3.333    0.000    0.000    0.000    1.167 
#    0.000    0.000    0.000    0.000    0.000    0.000 
#
# Total GULP energy -297536.086207 kJ/mol
# GULP energy per Si atom -12397.336925 kJ/mol
# Density = 1.768486 g / cm^3
# Si number density = 17.725206 Si / 1000 Ang^3
#
#
#
# Elastic Constant Matrix: (Units=GPa)
#
#
# Indices 1 2 3 4 5 6 
#
# 1 69.4601 18.5035 45.6242 0.0000 -4.6398 0.0000
# 2 18.5035 82.3259 61.5611 0.0000 -4.0553 0.0000
# 3 45.6242 61.5611 159.6830 0.0000 -11.0646 0.0000
# 4 0.0000 0.0000 0.0000 30.5773 0.0000 -3.3928
# 5 -4.6398 -4.0553 -11.0646 0.0000 20.2051 0.0000
# 6 0.0000 0.0000 0.0000 -3.3928 0.0000 14.6791
#
#
#
# Elastic Compliance Matrix: (Units=1/GPa)
#
#
# Indices 1 2 3 4 5 6 
#
# 1 0.017763 -0.000282 -0.004873 0.000000 0.001354 0.000000
# 2 -0.000282 0.017072 -0.006515 0.000000 -0.000206 0.000000
# 3 -0.004873 -0.006515 0.010393 0.000000 0.003265 0.000000
# 4 0.000000 0.000000 0.000000 0.033565 0.000000 0.007758
# 5 0.001354 -0.000206 0.003265 0.000000 0.051550 0.000000
# 6 0.000000 0.000000 0.000000 0.007758 0.000000 0.069917
#
#
# Mechanical properties :
#
#
# Convention : Reuss Voigt Hill
#
# Bulk Modulus (GPa) = 45.68811 62.53852 54.11331
# Shear Modulus (GPa) = 21.65487 25.47764 23.56625
#
# Velocity S-wave (km/s) = 3.49907 3.79538 3.65023
# Velocity P-wave (km/s) = 6.49280 7.38684 6.95420
#
# Compressibility (1/GPa) = 0.02188753
#
# Stress axis : x y z
#
# Youngs Moduli (GPa) = 56.29726 58.57512 96.22229
#
# Poissons Ratio (x) = 0.01652 0.46885
# Poissons Ratio (y) = 0.01588 0.62692
# Poissons Ratio (z) = 0.27431 0.38164
#
# Static dielectric constant tensor:
#      x y z
#    x 3.236020 0.000000 -0.036220 
#    y 0.000000 3.435210 0.000000 
#    z -0.036220 0.000000 3.330480 
# 
# 
# High freq. dielectric constant tensor:
#      x y z
#    x 1.655280 0.000000 -0.010660 
#    y 0.000000 1.695630 0.000000 
#    z -0.010660 0.000000 1.670520 
# 
# From -- ./inp_files/230475.got.cif
#   From: 2010.06.25/outbox.cif.g09.slc.cpg/sg12_116_cif.got.tgz:230475.got - 2010.06.28 00:19:55.
