data_PCOD8087070
_publ_section_title
;
Structure prediction by ZEFSAII (Michael W. Deem and Ramdas Pophale) SiO2 
 PCOD8087070
Probable space group: C 2/M
;
_chemical_formula_sum "Si O2"
_cell_formula_units_Z 64
_cell_length_a 33.124121
_cell_length_b 9.417925
_cell_length_c 16.385105
_cell_angle_alpha 90.000000
_cell_angle_beta 137.188436
_cell_angle_gamma 90.000000
_cell_volume 3473.724740
_symmetry_space_group_name_H-M "C 2/M"
_symmetry_group_IT_number 12
_symmetry_cell_setting 'monoclinic'
loop_
_space_group_symop_operation_xyz
x,y,z
-x,y,-z
-x,-y,-z
x,-y,z
1/2+x,1/2+y,z
1/2-x,1/2+y,-z
1/2-x,1/2-y,-z
1/2+x,1/2-y,z
loop_
_atom_site_type_symbol
_atom_site_label
_atom_site_fract_x
_atom_site_fract_y
_atom_site_fract_z
Si Si1 0.712773 0.334653 0.009870
Si Si2 0.422657 0.658673 0.191352
Si Si3 0.257965 0.331463 0.766245
Si Si4 0.987257 0.666689 0.571433
Si Si5 0.096415 0.167561 0.301345
Si Si6 0.364751 0.667269 0.816476
Si Si7 0.631397 0.832755 0.512655
Si Si8 0.966092 0.838943 0.077784
O O1 0.729368 0.500000 0.029631
O O2 0.727285 0.274503 0.121530
O O3 0.750000 0.250000 0.000000
O O4 0.644680 0.307435 0.885175
O O5 0.440782 0.500000 0.246042
O O6 0.465748 0.769156 0.297076
O O7 0.427013 0.672128 0.100885
O O8 0.260988 0.500000 0.770156
O O9 0.306058 0.268837 0.772925
O O10 0.192478 0.279909 0.643791
O O11 0.997497 0.500000 0.588028
O O12 0.000000 0.727706 0.500000
O O13 0.921001 0.707228 0.501896
O O14 0.137127 0.199601 0.282637
O O15 0.124567 0.249970 0.418220
O O16 0.030629 0.232231 0.186214
O O17 0.094032 0.000000 0.318692
O O18 0.366517 0.500000 0.836311
O O19 0.425582 0.731829 0.946532
O O20 0.631854 0.000000 0.494357
O O21 0.980249 0.000000 0.073757
#
# Coordination Sequence:
#
# PCOD8087070 Si02
#       8
#     8   8   8   8   8   8   8   8
#     4  10  21  36  57  82 107 137 175 216 261 312
#     4  10  19  34  57  83 108 134 167 216 272 310
#     4   9  18  34  53  73 102 140 177 213 252 306
#     4  10  22  37  54  77 103 138 182 218 253 310
#     4  10  19  31  53  81 105 132 169 215 261 304
#     4   9  16  29  52  80 103 130 173 216 255 304
#     4  10  21  36  52  72 103 141 176 211 256 307
#     4   9  15  28  50  79 108 129 161 210 259 305
#
# _framework density 18.424028
#
# number of rings (size 3 to 8) (size 9 to 14) (size 15 to 20)
#    0.000    2.375    2.500    0.375    1.750    2.750 
#    0.000    0.625    0.000    3.000    0.000    0.000 
#    0.000    0.000    0.000    0.000    0.000    0.000 
#
# Total GULP energy -396725.270677 kJ/mol
# GULP energy per Si atom -12397.664709 kJ/mol
# Density = 1.838209 g / cm^3
# Si number density = 18.424028 Si / 1000 Ang^3
#
#
#
# Elastic Constant Matrix: (Units=GPa)
#
#
# Indices 1 2 3 4 5 6 
#
# 1 130.5203 28.0361 50.3497 0.0000 4.4735 0.0000
# 2 28.0361 21.6829 26.4900 0.0000 0.9353 0.0000
# 3 50.3497 26.4900 108.4398 0.0000 6.6069 0.0000
# 4 0.0000 0.0000 0.0000 24.1126 0.0000 -3.6495
# 5 4.4735 0.9353 6.6069 0.0000 25.1026 0.0000
# 6 0.0000 0.0000 0.0000 -3.6495 0.0000 21.6126
#
#
#
# Elastic Compliance Matrix: (Units=1/GPa)
#
#
# Indices 1 2 3 4 5 6 
#
# 1 0.011027 -0.011450 -0.002266 0.000000 -0.000942 0.000000
# 2 -0.011450 0.077707 -0.013836 0.000000 0.002787 0.000000
# 3 -0.002266 -0.013836 0.013819 0.000000 -0.002718 0.000000
# 4 0.000000 0.000000 0.000000 0.042560 0.000000 0.007187
# 5 -0.000942 0.002787 -0.002718 0.000000 0.040616 0.000000
# 6 0.000000 0.000000 0.000000 0.007187 0.000000 0.047483
#
#
# Mechanical properties :
#
#
# Convention : Reuss Voigt Hill
#
# Bulk Modulus (GPa) = 21.07451 52.26606 36.67028
# Shear Modulus (GPa) = 16.44019 24.55003 20.49511
#
# Velocity S-wave (km/s) = 2.99042 3.65430 3.33890
# Velocity P-wave (km/s) = 4.83600 6.79965 5.90009
#
# Compressibility (1/GPa) = 0.04745068
#
# Stress axis : x y z
#
# Youngs Moduli (GPa) = 90.68307 12.86881 72.36297
#
# Poissons Ratio (x) = 0.14734 0.16396
# Poissons Ratio (y) = 1.03830 1.00122
# Poissons Ratio (z) = 0.20547 0.17805
#
# Static dielectric constant tensor:
#      x y z
#    x 3.633260 0.000000 0.053770 
#    y 0.000000 2.930690 0.000000 
#    z 0.053770 0.000000 3.461340 
# 
# 
# High freq. dielectric constant tensor:
#      x y z
#    x 1.731800 0.000000 0.001880 
#    y 0.000000 1.659590 0.000000 
#    z 0.001880 0.000000 1.721310 
# 
# From -- ./inp_files/249953.got.cif
#   From: 2010.06.25/outbox.cif.g09.slc.cpg/sg12_125_cif.got.tgz:249953.got - 2010.06.28 00:19:55.
