data_PCOD8087128
_publ_section_title
;
Structure prediction by ZEFSAII (Michael W. Deem and Ramdas Pophale) SiO2 
 PCOD8087128
Probable space group: C 2/M
;
_chemical_formula_sum "Si O2"
_cell_formula_units_Z 64
_cell_length_a 19.956483
_cell_length_b 8.971104
_cell_length_c 24.410950
_cell_angle_alpha 90.000000
_cell_angle_beta 125.388835
_cell_angle_gamma 90.000000
_cell_volume 3562.873576
_symmetry_space_group_name_H-M "C 2/M"
_symmetry_group_IT_number 12
_symmetry_cell_setting 'monoclinic'
loop_
_space_group_symop_operation_xyz
x,y,z
-x,y,-z
-x,-y,-z
x,-y,z
1/2+x,1/2+y,z
1/2-x,1/2+y,-z
1/2-x,1/2-y,-z
1/2+x,1/2-y,z
loop_
_atom_site_type_symbol
_atom_site_label
_atom_site_fract_x
_atom_site_fract_y
_atom_site_fract_z
Si Si1 0.231009 0.825344 0.159983
Si Si2 0.391331 0.675701 0.807232
Si Si3 0.138984 0.829946 0.706592
Si Si4 0.198727 0.673557 0.428562
Si Si5 0.471159 0.674708 0.676532
Si Si6 0.031097 0.676313 0.816342
Si Si7 0.760592 0.670915 0.673100
Si Si8 0.283929 0.825663 0.069685
O O1 0.149462 0.774330 0.154132
O O2 0.313671 0.763196 0.225489
O O3 0.226681 0.777627 0.094207
O O4 0.241532 0.000000 0.169879
O O5 0.408702 0.500000 0.813215
O O6 0.475747 0.766816 0.840998
O O7 0.330122 0.719375 0.729054
O O8 0.173498 0.794914 0.661822
O O9 0.042072 0.795196 0.664640
O O10 0.156076 0.000000 0.730180
O O11 0.189032 0.500000 0.436974
O O12 0.250000 0.750000 0.500000
O O13 0.108995 0.744665 0.383712
O O14 0.248464 0.700623 0.395642
O O15 0.453436 0.500000 0.675860
O O16 0.499518 0.741468 0.747478
O O17 0.022236 0.500000 0.804031
O O18 0.123430 0.725253 0.873748
O O19 0.788489 0.500000 0.697069
O O20 0.280561 0.000000 0.057818
O O21 0.250000 0.750000 0.000000
#
# Coordination Sequence:
#
# PCOD8087128 Si02
#       8
#     8   8   8   8   8   8   8   8
#     4   9  18  34  53  78 110 143 178 222 274 322
#     4  10  19  31  54  83 109 138 178 227 272 319
#     4   9  18  32  54  83 109 137 178 226 270 319
#     4  11  23  38  57  79 111 150 185 225 274 328
#     4  11  21  34  56  85 112 139 181 229 271 323
#     4  11  21  35  55  80 111 144 180 225 273 323
#     4   9  18  34  54  78 109 144 179 219 272 321
#     4  10  22  38  56  78 109 147 185 224 273 328
#
# _framework density 17.963028999999999
#
# number of rings (size 3 to 8) (size 9 to 14) (size 15 to 20)
#    0.000    2.000    2.500    1.500    0.000    3.000 
#    0.000    1.250    0.000    7.500    0.000    0.000 
#    0.000    0.000    0.000    0.000    0.000    0.000 
#
# Total GULP energy -396747.317887 kJ/mol
# GULP energy per Si atom -12398.353684 kJ/mol
# Density = 1.792214 g / cm^3
# Si number density = 17.963029 Si / 1000 Ang^3
#
#
#
# Elastic Constant Matrix: (Units=GPa)
#
#
# Indices 1 2 3 4 5 6 
#
# 1 133.0293 46.7333 57.7755 0.0000 -3.6211 0.0000
# 2 46.7333 65.9372 40.2500 0.0000 -0.0046 0.0000
# 3 57.7755 40.2500 100.5892 0.0000 -4.1255 0.0000
# 4 0.0000 0.0000 0.0000 31.9133 0.0000 1.2109
# 5 -3.6211 -0.0046 -4.1255 0.0000 23.7630 0.0000
# 6 0.0000 0.0000 0.0000 1.2109 0.0000 27.8482
#
#
#
# Elastic Compliance Matrix: (Units=1/GPa)
#
#
# Indices 1 2 3 4 5 6 
#
# 1 0.011302 -0.005388 -0.004296 0.000000 0.000975 0.000000
# 2 -0.005388 0.022683 -0.006058 0.000000 -0.001868 0.000000
# 3 -0.004296 -0.006058 0.014912 0.000000 0.001933 0.000000
# 4 0.000000 0.000000 0.000000 0.031387 0.000000 -0.001365
# 5 0.000975 -0.001868 0.001933 0.000000 0.042566 0.000000
# 6 0.000000 0.000000 0.000000 -0.001365 0.000000 0.035968
#
#
# Mechanical properties :
#
#
# Convention : Reuss Voigt Hill
#
# Bulk Modulus (GPa) = 57.42780 65.45259 61.44020
# Shear Modulus (GPa) = 25.49635 27.02469 26.26052
#
# Velocity S-wave (km/s) = 3.77155 3.88295 3.82765
# Velocity P-wave (km/s) = 7.14182 7.52460 7.33570
#
# Compressibility (1/GPa) = 0.01741317
#
# Stress axis : x y z
#
# Youngs Moduli (GPa) = 88.47844 44.08625 67.05975
#
# Poissons Ratio (x) = 0.23755 0.28806
# Poissons Ratio (y) = 0.47675 0.40626
# Poissons Ratio (z) = 0.38007 0.26708
#
# Static dielectric constant tensor:
#      x y z
#    x 4.026130 0.000000 -0.112000 
#    y 0.000000 3.394540 0.000000 
#    z -0.112000 0.000000 2.931610 
# 
# 
# High freq. dielectric constant tensor:
#      x y z
#    x 1.718610 0.000000 -0.005690 
#    y 0.000000 1.702710 0.000000 
#    z -0.005690 0.000000 1.659160 
# 
# From -- ./inp_files/365219.got.cif
#   From: 2010.06.25/outbox.cif.g09.slc.cpg/sg12_183_cif.got.tgz:365219.got - 2010.06.28 00:19:55.
