data_PCOD8087752
_publ_section_title
;
Structure prediction by ZEFSAII (Michael W. Deem and Ramdas Pophale) SiO2 
 PCOD8087752
Probable space group: C 2/M
;
_chemical_formula_sum "Si O2"
_cell_formula_units_Z 64
_cell_length_a 24.996250
_cell_length_b 8.909475
_cell_length_c 16.766413
_cell_angle_alpha 90.000000
_cell_angle_beta 76.674551
_cell_angle_gamma 90.000000
_cell_volume 3633.407933
_symmetry_space_group_name_H-M "C 2/M"
_symmetry_group_IT_number 12
_symmetry_cell_setting 'monoclinic'
loop_
_space_group_symop_operation_xyz
x,y,z
-x,y,-z
-x,-y,-z
x,-y,z
1/2+x,1/2+y,z
1/2-x,1/2+y,-z
1/2-x,1/2-y,-z
1/2+x,1/2-y,z
loop_
_atom_site_type_symbol
_atom_site_label
_atom_site_fract_x
_atom_site_fract_y
_atom_site_fract_z
Si Si1 0.927936 0.676430 0.174951
Si Si2 0.893020 0.821620 0.714663
Si Si3 0.438086 0.830164 0.548254
Si Si4 0.064807 0.168086 0.987518
Si Si5 0.712601 0.675856 0.336490
Si Si6 0.847409 0.177737 0.486728
Si Si7 0.946343 0.676945 0.848404
Si Si8 0.331869 0.176711 0.325068
O O1 0.924667 0.500000 0.160554
O O2 0.909362 0.756273 0.099728
O O3 0.884960 0.728971 0.257071
O O4 0.989323 0.723460 0.181096
O O5 0.932939 0.764163 0.631252
O O6 0.830588 0.765101 0.715388
O O7 0.911251 0.751060 0.791137
O O8 0.897685 0.000000 0.719236
O O9 0.500000 0.831105 0.500000
O O10 0.405599 0.752171 0.487409
O O11 0.416898 0.000000 0.569730
O O12 0.088425 0.000000 0.988932
O O13 0.079816 0.265021 0.060004
O O14 0.000000 0.165256 0.000000
O O15 0.705283 0.500000 0.339926
O O16 0.695693 0.732615 0.430747
O O17 0.775817 0.719792 0.296060
O O18 0.827857 0.235639 0.408563
O O19 0.854185 0.000000 0.481703
O O20 0.939590 0.500000 0.846491
O O21 0.334331 0.000000 0.341995
#
# Coordination Sequence:
#
# PCOD8087752 Si02
#       8
#     8   8   8   8   8   8   8   8
#     4   9  19  32  49  75 104 131 161 199 249 301
#     4  10  20  34  52  75 100 130 169 210 251 294
#     4  10  21  35  50  68  97 135 171 207 250 300
#     4   9  17  31  51  74 101 132 163 198 246 298
#     4   8  17  34  52  70  97 132 173 213 251 293
#     4  10  20  33  49  73 100 130 170 213 256 296
#     4  10  19  32  51  76 105 134 165 200 241 301
#     4  10  19  33  53  74  99 134 170 209 251 298
#
# _framework density 17.614318000000001
#
# number of rings (size 3 to 8) (size 9 to 14) (size 15 to 20)
#    0.000    2.500    0.000    3.000    1.750    3.500 
#    0.000    3.125    0.000    0.750    0.000    0.000 
#    0.000    0.000    0.000    0.000    0.000    0.000 
#
# Total GULP energy -396698.225971 kJ/mol
# GULP energy per Si atom -12396.819562 kJ/mol
# Density = 1.757423 g / cm^3
# Si number density = 17.614318 Si / 1000 Ang^3
#
#
#
# Elastic Constant Matrix: (Units=GPa)
#
#
# Indices 1 2 3 4 5 6 
#
# 1 87.3312 37.5628 57.2266 0.0000 10.2278 0.0000
# 2 37.5628 75.3130 41.6879 0.0000 11.0273 0.0000
# 3 57.2266 41.6879 105.3226 0.0000 22.1266 0.0000
# 4 0.0000 0.0000 0.0000 33.4658 0.0000 6.1605
# 5 10.2278 11.0273 22.1266 0.0000 24.3169 0.0000
# 6 0.0000 0.0000 0.0000 6.1605 0.0000 19.6717
#
#
#
# Elastic Compliance Matrix: (Units=1/GPa)
#
#
# Indices 1 2 3 4 5 6 
#
# 1 0.019168 -0.004950 -0.008943 0.000000 0.002320 0.000000
# 2 -0.004950 0.018357 -0.004037 0.000000 -0.002570 0.000000
# 3 -0.008943 -0.004037 0.018269 0.000000 -0.011032 0.000000
# 4 0.000000 0.000000 0.000000 0.031709 0.000000 -0.009930
# 5 0.002320 -0.002570 -0.011032 0.000000 0.051351 0.000000
# 6 0.000000 0.000000 0.000000 -0.009930 0.000000 0.053944
#
#
# Mechanical properties :
#
#
# Convention : Reuss Voigt Hill
#
# Bulk Modulus (GPa) = 50.16197 60.10238 55.13218
# Shear Modulus (GPa) = 21.24908 24.25685 22.75296
#
# Velocity S-wave (km/s) = 3.47703 3.71497 3.59797
# Velocity P-wave (km/s) = 6.68277 7.25236 6.97338
#
# Compressibility (1/GPa) = 0.01993542
#
# Stress axis : x y z
#
# Youngs Moduli (GPa) = 52.16951 54.47413 54.73656
#
# Poissons Ratio (x) = 0.26963 0.48953
# Poissons Ratio (y) = 0.25822 0.22096
# Poissons Ratio (z) = 0.46657 0.21990
#
# Static dielectric constant tensor:
#      x y z
#    x 3.351880 0.000000 0.072120 
#    y 0.000000 3.345390 0.000000 
#    z 0.072120 0.000000 3.250050 
# 
# 
# High freq. dielectric constant tensor:
#      x y z
#    x 1.667410 0.000000 0.008930 
#    y 0.000000 1.682800 0.000000 
#    z 0.008930 0.000000 1.672490 
# 
# From -- ./inp_files/244007.got.cif
#   From: 2010.06.25/outbox.cif.g09.slc.cpg/sg12_123_cif.got.tgz:244007.got - 2010.06.28 00:19:55.
