data_PCOD8087560
_publ_section_title
;
Structure prediction by ZEFSAII (Michael W. Deem and Ramdas Pophale) SiO2 
 PCOD8087560
Probable space group: C 2/M
;
_chemical_formula_sum "Si O2"
_cell_formula_units_Z 64
_cell_length_a 25.166608
_cell_length_b 8.922264
_cell_length_c 17.609130
_cell_angle_alpha 90.000000
_cell_angle_beta 77.811923
_cell_angle_gamma 90.000000
_cell_volume 3864.885040
_symmetry_space_group_name_H-M "C 2/M"
_symmetry_group_IT_number 12
_symmetry_cell_setting 'monoclinic'
loop_
_space_group_symop_operation_xyz
x,y,z
-x,y,-z
-x,-y,-z
x,-y,z
1/2+x,1/2+y,z
1/2-x,1/2+y,-z
1/2-x,1/2-y,-z
1/2+x,1/2-y,z
loop_
_atom_site_type_symbol
_atom_site_label
_atom_site_fract_x
_atom_site_fract_y
_atom_site_fract_z
Si Si1 0.430633 0.177824 0.408925
Si Si2 0.625521 0.174806 0.422125
Si Si3 0.415441 0.177233 0.156880
Si Si4 0.455008 0.824669 0.686835
Si Si5 0.845115 0.323245 0.313906
Si Si6 0.237174 0.822326 0.423319
Si Si7 0.061152 0.333784 0.011256
Si Si8 0.528184 0.676517 0.164174
O O1 0.413624 0.230904 0.498121
O O2 0.490484 0.238144 0.370138
O O3 0.387153 0.245453 0.362511
O O4 0.431829 0.000000 0.405541
O O5 0.595930 0.207281 0.351955
O O6 0.680932 0.267155 0.405548
O O7 0.639317 0.000000 0.428531
O O8 0.363441 0.224976 0.223390
O O9 0.468142 0.256471 0.175475
O O10 0.427084 0.000000 0.157886
O O11 0.403796 0.223430 0.072430
O O12 0.443894 0.736728 0.767926
O O13 0.460995 0.000000 0.703255
O O14 0.848097 0.500000 0.321174
O O15 0.784150 0.269053 0.350278
O O16 0.250000 0.750000 0.500000
O O17 0.236294 0.000000 0.433654
O O18 0.079900 0.500000 0.030932
O O19 0.066316 0.223790 0.081366
O O20 0.000000 0.338671 0.000000
O O21 0.524320 0.500000 0.167478
#
# Coordination Sequence:
#
# PCOD8087560 Si02
#       8
#     8   8   8   8   8   8   8   8
#     4   9  15  28  50  72  93 120 160 202 235 274
#     4  10  20  34  51  72  93 122 164 204 241 278
#     4   9  16  30  49  68  91 122 162 199 229 273
#     4  10  19  32  51  69  92 127 166 200 230 276
#     4   9  16  28  50  72  92 122 161 199 234 275
#     4  11  21  34  51  70  95 127 161 199 240 282
#     4   8  15  27  45  66  90 122 158 191 227 277
#     4  11  20  28  42  67 101 130 153 185 235 289
#
# _framework density 16.559353000000002
#
# number of rings (size 3 to 8) (size 9 to 14) (size 15 to 20)
#    0.000    2.375    2.500    2.625    0.000    4.250 
#    0.000    3.125    0.000    1.500    0.000    0.875 
#    0.000    0.000    0.000    0.000    0.000    0.000 
#
# Total GULP energy -396664.996951 kJ/mol
# GULP energy per Si atom -12395.781155 kJ/mol
# Density = 1.652166 g / cm^3
# Si number density = 16.559353 Si / 1000 Ang^3
#
#
#
# Elastic Constant Matrix: (Units=GPa)
#
#
# Indices 1 2 3 4 5 6 
#
# 1 86.5196 32.9220 57.9047 0.0000 -4.0370 0.0000
# 2 32.9220 57.0535 47.7961 0.0000 -1.6039 0.0000
# 3 57.9047 47.7961 154.6354 0.0000 -15.2767 0.0000
# 4 0.0000 0.0000 0.0000 13.7311 0.0000 1.3711
# 5 -4.0370 -1.6039 -15.2767 0.0000 20.7558 0.0000
# 6 0.0000 0.0000 0.0000 1.3711 0.0000 19.6674
#
#
#
# Elastic Compliance Matrix: (Units=1/GPa)
#
#
# Indices 1 2 3 4 5 6 
#
# 1 0.016812 -0.005937 -0.004511 0.000000 -0.000509 0.000000
# 2 -0.005937 0.026034 -0.006189 0.000000 -0.003698 0.000000
# 3 -0.004511 -0.006189 0.010714 0.000000 0.006530 0.000000
# 4 0.000000 0.000000 0.000000 0.073338 0.000000 -0.005113
# 5 -0.000509 -0.003698 0.006530 0.000000 0.052601 0.000000
# 6 0.000000 0.000000 0.000000 -0.005113 0.000000 0.051202
#
#
# Mechanical properties :
#
#
# Convention : Reuss Voigt Hill
#
# Bulk Modulus (GPa) = 49.29249 63.93936 56.61593
# Shear Modulus (GPa) = 18.46810 21.46990 19.96900
#
# Velocity S-wave (km/s) = 3.34318 3.60466 3.47638
# Velocity P-wave (km/s) = 6.68837 7.48471 7.09771
#
# Compressibility (1/GPa) = 0.02028706
#
# Stress axis : x y z
#
# Youngs Moduli (GPa) = 59.48037 38.41118 93.33520
#
# Poissons Ratio (x) = 0.22804 0.42102
# Poissons Ratio (y) = 0.35312 0.57767
# Poissons Ratio (z) = 0.26830 0.23773
#
# Static dielectric constant tensor:
#      x y z
#    x 2.994410 0.000000 -0.257080 
#    y 0.000000 2.860670 0.000000 
#    z -0.257080 0.000000 3.540520 
# 
# 
# High freq. dielectric constant tensor:
#      x y z
#    x 1.601490 0.000000 -0.011930 
#    y 0.000000 1.611540 0.000000 
#    z -0.011930 0.000000 1.649450 
# 
# From -- ./inp_files/287672.got.cif
#   From: 2010.06.25/outbox.cif.g09.slc.cpg/sg12_144_cif.got.tgz:287672.got - 2010.06.28 00:19:55.
