data_PCOD8087725
_publ_section_title
;
Structure prediction by ZEFSAII (Michael W. Deem and Ramdas Pophale) SiO2 
 PCOD8087725
Probable space group: C 2/M
;
_chemical_formula_sum "Si O2"
_cell_formula_units_Z 64
_cell_length_a 23.632846
_cell_length_b 9.366671
_cell_length_c 21.490678
_cell_angle_alpha 90.000000
_cell_angle_beta 133.311432
_cell_angle_gamma 90.000000
_cell_volume 3461.509509
_symmetry_space_group_name_H-M "C 2/M"
_symmetry_group_IT_number 12
_symmetry_cell_setting 'monoclinic'
loop_
_space_group_symop_operation_xyz
x,y,z
-x,y,-z
-x,-y,-z
x,-y,z
1/2+x,1/2+y,z
1/2-x,1/2+y,-z
1/2-x,1/2-y,-z
1/2+x,1/2-y,z
loop_
_atom_site_type_symbol
_atom_site_label
_atom_site_fract_x
_atom_site_fract_y
_atom_site_fract_z
Si Si1 0.554505 0.668914 0.099509
Si Si2 0.040543 0.333875 0.873122
Si Si3 0.136425 0.665906 0.434006
Si Si4 0.536805 0.167623 0.727285
Si Si5 0.324284 0.663759 0.222206
Si Si6 0.714276 0.163331 0.028457
Si Si7 0.205055 0.333871 0.234009
Si Si8 0.745386 0.165883 0.402716
O O1 0.561985 0.500000 0.114310
O O2 0.521669 0.738501 0.137852
O O3 0.639041 0.737548 0.151856
O O4 0.500000 0.707364 0.000000
O O5 0.015039 0.500000 0.857448
O O6 0.044988 0.282534 0.804929
O O7 0.123167 0.305739 0.967869
O O8 0.145110 0.500000 0.455611
O O9 0.176056 0.751181 0.520141
O O10 0.176906 0.703984 0.399066
O O11 0.047102 0.712477 0.361947
O O12 0.599797 0.241779 0.730810
O O13 0.550732 0.000000 0.733347
O O14 0.349138 0.500000 0.232073
O O15 0.256367 0.707808 0.123353
O O16 0.287784 0.691750 0.262522
O O17 0.728175 0.000000 0.021538
O O18 0.750000 0.250000 0.000000
O O19 0.180387 0.500000 0.209813
O O20 0.215954 0.284902 0.313229
O O21 0.766367 0.000000 0.418795
#
# Coordination Sequence:
#
# PCOD8087725 Si02
#       8
#     8   8   8   8   8   8   8   8
#     4  11  24  38  53  80 113 143 178 225 274 318
#     4  10  20  35  56  79 105 143 185 223 271 326
#     4   9  18  33  55  83 111 135 169 219 272 327
#     4  10  20  35  55  80 109 143 180 220 271 324
#     4  10  21  35  53  79 108 141 184 228 269 317
#     4  10  19  32  51  75 104 139 179 221 266 313
#     4  10  21  39  60  79 106 146 187 223 265 324
#     4   9  18  35  59  83 105 136 176 219 268 321
#
# _framework density 18.489044
#
# number of rings (size 3 to 8) (size 9 to 14) (size 15 to 20)
#    0.000    2.125    1.250    1.875    0.000    6.500 
#    0.000    3.125    0.000    3.750    0.000    0.000 
#    0.000    0.000    0.000    0.000    0.000    0.000 
#
# Total GULP energy -396900.285858 kJ/mol
# GULP energy per Si atom -12403.133933 kJ/mol
# Density = 1.844696 g / cm^3
# Si number density = 18.489044 Si / 1000 Ang^3
#
#
#
# Elastic Constant Matrix: (Units=GPa)
#
#
# Indices 1 2 3 4 5 6 
#
# 1 102.4649 46.9336 47.2472 0.0000 10.2474 0.0000
# 2 46.9336 59.5907 48.8302 0.0000 7.3747 0.0000
# 3 47.2472 48.8302 111.3093 0.0000 12.9743 0.0000
# 4 0.0000 0.0000 0.0000 30.1732 0.0000 4.5489
# 5 10.2474 7.3747 12.9743 0.0000 30.7732 0.0000
# 6 0.0000 0.0000 0.0000 4.5489 0.0000 33.6192
#
#
#
# Elastic Compliance Matrix: (Units=1/GPa)
#
#
# Indices 1 2 3 4 5 6 
#
# 1 0.015631 -0.010647 -0.001740 0.000000 -0.001920 0.000000
# 2 -0.010647 0.033518 -0.010161 0.000000 -0.000203 0.000000
# 3 -0.001740 -0.010161 0.014543 0.000000 -0.003117 0.000000
# 4 0.000000 0.000000 0.000000 0.033832 0.000000 -0.004578
# 5 -0.001920 -0.000203 -0.003117 0.000000 0.034498 0.000000
# 6 0.000000 0.000000 0.000000 -0.004578 0.000000 0.030364
#
#
# Mechanical properties :
#
#
# Convention : Reuss Voigt Hill
#
# Bulk Modulus (GPa) = 53.77607 62.15411 57.96509
# Shear Modulus (GPa) = 23.39923 27.60339 25.50131
#
# Velocity S-wave (km/s) = 3.56135 3.86807 3.71788
# Velocity P-wave (km/s) = 6.78671 7.32387 7.06040
#
# Compressibility (1/GPa) = 0.01859563
#
# Stress axis : x y z
#
# Youngs Moduli (GPa) = 63.97640 29.83449 68.75946
#
# Poissons Ratio (x) = 0.31766 0.11965
# Poissons Ratio (y) = 0.68118 0.69866
# Poissons Ratio (z) = 0.11133 0.30315
#
# Static dielectric constant tensor:
#      x y z
#    x 6.815220 0.000000 -2.070340 
#    y 0.000000 3.250710 0.000000 
#    z -2.070340 0.000000 4.751140 
# 
# 
# High freq. dielectric constant tensor:
#      x y z
#    x 1.716490 0.000000 0.004020 
#    y 0.000000 1.709100 0.000000 
#    z 0.004020 0.000000 1.715980 
# 
# From -- ./inp_files/324327.got.cif
#   From: 2010.06.25/outbox.cif.g09.slc.cpg/sg12_163_cif.got.tgz:324327.got - 2010.06.28 00:19:55.
