data_PCOD8087349
_publ_section_title
;
Structure prediction by ZEFSAII (Michael W. Deem and Ramdas Pophale) SiO2 
 PCOD8087349
Probable space group: C 2/M
;
_chemical_formula_sum "Si O2"
_cell_formula_units_Z 48
_cell_length_a 20.648800
_cell_length_b 8.700390
_cell_length_c 19.336277
_cell_angle_alpha 90.000000
_cell_angle_beta 130.703522
_cell_angle_gamma 90.000000
_cell_volume 2633.477425
_symmetry_space_group_name_H-M "C 2/M"
_symmetry_group_IT_number 12
_symmetry_cell_setting 'monoclinic'
loop_
_space_group_symop_operation_xyz
x,y,z
-x,y,-z
-x,-y,-z
x,-y,z
1/2+x,1/2+y,z
1/2-x,1/2+y,-z
1/2-x,1/2-y,-z
1/2+x,1/2-y,z
loop_
_atom_site_type_symbol
_atom_site_label
_atom_site_fract_x
_atom_site_fract_y
_atom_site_fract_z
Si Si1 0.857990 0.825086 0.253073
Si Si2 0.523919 0.317361 0.441967
Si Si3 0.402287 0.816526 0.932878
Si Si4 0.766907 0.819899 0.937433
Si Si5 0.212369 0.816427 0.543014
Si Si6 0.218283 0.325963 0.267808
O O1 0.815483 0.715285 0.167014
O O2 0.808118 0.816395 0.290828
O O3 0.954053 0.767668 0.335671
O O4 0.855834 0.000000 0.223257
O O5 0.500000 0.246391 0.500000
O O6 0.524318 0.500000 0.448196
O O7 0.615671 0.254954 0.482013
O O8 0.353444 0.751411 0.965674
O O9 0.356549 0.749881 0.831314
O O10 0.394623 0.000000 0.930763
O O11 0.500000 0.760469 0.000000
O O12 0.779836 0.000000 0.952996
O O13 0.750000 0.750000 0.000000
O O14 0.250000 0.750000 0.500000
O O15 0.267851 0.750824 0.646801
O O16 0.214082 0.000000 0.543552
O O17 0.190209 0.500000 0.260516
#
# Coordination Sequence:
#
# PCOD8087349 Si02
#       6
#     8   8   8   8   8   8
#     4   9  16  31  56  81 101 129 177 225 264 307
#     4   9  15  28  55  81  98 129 179 222 251 301
#     4   9  18  35  59  83 106 137 178 220 267 324
#     4  11  22  37  56  79 110 142 176 220 272 321
#     4  10  19  32  49  73 106 139 172 210 258 308
#     4   8  14  28  52  75  98 134 173 209 251 306
#
# _framework density 18.226851
#
# number of rings (size 3 to 8) (size 9 to 14) (size 15 to 20)
#    0.000    2.667    1.667    2.500    0.000    0.333 
#    3.000    4.167    0.000    1.000    0.000    0.000 
#    0.000    0.000    0.000    0.000    0.000    0.000 
#
# Total GULP energy -297462.074631 kJ/mol
# GULP energy per Si atom -12394.253110 kJ/mol
# Density = 1.818537 g / cm^3
# Si number density = 18.226851 Si / 1000 Ang^3
#
#
#
# Elastic Constant Matrix: (Units=GPa)
#
#
# Indices 1 2 3 4 5 6 
#
# 1 141.8017 27.9780 94.4770 0.0000 4.9470 0.0000
# 2 27.9780 39.9604 28.4095 0.0000 -1.4672 0.0000
# 3 94.4770 28.4095 139.4097 0.0000 2.8090 0.0000
# 4 0.0000 0.0000 0.0000 20.5788 0.0000 -5.4675
# 5 4.9470 -1.4672 2.8090 0.0000 37.3855 0.0000
# 6 0.0000 0.0000 0.0000 -5.4675 0.0000 23.4393
#
#
#
# Elastic Compliance Matrix: (Units=1/GPa)
#
#
# Indices 1 2 3 4 5 6 
#
# 1 0.013297 -0.003471 -0.008278 0.000000 -0.001274 0.000000
# 2 -0.003471 0.030266 -0.003854 0.000000 0.001937 0.000000
# 3 -0.008278 -0.003854 0.013570 0.000000 -0.000075 0.000000
# 4 0.000000 0.000000 0.000000 0.051804 0.000000 0.012084
# 5 -0.001274 0.001937 -0.000075 0.000000 0.026999 0.000000
# 6 0.000000 0.000000 0.000000 0.012084 0.000000 0.045482
#
#
# Mechanical properties :
#
#
# Convention : Reuss Voigt Hill
#
# Bulk Modulus (GPa) = 38.57149 69.21123 53.89136
# Shear Modulus (GPa) = 22.59705 27.63455 25.11580
#
# Velocity S-wave (km/s) = 3.52485 3.89800 3.71611
# Velocity P-wave (km/s) = 6.14605 7.63634 6.93137
#
# Compressibility (1/GPa) = 0.02592588
#
# Stress axis : x y z
#
# Youngs Moduli (GPa) = 75.20607 33.03985 73.69129
#
# Poissons Ratio (x) = 0.11469 0.61002
# Poissons Ratio (y) = 0.26105 0.28404
# Poissons Ratio (z) = 0.62256 0.12735
#
# Static dielectric constant tensor:
#      x y z
#    x 3.349910 0.000000 0.108360 
#    y 0.000000 2.956880 0.000000 
#    z 0.108360 0.000000 3.693160 
# 
# 
# High freq. dielectric constant tensor:
#      x y z
#    x 1.693840 0.000000 0.005640 
#    y 0.000000 1.662920 0.000000 
#    z 0.005640 0.000000 1.722090 
# 
# From -- ./inp_files/274627.got.cif
#   From: 2010.06.25/outbox.cif.g09.slc.cpg/sg12_138_cif.got.tgz:274627.got - 2010.06.28 00:19:55.
