data_PCOD8087275
_publ_section_title
;
Structure prediction by ZEFSAII (Michael W. Deem and Ramdas Pophale) SiO2 
 PCOD8087275
Probable space group: C 2/M
;
_chemical_formula_sum "Si O2"
_cell_formula_units_Z 64
_cell_length_a 27.514742
_cell_length_b 9.222064
_cell_length_c 30.960159
_cell_angle_alpha 90.000000
_cell_angle_beta 151.085329
_cell_angle_gamma 90.000000
_cell_volume 3798.386106
_symmetry_space_group_name_H-M "C 2/M"
_symmetry_group_IT_number 12
_symmetry_cell_setting 'monoclinic'
loop_
_space_group_symop_operation_xyz
x,y,z
-x,y,-z
-x,-y,-z
x,-y,z
1/2+x,1/2+y,z
1/2-x,1/2+y,-z
1/2-x,1/2-y,-z
1/2+x,1/2-y,z
loop_
_atom_site_type_symbol
_atom_site_label
_atom_site_fract_x
_atom_site_fract_y
_atom_site_fract_z
Si Si1 0.432727 0.163507 0.246787
Si Si2 0.463447 0.668014 0.796152
Si Si3 0.876673 0.336024 0.651596
Si Si4 0.051314 0.829154 0.659756
Si Si5 0.257845 0.335064 0.668444
Si Si6 0.352807 0.170610 0.089618
Si Si7 0.170965 0.165295 0.521567
Si Si8 0.411663 0.167200 0.398444
O O1 0.554774 0.181031 0.337617
O O2 0.392093 0.264798 0.253941
O O3 0.383307 0.207208 0.162617
O O4 0.403005 0.000000 0.235742
O O5 0.496090 0.500000 0.820588
O O6 0.408371 0.710648 0.709103
O O7 0.378312 0.698390 0.767060
O O8 0.563402 0.766044 0.878524
O O9 0.897032 0.500000 0.686463
O O10 0.756335 0.316869 0.550338
O O11 0.092095 0.763888 0.647154
O O12 0.936406 0.775793 0.577035
O O13 0.068141 0.000000 0.672248
O O14 0.245146 0.500000 0.642878
O O15 0.205235 0.238646 0.591964
O O16 0.198959 0.310068 0.667273
O O17 0.342160 0.000000 0.073289
O O18 0.250000 0.250000 0.000000
O O19 0.154806 0.000000 0.521757
O O20 0.500000 0.218502 0.500000
O O21 0.430887 0.000000 0.400788
#
# Coordination Sequence:
#
# PCOD8087275 Si02
#       8
#     8   8   8   8   8   8   8   8
#     4   9  19  34  49  66  93 127 159 192 233 287
#     4   9  16  27  46  73 101 124 154 196 239 285
#     4   8  15  29  45  61  87 125 164 198 236 282
#     4  11  22  31  43  66  95 127 166 209 250 287
#     4   9  17  29  46  68  92 125 168 209 245 283
#     4  10  20  35  56  80 103 127 155 187 233 291
#     4   9  17  28  42  62  90 124 162 205 247 282
#     4  10  19  32  49  66  90 128 174 217 252 286
#
# _framework density 16.849260999999998
#
# number of rings (size 3 to 8) (size 9 to 14) (size 15 to 20)
#    0.000    2.625    1.250    1.875    0.000    4.750 
#    0.000    0.000    0.000    0.000    0.000    0.875 
#    0.000    7.000    0.000    0.000    0.000    0.000 
#
# Total GULP energy -396431.556074 kJ/mol
# GULP energy per Si atom -12388.486127 kJ/mol
# Density = 1.681091 g / cm^3
# Si number density = 16.849261 Si / 1000 Ang^3
#
#
#
# Elastic Constant Matrix: (Units=GPa)
#
#
# Indices 1 2 3 4 5 6 
#
# 1 100.7837 49.0643 46.5977 -0.0001 7.1183 -0.0003
# 2 49.0643 62.9762 30.7213 0.0006 5.7874 -0.0004
# 3 46.5977 30.7213 52.7783 -0.0005 12.8528 -0.0002
# 4 -0.0001 0.0006 -0.0005 21.2233 -0.0001 1.4571
# 5 7.1183 5.7874 12.8528 -0.0001 23.4912 0.0000
# 6 -0.0003 -0.0004 -0.0002 1.4571 0.0000 27.0953
#
#
#
# Elastic Compliance Matrix: (Units=1/GPa)
#
#
# Indices 1 2 3 4 5 6 
#
# 1 0.020663 -0.009923 -0.013311 0.000000 0.003466 0.000000
# 2 -0.009923 0.027011 -0.007007 -0.000001 0.000186 0.000000
# 3 -0.013311 -0.007007 0.038506 0.000001 -0.015308 0.000000
# 4 0.000000 -0.000001 0.000001 0.047293 0.000000 -0.002543
# 5 0.003466 0.000186 -0.015308 0.000000 0.049848 0.000000
# 6 0.000000 0.000000 0.000000 -0.002543 0.000000 0.037044
#
#
# Mechanical properties :
#
#
# Convention : Reuss Voigt Hill
#
# Bulk Modulus (GPa) = 38.91425 52.14499 45.52962
# Shear Modulus (GPa) = 17.27638 20.37228 18.82433
#
# Velocity S-wave (km/s) = 3.20558 3.48097 3.34611
# Velocity P-wave (km/s) = 6.07015 6.86814 6.48143
#
# Compressibility (1/GPa) = 0.02569753
#
# Stress axis : x y z
#
# Youngs Moduli (GPa) = 48.39629 37.02166 25.97010
#
# Poissons Ratio (x) = 0.36738 0.34569
# Poissons Ratio (y) = 0.48025 0.18197
# Poissons Ratio (z) = 0.64420 0.25940
#
# Static dielectric constant tensor:
#      x y z
#    x 3.300850 0.000000 0.335020 
#    y 0.000000 3.233190 0.000000 
#    z 0.335020 0.000000 2.874680 
# 
# 
# High freq. dielectric constant tensor:
#      x y z
#    x 1.644690 0.000000 0.021380 
#    y 0.000000 1.659790 0.000000 
#    z 0.021380 0.000000 1.602340 
# 
# From -- ./inp_files/384605.got.cif
#   From: 2010.06.25/outbox.cif.g09.slc.cpg/sg12_193_cif.got.tgz:384605.got - 2010.06.28 00:19:55.
