data_PCOD8087520
_publ_section_title
;
Structure prediction by ZEFSAII (Michael W. Deem and Ramdas Pophale) SiO2 
 PCOD8087520
Probable space group: C 2/M
;
_chemical_formula_sum "Si O2"
_cell_formula_units_Z 64
_cell_length_a 22.818865
_cell_length_b 8.909135
_cell_length_c 21.618293
_cell_angle_alpha 90.000000
_cell_angle_beta 53.972342
_cell_angle_gamma 90.000000
_cell_volume 3554.317579
_symmetry_space_group_name_H-M "C 2/M"
_symmetry_group_IT_number 12
_symmetry_cell_setting 'monoclinic'
loop_
_space_group_symop_operation_xyz
x,y,z
-x,y,-z
-x,-y,-z
x,-y,z
1/2+x,1/2+y,z
1/2-x,1/2+y,-z
1/2-x,1/2-y,-z
1/2+x,1/2-y,z
loop_
_atom_site_type_symbol
_atom_site_label
_atom_site_fract_x
_atom_site_fract_y
_atom_site_fract_z
Si Si1 0.779876 0.326570 0.647465
Si Si2 0.797098 0.677669 0.416717
Si Si3 0.265947 0.827768 0.796759
Si Si4 0.200405 0.331668 0.945658
Si Si5 0.563648 0.327829 0.626090
Si Si6 0.418739 0.823370 0.756610
Si Si7 0.641907 0.330755 0.092379
Si Si8 0.921843 0.171607 0.526849
O O1 0.773947 0.500000 0.631005
O O2 0.734050 0.222763 0.630391
O O3 0.749106 0.301562 0.735318
O O4 0.863678 0.278485 0.595289
O O5 0.794101 0.500000 0.426054
O O6 0.750000 0.750000 0.500000
O O7 0.879462 0.734781 0.368366
O O8 0.206830 0.736036 0.872846
O O9 0.347724 0.776520 0.761853
O O10 0.257471 0.000000 0.821516
O O11 0.170757 0.500000 0.958815
O O12 0.278365 0.326583 0.928924
O O13 0.143606 0.237964 0.022306
O O14 0.563483 0.500000 0.648267
O O15 0.484514 0.259543 0.682738
O O16 0.587647 0.314989 0.540417
O O17 0.411459 0.767486 0.831866
O O18 0.432832 0.000000 0.747600
O O19 0.612047 0.500000 0.107268
O O20 0.000000 0.230109 0.500000
O O21 0.910191 0.000000 0.556009
#
# Coordination Sequence:
#
# PCOD8087520 Si02
#       8
#     8   8   8   8   8   8   8   8
#     4  11  22  36  55  77 102 135 174 216 262 310
#     4  12  24  40  59  77  98 129 172 222 267 310
#     4   9  19  33  49  74 108 142 173 210 257 309
#     4   9  16  26  44  70 100 137 176 212 252 302
#     4  11  22  36  54  76 103 135 172 214 261 310
#     4  10  19  32  50  75 108 141 174 213 256 307
#     4   9  16  27  44  68 101 139 175 211 253 304
#     4  10  21  35  52  75 104 137 171 209 255 310
#
# _framework density 18.006270000000001
#
# number of rings (size 3 to 8) (size 9 to 14) (size 15 to 20)
#    0.000    1.875    1.250    3.750    0.000    5.250 
#    0.000    0.000    0.000    0.000    0.000    0.875 
#    0.000    7.000    0.000    0.000    0.000    0.000 
#
# Total GULP energy -396901.338384 kJ/mol
# GULP energy per Si atom -12403.166824 kJ/mol
# Density = 1.796529 g / cm^3
# Si number density = 18.006270 Si / 1000 Ang^3
#
#
#
# Elastic Constant Matrix: (Units=GPa)
#
#
# Indices 1 2 3 4 5 6 
#
# 1 59.0825 23.1139 4.5004 -0.0005 11.9624 0.0013
# 2 23.1139 114.6367 34.4383 -0.0006 11.2300 0.0020
# 3 4.5004 34.4383 64.1010 -0.0003 19.4404 0.0003
# 4 -0.0005 -0.0006 -0.0003 34.5348 0.0004 -0.8830
# 5 11.9624 11.2300 19.4404 0.0004 16.1957 -0.0007
# 6 0.0013 0.0020 0.0003 -0.8830 -0.0007 25.0268
#
#
#
# Elastic Compliance Matrix: (Units=1/GPa)
#
#
# Indices 1 2 3 4 5 6 
#
# 1 0.022859 -0.004732 0.007961 0.000001 -0.023159 -0.000002
# 2 -0.004732 0.011388 -0.006999 0.000000 0.004000 0.000000
# 3 0.007961 -0.006999 0.030054 0.000001 -0.037102 -0.000001
# 4 0.000001 0.000000 0.000001 0.028982 -0.000002 0.001023
# 5 -0.023159 0.004000 -0.037102 -0.000002 0.120613 0.000005
# 6 -0.000002 0.000000 -0.000001 0.001023 0.000005 0.039993
#
#
# Mechanical properties :
#
#
# Convention : Reuss Voigt Hill
#
# Bulk Modulus (GPa) = 17.61767 40.21395 28.91581
# Shear Modulus (GPa) = 17.83480 26.86927 22.35204
#
# Velocity S-wave (km/s) = 3.15060 3.86711 3.52710
# Velocity P-wave (km/s) = 4.80005 6.50548 5.71672
#
# Compressibility (1/GPa) = 0.05676119
#
# Stress axis : x y z
#
# Youngs Moduli (GPa) = 43.74591 87.81100 33.27329
#
# Poissons Ratio (x) = 0.41552 -0.26489
# Poissons Ratio (y) = 0.20700 0.23289
# Poissons Ratio (z) = -0.34826 0.61461
#
# Static dielectric constant tensor:
#      x y z
#    x 3.062970 0.000000 0.091270 
#    y 0.000000 3.472290 0.000000 
#    z 0.091270 0.000000 3.354660 
# 
# 
# High freq. dielectric constant tensor:
#      x y z
#    x 1.656410 0.000000 0.011850 
#    y 0.000000 1.711600 0.000000 
#    z 0.011850 0.000000 1.698310 
# 
# From -- ./inp_files/324125.got.cif
#   From: 2010.06.25/outbox.cif.g09.slc.cpg/sg12_163_cif.got.tgz:324125.got - 2010.06.28 00:19:55.
