data_PCOD8087737
_publ_section_title
;
Structure prediction by ZEFSAII (Michael W. Deem and Ramdas Pophale) SiO2 
 PCOD8087737
Probable space group: C 2/M
;
_chemical_formula_sum "Si O2"
_cell_formula_units_Z 64
_cell_length_a 20.356715
_cell_length_b 19.491552
_cell_length_c 22.364409
_cell_angle_alpha 90.000000
_cell_angle_beta 25.504491
_cell_angle_gamma 90.000000
_cell_volume 3820.913933
_symmetry_space_group_name_H-M "C 2/M"
_symmetry_group_IT_number 12
_symmetry_cell_setting 'monoclinic'
loop_
_space_group_symop_operation_xyz
x,y,z
-x,y,-z
-x,-y,-z
x,-y,z
1/2+x,1/2+y,z
1/2-x,1/2+y,-z
1/2-x,1/2-y,-z
1/2+x,1/2-y,z
loop_
_atom_site_type_symbol
_atom_site_label
_atom_site_fract_x
_atom_site_fract_y
_atom_site_fract_z
Si Si1 0.386152 0.923799 0.866259
Si Si2 0.810305 0.424166 0.315514
Si Si3 0.439817 0.285030 0.644109
Si Si4 0.449530 0.423762 0.823025
Si Si5 0.022308 0.923663 0.628306
Si Si6 0.762007 0.786463 0.674710
Si Si7 0.138717 0.285945 0.170352
Si Si8 0.474113 0.283198 0.853870
O O1 0.520810 0.906768 0.801215
O O2 0.383138 0.868200 0.815651
O O3 0.404843 0.000000 0.822672
O O4 0.233643 0.918264 0.031281
O O5 0.801684 0.500000 0.293355
O O6 0.698860 0.419471 0.464196
O O7 0.764225 0.368589 0.303919
O O8 0.425969 0.365518 0.672970
O O9 0.308945 0.267275 0.703510
O O10 0.604812 0.267532 0.481225
O O11 0.419375 0.236645 0.717616
O O12 0.497282 0.500000 0.807027
O O13 0.519337 0.409205 0.701027
O O14 0.507166 0.364937 0.820950
O O15 0.955545 0.000000 0.668713
O O16 0.610003 0.746853 0.781477
O O17 0.035922 0.249582 0.203993
O O18 0.316403 0.266554 0.017346
#
# Coordination Sequence:
#
# PCOD8087737 Si02
#       8
#     8   8   8   8   8   8   8   8
#     4   9  17  30  49  72  98 125 155 196 242 286
#     4   9  17  29  46  69  97 129 163 195 230 278
#     4  10  21  34  48  70 100 133 166 199 239 286
#     4   9  17  30  49  72  98 125 155 196 242 286
#     4   9  17  29  46  69  97 129 163 195 230 278
#     4  10  21  34  48  70 100 133 166 199 239 286
#     4  10  19  32  51  75  98 124 162 203 243 287
#     4  10  19  32  51  75  98 124 162 203 243 287
#
# _framework density 16.749918999999998
#
# number of rings (size 3 to 8) (size 9 to 14) (size 15 to 20)
#    0.000    2.500    2.500    0.000    0.000    2.500 
#    0.000    2.500    0.000    0.750    0.000   10.500 
#    0.000    0.000    0.000    0.000    0.000    0.000 
#
# Total GULP energy -396675.105966 kJ/mol
# GULP energy per Si atom -12396.097061 kJ/mol
# Density = 1.671180 g / cm^3
# Si number density = 16.749919 Si / 1000 Ang^3
#
#
#
# Elastic Constant Matrix: (Units=GPa)
#
#
# Indices 1 2 3 4 5 6 
#
# 1 50.9789 23.1944 10.7714 0.0062 -11.3799 -0.0063
# 2 23.1944 80.1162 14.5219 -0.0051 -6.2079 -0.0001
# 3 10.7714 14.5219 27.3257 -0.0384 -9.4702 0.0092
# 4 0.0062 -0.0051 -0.0384 24.8050 0.0224 -0.7257
# 5 -11.3799 -6.2079 -9.4702 0.0224 24.8542 -0.0119
# 6 -0.0063 -0.0001 0.0092 -0.7257 -0.0119 20.9185
#
#
#
# Elastic Compliance Matrix: (Units=1/GPa)
#
#
# Indices 1 2 3 4 5 6 
#
# 1 0.024999 -0.005894 -0.003762 -0.000021 0.008541 0.000013
# 2 -0.005894 0.015214 -0.006199 -0.000004 -0.001260 0.000000
# 3 -0.003762 -0.006199 0.046362 0.000058 0.014394 -0.000011
# 4 -0.000021 -0.000004 0.000058 0.040356 -0.000024 0.001400
# 5 0.008541 -0.001260 0.014394 -0.000024 0.049315 0.000024
# 6 0.000013 0.000000 -0.000011 0.001400 0.000024 0.047853
#
#
# Mechanical properties :
#
#
# Convention : Reuss Voigt Hill
#
# Bulk Modulus (GPa) = 18.22660 28.37734 23.30197
# Shear Modulus (GPa) = 18.24176 21.44441 19.84308
#
# Velocity S-wave (km/s) = 3.30368 3.58197 3.44563
# Velocity P-wave (km/s) = 5.04556 5.83831 5.45635
#
# Compressibility (1/GPa) = 0.05486488
#
# Stress axis : x y z
#
# Youngs Moduli (GPa) = 40.00175 65.72836 21.56958
#
# Poissons Ratio (x) = 0.38738 0.08115
# Poissons Ratio (y) = 0.23576 0.13371
# Poissons Ratio (z) = 0.15049 0.40745
#
# Static dielectric constant tensor:
#      x y z
#    x 2.764320 -0.000010 -0.023000 
#    y -0.000010 3.456930 0.000050 
#    z -0.023000 0.000050 3.164880 
# 
# 
# High freq. dielectric constant tensor:
#      x y z
#    x 1.602710 0.000000 -0.002940 
#    y 0.000000 1.658100 0.000000 
#    z -0.002940 0.000000 1.647410 
# 
# From -- ./inp_files/89181.got.cif
#   From: 2010.06.25/outbox.cif.g09.slc.cpg/sg12_45_cif.got.tgz:89181.got - 2010.06.28 00:19:55.
