data_PCOD8087528
_publ_section_title
;
Structure prediction by ZEFSAII (Michael W. Deem and Ramdas Pophale) SiO2 
 PCOD8087528
Probable space group: C 2/M
;
_chemical_formula_sum "Si O2"
_cell_formula_units_Z 64
_cell_length_a 15.482396
_cell_length_b 8.977886
_cell_length_c 25.377088
_cell_angle_alpha 90.000000
_cell_angle_beta 71.897909
_cell_angle_gamma 90.000000
_cell_volume 3352.804046
_symmetry_space_group_name_H-M "C 2/M"
_symmetry_group_IT_number 12
_symmetry_cell_setting 'monoclinic'
loop_
_space_group_symop_operation_xyz
x,y,z
-x,y,-z
-x,-y,-z
x,-y,z
1/2+x,1/2+y,z
1/2-x,1/2+y,-z
1/2-x,1/2-y,-z
1/2+x,1/2-y,z
loop_
_atom_site_type_symbol
_atom_site_label
_atom_site_fract_x
_atom_site_fract_y
_atom_site_fract_z
Si Si1 0.997991 0.177379 0.757889
Si Si2 0.942020 0.176509 0.366701
Si Si3 0.799616 0.176571 0.826888
Si Si4 0.372809 0.322808 0.173890
Si Si5 0.998228 0.175003 0.058513
Si Si6 0.804924 0.826850 0.943784
Si Si7 0.565790 0.325144 0.439006
Si Si8 0.253948 0.822607 0.556276
O O1 0.027501 0.241291 0.695531
O O2 0.068583 0.236250 0.788079
O O3 0.897970 0.237066 0.791034
O O4 0.997784 0.000000 0.758032
O O5 0.838737 0.227450 0.397070
O O6 0.013101 0.234378 0.397227
O O7 0.945985 0.000000 0.366291
O O8 0.726679 0.251967 0.802209
O O9 0.776188 0.226777 0.891143
O O10 0.795405 0.000000 0.822042
O O11 0.366284 0.500000 0.175967
O O12 0.417384 0.263965 0.110669
O O13 0.089966 0.214250 0.071258
O O14 0.985109 0.000000 0.054272
O O15 0.000000 0.250253 0.000000
O O16 0.788121 0.000000 0.954189
O O17 0.750000 0.750000 0.000000
O O18 0.500000 0.289973 0.500000
O O19 0.588430 0.500000 0.431630
O O20 0.660266 0.236922 0.426853
O O21 0.250000 0.750000 0.500000
O O22 0.260552 0.000000 0.549384
#
# Coordination Sequence:
#
# PCOD8087528 Si02
#       8
#     8   8   8   8   8   8   8   8
#     4   9  18  36  58  78 105 146 188 218 260 325
#     4   9  19  35  56  80 110 147 183 221 269 325
#     4  10  20  35  55  79 108 139 175 222 273 319
#     4  10  19  34  57  80 102 139 184 221 261 316
#     4   9  16  28  48  73 100 131 172 214 253 309
#     4  10  19  32  50  76 106 136 172 217 266 319
#     4  10  19  35  56  81 113 149 185 222 271 328
#     4  11  21  35  56  84 114 147 185 227 275 322
#
# _framework density 19.0885
#
# number of rings (size 3 to 8) (size 9 to 14) (size 15 to 20)
#    0.000    2.250    2.500    1.125    0.000    2.750 
#    0.000    1.250    0.000    5.250    0.000    0.000 
#    0.000    0.000    0.000    0.000    0.000    0.000 
#
# Total GULP energy -396732.740308 kJ/mol
# GULP energy per Si atom -12397.898135 kJ/mol
# Density = 1.904505 g / cm^3
# Si number density = 19.088500 Si / 1000 Ang^3
#
#
#
# Elastic Constant Matrix: (Units=GPa)
#
#
# Indices 1 2 3 4 5 6 
#
# 1 160.4170 39.2707 106.4532 0.0000 4.9260 0.0000
# 2 39.2707 31.0262 29.2811 0.0000 -3.7078 0.0000
# 3 106.4532 29.2811 136.8446 0.0000 0.0217 0.0000
# 4 0.0000 0.0000 0.0000 13.1212 0.0000 -0.3727
# 5 4.9260 -3.7078 0.0217 0.0000 32.1563 0.0000
# 6 0.0000 0.0000 0.0000 -0.3727 0.0000 31.5522
#
#
#
# Elastic Compliance Matrix: (Units=1/GPa)
#
#
# Indices 1 2 3 4 5 6 
#
# 1 0.015409 -0.010803 -0.009675 0.000000 -0.003600 0.000000
# 2 -0.010803 0.048672 -0.002012 0.000000 0.007269 0.000000
# 3 -0.009675 -0.002012 0.015264 0.000000 0.001240 0.000000
# 4 0.000000 0.000000 0.000000 0.076238 0.000000 0.000901
# 5 -0.003600 0.007269 0.001240 0.000000 0.032487 0.000000
# 6 0.000000 0.000000 0.000000 0.000901 0.000000 0.031704
#
#
# Mechanical properties :
#
#
# Convention : Reuss Voigt Hill
#
# Bulk Modulus (GPa) = 29.09881 75.36642 52.23262
# Shear Modulus (GPa) = 18.10223 25.58480 21.84352
#
# Velocity S-wave (km/s) = 3.08284 3.66502 3.38646
# Velocity P-wave (km/s) = 5.28669 7.58143 6.53557
#
# Compressibility (1/GPa) = 0.03436566
#
# Stress axis : x y z
#
# Youngs Moduli (GPa) = 64.89599 20.54566 65.51371
#
# Poissons Ratio (x) = 0.22196 0.63384
# Poissons Ratio (y) = 0.70110 0.13178
# Poissons Ratio (z) = 0.62786 0.04133
#
# Static dielectric constant tensor:
#      x y z
#    x 3.746390 0.000000 0.037940 
#    y 0.000000 3.062430 0.000000 
#    z 0.037940 0.000000 3.726690 
# 
# 
# High freq. dielectric constant tensor:
#      x y z
#    x 1.759260 0.000000 0.001430 
#    y 0.000000 1.693810 0.000000 
#    z 0.001430 0.000000 1.747300 
# 
# From -- ./inp_files/359712.got.cif
#   From: 2010.06.25/outbox.cif.g09.slc.cpg/sg12_180_cif.got.tgz:359712.got - 2010.06.28 00:19:55.
