data_PCOD8087390
_publ_section_title
;
Structure prediction by ZEFSAII (Michael W. Deem and Ramdas Pophale) SiO2 
 PCOD8087390
Probable space group: C 2/M
;
_chemical_formula_sum "Si O2"
_cell_formula_units_Z 64
_cell_length_a 28.018834
_cell_length_b 9.669004
_cell_length_c 12.911647
_cell_angle_alpha 90.000000
_cell_angle_beta 85.811029
_cell_angle_gamma 90.000000
_cell_volume 3488.604178
_symmetry_space_group_name_H-M "C 2/M"
_symmetry_group_IT_number 12
_symmetry_cell_setting 'monoclinic'
loop_
_space_group_symop_operation_xyz
x,y,z
-x,y,-z
-x,-y,-z
x,-y,z
1/2+x,1/2+y,z
1/2-x,1/2+y,-z
1/2-x,1/2-y,-z
1/2+x,1/2-y,z
loop_
_atom_site_type_symbol
_atom_site_label
_atom_site_fract_x
_atom_site_fract_y
_atom_site_fract_z
Si Si1 0.052010 0.334438 0.536767
Si Si2 0.913798 0.157314 0.279988
Si Si3 0.371388 0.152207 0.634780
Si Si4 0.926837 0.649928 0.838132
Si Si5 0.680345 0.338366 0.819067
Si Si6 0.995791 0.156383 0.115059
Si Si7 0.665286 0.161857 0.025692
Si Si8 0.713227 0.837256 0.226910
O O1 0.053959 0.500000 0.549624
O O2 0.061405 0.261778 0.644596
O O3 0.094696 0.274678 0.455931
O O4 0.000000 0.291306 0.500000
O O5 0.859581 0.201256 0.260088
O O6 0.942351 0.167049 0.167244
O O7 0.915705 0.000000 0.323192
O O8 0.400682 0.140778 0.734452
O O9 0.320852 0.227162 0.675455
O O10 0.360313 0.000000 0.591636
O O11 0.949531 0.500000 0.859823
O O12 0.968515 0.760334 0.817362
O O13 0.889629 0.690095 0.934373
O O14 0.676437 0.500000 0.849762
O O15 0.731531 0.304180 0.758201
O O16 0.676219 0.249803 0.922907
O O17 0.014461 0.000000 0.109626
O O18 0.000000 0.221807 0.000000
O O19 0.699288 0.216177 0.114085
O O20 0.674387 0.000000 0.000707
O O21 0.701843 0.000000 0.228842
#
# Coordination Sequence:
#
# PCOD8087390 Si02
#       8
#     8   8   8   8   8   8   8   8
#     4  10  20  35  57  79  96 122 162 205 248 296
#     4  10  22  36  49  71 102 132 162 200 245 290
#     4   8  15  30  51  74  97 119 153 203 249 286
#     4   9  17  30  49  72  96 122 156 199 243 288
#     4  10  19  32  50  70  97 136 173 199 233 290
#     4  10  20  33  47  65  95 132 163 192 231 281
#     4   9  17  29  48  76 105 130 160 203 249 284
#     4   8  15  29  50  74  99 130 166 202 242 287
#
# _framework density 18.345445000000002
#
# number of rings (size 3 to 8) (size 9 to 14) (size 15 to 20)
#    0.000    2.750    0.000    3.375    0.000    4.000 
#    0.000    1.250    0.000    2.250    0.000    0.000 
#    0.000    0.000    0.000    0.000    0.000    0.000 
#
# Total GULP energy -396519.678703 kJ/mol
# GULP energy per Si atom -12391.239959 kJ/mol
# Density = 1.830369 g / cm^3
# Si number density = 18.345445 Si / 1000 Ang^3
#
#
#
# Elastic Constant Matrix: (Units=GPa)
#
#
# Indices 1 2 3 4 5 6 
#
# 1 128.6041 38.6217 48.0991 0.0000 0.9301 0.0000
# 2 38.6217 41.9773 25.7411 0.0000 0.7180 0.0000
# 3 48.0991 25.7411 84.6679 0.0000 -11.4649 0.0000
# 4 0.0000 0.0000 0.0000 23.1540 0.0000 2.7721
# 5 0.9301 0.7180 -11.4649 0.0000 25.6670 0.0000
# 6 0.0000 0.0000 0.0000 2.7721 0.0000 15.0149
#
#
#
# Elastic Compliance Matrix: (Units=1/GPa)
#
#
# Indices 1 2 3 4 5 6 
#
# 1 0.011967 -0.008129 -0.004635 0.000000 -0.002277 0.000000
# 2 -0.008129 0.035446 -0.006655 0.000000 -0.003670 0.000000
# 3 -0.004635 -0.006655 0.017579 0.000000 0.008206 0.000000
# 4 0.000000 0.000000 0.000000 0.044165 0.000000 -0.008154
# 5 -0.002277 -0.003670 0.008206 0.000000 0.042811 0.000000
# 6 0.000000 0.000000 0.000000 -0.008154 0.000000 0.068106
#
#
# Mechanical properties :
#
#
# Convention : Reuss Voigt Hill
#
# Bulk Modulus (GPa) = 38.23766 53.35259 45.79512
# Shear Modulus (GPa) = 18.68248 22.28634 20.48441
#
# Velocity S-wave (km/s) = 3.19466 3.48920 3.34517
# Velocity P-wave (km/s) = 5.87334 6.73632 6.31958
#
# Compressibility (1/GPa) = 0.02615223
#
# Stress axis : x y z
#
# Youngs Moduli (GPa) = 83.56142 28.21227 56.88725
#
# Poissons Ratio (x) = 0.22934 0.26369
# Poissons Ratio (y) = 0.67929 0.37859
# Poissons Ratio (z) = 0.38733 0.18775
#
# Static dielectric constant tensor:
#      x y z
#    x 3.780290 0.000000 -0.326180 
#    y 0.000000 3.160520 0.000000 
#    z -0.326180 0.000000 3.270780 
# 
# 
# High freq. dielectric constant tensor:
#      x y z
#    x 1.722430 0.000000 -0.015630 
#    y 0.000000 1.678810 0.000000 
#    z -0.015630 0.000000 1.695280 
# 
# From -- ./inp_files/187569.got.cif
#   From: 2010.06.25/outbox.cif.g09.slc.cpg/sg12_94_cif.got.tgz:187569.got - 2010.06.28 00:19:55.
