data_PCOD8087858
_publ_section_title
;
Structure prediction by ZEFSAII (Michael W. Deem and Ramdas Pophale) SiO2 
 PCOD8087858
Probable space group: C 2/M
;
_chemical_formula_sum "Si O2"
_cell_formula_units_Z 56
_cell_length_a 30.180978
_cell_length_b 9.206163
_cell_length_c 12.046038
_cell_angle_alpha 90.000000
_cell_angle_beta 120.266340
_cell_angle_gamma 90.000000
_cell_volume 2890.779686
_symmetry_space_group_name_H-M "C 2/M"
_symmetry_group_IT_number 12
_symmetry_cell_setting 'monoclinic'
loop_
_space_group_symop_operation_xyz
x,y,z
-x,y,-z
-x,-y,-z
x,-y,z
1/2+x,1/2+y,z
1/2-x,1/2+y,-z
1/2-x,1/2-y,-z
1/2+x,1/2-y,z
loop_
_atom_site_type_symbol
_atom_site_label
_atom_site_fract_x
_atom_site_fract_y
_atom_site_fract_z
Si Si1 0.249065 0.329629 0.883199
Si Si2 0.915127 0.833152 0.140591
Si Si3 0.995356 0.671968 0.622956
Si Si4 0.655881 0.658941 0.747544
Si Si5 0.305186 0.328261 0.578828
Si Si6 0.603217 0.663190 0.462501
Si Si7 0.843230 0.171734 0.862344
O O1 0.252663 0.500000 0.904679
O O2 0.195046 0.284795 0.760372
O O3 0.293718 0.266067 0.862866
O O4 0.250000 0.250000 0.000000
O O5 0.864983 0.819530 0.154679
O O6 0.958443 0.729083 0.243024
O O7 0.935045 0.000000 0.163697
O O8 0.895767 0.780269 0.993078
O O9 0.995039 0.500000 0.628255
O O10 0.944334 0.730804 0.620010
O O11 0.000000 0.723830 0.500000
O O12 0.682640 0.500000 0.773446
O O13 0.609066 0.665923 0.602661
O O14 0.293808 0.500000 0.568140
O O15 0.250000 0.250000 0.500000
O O16 0.343291 0.285412 0.526404
O O17 0.337659 0.276106 0.728334
O O18 0.589877 0.500000 0.403665
O O19 0.841537 0.000000 0.866115
#
# Coordination Sequence:
#
# PCOD8087858 Si02
#       7
#     8   8   8   8   8   8   8
#     4  11  20  31  49  76 110 145 182 224 277 334
#     4  10  19  35  57  78 110 149 184 226 280 337
#     4  11  23  37  56  86 118 146 186 237 289 340
#     4  10  19  32  51  79 111 141 181 226 276 333
#     4  10  21  39  62  86 114 149 193 232 273 333
#     4  10  21  37  59  84 111 149 191 231 277 337
#     4   9  19  36  55  78 110 149 187 229 276 330
#
# _framework density 19.371936000000002
#
# number of rings (size 3 to 8) (size 9 to 14) (size 15 to 20)
#    0.000    1.857    2.857    1.714    0.000    2.286 
#    0.000    2.143    0.000    4.286    0.000    0.000 
#    0.000    0.000    0.000    0.000    0.000    0.000 
#
# Total GULP energy -346986.722201 kJ/mol
# GULP energy per Si atom -12392.382936 kJ/mol
# Density = 1.932785 g / cm^3
# Si number density = 19.371936 Si / 1000 Ang^3
#
#
#
# Elastic Constant Matrix: (Units=GPa)
#
#
# Indices 1 2 3 4 5 6 
#
# 1 88.2990 40.6987 34.9307 0.0000 12.4061 0.0000
# 2 40.6987 65.5632 32.3189 0.0000 10.6182 0.0000
# 3 34.9307 32.3189 123.7212 0.0000 9.6891 0.0000
# 4 0.0000 0.0000 0.0000 26.6052 0.0000 8.5231
# 5 12.4061 10.6182 9.6891 0.0000 29.6629 0.0000
# 6 0.0000 0.0000 0.0000 8.5231 0.0000 31.8985
#
#
#
# Elastic Compliance Matrix: (Units=1/GPa)
#
#
# Indices 1 2 3 4 5 6 
#
# 1 0.016664 -0.008769 -0.002170 0.000000 -0.003122 0.000000
# 2 -0.008769 0.022844 -0.003221 0.000000 -0.003458 0.000000
# 3 -0.002170 -0.003221 0.009621 0.000000 -0.001082 0.000000
# 4 0.000000 0.000000 0.000000 0.041105 0.000000 -0.010983
# 5 -0.003122 -0.003458 -0.001082 0.000000 0.036609 0.000000
# 6 0.000000 0.000000 0.000000 -0.010983 0.000000 0.034284
#
#
# Mechanical properties :
#
#
# Convention : Reuss Voigt Hill
#
# Bulk Modulus (GPa) = 48.05399 54.83112 51.44255
# Shear Modulus (GPa) = 25.46053 28.94232 27.20143
#
# Velocity S-wave (km/s) = 3.62926 3.86947 3.75129
# Velocity P-wave (km/s) = 6.51321 6.95195 6.73615
#
# Compressibility (1/GPa) = 0.02080993
#
# Stress axis : x y z
#
# Youngs Moduli (GPa) = 60.00997 43.77612 103.93573
#
# Poissons Ratio (x) = 0.38388 0.22550
# Poissons Ratio (y) = 0.52623 0.33474
# Poissons Ratio (z) = 0.13020 0.14099
#
# Static dielectric constant tensor:
#      x y z
#    x 3.564420 0.000000 0.104640 
#    y 0.000000 3.719890 0.000000 
#    z 0.104640 0.000000 3.900140 
# 
# 
# High freq. dielectric constant tensor:
#      x y z
#    x 1.739390 0.000000 0.008020 
#    y 0.000000 1.731250 0.000000 
#    z 0.008020 0.000000 1.763180 
# 
# From -- ./inp_files/181011.got.cif
#   From: 2010.06.25/outbox.cif.g09.slc.cpg/sg12_91_cif.got.tgz:181011.got - 2010.06.28 00:19:55.
