data_PCOD8087684
_publ_section_title
;
Structure prediction by ZEFSAII (Michael W. Deem and Ramdas Pophale) SiO2 
 PCOD8087684
Probable space group: C 2/M
;
_chemical_formula_sum "Si O2"
_cell_formula_units_Z 40
_cell_length_a 5.201007
_cell_length_b 17.238351
_cell_length_c 23.124801
_cell_angle_alpha 90.000000
_cell_angle_beta 89.525548
_cell_angle_gamma 90.000000
_cell_volume 2073.224210
_symmetry_space_group_name_H-M "C 2/M"
_symmetry_group_IT_number 12
_symmetry_cell_setting 'monoclinic'
loop_
_space_group_symop_operation_xyz
x,y,z
-x,y,-z
-x,-y,-z
x,-y,z
1/2+x,1/2+y,z
1/2-x,1/2+y,-z
1/2-x,1/2-y,-z
1/2+x,1/2-y,z
loop_
_atom_site_type_symbol
_atom_site_label
_atom_site_fract_x
_atom_site_fract_y
_atom_site_fract_z
Si Si1 0.501818 0.592513 0.934698
Si Si2 0.519562 0.299373 0.434237
Si Si3 0.983735 0.908005 0.329689
Si Si4 0.986495 0.407810 0.261828
Si Si5 0.995747 0.592589 0.131590
O O1 0.501952 0.500000 0.935109
O O2 0.252636 0.624377 0.901734
O O3 0.752757 0.624385 0.901462
O O4 0.500000 0.624674 0.000000
O O5 0.500000 0.329536 0.500000
O O6 0.298295 0.236938 0.421681
O O7 0.484199 0.373567 0.393774
O O8 0.734322 0.877409 0.295950
O O9 0.230729 0.877826 0.293955
O O10 0.983389 0.000000 0.336225
O O11 0.988360 0.500000 0.259625
O O12 0.992863 0.374501 0.196782
O O13 0.995535 0.500000 0.132292
#
# Coordination Sequence:
#
# PCOD8087684 Si02
#       5
#     8   8   8   8   8
#     4   9  15  21  30  46  70 106 154 197 227 267
#     4  10  21  37  55  75 101 132 163 195 239 295
#     4  10  19  32  51  74  98 125 164 207 240 281
#     4   9  17  28  43  65  91 120 157 201 245 286
#     4   9  15  23  34  49  75 110 148 192 236 275
#
# _framework density 19.293621000000002
#
# number of rings (size 3 to 8) (size 9 to 14) (size 15 to 20)
#    0.000    2.600    0.000    3.000    0.000    7.600 
#    0.000    0.000    0.000    7.200    0.000    0.000 
#    0.000    0.000    0.000    0.000    0.000  252.000 
#
# Total GULP energy -248012.807964 kJ/mol
# GULP energy per Si atom -12400.640398 kJ/mol
# Density = 1.924971 g / cm^3
# Si number density = 19.293621 Si / 1000 Ang^3
#
#
#
# Elastic Constant Matrix: (Units=GPa)
#
#
# Indices 1 2 3 4 5 6 
#
# 1 180.9728 14.9960 87.1968 0.0000 9.8167 0.0000
# 2 14.9960 12.7750 33.4986 0.0000 2.2432 0.0000
# 3 87.1968 33.4986 186.6222 0.0000 9.0958 0.0000
# 4 0.0000 0.0000 0.0000 5.6043 0.0000 1.0327
# 5 9.8167 2.2432 9.0958 0.0000 37.5925 0.0000
# 6 0.0000 0.0000 0.0000 1.0327 0.0000 6.7713
#
#
#
# Elastic Compliance Matrix: (Units=1/GPa)
#
#
# Indices 1 2 3 4 5 6 
#
# 1 0.007178 0.000794 -0.003443 0.000000 -0.001089 0.000000
# 2 0.000794 0.148191 -0.026847 0.000000 -0.002554 0.000000
# 3 -0.003443 -0.026847 0.011804 0.000000 -0.000355 0.000000
# 4 0.000000 0.000000 0.000000 0.183593 0.000000 -0.028001
# 5 -0.001089 -0.002554 -0.000355 0.000000 0.027124 0.000000
# 6 0.000000 0.000000 0.000000 -0.028001 0.000000 0.151953
#
#
# Mechanical properties :
#
#
# Convention : Reuss Voigt Hill
#
# Bulk Modulus (GPa) = 9.24375 72.41697 40.83036
# Shear Modulus (GPa) = 8.00135 26.30553 17.15344
#
# Velocity S-wave (km/s) = 2.03866 3.69647 2.98497
# Velocity P-wave (km/s) = 3.21606 7.47223 5.75227
#
# Compressibility (1/GPa) = 0.10818123
#
# Stress axis : x y z
#
# Youngs Moduli (GPa) = 139.31431 6.74803 84.72004
#
# Poissons Ratio (x) = -0.00536 0.29172
# Poissons Ratio (y) = -0.11067 2.27447
# Poissons Ratio (z) = 0.47971 0.18116
#
# Static dielectric constant tensor:
#      x y z
#    x 3.862440 0.000000 0.018210 
#    y 0.000000 2.696050 0.000000 
#    z 0.018210 0.000000 3.739420 
# 
# 
# High freq. dielectric constant tensor:
#      x y z
#    x 1.774130 0.000000 0.001640 
#    y 0.000000 1.673790 0.000000 
#    z 0.001640 0.000000 1.768040 
# 
# From -- ./inp_files/252539.got.cif
#   From: 2010.06.25/outbox.cif.g09.slc.cpg/sg12_127_cif.got.tgz:252539.got - 2010.06.28 00:19:55.
