data_PCOD8087498
_publ_section_title
;
Structure prediction by ZEFSAII (Michael W. Deem and Ramdas Pophale) SiO2 
 PCOD8087498
Probable space group: C 2/M
;
_chemical_formula_sum "Si O2"
_cell_formula_units_Z 64
_cell_length_a 25.172320
_cell_length_b 14.594700
_cell_length_c 9.209574
_cell_angle_alpha 90.000000
_cell_angle_beta 81.192390
_cell_angle_gamma 90.000000
_cell_volume 3343.538643
_symmetry_space_group_name_H-M "C 2/M"
_symmetry_group_IT_number 12
_symmetry_cell_setting 'monoclinic'
loop_
_space_group_symop_operation_xyz
x,y,z
-x,y,-z
-x,-y,-z
x,-y,z
1/2+x,1/2+y,z
1/2-x,1/2+y,-z
1/2-x,1/2-y,-z
1/2+x,1/2-y,z
loop_
_atom_site_type_symbol
_atom_site_label
_atom_site_fract_x
_atom_site_fract_y
_atom_site_fract_z
Si Si1 0.764613 0.645131 0.482999
Si Si2 0.396453 0.291049 0.699952
Si Si3 0.975505 0.893845 0.854443
Si Si4 0.790381 0.902452 0.763273
Si Si5 0.428719 0.392917 0.405815
Si Si6 0.344988 0.104984 0.687248
Si Si7 0.172749 0.899594 0.719823
Si Si8 0.254657 0.652965 0.070264
O O1 0.750000 0.750000 0.500000
O O2 0.762221 0.618343 0.314264
O O3 0.821570 0.621735 0.534336
O O4 0.717745 0.587216 0.578557
O O5 0.425096 0.327820 0.835596
O O6 0.334656 0.323869 0.722837
O O7 0.429976 0.331906 0.550444
O O8 0.392825 0.179384 0.695838
O O9 0.017503 0.879228 0.707410
O O10 0.956654 0.000000 0.869947
O O11 0.000000 0.864287 0.000000
O O12 0.816572 0.000000 0.708584
O O13 0.768993 0.915478 0.935156
O O14 0.420659 0.500000 0.450910
O O15 0.380335 0.354865 0.326257
O O16 0.298148 0.118458 0.825277
O O17 0.366952 0.000000 0.689242
O O18 0.195247 0.837881 0.840414
O O19 0.158281 0.000000 0.788397
O O20 0.250000 0.750000 0.000000
#
# Coordination Sequence:
#
# PCOD8087498 Si02
#       8
#     8   8   8   8   8   8   8   8
#     4  11  18  34  51  79 112 148 188 231 271 323
#     4  12  22  37  58  84 112 148 195 236 276 340
#     4  10  23  40  60  89 122 148 176 227 297 359
#     4  12  21  31  53  82 113 146 187 234 277 328
#     4  10  20  36  59  86 115 146 180 229 291 347
#     4  11  23  40  57  78 116 160 198 236 280 327
#     4  10  19  32  50  74 107 146 183 219 272 335
#     4  11  21  35  49  77 115 155 192 231 275 328
#
# _framework density 19.141397000000001
#
# number of rings (size 3 to 8) (size 9 to 14) (size 15 to 20)
#    0.000    1.125    3.750    5.250    1.750    1.000 
#    0.000    0.000    0.000    1.875    0.000    0.000 
#    0.000    0.000    0.000    0.000    0.000    0.000 
#
# Total GULP energy -396617.359506 kJ/mol
# GULP energy per Si atom -12394.292485 kJ/mol
# Density = 1.909783 g / cm^3
# Si number density = 19.141397 Si / 1000 Ang^3
#
#
#
# Elastic Constant Matrix: (Units=GPa)
#
#
# Indices 1 2 3 4 5 6 
#
# 1 70.4558 32.7745 32.6081 0.0000 25.4446 0.0000
# 2 32.7745 131.6318 30.1422 0.0000 16.1048 0.0000
# 3 32.6081 30.1422 101.7663 0.0000 16.3623 0.0000
# 4 0.0000 0.0000 0.0000 25.4382 0.0000 2.6787
# 5 25.4446 16.1048 16.3623 0.0000 34.5328 0.0000
# 6 0.0000 0.0000 0.0000 2.6787 0.0000 24.4505
#
#
#
# Elastic Compliance Matrix: (Units=1/GPa)
#
#
# Indices 1 2 3 4 5 6 
#
# 1 0.022192 -0.002988 -0.004136 0.000000 -0.012998 0.000000
# 2 -0.002988 0.008825 -0.001460 0.000000 -0.001222 0.000000
# 3 -0.004136 -0.001460 0.011890 0.000000 -0.001906 0.000000
# 4 0.000000 0.000000 0.000000 0.039770 0.000000 -0.004357
# 5 -0.012998 -0.001222 -0.001906 0.000000 0.040008 0.000000
# 6 0.000000 0.000000 0.000000 -0.004357 0.000000 0.041376
#
#
# Mechanical properties :
#
#
# Convention : Reuss Voigt Hill
#
# Bulk Modulus (GPa) = 38.85087 54.98926 46.92007
# Shear Modulus (GPa) = 26.34236 30.77289 28.55762
#
# Velocity S-wave (km/s) = 3.71374 4.01392 3.86674
# Velocity P-wave (km/s) = 6.22334 7.09030 6.67092
#
# Compressibility (1/GPa) = 0.02573945
#
# Stress axis : x y z
#
# Youngs Moduli (GPa) = 45.06217 113.31758 84.10123
#
# Poissons Ratio (x) = 0.33860 0.34782
# Poissons Ratio (y) = 0.13465 0.12278
# Poissons Ratio (z) = 0.18636 0.16543
#
# Static dielectric constant tensor:
#      x y z
#    x 3.344160 0.000000 0.198110 
#    y 0.000000 2.395330 0.000000 
#    z 0.198110 0.000000 4.157790 
# 
# 
# High freq. dielectric constant tensor:
#      x y z
#    x 1.710580 0.000000 0.021130 
#    y 0.000000 1.734070 0.000000 
#    z 0.021130 0.000000 1.753780 
# 
# From -- ./inp_files/104595.got.cif
#   From: 2010.06.25/outbox.cif.g09.slc.cpg/sg12_53_cif.got.tgz:104595.got - 2010.06.28 00:19:55.
