data_PCOD8087447
_publ_section_title
;
Structure prediction by ZEFSAII (Michael W. Deem and Ramdas Pophale) SiO2 
 PCOD8087447
Probable space group: C 2/M
;
_chemical_formula_sum "Si O2"
_cell_formula_units_Z 64
_cell_length_a 19.987361
_cell_length_b 8.945945
_cell_length_c 29.995809
_cell_angle_alpha 90.000000
_cell_angle_beta 134.142284
_cell_angle_gamma 90.000000
_cell_volume 3848.861365
_symmetry_space_group_name_H-M "C 2/M"
_symmetry_group_IT_number 12
_symmetry_cell_setting 'monoclinic'
loop_
_space_group_symop_operation_xyz
x,y,z
-x,y,-z
-x,-y,-z
x,-y,z
1/2+x,1/2+y,z
1/2-x,1/2+y,-z
1/2-x,1/2-y,-z
1/2+x,1/2-y,z
loop_
_atom_site_type_symbol
_atom_site_label
_atom_site_fract_x
_atom_site_fract_y
_atom_site_fract_z
Si Si1 0.126592 0.822699 0.236732
Si Si2 0.423677 0.668695 0.688676
Si Si3 0.787964 0.822380 0.256838
Si Si4 0.690299 0.333276 0.133604
Si Si5 0.660655 0.669172 0.439414
Si Si6 0.520031 0.177085 0.659788
Si Si7 0.501277 0.335354 0.100909
Si Si8 0.405444 0.833113 0.984257
O O1 0.108984 0.768676 0.278934
O O2 0.215030 0.733078 0.259830
O O3 0.034139 0.780331 0.165103
O O4 0.146978 0.000000 0.242307
O O5 0.463105 0.500000 0.712487
O O6 0.335880 0.668394 0.613363
O O7 0.504670 0.772641 0.704618
O O8 0.760822 0.768076 0.194657
O O9 0.886785 0.751732 0.315993
O O10 0.793319 0.000000 0.259863
O O11 0.732290 0.500000 0.148062
O O12 0.592407 0.340772 0.112864
O O13 0.674350 0.263493 0.077207
O O14 0.656262 0.500000 0.456004
O O15 0.750000 0.750000 0.500000
O O16 0.566586 0.759139 0.410001
O O17 0.525997 0.000000 0.658544
O O18 0.456442 0.500000 0.083014
O O19 0.424579 0.227900 0.043061
O O20 0.366935 0.000000 0.971051
O O21 0.500000 0.829330 0.000000
#
# Coordination Sequence:
#
# PCOD8087447 Si02
#       8
#     8   8   8   8   8   8   8   8
#     4   9  17  31  48  68  96 129 159 192 238 287
#     4   8  17  32  50  72  98 125 158 195 233 276
#     4  11  20  30  45  69  99 127 157 196 241 284
#     4   9  16  26  39  56  81 116 155 192 234 282
#     4   9  17  31  52  77 100 125 156 194 233 270
#     4  10  19  32  50  72  97 127 162 195 231 275
#     4   8  14  23  37  56  81 115 152 187 228 278
#     4   9  15  22  33  52  80 112 148 191 235 275
#
# _framework density 16.628294
#
# number of rings (size 3 to 8) (size 9 to 14) (size 15 to 20)
#    0.750    2.125    0.000    3.750    0.000    5.000 
#    0.000    0.000    0.000    0.750    0.000    6.125 
#    0.000    0.000    0.000    0.000    0.000    0.000 
#
# Total GULP energy -396501.366348 kJ/mol
# GULP energy per Si atom -12390.667698 kJ/mol
# Density = 1.659045 g / cm^3
# Si number density = 16.628294 Si / 1000 Ang^3
#
#
#
# Elastic Constant Matrix: (Units=GPa)
#
#
# Indices 1 2 3 4 5 6 
#
# 1 24.2836 13.1032 -0.1779 0.0000 -5.0929 0.0000
# 2 13.1032 105.1516 5.1342 0.0000 -2.9023 0.0000
# 3 -0.1779 5.1342 32.4243 0.0000 -11.6535 0.0000
# 4 0.0000 0.0000 0.0000 29.3175 0.0000 4.2209
# 5 -5.0929 -2.9023 -11.6535 0.0000 16.4584 0.0000
# 6 0.0000 0.0000 0.0000 4.2209 0.0000 18.9276
#
#
#
# Elastic Compliance Matrix: (Units=1/GPa)
#
#
# Indices 1 2 3 4 5 6 
#
# 1 0.048612 -0.005916 0.008363 0.000000 0.019921 0.000000
# 2 -0.005916 0.010313 -0.002240 0.000000 -0.001598 0.000000
# 3 0.008363 -0.002240 0.042963 0.000000 0.032613 0.000000
# 4 0.000000 0.000000 0.000000 0.035241 0.000000 -0.007859
# 5 0.019921 -0.001598 0.032613 0.000000 0.089734 0.000000
# 6 0.000000 0.000000 0.000000 -0.007859 0.000000 0.054585
#
#
# Mechanical properties :
#
#
# Convention : Reuss Voigt Hill
#
# Bulk Modulus (GPa) = 9.77501 21.99761 15.88631
# Shear Modulus (GPa) = 15.86631 22.52737 19.19684
#
# Velocity S-wave (km/s) = 3.09232 3.68470 3.40143
# Velocity P-wave (km/s) = 4.31755 5.60004 5.00009
#
# Compressibility (1/GPa) = 0.10230165
#
# Stress axis : x y z
#
# Youngs Moduli (GPa) = 20.57126 96.96921 23.27580
#
# Poissons Ratio (x) = 0.57368 -0.19466
# Poissons Ratio (y) = 0.12170 0.05213
# Poissons Ratio (z) = -0.17204 0.21719
#
# Static dielectric constant tensor:
#      x y z
#    x 2.654230 0.000000 -0.036920 
#    y 0.000000 3.225740 0.000000 
#    z -0.036920 0.000000 3.164650 
# 
# 
# High freq. dielectric constant tensor:
#      x y z
#    x 1.582460 0.000000 0.002560 
#    y 0.000000 1.651870 0.000000 
#    z 0.002560 0.000000 1.634720 
# 
# From -- ./inp_files/365228.got.cif
#   From: 2010.06.25/outbox.cif.g09.slc.cpg/sg12_183_cif.got.tgz:365228.got - 2010.06.28 00:19:55.
