data_PCOD8087936
_publ_section_title
;
Structure prediction by ZEFSAII (Michael W. Deem and Ramdas Pophale) SiO2 
 PCOD8087936
Probable space group: C 2/M
;
_chemical_formula_sum "Si O2"
_cell_formula_units_Z 64
_cell_length_a 14.701093
_cell_length_b 8.559906
_cell_length_c 26.938232
_cell_angle_alpha 90.000000
_cell_angle_beta 75.301336
_cell_angle_gamma 90.000000
_cell_volume 3278.967222
_symmetry_space_group_name_H-M "C 2/M"
_symmetry_group_IT_number 12
_symmetry_cell_setting 'monoclinic'
loop_
_space_group_symop_operation_xyz
x,y,z
-x,y,-z
-x,-y,-z
x,-y,z
1/2+x,1/2+y,z
1/2-x,1/2+y,-z
1/2-x,1/2-y,-z
1/2+x,1/2-y,z
loop_
_atom_site_type_symbol
_atom_site_label
_atom_site_fract_x
_atom_site_fract_y
_atom_site_fract_z
Si Si1 0.289028 0.316869 0.943862
Si Si2 0.148422 0.815423 0.500450
Si Si3 0.394500 0.682563 0.692844
Si Si4 0.829140 0.817108 0.128186
Si Si5 0.499291 0.681887 0.226005
Si Si6 0.285093 0.678370 0.243908
Si Si7 0.026521 0.681558 0.116698
Si Si8 0.037235 0.185964 0.420947
O O1 0.268502 0.500000 0.942947
O O2 0.240638 0.225149 0.905793
O O3 0.399663 0.282320 0.925309
O O4 0.250000 0.250000 0.000000
O O5 0.250000 0.750000 0.500000
O O6 0.113197 0.755515 0.451307
O O7 0.068910 0.759428 0.550978
O O8 0.156289 0.000000 0.499784
O O9 0.413021 0.500000 0.688328
O O10 0.448897 0.752166 0.732970
O O11 0.284082 0.716318 0.713800
O O12 0.434004 0.757744 0.636443
O O13 0.780164 0.770747 0.186901
O O14 0.924933 0.721111 0.108448
O O15 0.854404 0.000000 0.124930
O O16 0.522798 0.500000 0.213391
O O17 0.389007 0.706198 0.250441
O O18 0.534429 0.776983 0.173608
O O19 0.253611 0.500000 0.254484
O O20 0.048516 0.500000 0.106350
O O21 0.040462 0.000000 0.419849
#
# Coordination Sequence:
#
# PCOD8087936 Si02
#       8
#     8   8   8   8   8   8   8   8
#     4  12  25  41  60  85 114 145 183 227 276 329
#     4   9  17  33  55  73  96 132 175 218 264 314
#     4  10  19  32  52  75 103 139 178 214 256 314
#     4  10  21  40  62  84 111 145 184 228 273 322
#     4   9  19  35  53  75 105 142 178 215 261 318
#     4   9  19  34  52  77 109 139 170 212 265 313
#     4  11  22  38  60  85 112 146 185 225 270 324
#     4   8  17  33  50  72 102 137 172 211 263 323
#
# _framework density 19.518342000000001
#
# number of rings (size 3 to 8) (size 9 to 14) (size 15 to 20)
#    0.000    2.250    0.000    4.875    0.000    6.500 
#    0.000    6.250    0.000    0.000    0.000    0.000 
#    0.000    0.000    0.000    0.000    0.000    0.000 
#
# Total GULP energy -396813.488302 kJ/mol
# GULP energy per Si atom -12400.421509 kJ/mol
# Density = 1.947392 g / cm^3
# Si number density = 19.518342 Si / 1000 Ang^3
#
#
#
# Elastic Constant Matrix: (Units=GPa)
#
#
# Indices 1 2 3 4 5 6 
#
# 1 99.1799 15.4230 43.5028 0.0000 -16.0950 0.0000
# 2 15.4230 41.3541 20.7664 0.0000 -0.4169 0.0000
# 3 43.5028 20.7664 97.8762 0.0000 -23.4487 0.0000
# 4 0.0000 0.0000 0.0000 22.6168 0.0000 -4.4808
# 5 -16.0950 -0.4169 -23.4487 0.0000 21.8959 0.0000
# 6 0.0000 0.0000 0.0000 -4.4808 0.0000 34.0657
#
#
#
# Elastic Compliance Matrix: (Units=1/GPa)
#
#
# Indices 1 2 3 4 5 6 
#
# 1 0.013129 -0.002864 -0.003939 0.000000 0.005377 0.000000
# 2 -0.002864 0.028658 -0.006969 0.000000 -0.009023 0.000000
# 3 -0.003939 -0.006969 0.017111 0.000000 0.015296 0.000000
# 4 0.000000 0.000000 0.000000 0.045398 0.000000 0.005971
# 5 0.005377 -0.009023 0.015296 0.000000 0.065833 0.000000
# 6 0.000000 0.000000 0.000000 0.005971 0.000000 0.030141
#
#
# Mechanical properties :
#
#
# Convention : Reuss Voigt Hill
#
# Bulk Modulus (GPa) = 31.89485 44.19940 38.04713
# Shear Modulus (GPa) = 20.98506 26.29688 23.64097
#
# Velocity S-wave (km/s) = 3.28250 3.67453 3.48403
# Velocity P-wave (km/s) = 5.54462 6.37943 5.97662
#
# Compressibility (1/GPa) = 0.03135302
#
# Stress axis : x y z
#
# Youngs Moduli (GPa) = 76.16995 34.89409 58.44131
#
# Poissons Ratio (x) = 0.09993 0.23022
# Poissons Ratio (y) = 0.21814 0.40729
# Poissons Ratio (z) = 0.30006 0.24318
#
# Static dielectric constant tensor:
#      x y z
#    x 3.658300 0.000000 0.034380 
#    y 0.000000 3.319190 0.000000 
#    z 0.034380 0.000000 3.783410 
# 
# 
# High freq. dielectric constant tensor:
#      x y z
#    x 1.767780 0.000000 -0.003960 
#    y 0.000000 1.741680 0.000000 
#    z -0.003960 0.000000 1.760160 
# 
# From -- ./inp_files/359789.got.cif
#   From: 2010.06.25/outbox.cif.g09.slc.cpg/sg12_180_cif.got.tgz:359789.got - 2010.06.28 00:19:55.
