data_PCOD8087050
_publ_section_title
;
Structure prediction by ZEFSAII (Michael W. Deem and Ramdas Pophale) SiO2 
 PCOD8087050
Probable space group: C 2/M
;
_chemical_formula_sum "Si O2"
_cell_formula_units_Z 56
_cell_length_a 28.602428
_cell_length_b 17.083389
_cell_length_c 19.562149
_cell_angle_alpha 90.000000
_cell_angle_beta 162.338450
_cell_angle_gamma 90.000000
_cell_volume 2900.013538
_symmetry_space_group_name_H-M "C 2/M"
_symmetry_group_IT_number 12
_symmetry_cell_setting 'monoclinic'
loop_
_space_group_symop_operation_xyz
x,y,z
-x,y,-z
-x,-y,-z
x,-y,z
1/2+x,1/2+y,z
1/2-x,1/2+y,-z
1/2-x,1/2-y,-z
1/2+x,1/2-y,z
loop_
_atom_site_type_symbol
_atom_site_label
_atom_site_fract_x
_atom_site_fract_y
_atom_site_fract_z
Si Si1 0.660917 0.414762 0.190746
Si Si2 0.359585 0.733658 0.919889
Si Si3 0.098557 0.196488 0.470597
Si Si4 0.577894 0.590744 0.682659
Si Si5 0.631659 0.802874 0.926034
Si Si6 0.370595 0.909204 0.602632
Si Si7 0.678969 0.191005 0.347468
O O1 0.727830 0.500000 0.260022
O O2 0.638952 0.358325 0.095649
O O3 0.764617 0.372565 0.394226
O O4 0.500000 0.431797 0.000000
O O5 0.199787 0.767795 0.671512
O O6 0.352910 0.739069 0.992276
O O7 0.506051 0.778571 0.088987
O O8 0.210465 0.180310 0.562666
O O9 0.037502 0.114029 0.416300
O O10 0.958329 0.257008 0.259395
O O11 0.500000 0.600492 0.500000
O O12 0.630588 0.500000 0.766226
O O13 0.711600 0.655793 0.879003
O O14 0.539662 0.875797 0.828733
O O15 0.319258 0.890902 0.608723
O O16 0.369175 0.000000 0.589356
O O17 0.750000 0.250000 0.500000
#
# Coordination Sequence:
#
# PCOD8087050 Si02
#       7
#     8   8   8   8   8   8   8
#     4  10  19  31  52  85 124 164 195 233 293 359
#     4  11  20  36  61  89 127 160 200 250 292 369
#     4  12  22  39  65  92 117 163 207 245 308 363
#     4  11  25  45  65  88 119 157 208 265 313 356
#     4  11  22  40  65  87 114 160 207 252 303 360
#     4  10  20  34  56  87 122 158 197 246 301 363
#     4  11  20  35  58  91 128 162 197 242 301 365
#
# _framework density 19.310255000000002
#
# number of rings (size 3 to 8) (size 9 to 14) (size 15 to 20)
#    0.000    1.143    5.714    3.000    0.000    0.571 
#    0.000    0.714    0.000    2.571    0.000    2.000 
#    0.000    0.000    0.000    0.000    0.000    0.000 
#
# Total GULP energy -346968.521176 kJ/mol
# GULP energy per Si atom -12391.732899 kJ/mol
# Density = 1.926630 g / cm^3
# Si number density = 19.310255 Si / 1000 Ang^3
#
#
#
# Elastic Constant Matrix: (Units=GPa)
#
#
# Indices 1 2 3 4 5 6 
#
# 1 86.5407 41.8417 29.1777 -0.0004 8.2231 -0.0004
# 2 41.8417 96.4238 41.1704 0.0000 2.0850 0.0000
# 3 29.1777 41.1704 101.9563 -0.0008 -10.5425 -0.0012
# 4 -0.0004 0.0000 -0.0008 27.9615 -0.0008 -4.7020
# 5 8.2231 2.0850 -10.5425 -0.0008 20.6143 -0.0011
# 6 -0.0004 0.0000 -0.0012 -4.7020 -0.0011 32.6153
#
#
#
# Elastic Compliance Matrix: (Units=1/GPa)
#
#
# Indices 1 2 3 4 5 6 
#
# 1 0.015937 -0.005414 -0.003141 0.000000 -0.007416 0.000000
# 2 -0.005414 0.014703 -0.004559 0.000000 -0.001659 0.000000
# 3 -0.003141 -0.004559 0.013436 0.000001 0.008586 0.000001
# 4 0.000000 0.000000 0.000001 0.036652 0.000002 0.005284
# 5 -0.007416 -0.001659 0.008586 0.000002 0.056027 0.000002
# 6 0.000000 0.000000 0.000001 0.005284 0.000002 0.031422
#
#
# Mechanical properties :
#
#
# Convention : Reuss Voigt Hill
#
# Bulk Modulus (GPa) = 56.03414 56.58892 56.31153
# Shear Modulus (GPa) = 24.95582 27.75363 26.35473
#
# Velocity S-wave (km/s) = 3.59884 3.79522 3.69833
# Velocity P-wave (km/s) = 6.80806 6.96948 6.88924
#
# Compressibility (1/GPa) = 0.01784626
#
# Stress axis : x y z
#
# Youngs Moduli (GPa) = 62.74863 68.01488 74.42721
#
# Poissons Ratio (x) = 0.36822 0.23381
# Poissons Ratio (y) = 0.33971 0.33933
# Poissons Ratio (z) = 0.19712 0.31010
#
# Static dielectric constant tensor:
#      x y z
#    x 2.901410 0.000000 -0.194910 
#    y 0.000000 3.358340 0.000010 
#    z -0.194910 0.000010 4.796880 
# 
# 
# High freq. dielectric constant tensor:
#      x y z
#    x 1.732970 0.000000 -0.005720 
#    y 0.000000 1.746460 0.000000 
#    z -0.005720 0.000000 1.766680 
# 
# From -- ./inp_files/271410.got.cif
#   From: 2010.06.25/outbox.cif.g09.slc.cpg/sg12_136_cif.got.tgz:271410.got - 2010.06.28 00:19:55.
