data_PCOD8087826
_publ_section_title
;
Structure prediction by ZEFSAII (Michael W. Deem and Ramdas Pophale) SiO2 
 PCOD8087826
Probable space group: C 2/M
;
_chemical_formula_sum "Si O2"
_cell_formula_units_Z 64
_cell_length_a 30.553201
_cell_length_b 9.444911
_cell_length_c 24.103558
_cell_angle_alpha 90.000000
_cell_angle_beta 151.051498
_cell_angle_gamma 90.000000
_cell_volume 3366.681382
_symmetry_space_group_name_H-M "C 2/M"
_symmetry_group_IT_number 12
_symmetry_cell_setting 'monoclinic'
loop_
_space_group_symop_operation_xyz
x,y,z
-x,y,-z
-x,-y,-z
x,-y,z
1/2+x,1/2+y,z
1/2-x,1/2+y,-z
1/2-x,1/2-y,-z
1/2+x,1/2-y,z
loop_
_atom_site_type_symbol
_atom_site_label
_atom_site_fract_x
_atom_site_fract_y
_atom_site_fract_z
Si Si1 0.892122 0.165316 0.095678
Si Si2 0.248551 0.834168 0.738850
Si Si3 0.922768 0.166711 0.252858
Si Si4 0.123929 0.833147 0.501336
Si Si5 0.578116 0.847703 0.128922
Si Si6 0.255887 0.839176 0.451376
Si Si7 0.450448 0.346040 0.807513
Si Si8 0.754279 0.168642 0.138362
O O1 0.893459 0.226451 0.159898
O O2 0.994240 0.190362 0.186846
O O3 0.863871 0.000000 0.062577
O O4 0.824823 0.254791 0.982932
O O5 0.158719 0.802709 0.602804
O O6 0.335731 0.768267 0.803512
O O7 0.241133 0.773574 0.793154
O O8 0.265648 0.000000 0.764044
O O9 0.849326 0.213673 0.216512
O O10 0.020706 0.220733 0.382000
O O11 0.928263 0.000000 0.252962
O O12 0.181527 0.741967 0.522469
O O13 0.133896 0.000000 0.498071
O O14 0.526846 0.763398 0.119679
O O15 0.611711 0.000000 0.190054
O O16 0.500000 0.876945 0.000000
O O17 0.250000 0.750000 0.500000
O O18 0.155561 0.844316 0.317795
O O19 0.291767 0.000000 0.501226
O O20 0.482266 0.500000 0.863636
O O21 0.739043 0.000000 0.118094
#
# Coordination Sequence:
#
# PCOD8087826 Si02
#       8
#     8   8   8   8   8   8   8   8
#     4  10  20  36  54  78 110 143 180 227 282 332
#     4   9  18  32  53  81 112 143 180 227 275 326
#     4   9  19  35  58  82 108 143 184 233 283 330
#     4  10  19  36  58  80 111 149 183 227 280 329
#     4  10  19  32  51  77 110 143 176 221 272 318
#     4  11  22  36  55  81 111 146 184 227 271 325
#     4  10  21  35  52  76 107 142 181 217 263 327
#     4  10  20  36  57  83 109 141 186 231 279 334
#
# _framework density 19.009817000000002
#
# number of rings (size 3 to 8) (size 9 to 14) (size 15 to 20)
#    0.000    2.125    1.250    2.250    0.000    4.750 
#    0.000    6.250    0.000    0.000    0.000    1.750 
#    0.000    0.000    0.000    0.000    0.000    0.000 
#
# Total GULP energy -396611.614442 kJ/mol
# GULP energy per Si atom -12394.112951 kJ/mol
# Density = 1.896655 g / cm^3
# Si number density = 19.009817 Si / 1000 Ang^3
#
#
#
# Elastic Constant Matrix: (Units=GPa)
#
#
# Indices 1 2 3 4 5 6 
#
# 1 130.0166 38.1241 43.9790 0.0000 -4.6985 0.0000
# 2 38.1241 58.9640 25.6969 0.0000 -3.4944 0.0000
# 3 43.9790 25.6969 101.0551 0.0000 -1.6297 0.0000
# 4 0.0000 0.0000 0.0000 19.8727 0.0000 3.3114
# 5 -4.6985 -3.4944 -1.6297 0.0000 37.6567 0.0000
# 6 0.0000 0.0000 0.0000 3.3114 0.0000 17.0877
#
#
#
# Elastic Compliance Matrix: (Units=1/GPa)
#
#
# Indices 1 2 3 4 5 6 
#
# 1 0.010322 -0.005265 -0.003143 0.000000 0.000663 0.000000
# 2 -0.005265 0.021851 -0.003245 0.000000 0.001230 0.000000
# 3 -0.003143 -0.003245 0.012086 0.000000 -0.000170 0.000000
# 4 0.000000 0.000000 0.000000 0.051999 0.000000 -0.010077
# 5 0.000663 0.001230 -0.000170 0.000000 0.026745 0.000000
# 6 0.000000 0.000000 0.000000 -0.010077 0.000000 0.060474
#
#
# Mechanical properties :
#
#
# Convention : Reuss Voigt Hill
#
# Bulk Modulus (GPa) = 47.72594 56.18177 51.95386
# Shear Modulus (GPa) = 23.38986 27.07248 25.23117
#
# Velocity S-wave (km/s) = 3.51152 3.77786 3.64712
# Velocity P-wave (km/s) = 6.44992 6.97480 6.71749
#
# Compressibility (1/GPa) = 0.02095297
#
# Stress axis : x y z
#
# Youngs Moduli (GPa) = 96.87885 45.76469 82.74214
#
# Poissons Ratio (x) = 0.24095 0.26003
# Poissons Ratio (y) = 0.51007 0.26851
# Poissons Ratio (z) = 0.30446 0.14852
#
# Static dielectric constant tensor:
#      x y z
#    x 3.749160 0.000000 0.055770 
#    y 0.000000 3.449120 0.000000 
#    z 0.055770 0.000000 3.543090 
# 
# 
# High freq. dielectric constant tensor:
#      x y z
#    x 1.748280 0.000000 0.001170 
#    y 0.000000 1.707880 0.000000 
#    z 0.001170 0.000000 1.743770 
# 
# From -- ./inp_files/249720.got.cif
#   From: 2010.06.25/outbox.cif.g09.slc.cpg/sg12_125_cif.got.tgz:249720.got - 2010.06.28 00:19:55.
