data_PCOD8087703
_publ_section_title
;
Structure prediction by ZEFSAII (Michael W. Deem and Ramdas Pophale) SiO2 
 PCOD8087703
Probable space group: C 2/M
;
_chemical_formula_sum "Si O2"
_cell_formula_units_Z 56
_cell_length_a 19.781548
_cell_length_b 8.768615
_cell_length_c 23.411722
_cell_angle_alpha 90.000000
_cell_angle_beta 50.244023
_cell_angle_gamma 90.000000
_cell_volume 3121.935715
_symmetry_space_group_name_H-M "C 2/M"
_symmetry_group_IT_number 12
_symmetry_cell_setting 'monoclinic'
loop_
_space_group_symop_operation_xyz
x,y,z
-x,y,-z
-x,-y,-z
x,-y,z
1/2+x,1/2+y,z
1/2-x,1/2+y,-z
1/2-x,1/2-y,-z
1/2+x,1/2-y,z
loop_
_atom_site_type_symbol
_atom_site_label
_atom_site_fract_x
_atom_site_fract_y
_atom_site_fract_z
Si Si1 0.948349 0.179540 0.335740
Si Si2 0.772718 0.681252 0.225954
Si Si3 0.249909 0.678420 0.938273
Si Si4 0.295888 0.820666 0.342724
Si Si5 0.595597 0.178035 0.939341
Si Si6 0.864711 0.679692 0.779991
Si Si7 0.324299 0.675509 0.496138
O O1 0.872748 0.225941 0.331588
O O2 0.918306 0.223516 0.417698
O O3 0.033654 0.277094 0.276549
O O4 0.968450 0.000000 0.318553
O O5 0.762686 0.500000 0.226681
O O6 0.787349 0.736462 0.282533
O O7 0.855238 0.741633 0.143688
O O8 0.683386 0.752839 0.249700
O O9 0.269508 0.500000 0.931107
O O10 0.154459 0.711875 0.962918
O O11 0.325392 0.753745 0.859527
O O12 0.250000 0.750000 0.000000
O O13 0.199368 0.788982 0.424677
O O14 0.319314 0.000000 0.332862
O O15 0.581735 0.000000 0.937307
O O16 0.500000 0.256723 0.000000
O O17 0.853561 0.500000 0.786617
O O18 0.314432 0.500000 0.488864
O O19 0.250000 0.750000 0.500000
#
# Coordination Sequence:
#
# PCOD8087703 Si02
#       7
#     8   8   8   8   8   8   8
#     4  10  19  32  51  75 103 133 169 214 261 306
#     4   9  18  33  52  73 101 135 168 208 256 306
#     4  10  20  35  55  78 104 133 166 206 253 303
#     4   9  17  31  52  77 102 131 171 212 256 313
#     4   8  15  29  49  72  97 127 162 198 239 289
#     4  11  22  36  53  72 100 138 176 213 255 302
#     4   8  15  28  47  71  99 131 165 207 257 307
#
# _framework density 17.937588999999999
#
# number of rings (size 3 to 8) (size 9 to 14) (size 15 to 20)
#    0.000    2.714    0.000    3.000    0.000    2.286 
#    0.000    3.571    0.000   15.000    0.000    0.000 
#    0.000    0.000    0.000    0.000    0.000    0.000 
#
# Total GULP energy -346934.177467 kJ/mol
# GULP energy per Si atom -12390.506338 kJ/mol
# Density = 1.789676 g / cm^3
# Si number density = 17.937589 Si / 1000 Ang^3
#
#
#
# Elastic Constant Matrix: (Units=GPa)
#
#
# Indices 1 2 3 4 5 6 
#
# 1 82.6940 32.9048 72.0502 0.0000 2.5250 0.0001
# 2 32.9048 59.0378 44.6224 -0.0001 -0.2694 0.0004
# 3 72.0502 44.6224 129.0695 0.0000 6.6117 0.0000
# 4 0.0000 -0.0001 0.0000 22.3189 0.0000 0.8699
# 5 2.5250 -0.2694 6.6117 0.0000 32.3747 0.0000
# 6 0.0001 0.0004 0.0000 0.8699 0.0000 25.1922
#
#
#
# Elastic Compliance Matrix: (Units=1/GPa)
#
#
# Indices 1 2 3 4 5 6 
#
# 1 0.024395 -0.004441 -0.012110 0.000000 0.000534 0.000000
# 2 -0.004441 0.023846 -0.005854 0.000000 0.001740 0.000000
# 3 -0.012110 -0.005854 0.016660 0.000000 -0.002507 0.000000
# 4 0.000000 0.000000 0.000000 0.044865 0.000000 -0.001549
# 5 0.000534 0.001740 -0.002507 0.000000 0.031373 0.000000
# 6 0.000000 0.000000 0.000000 -0.001549 0.000000 0.039748
#
#
# Mechanical properties :
#
#
# Convention : Reuss Voigt Hill
#
# Bulk Modulus (GPa) = 49.77365 63.32843 56.55104
# Shear Modulus (GPa) = 21.51508 24.05875 22.78692
#
# Velocity S-wave (km/s) = 3.46705 3.66628 3.56806
# Velocity P-wave (km/s) = 6.62086 7.30093 6.96920
#
# Compressibility (1/GPa) = 0.02009095
#
# Stress axis : x y z
#
# Youngs Moduli (GPa) = 40.99250 41.93526 60.02367
#
# Poissons Ratio (x) = 0.18624 0.72687
# Poissons Ratio (y) = 0.18205 0.35139
# Poissons Ratio (z) = 0.49641 0.24550
#
# Static dielectric constant tensor:
#      x y z
#    x 3.140990 0.000000 -0.038620 
#    y 0.000000 3.169060 0.000000 
#    z -0.038620 0.000000 4.058570 
# 
# 
# High freq. dielectric constant tensor:
#      x y z
#    x 1.670760 0.000000 -0.002080 
#    y 0.000000 1.684330 0.000000 
#    z -0.002080 0.000000 1.714290 
# 
# From -- ./inp_files/341922.got.cif
#   From: 2010.06.25/outbox.cif.g09.slc.cpg/sg12_171_cif.got.tgz:341922.got - 2010.06.28 00:19:55.
