data_PCOD8087367
_publ_section_title
;
Structure prediction by ZEFSAII (Michael W. Deem and Ramdas Pophale) SiO2 
 PCOD8087367
Probable space group: C 2/M
;
_chemical_formula_sum "Si O2"
_cell_formula_units_Z 56
_cell_length_a 9.717007
_cell_length_b 22.494711
_cell_length_c 19.633031
_cell_angle_alpha 90.000000
_cell_angle_beta 138.360510
_cell_angle_gamma 90.000000
_cell_volume 2851.392545
_symmetry_space_group_name_H-M "C 2/M"
_symmetry_group_IT_number 12
_symmetry_cell_setting 'monoclinic'
loop_
_space_group_symop_operation_xyz
x,y,z
-x,y,-z
-x,-y,-z
x,-y,z
1/2+x,1/2+y,z
1/2-x,1/2+y,-z
1/2-x,1/2-y,-z
1/2+x,1/2-y,z
loop_
_atom_site_type_symbol
_atom_site_label
_atom_site_fract_x
_atom_site_fract_y
_atom_site_fract_z
Si Si1 0.640513 0.120216 0.784785
Si Si2 0.288114 0.622227 0.216902
Si Si3 0.830567 0.118468 0.386049
Si Si4 0.807359 0.743360 0.390920
Si Si5 0.351580 0.930096 0.065839
Si Si6 0.499440 0.570144 0.830250
Si Si7 0.860516 0.746794 0.262771
O O1 0.404095 0.101530 0.679416
O O2 0.706558 0.097886 0.883217
O O3 0.664299 0.192202 0.798836
O O4 0.779395 0.090492 0.778162
O O5 0.366165 0.600144 0.320270
O O6 0.461642 0.603231 0.226906
O O7 0.240313 0.693407 0.196492
O O8 0.071883 0.591094 0.118516
O O9 0.862868 0.188227 0.401600
O O10 0.000000 0.088032 0.500000
O O11 0.781600 0.718664 0.304789
O O12 0.601083 0.732983 0.358175
O O13 0.000000 0.711293 0.500000
O O14 0.355268 0.000000 0.076606
O O15 0.177410 0.909944 0.948396
O O16 0.499466 0.500000 0.817757
#
# Coordination Sequence:
#
# PCOD8087367 Si02
#       7
#     8   8   8   8   8   8   8
#     4  10  20  35  56  82 112 141 174 221 272 318
#     4  10  20  35  56  82 112 141 174 221 272 318
#     4   8  17  34  55  78 107 148 186 211 248 316
#     4   9  16  28  48  74 105 142 182 216 250 299
#     4  10  21  39  60  77  98 139 193 231 258 309
#     4  11  22  37  58  82 104 133 182 237 276 305
#     4  10  19  32  49  78 114 140 166 212 270 328
#
# _framework density 19.639527000000001
#
# number of rings (size 3 to 8) (size 9 to 14) (size 15 to 20)
#    0.000    2.286    0.000    3.857    0.000    3.429 
#    0.000    5.000    0.000   16.286    0.000    0.000 
#    0.000    0.000    0.000    0.000    0.000    0.000 
#
# Total GULP energy -347126.019864 kJ/mol
# GULP energy per Si atom -12397.357852 kJ/mol
# Density = 1.959483 g / cm^3
# Si number density = 19.639527 Si / 1000 Ang^3
#
#
#
# Elastic Constant Matrix: (Units=GPa)
#
#
# Indices 1 2 3 4 5 6 
#
# 1 140.9636 21.9877 46.4500 0.0013 -7.7350 -0.0008
# 2 21.9877 59.6165 33.6977 -0.0015 -10.4393 0.0010
# 3 46.4500 33.6977 108.9518 0.0110 -4.0864 -0.0074
# 4 0.0013 -0.0015 0.0110 60.6228 0.0035 -32.4662
# 5 -7.7350 -10.4393 -4.0864 0.0035 18.8426 -0.0023
# 6 -0.0008 0.0010 -0.0074 -32.4662 -0.0023 55.5777
#
#
#
# Elastic Compliance Matrix: (Units=1/GPa)
#
#
# Indices 1 2 3 4 5 6 
#
# 1 0.008421 -0.000882 -0.003232 0.000000 0.002267 0.000000
# 2 -0.000882 0.022469 -0.006170 0.000001 0.010748 0.000000
# 3 -0.003232 -0.006170 0.012388 -0.000002 -0.002059 0.000000
# 4 0.000000 0.000001 -0.000002 0.024005 -0.000003 0.014023
# 5 0.002267 0.010748 -0.002059 -0.000003 0.059510 0.000000
# 6 0.000000 0.000000 0.000000 0.014023 0.000000 0.026184
#
#
# Mechanical properties :
#
#
# Convention : Reuss Voigt Hill
#
# Bulk Modulus (GPa) = 44.03610 57.08918 50.56264
# Shear Modulus (GPa) = 27.60651 40.83505 34.22078
#
# Velocity S-wave (km/s) = 3.75328 4.56480 4.17879
# Velocity P-wave (km/s) = 6.42290 7.54419 7.00602
#
# Compressibility (1/GPa) = 0.02270864
#
# Stress axis : x y z
#
# Youngs Moduli (GPa) = 118.74880 44.50585 80.72513
#
# Poissons Ratio (x) = 0.03924 0.26094
# Poissons Ratio (y) = 0.10470 0.49811
# Poissons Ratio (z) = 0.38385 0.27462
#
# Static dielectric constant tensor:
#      x y z
#    x 3.703860 0.000000 -0.067020 
#    y 0.000000 3.382210 0.000000 
#    z -0.067020 0.000000 3.704230 
# 
# 
# High freq. dielectric constant tensor:
#      x y z
#    x 1.782560 0.000000 -0.000130 
#    y 0.000000 1.744160 0.000000 
#    z -0.000130 0.000000 1.749120 
# 
# From -- ./inp_files/198377.got.cif
#   From: 2010.06.25/outbox.cif.g09.slc.cpg/sg12_100_cif.got.tgz:198377.got - 2010.06.28 00:19:55.
