data_PCOD8087675
_publ_section_title
;
Structure prediction by ZEFSAII (Michael W. Deem and Ramdas Pophale) SiO2 
 PCOD8087675
Probable space group: C 2/M
;
_chemical_formula_sum "Si O2"
_cell_formula_units_Z 64
_cell_length_a 18.886842
_cell_length_b 17.669363
_cell_length_c 23.042311
_cell_angle_alpha 90.000000
_cell_angle_beta 28.849566
_cell_angle_gamma 90.000000
_cell_volume 3710.342601
_symmetry_space_group_name_H-M "C 2/M"
_symmetry_group_IT_number 12
_symmetry_cell_setting 'monoclinic'
loop_
_space_group_symop_operation_xyz
x,y,z
-x,y,-z
-x,-y,-z
x,-y,z
1/2+x,1/2+y,z
1/2-x,1/2+y,-z
1/2-x,1/2-y,-z
1/2+x,1/2-y,z
loop_
_atom_site_type_symbol
_atom_site_label
_atom_site_fract_x
_atom_site_fract_y
_atom_site_fract_z
Si Si1 0.100255 0.806398 0.477965
Si Si2 0.621333 0.216015 0.289843
Si Si3 0.819789 0.199999 0.254951
Si Si4 0.058569 0.308859 0.115260
Si Si5 0.643464 0.299295 0.155201
Si Si6 0.152761 0.416023 0.673299
Si Si7 0.886903 0.909795 0.305411
Si Si8 0.090699 0.415837 0.584689
O O1 0.201291 0.739374 0.381376
O O2 0.194849 0.872098 0.437888
O O3 0.000000 0.842627 0.500000
O O4 0.995715 0.774203 0.601671
O O5 0.754669 0.193175 0.237016
O O6 0.675516 0.260342 0.194068
O O7 0.542981 0.136572 0.336828
O O8 0.861033 0.120863 0.257852
O O9 0.965594 0.250318 0.143125
O O10 0.094987 0.269875 0.149972
O O11 0.962799 0.382556 0.197890
O O12 0.203347 0.334640 0.977033
O O13 0.522244 0.366135 0.239675
O O14 0.185669 0.500000 0.671322
O O15 0.091476 0.414132 0.653032
O O16 0.745470 0.890239 0.446111
O O17 0.918904 0.000000 0.279931
O O18 0.054702 0.500000 0.587675
#
# Coordination Sequence:
#
# PCOD8087675 Si02
#       8
#     8   8   8   8   8   8   8   8
#     4   9  18  31  49  76 102 133 176 210 257 320
#     4  11  19  32  54  77 106 144 172 223 265 312
#     4   9  19  33  52  76 105 138 178 214 264 315
#     4   9  19  36  51  74  98 129 185 226 259 314
#     4  10  20  33  55  76  97 138 180 225 267 305
#     4  10  19  32  51  74 104 137 170 219 269 313
#     4  10  20  34  52  79 113 144 175 215 266 325
#     4  10  20  31  49  80 111 140 174 211 263 320
#
# _framework density 17.249081
#
# number of rings (size 3 to 8) (size 9 to 14) (size 15 to 20)
#    0.000    2.250    2.500    0.750    0.000    2.750 
#    0.000    1.250    0.000    3.000    0.000   12.250 
#    0.000    0.000    0.000    0.000    0.000    0.000 
#
# Total GULP energy -396648.253821 kJ/mol
# GULP energy per Si atom -12395.257932 kJ/mol
# Density = 1.720982 g / cm^3
# Si number density = 17.249081 Si / 1000 Ang^3
#
#
#
# Elastic Constant Matrix: (Units=GPa)
#
#
# Indices 1 2 3 4 5 6 
#
# 1 87.7007 41.8171 26.0103 -0.0008 -0.2778 0.0023
# 2 41.8171 90.9899 30.6559 0.0032 2.4887 -0.0009
# 3 26.0103 30.6559 53.5967 -0.0004 -2.8031 -0.0085
# 4 -0.0008 0.0032 -0.0004 12.2240 -0.0038 2.7313
# 5 -0.2778 2.4887 -2.8031 -0.0038 19.5352 -0.0004
# 6 0.0023 -0.0009 -0.0085 2.7313 -0.0004 23.7781
#
#
#
# Elastic Compliance Matrix: (Units=1/GPa)
#
#
# Indices 1 2 3 4 5 6 
#
# 1 0.015340 -0.005645 -0.004198 0.000003 0.000335 -0.000004
# 2 -0.005645 0.015853 -0.006486 -0.000006 -0.003031 -0.000001
# 3 -0.004198 -0.006486 0.024630 0.000002 0.004301 0.000009
# 4 0.000003 -0.000006 0.000002 0.083961 0.000017 -0.009644
# 5 0.000335 -0.003031 0.004301 0.000017 0.052198 0.000000
# 6 -0.000004 -0.000001 0.000009 -0.009644 0.000000 0.043163
#
#
# Mechanical properties :
#
#
# Convention : Reuss Voigt Hill
#
# Bulk Modulus (GPa) = 43.17028 47.69488 45.43258
# Shear Modulus (GPa) = 18.14711 20.02772 19.08742
#
# Velocity S-wave (km/s) = 3.24707 3.41117 3.33013
# Velocity P-wave (km/s) = 6.25619 6.57461 6.41737
#
# Compressibility (1/GPa) = 0.02316409
#
# Stress axis : x y z
#
# Youngs Moduli (GPa) = 65.18860 63.08077 40.60026
#
# Poissons Ratio (x) = 0.35607 0.17046
# Poissons Ratio (y) = 0.36797 0.26335
# Poissons Ratio (z) = 0.27369 0.40917
#
# Static dielectric constant tensor:
#      x y z
#    x 3.255310 0.000010 -0.159040 
#    y 0.000010 3.192210 0.000040 
#    z -0.159040 0.000040 3.150170 
# 
# 
# High freq. dielectric constant tensor:
#      x y z
#    x 1.665200 0.000000 -0.005780 
#    y 0.000000 1.657930 0.000000 
#    z -0.005780 0.000000 1.661270 
# 
# From -- ./inp_files/157854.got.cif
#   From: 2010.06.25/outbox.cif.g09.slc.cpg/sg12_79_cif.got.tgz:157854.got - 2010.06.28 00:19:55.
