data_PCOD8087938
_publ_section_title
;
Structure prediction by ZEFSAII (Michael W. Deem and Ramdas Pophale) SiO2 
 PCOD8087938
Probable space group: C 2/M
;
_chemical_formula_sum "Si O2"
_cell_formula_units_Z 56
_cell_length_a 14.520473
_cell_length_b 8.739240
_cell_length_c 26.287605
_cell_angle_alpha 90.000000
_cell_angle_beta 65.748602
_cell_angle_gamma 90.000000
_cell_volume 3041.460533
_symmetry_space_group_name_H-M "C 2/M"
_symmetry_group_IT_number 12
_symmetry_cell_setting 'monoclinic'
loop_
_space_group_symop_operation_xyz
x,y,z
-x,y,-z
-x,-y,-z
x,-y,z
1/2+x,1/2+y,z
1/2-x,1/2+y,-z
1/2-x,1/2-y,-z
1/2+x,1/2-y,z
loop_
_atom_site_type_symbol
_atom_site_label
_atom_site_fract_x
_atom_site_fract_y
_atom_site_fract_z
Si Si1 0.476937 0.676026 0.559782
Si Si2 0.252689 0.181996 0.852131
Si Si3 0.948196 0.319047 0.063696
Si Si4 0.176357 0.681877 0.767599
Si Si5 0.960555 0.319868 0.852282
Si Si6 0.265201 0.681536 0.641957
Si Si7 0.312651 0.676114 0.440332
O O1 0.500000 0.756208 0.500000
O O2 0.450852 0.500000 0.554265
O O3 0.378494 0.748198 0.608894
O O4 0.569351 0.695538 0.576420
O O5 0.160356 0.238686 0.907871
O O6 0.242616 0.244867 0.797349
O O7 0.357201 0.249188 0.852489
O O8 0.253052 0.000000 0.850691
O O9 0.929505 0.500000 0.069444
O O10 0.021613 0.267674 0.093306
O O11 0.000000 0.264876 0.000000
O O12 0.186168 0.500000 0.770369
O O13 0.058973 0.733115 0.797835
O O14 0.219390 0.746269 0.704696
O O15 0.950438 0.500000 0.852189
O O16 0.261915 0.500000 0.644545
O O17 0.200188 0.737691 0.609435
O O18 0.280263 0.500000 0.443336
O O19 0.250000 0.750000 0.500000
#
# Coordination Sequence:
#
# PCOD8087938 Si02
#       7
#     8   8   8   8   8   8   8
#     4   9  17  32  52  72 100 133 161 198 254 308
#     4  10  19  32  52  75 104 137 169 213 263 300
#     4   9  18  34  54  76 106 143 179 210 247 303
#     4   9  19  36  55  73  99 135 175 211 251 312
#     4   8  16  32  51  73 103 138 169 209 262 298
#     4  10  20  36  56  76  99 133 171 209 256 309
#     4  11  21  34  53  75 101 132 165 204 251 306
#
# _framework density 18.412206999999999
#
# number of rings (size 3 to 8) (size 9 to 14) (size 15 to 20)
#    0.000    2.571    1.429    1.714    0.000    2.571 
#    0.000    7.857    0.000    0.000    0.000    0.000 
#    0.000    0.000    0.000    0.000    0.000    0.000 
#
# Total GULP energy -347108.790304 kJ/mol
# GULP energy per Si atom -12396.742511 kJ/mol
# Density = 1.837030 g / cm^3
# Si number density = 18.412207 Si / 1000 Ang^3
#
#
#
# Elastic Constant Matrix: (Units=GPa)
#
#
# Indices 1 2 3 4 5 6 
#
# 1 148.3383 19.5740 85.0207 0.0000 -3.7963 0.0000
# 2 19.5740 23.8943 25.0231 0.0000 -0.7913 0.0000
# 3 85.0207 25.0231 194.0347 0.0000 2.5007 0.0000
# 4 0.0000 0.0000 0.0000 21.3947 0.0000 4.0763
# 5 -3.7963 -0.7913 2.5007 0.0000 21.0924 0.0000
# 6 0.0000 0.0000 0.0000 4.0763 0.0000 25.7027
#
#
#
# Elastic Compliance Matrix: (Units=1/GPa)
#
#
# Indices 1 2 3 4 5 6 
#
# 1 0.009384 -0.003803 -0.003647 0.000000 0.001979 0.000000
# 2 -0.003803 0.050065 -0.004813 0.000000 0.001764 0.000000
# 3 -0.003647 -0.004813 0.007394 0.000000 -0.001714 0.000000
# 4 0.000000 0.000000 0.000000 0.048197 0.000000 -0.007644
# 5 0.001979 0.001764 -0.001714 0.000000 0.048036 0.000000
# 6 0.000000 0.000000 0.000000 -0.007644 0.000000 0.040119
#
#
# Mechanical properties :
#
#
# Convention : Reuss Voigt Hill
#
# Bulk Modulus (GPa) = 23.63043 69.50031 46.56537
# Shear Modulus (GPa) = 20.67602 29.41458 25.04530
#
# Velocity S-wave (km/s) = 3.35468 4.00128 3.69217
# Velocity P-wave (km/s) = 5.27894 7.69258 6.59708
#
# Compressibility (1/GPa) = 0.04231832
#
# Stress axis : x y z
#
# Youngs Moduli (GPa) = 106.56426 19.97410 135.23582
#
# Poissons Ratio (x) = 0.07595 0.49320
# Poissons Ratio (y) = 0.40521 0.65089
# Poissons Ratio (z) = 0.38863 0.09614
#
# Static dielectric constant tensor:
#      x y z
#    x 3.604860 0.000000 -0.067860 
#    y 0.000000 3.109230 0.000000 
#    z -0.067860 0.000000 3.607180 
# 
# 
# High freq. dielectric constant tensor:
#      x y z
#    x 1.722240 0.000000 -0.001850 
#    y 0.000000 1.684080 0.000000 
#    z -0.001850 0.000000 1.719650 
# 
# From -- ./inp_files/359668.got.cif
#   From: 2010.06.25/outbox.cif.g09.slc.cpg/sg12_180_cif.got.tgz:359668.got - 2010.06.28 00:19:55.
