data_PCOD8087329
_publ_section_title
;
Structure prediction by ZEFSAII (Michael W. Deem and Ramdas Pophale) SiO2 
 PCOD8087329
Probable space group: C 2/M
;
_chemical_formula_sum "Si O2"
_cell_formula_units_Z 64
_cell_length_a 9.016390
_cell_length_b 28.248451
_cell_length_c 15.609758
_cell_angle_alpha 90.000000
_cell_angle_beta 90.000000
_cell_angle_gamma 90.000000
_cell_volume 3975.790551
_symmetry_space_group_name_H-M "C 2/M"
_symmetry_group_IT_number 12
_symmetry_cell_setting 'monoclinic'
loop_
_space_group_symop_operation_xyz
x,y,z
-x,y,-z
-x,-y,-z
x,-y,z
1/2+x,1/2+y,z
1/2-x,1/2+y,-z
1/2-x,1/2-y,-z
1/2+x,1/2-y,z
loop_
_atom_site_type_symbol
_atom_site_label
_atom_site_fract_x
_atom_site_fract_y
_atom_site_fract_z
Si Si1 0.171053 0.446297 0.099030
Si Si2 0.674625 0.801188 0.314025
Si Si3 0.671052 0.946297 0.900969
Si Si4 0.825769 0.800379 0.000000
Si Si5 0.325376 0.198813 0.314024
Si Si6 0.174790 0.858497 0.166576
Si Si7 0.325211 0.358497 0.166576
Si Si8 0.669122 0.798559 0.500000
O O1 0.198555 0.500000 0.129699
O O2 0.274842 0.412662 0.155592
O O3 0.000000 0.432118 0.112320
O O4 0.215879 0.441076 1.000000
O O5 0.500001 0.795424 0.295867
O O6 0.750001 0.750000 0.303254
O O7 0.744451 0.837893 0.248874
O O8 0.705792 0.824120 0.409280
O O9 0.774841 0.912662 0.844407
O O10 0.698554 0.000000 0.870300
O O11 0.774197 0.828985 0.083537
O O12 0.750000 0.750000 0.000000
O O13 0.774197 0.828985 0.916464
O O14 0.000000 0.792447 0.000000
O O15 0.255549 0.162107 0.248873
O O16 0.294209 0.175880 0.409280
O O17 0.000000 0.856434 0.180568
O O18 0.500000 0.784071 0.500000
O O19 0.750000 0.750000 0.500000
#
# Coordination Sequence:
#
# PCOD8087329 Si02
#       8
#     8   8   8   8   8   8   8   8
#     4   9  18  33  52  72  93 121 159 201 243 284
#     4  10  19  32  49  71  97 128 162 200 240 284
#     4   9  18  33  52  72  93 121 159 201 243 284
#     4  10  22  34  43  60  91 129 164 193 225 268
#     4  10  19  32  49  71  97 128 162 200 240 284
#     4  11  21  33  47  69  97 129 164 197 236 283
#     4  11  21  33  47  69  97 129 164 197 236 283
#     4   8  16  30  48  68  93 122 157 198 242 283
#
# _framework density 16.097427
#
# number of rings (size 3 to 8) (size 9 to 14) (size 15 to 20)
#    0.000    2.250    1.250    3.000    0.000    5.500 
#    0.000    1.250    0.000    0.000    0.000    0.875 
#    0.000    7.000    0.000    0.000    0.000    0.000 
#
# Total GULP energy -396634.378792 kJ/mol
# GULP energy per Si atom -12394.824337 kJ/mol
# Density = 1.606079 g / cm^3
# Si number density = 16.097427 Si / 1000 Ang^3
#
#
#
# Elastic Constant Matrix: (Units=GPa)
#
#
# Indices 1 2 3 4 5 6 
#
# 1 71.7699 42.4069 55.5915 0.0000 2.7600 0.0000
# 2 42.4069 91.9778 54.0124 0.0000 1.0033 0.0000
# 3 55.5915 54.0124 129.3703 0.0000 2.2196 0.0000
# 4 0.0000 0.0000 0.0000 10.1984 0.0000 -1.6898
# 5 2.7600 1.0033 2.2196 0.0000 24.0056 0.0000
# 6 0.0000 0.0000 0.0000 -1.6898 0.0000 29.7443
#
#
#
# Elastic Compliance Matrix: (Units=1/GPa)
#
#
# Indices 1 2 3 4 5 6 
#
# 1 0.023562 -0.006513 -0.007376 0.000000 -0.001755 0.000000
# 2 -0.006513 0.016204 -0.003974 0.000000 0.000439 0.000000
# 3 -0.007376 -0.003974 0.012561 0.000000 -0.000147 0.000000
# 4 0.000000 0.000000 0.000000 0.098987 0.000000 0.005623
# 5 -0.001755 0.000439 -0.000147 0.000000 0.041854 0.000000
# 6 0.000000 0.000000 0.000000 0.005623 0.000000 0.033939
#
#
# Mechanical properties :
#
#
# Convention : Reuss Voigt Hill
#
# Bulk Modulus (GPa) = 60.23508 66.34885 63.29197
# Shear Modulus (GPa) = 18.63125 22.19680 20.41402
#
# Velocity S-wave (km/s) = 3.40576 3.71739 3.56498
# Velocity P-wave (km/s) = 7.27777 7.72864 7.50659
#
# Compressibility (1/GPa) = 0.01660162
#
# Stress axis : x y z
#
# Youngs Moduli (GPa) = 42.44065 61.71312 79.61326
#
# Poissons Ratio (x) = 0.40195 0.58719
# Poissons Ratio (y) = 0.27643 0.31638
# Poissons Ratio (z) = 0.31302 0.24524
#
# Static dielectric constant tensor:
#      x y z
#    x 3.120490 0.000000 0.120850 
#    y 0.000000 2.853980 0.000000 
#    z 0.120850 0.000000 4.518470 
# 
# 
# High freq. dielectric constant tensor:
#      x y z
#    x 1.630010 0.000000 -0.001180 
#    y 0.000000 1.594730 0.000000 
#    z -0.001180 0.000000 1.616350 
# 
# From -- ./inp_files/199790.got.cif
#   From: 2010.06.25/outbox.cif.g09.slc.cpg/sg12_100_cif.got.tgz:199790.got - 2010.06.28 00:19:55.
