data_PCOD8087959
_publ_section_title
;
Structure prediction by ZEFSAII (Michael W. Deem and Ramdas Pophale) SiO2 
 PCOD8087959
Probable space group: C 2/M
;
_chemical_formula_sum "Si O2"
_cell_formula_units_Z 48
_cell_length_a 32.505597
_cell_length_b 9.032493
_cell_length_c 18.129750
_cell_angle_alpha 90.000000
_cell_angle_beta 30.148320
_cell_angle_gamma 90.000000
_cell_volume 2673.431423
_symmetry_space_group_name_H-M "C 2/M"
_symmetry_group_IT_number 12
_symmetry_cell_setting 'monoclinic'
loop_
_space_group_symop_operation_xyz
x,y,z
-x,y,-z
-x,-y,-z
x,-y,z
1/2+x,1/2+y,z
1/2-x,1/2+y,-z
1/2-x,1/2-y,-z
1/2+x,1/2-y,z
loop_
_atom_site_type_symbol
_atom_site_label
_atom_site_fract_x
_atom_site_fract_y
_atom_site_fract_z
Si Si1 0.583643 0.167196 0.915166
Si Si2 0.833604 0.324801 0.848359
Si Si3 0.829727 0.825877 0.343922
Si Si4 0.421007 0.162860 0.571391
Si Si5 0.015013 0.172590 0.311259
Si Si6 0.493894 0.328903 0.174442
O O1 0.652392 0.260417 0.765129
O O2 0.615556 0.000000 0.875871
O O3 0.500000 0.172745 0.000000
O O4 0.566159 0.237975 0.022218
O O5 0.829830 0.500000 0.866308
O O6 0.848021 0.286257 0.739261
O O7 0.904970 0.261893 0.789329
O O8 0.750000 0.250000 0.000000
O O9 0.750000 0.750000 0.500000
O O10 0.904596 0.786968 0.282163
O O11 0.815016 0.000000 0.359565
O O12 0.500000 0.153105 0.500000
O O13 0.435810 0.278083 0.482197
O O14 0.402735 0.000000 0.566075
O O15 0.994860 0.211287 0.258588
O O16 0.030898 0.000000 0.299393
O O17 0.512798 0.500000 0.130333
#
# Coordination Sequence:
#
# PCOD8087959 Si02
#       6
#     8   8   8   8   8   8
#     4   9  17  30  50  74  97 126 166 205 243 293
#     4  10  20  34  52  74 100 131 166 205 247 292
#     4  10  19  33  52  73 100 132 166 205 248 295
#     4   8  16  31  49  70  97 128 162 199 241 290
#     4  10  19  32  52  76 100 128 164 203 244 294
#     4   9  19  34  51  73 101 131 162 200 247 296
#
# _framework density 17.954453000000001
#
# number of rings (size 3 to 8) (size 9 to 14) (size 15 to 20)
#    0.000    2.667    0.000    3.000    0.000    7.667 
#    0.000    1.667    0.000    4.000    0.000    0.000 
#    0.000    0.000    0.000    0.000    0.000    0.000 
#
# Total GULP energy -297547.535962 kJ/mol
# GULP energy per Si atom -12397.813998 kJ/mol
# Density = 1.791359 g / cm^3
# Si number density = 17.954453 Si / 1000 Ang^3
#
#
#
# Elastic Constant Matrix: (Units=GPa)
#
#
# Indices 1 2 3 4 5 6 
#
# 1 80.8567 54.7108 53.8541 -0.0001 25.9021 0.0000
# 2 54.7108 121.1750 82.6696 -0.0004 20.6019 0.0001
# 3 53.8541 82.6696 156.6103 -0.0004 28.9403 0.0000
# 4 -0.0001 -0.0004 -0.0004 37.6739 0.0000 7.4915
# 5 25.9021 20.6019 28.9403 0.0000 26.7869 0.0000
# 6 0.0000 0.0001 0.0000 7.4915 0.0000 24.3055
#
#
#
# Elastic Compliance Matrix: (Units=1/GPa)
#
#
# Indices 1 2 3 4 5 6 
#
# 1 0.022762 -0.006666 -0.001485 0.000000 -0.015279 0.000000
# 2 -0.006666 0.015073 -0.005889 0.000000 0.001216 0.000000
# 3 -0.001485 -0.005889 0.011123 0.000000 -0.006052 0.000000
# 4 0.000000 0.000000 0.000000 0.028277 0.000000 -0.008715
# 5 -0.015279 0.001216 -0.006052 0.000000 0.057709 0.000000
# 6 0.000000 0.000000 0.000000 -0.008715 0.000000 0.043829
#
#
# Mechanical properties :
#
#
# Convention : Reuss Voigt Hill
#
# Bulk Modulus (GPa) = 47.89834 82.34568 65.12201
# Shear Modulus (GPa) = 23.38497 28.91376 26.14936
#
# Velocity S-wave (km/s) = 3.61288 4.01733 3.82046
# Velocity P-wave (km/s) = 6.64375 8.21473 7.47065
#
# Compressibility (1/GPa) = 0.02087755
#
# Stress axis : x y z
#
# Youngs Moduli (GPa) = 43.93358 66.34195 89.90502
#
# Poissons Ratio (x) = 0.44226 0.13349
# Poissons Ratio (y) = 0.29287 0.52945
# Poissons Ratio (z) = 0.06523 0.39069
#
# Static dielectric constant tensor:
#      x y z
#    x 3.127960 0.000000 0.337380 
#    y 0.000000 3.468780 0.000000 
#    z 0.337380 0.000000 3.635210 
# 
# 
# High freq. dielectric constant tensor:
#      x y z
#    x 1.664390 0.000000 0.026880 
#    y 0.000000 1.706980 0.000000 
#    z 0.026880 0.000000 1.698370 
# 
# From -- ./inp_files/274576.got.cif
#   From: 2010.06.25/outbox.cif.g09.slc.cpg/sg12_138_cif.got.tgz:274576.got - 2010.06.28 00:19:55.
