data_PCOD8087807
_publ_section_title
;
Structure prediction by ZEFSAII (Michael W. Deem and Ramdas Pophale) SiO2 
 PCOD8087807
Probable space group: C 2/M
;
_chemical_formula_sum "Si O2"
_cell_formula_units_Z 56
_cell_length_a 14.555693
_cell_length_b 8.786618
_cell_length_c 26.300865
_cell_angle_alpha 90.000000
_cell_angle_beta 65.434132
_cell_angle_gamma 90.000000
_cell_volume 3059.283300
_symmetry_space_group_name_H-M "C 2/M"
_symmetry_group_IT_number 12
_symmetry_cell_setting 'monoclinic'
loop_
_space_group_symop_operation_xyz
x,y,z
-x,y,-z
-x,-y,-z
x,-y,z
1/2+x,1/2+y,z
1/2-x,1/2+y,-z
1/2-x,1/2-y,-z
1/2+x,1/2-y,z
loop_
_atom_site_type_symbol
_atom_site_label
_atom_site_fract_x
_atom_site_fract_y
_atom_site_fract_z
Si Si1 0.968724 0.181277 0.852136
Si Si2 0.266951 0.679858 0.642228
Si Si3 0.171127 0.681271 0.767685
Si Si4 0.739347 0.679006 0.147724
Si Si5 0.543477 0.820210 0.936016
Si Si6 0.510846 0.676925 0.438235
Si Si7 0.320207 0.178097 0.441549
O O1 0.060519 0.245888 0.797568
O O2 0.977753 0.237596 0.907982
O O3 0.863563 0.247289 0.852607
O O4 0.971671 0.000000 0.850204
O O5 0.258245 0.500000 0.646416
O O6 0.222089 0.747039 0.704751
O O7 0.382107 0.728950 0.608092
O O8 0.205700 0.744261 0.608120
O O9 0.157922 0.500000 0.770194
O O10 0.243466 0.731652 0.797815
O O11 0.728398 0.500000 0.147985
O O12 0.838823 0.730250 0.093255
O O13 0.533176 0.000000 0.929370
O O14 0.500000 0.768392 0.000000
O O15 0.500000 0.713641 0.500000
O O16 0.488001 0.500000 0.433302
O O17 0.435385 0.782167 0.424643
O O18 0.250000 0.250000 0.500000
O O19 0.299679 0.000000 0.447804
#
# Coordination Sequence:
#
# PCOD8087807 Si02
#       7
#     8   8   8   8   8   8   8
#     4  10  19  32  51  77 107 135 166 216 267 300
#     4   9  19  35  55  75 101 135 171 211 260 314
#     4   9  18  36  56  72  96 137 179 211 251 311
#     4   8  16  31  51  73 100 134 169 207 255 304
#     4   9  18  34  54  76 104 141 181 211 243 305
#     4  10  19  35  55  76 102 134 168 206 257 322
#     4  11  21  35  53  77 104 135 171 212 260 312
#
# _framework density 18.304940999999999
#
# number of rings (size 3 to 8) (size 9 to 14) (size 15 to 20)
#    0.000    2.571    1.429    1.714    0.000    2.286 
#    0.000    9.286    0.000    0.000    0.000    0.000 
#    0.000    0.000    0.000    0.000    0.000    0.000 
#
# Total GULP energy -347124.953571 kJ/mol
# GULP energy per Si atom -12397.319770 kJ/mol
# Density = 1.826328 g / cm^3
# Si number density = 18.304941 Si / 1000 Ang^3
#
#
#
# Elastic Constant Matrix: (Units=GPa)
#
#
# Indices 1 2 3 4 5 6 
#
# 1 171.3383 29.6597 91.9623 0.0000 0.0298 0.0000
# 2 29.6597 34.0206 29.6060 0.0000 2.2563 0.0000
# 3 91.9623 29.6060 190.0236 0.0000 2.5811 0.0000
# 4 0.0000 0.0000 0.0000 19.3411 0.0000 -1.2655
# 5 0.0298 2.2563 2.5811 0.0000 20.8934 0.0000
# 6 0.0000 0.0000 0.0000 -1.2655 0.0000 28.8768
#
#
#
# Elastic Compliance Matrix: (Units=1/GPa)
#
#
# Indices 1 2 3 4 5 6 
#
# 1 0.008431 -0.004452 -0.003399 0.000000 0.000889 0.000000
# 2 -0.004452 0.036547 -0.003492 0.000000 -0.003509 0.000000
# 3 -0.003399 -0.003492 0.007459 0.000000 -0.000539 0.000000
# 4 0.000000 0.000000 0.000000 0.051852 0.000000 0.002272
# 5 0.000889 -0.003509 -0.000539 0.000000 0.048306 0.000000
# 6 0.000000 0.000000 0.000000 0.002272 0.000000 0.034730
#
#
# Mechanical properties :
#
#
# Convention : Reuss Voigt Hill
#
# Bulk Modulus (GPa) = 33.61154 77.53763 55.57459
# Shear Modulus (GPa) = 22.73492 30.09921 26.41707
#
# Velocity S-wave (km/s) = 3.52804 4.05942 3.80302
# Velocity P-wave (km/s) = 5.91591 8.02638 7.05055
#
# Compressibility (1/GPa) = 0.02975169
#
# Stress axis : x y z
#
# Youngs Moduli (GPa) = 118.60928 27.36238 134.07136
#
# Poissons Ratio (x) = 0.12181 0.45567
# Poissons Ratio (y) = 0.52800 0.46818
# Poissons Ratio (z) = 0.40312 0.09555
#
# Static dielectric constant tensor:
#      x y z
#    x 3.620830 0.000000 0.044380 
#    y 0.000000 3.085520 0.000000 
#    z 0.044380 0.000000 3.594110 
# 
# 
# High freq. dielectric constant tensor:
#      x y z
#    x 1.719030 0.000000 -0.000170 
#    y 0.000000 1.679740 0.000000 
#    z -0.000170 0.000000 1.714800 
# 
# From -- ./inp_files/359662.got.cif
#   From: 2010.06.25/outbox.cif.g09.slc.cpg/sg12_180_cif.got.tgz:359662.got - 2010.06.28 00:19:55.
