data_PCOD8087149
_publ_section_title
;
Structure prediction by ZEFSAII (Michael W. Deem and Ramdas Pophale) SiO2 
 PCOD8087149
Probable space group: C 2/M
;
_chemical_formula_sum "Si O2"
_cell_formula_units_Z 64
_cell_length_a 20.462919
_cell_length_b 9.179079
_cell_length_c 18.439387
_cell_angle_alpha 90.000000
_cell_angle_beta 97.142229
_cell_angle_gamma 90.000000
_cell_volume 3436.609229
_symmetry_space_group_name_H-M "C 2/M"
_symmetry_group_IT_number 12
_symmetry_cell_setting 'monoclinic'
loop_
_space_group_symop_operation_xyz
x,y,z
-x,y,-z
-x,-y,-z
x,-y,z
1/2+x,1/2+y,z
1/2-x,1/2+y,-z
1/2-x,1/2-y,-z
1/2+x,1/2-y,z
loop_
_atom_site_type_symbol
_atom_site_label
_atom_site_fract_x
_atom_site_fract_y
_atom_site_fract_z
Si Si1 0.804697 0.169240 0.410447
Si Si2 0.189741 0.171573 0.029239
Si Si3 0.550322 0.669994 0.943834
Si Si4 0.304067 0.672631 0.806240
Si Si5 0.917932 0.168805 0.715138
Si Si6 0.325429 0.333764 0.574950
Si Si7 0.962364 0.671253 0.206714
Si Si8 0.333442 0.171120 0.276104
O O1 0.730605 0.229423 0.401604
O O2 0.840029 0.199042 0.492584
O O3 0.846741 0.250000 0.354515
O O4 0.801763 0.000000 0.391336
O O5 0.183644 0.228977 0.110697
O O6 0.202776 0.000000 0.029715
O O7 0.250000 0.250000 0.000000
O O8 0.123529 0.213744 0.978028
O O9 0.544838 0.500000 0.924309
O O10 0.529577 0.760075 0.871049
O O11 0.500000 0.712682 0.000000
O O12 0.301927 0.500000 0.803789
O O13 0.363117 0.728667 0.763750
O O14 0.234294 0.732373 0.767504
O O15 0.891963 0.191449 0.629574
O O16 0.983339 0.263277 0.731920
O O17 0.934054 0.000000 0.733074
O O18 0.300392 0.500000 0.581708
O O19 0.972776 0.500000 0.202170
O O20 0.891130 0.711737 0.228530
O O21 0.330450 0.000000 0.290532
#
# Coordination Sequence:
#
# PCOD8087149 Si02
#       8
#     8   8   8   8   8   8   8   8
#     4  10  19  31  54  87 115 140 181 234 274 316
#     4  10  20  34  54  80 107 136 176 224 272 324
#     4  10  21  39  61  81 105 145 193 229 270 334
#     4   9  17  33  58  79  98 137 186 220 258 324
#     4  10  19  36  60  80 105 144 186 226 270 329
#     4   9  18  34  56  82 112 148 183 220 277 334
#     4  11  24  38  56  82 114 147 183 232 285 328
#     4  10  20  37  56  77 111 154 188 218 274 341
#
# _framework density 18.623006
#
# number of rings (size 3 to 8) (size 9 to 14) (size 15 to 20)
#    0.000    2.125    1.250    2.250    0.000    5.750 
#    0.000    3.125    0.000    3.750    0.000    0.000 
#    0.000    0.000    0.000    0.000    0.000    0.000 
#
# Total GULP energy -396889.446268 kJ/mol
# GULP energy per Si atom -12402.795196 kJ/mol
# Density = 1.858062 g / cm^3
# Si number density = 18.623006 Si / 1000 Ang^3
#
#
#
# Elastic Constant Matrix: (Units=GPa)
#
#
# Indices 1 2 3 4 5 6 
#
# 1 87.3736 37.2958 26.2647 0.0000 9.8246 0.0000
# 2 37.2958 57.5242 41.5434 0.0000 0.3017 0.0000
# 3 26.2647 41.5434 105.9334 0.0000 11.1976 0.0000
# 4 0.0000 0.0000 0.0000 29.7068 0.0000 -2.3311
# 5 9.8246 0.3017 11.1976 0.0000 27.4014 0.0000
# 6 0.0000 0.0000 0.0000 -2.3311 0.0000 30.8017
#
#
#
# Elastic Compliance Matrix: (Units=1/GPa)
#
#
# Indices 1 2 3 4 5 6 
#
# 1 0.016800 -0.011628 0.001064 0.000000 -0.006330 0.000000
# 2 -0.011628 0.032681 -0.010803 0.000000 0.008224 0.000000
# 3 0.001064 -0.010803 0.014047 0.000000 -0.006003 0.000000
# 4 0.000000 0.000000 0.000000 0.033863 0.000000 0.002563
# 5 -0.006330 0.008224 -0.006003 0.000000 0.041127 0.000000
# 6 0.000000 0.000000 0.000000 0.002563 0.000000 0.032660
#
#
# Mechanical properties :
#
#
# Convention : Reuss Voigt Hill
#
# Bulk Modulus (GPa) = 48.08750 51.22655 49.65702
# Shear Modulus (GPa) = 22.64040 27.29714 24.96877
#
# Velocity S-wave (km/s) = 3.49050 3.83270 3.66560
# Velocity P-wave (km/s) = 6.49018 6.86680 6.68114
#
# Compressibility (1/GPa) = 0.02079543
#
# Stress axis : x y z
#
# Youngs Moduli (GPa) = 59.52221 30.59852 71.18846
#
# Poissons Ratio (x) = 0.35579 -0.07572
# Poissons Ratio (y) = 0.69210 0.76904
# Poissons Ratio (z) = -0.06331 0.33055
#
# Static dielectric constant tensor:
#      x y z
#    x 3.378000 0.000000 0.129740 
#    y 0.000000 3.262100 0.000000 
#    z 0.129740 0.000000 3.846510 
# 
# 
# High freq. dielectric constant tensor:
#      x y z
#    x 1.714060 0.000000 0.004880 
#    y 0.000000 1.706160 0.000000 
#    z 0.004880 0.000000 1.737830 
# 
# From -- ./inp_files/281392.got.cif
#   From: 2010.06.25/outbox.cif.g09.slc.cpg/sg12_141_cif.got.tgz:281392.got - 2010.06.28 00:19:55.
