data_PCOD8087940
_publ_section_title
;
Structure prediction by ZEFSAII (Michael W. Deem and Ramdas Pophale) SiO2 
 PCOD8087940
Probable space group: C 2/M
;
_chemical_formula_sum "Si O2"
_cell_formula_units_Z 56
_cell_length_a 26.270172
_cell_length_b 13.829704
_cell_length_c 23.812574
_cell_angle_alpha 90.000000
_cell_angle_beta 158.190141
_cell_angle_gamma 90.000000
_cell_volume 3214.202406
_symmetry_space_group_name_H-M "C 2/M"
_symmetry_group_IT_number 12
_symmetry_cell_setting 'monoclinic'
loop_
_space_group_symop_operation_xyz
x,y,z
-x,y,-z
-x,-y,-z
x,-y,z
1/2+x,1/2+y,z
1/2-x,1/2+y,-z
1/2-x,1/2-y,-z
1/2+x,1/2-y,z
loop_
_atom_site_type_symbol
_atom_site_label
_atom_site_fract_x
_atom_site_fract_y
_atom_site_fract_z
Si Si1 0.205561 0.242241 0.018017
Si Si2 0.517436 0.612343 0.249004
Si Si3 0.000353 0.236408 0.342373
Si Si4 0.398908 0.888049 0.850722
Si Si5 0.984335 0.614085 0.817657
Si Si6 0.588586 0.388954 0.536800
Si Si7 0.169991 0.612330 0.452671
O O1 0.345253 0.225333 0.196099
O O2 0.250000 0.250000 0.000000
O O3 0.135574 0.342072 0.965684
O O4 0.093346 0.156176 0.908504
O O5 0.487641 0.500000 0.225418
O O6 0.501208 0.659409 0.293203
O O7 0.668502 0.632252 0.379641
O O8 0.053375 0.184130 0.451657
O O9 0.096566 0.327569 0.426591
O O10 0.418558 0.845417 0.808078
O O11 0.245448 0.872013 0.714770
O O12 0.437679 0.000000 0.886251
O O13 0.500000 0.838163 0.000000
O O14 0.000931 0.500000 0.834869
O O15 0.887177 0.647241 0.666597
O O16 0.500000 0.362766 0.500000
O O17 0.564427 0.500000 0.492549
O O18 0.136295 0.500000 0.428060
#
# Coordination Sequence:
#
# PCOD8087940 Si02
#       7
#     8   8   8   8   8   8   8
#     4  10  21  32  46  77 105 140 175 214 260 315
#     4  10  20  33  51  77 108 141 174 215 264 319
#     4  11  21  35  52  77 108 142 179 214 264 321
#     4   9  19  34  52  75 103 142 183 215 257 309
#     4  10  19  32  52  75 107 143 180 217 256 308
#     4  10  22  37  54  79 110 142 177 219 264 316
#     4  10  20  34  54  78 104 139 178 219 268 315
#
# _framework density 17.422673
#
# number of rings (size 3 to 8) (size 9 to 14) (size 15 to 20)
#    0.000    2.000    2.857    1.714    4.000    5.714 
#    0.000    0.000    0.000    0.429    0.000    0.000 
#    0.000    3.429    0.000    0.000    0.000    0.000 
#
# Total GULP energy -347138.983622 kJ/mol
# GULP energy per Si atom -12397.820844 kJ/mol
# Density = 1.738302 g / cm^3
# Si number density = 17.422673 Si / 1000 Ang^3
#
#
#
# Elastic Constant Matrix: (Units=GPa)
#
#
# Indices 1 2 3 4 5 6 
#
# 1 101.4207 41.2392 49.3809 -0.0004 6.0909 -0.0003
# 2 41.2392 69.8365 46.8682 -0.0016 1.4763 -0.0008
# 3 49.3809 46.8682 119.2036 -0.0009 10.2517 -0.0011
# 4 -0.0004 -0.0016 -0.0009 25.7059 -0.0008 5.6175
# 5 6.0909 1.4763 10.2517 -0.0008 29.8291 -0.0004
# 6 -0.0003 -0.0008 -0.0011 5.6175 -0.0004 27.6892
#
#
#
# Elastic Compliance Matrix: (Units=1/GPa)
#
#
# Indices 1 2 3 4 5 6 
#
# 1 0.014005 -0.006016 -0.003314 0.000000 -0.001423 0.000000
# 2 -0.006016 0.022122 -0.006406 0.000001 0.002335 0.000000
# 3 -0.003314 -0.006406 0.012567 0.000000 -0.003325 0.000000
# 4 0.000000 0.000001 0.000000 0.040706 0.000001 -0.008258
# 5 -0.001423 0.002335 -0.003325 0.000001 0.034842 0.000000
# 6 0.000000 0.000000 0.000000 -0.008258 0.000000 0.037791
#
#
# Mechanical properties :
#
#
# Convention : Reuss Voigt Hill
#
# Bulk Modulus (GPa) = 58.06971 62.82638 60.44804
# Shear Modulus (GPa) = 25.09464 26.84302 25.96883
#
# Velocity S-wave (km/s) = 3.79930 3.92943 3.86491
# Velocity P-wave (km/s) = 7.25594 7.53164 7.39507
#
# Compressibility (1/GPa) = 0.01722068
#
# Stress axis : x y z
#
# Youngs Moduli (GPa) = 71.40226 45.20430 79.57549
#
# Poissons Ratio (x) = 0.27195 0.26371
# Poissons Ratio (y) = 0.42956 0.50980
# Poissons Ratio (z) = 0.23662 0.28960
#
# Static dielectric constant tensor:
#      x y z
#    x 3.161730 0.000000 0.149290 
#    y 0.000000 3.188990 0.000000 
#    z 0.149290 0.000000 3.699520 
# 
# 
# High freq. dielectric constant tensor:
#      x y z
#    x 1.654220 0.000000 0.021900 
#    y 0.000000 1.652510 0.000000 
#    z 0.021900 0.000000 1.684760 
# 
# From -- ./inp_files/96466.got.cif
#   From: 2010.06.25/outbox.cif.g09.slc.cpg/sg12_49_cif.got.tgz:96466.got - 2010.06.28 00:19:55.
