data_PCOD8087654
_publ_section_title
;
Structure prediction by ZEFSAII (Michael W. Deem and Ramdas Pophale) SiO2 
 PCOD8087654
Probable space group: C 2/M
;
_chemical_formula_sum "Si O2"
_cell_formula_units_Z 64
_cell_length_a 19.436854
_cell_length_b 8.673817
_cell_length_c 25.205551
_cell_angle_alpha 90.000000
_cell_angle_beta 125.112396
_cell_angle_gamma 90.000000
_cell_volume 3476.155188
_symmetry_space_group_name_H-M "C 2/M"
_symmetry_group_IT_number 12
_symmetry_cell_setting 'monoclinic'
loop_
_space_group_symop_operation_xyz
x,y,z
-x,y,-z
-x,-y,-z
x,-y,z
1/2+x,1/2+y,z
1/2-x,1/2+y,-z
1/2-x,1/2-y,-z
1/2+x,1/2-y,z
loop_
_atom_site_type_symbol
_atom_site_label
_atom_site_fract_x
_atom_site_fract_y
_atom_site_fract_z
Si Si1 0.507637 0.180689 0.944697
Si Si2 0.313413 0.681598 0.674751
Si Si3 0.037196 0.680690 0.323619
Si Si4 0.662198 0.182915 0.942988
Si Si5 0.522488 0.681130 0.431557
Si Si6 0.093326 0.170023 0.184645
Si Si7 0.433839 0.673248 0.189892
Si Si8 0.377101 0.818741 0.431586
O O1 0.591182 0.244194 0.952642
O O2 0.424290 0.220029 0.873301
O O3 0.514221 0.000000 0.952844
O O4 0.500000 0.255142 0.000000
O O5 0.332026 0.500000 0.674092
O O6 0.374805 0.780867 0.665351
O O7 0.328275 0.723709 0.743859
O O8 0.219489 0.728300 0.618118
O O9 0.031448 0.500000 0.332589
O O10 0.033752 0.775358 0.375953
O O11 0.956986 0.731147 0.252786
O O12 0.642147 0.243736 0.874952
O O13 0.665457 0.000000 0.943289
O O14 0.750000 0.250000 0.000000
O O15 0.534216 0.500000 0.444646
O O16 0.430360 0.730684 0.410554
O O17 0.593757 0.768547 0.497071
O O18 0.014517 0.169992 0.188636
O O19 0.109501 0.000000 0.168541
O O20 0.406201 0.500000 0.193228
O O21 0.390832 0.000000 0.430184
#
# Coordination Sequence:
#
# PCOD8087654 Si02
#       8
#     8   8   8   8   8   8   8   8
#     4   9  18  32  49  70  97 130 167 206 247 292
#     4   9  19  35  55  79 106 134 167 213 263 308
#     4  11  21  34  55  81 106 134 173 216 258 308
#     4  10  19  32  51  74 101 134 171 210 254 305
#     4  11  22  37  55  76 106 141 176 212 257 311
#     4   8  15  29  49  73  99 128 161 199 249 303
#     4   9  17  32  52  74 102 133 167 210 260 309
#     4  10  20  37  58  78 104 138 175 213 258 311
#
# _framework density 18.411145999999999
#
# number of rings (size 3 to 8) (size 9 to 14) (size 15 to 20)
#    0.000    2.375    0.000    4.875    0.000    5.250 
#    0.000    1.250    0.000    3.000    0.000    0.000 
#    0.000    0.000    0.000    0.000    0.000    0.000 
#
# Total GULP energy -396741.997342 kJ/mol
# GULP energy per Si atom -12398.187417 kJ/mol
# Density = 1.836924 g / cm^3
# Si number density = 18.411146 Si / 1000 Ang^3
#
#
#
# Elastic Constant Matrix: (Units=GPa)
#
#
# Indices 1 2 3 4 5 6 
#
# 1 53.3791 16.9625 54.9195 0.0000 -0.7692 0.0000
# 2 16.9625 58.1735 19.5027 0.0000 4.7249 0.0000
# 3 54.9195 19.5027 137.8036 0.0000 6.2324 0.0000
# 4 0.0000 0.0000 0.0000 33.8562 0.0000 -2.0719
# 5 -0.7692 4.7249 6.2324 0.0000 31.0544 0.0000
# 6 0.0000 0.0000 0.0000 -2.0719 0.0000 22.6553
#
#
#
# Elastic Compliance Matrix: (Units=1/GPa)
#
#
# Indices 1 2 3 4 5 6 
#
# 1 0.033931 -0.005927 -0.012880 0.000000 0.004327 0.000000
# 2 -0.005927 0.019239 -0.000224 0.000000 -0.003029 0.000000
# 3 -0.012880 -0.000224 0.012548 0.000000 -0.002803 0.000000
# 4 0.000000 0.000000 0.000000 0.029703 0.000000 0.002716
# 5 0.004327 -0.003029 -0.002803 0.000000 0.033332 0.000000
# 6 0.000000 0.000000 0.000000 0.002716 0.000000 0.044388
#
#
# Mechanical properties :
#
#
# Convention : Reuss Voigt Hill
#
# Bulk Modulus (GPa) = 36.15663 48.01396 42.08530
# Shear Modulus (GPa) = 22.68376 28.04458 25.36417
#
# Velocity S-wave (km/s) = 3.51389 3.90710 3.71570
# Velocity P-wave (km/s) = 6.01201 6.81831 6.42781
#
# Compressibility (1/GPa) = 0.02765744
#
# Stress axis : x y z
#
# Youngs Moduli (GPa) = 29.47152 51.97695 79.69358
#
# Poissons Ratio (x) = 0.30809 1.02642
# Poissons Ratio (y) = 0.17469 0.01782
# Poissons Ratio (z) = 0.37958 0.01162
#
# Static dielectric constant tensor:
#      x y z
#    x 2.760970 0.000000 0.003430 
#    y 0.000000 3.438370 0.000000 
#    z 0.003430 0.000000 3.752560 
# 
# 
# High freq. dielectric constant tensor:
#      x y z
#    x 1.678010 0.000000 -0.002270 
#    y 0.000000 1.718790 0.000000 
#    z -0.002270 0.000000 1.731480 
# 
# From -- ./inp_files/365203.got.cif
#   From: 2010.06.25/outbox.cif.g09.slc.cpg/sg12_183_cif.got.tgz:365203.got - 2010.06.28 00:19:55.
