data_PCOD8087988
_publ_section_title
;
Structure prediction by ZEFSAII (Michael W. Deem and Ramdas Pophale) SiO2 
 PCOD8087988
Probable space group: C 2/M
;
_chemical_formula_sum "Si O2"
_cell_formula_units_Z 64
_cell_length_a 18.599735
_cell_length_b 9.016727
_cell_length_c 32.316674
_cell_angle_alpha 90.000000
_cell_angle_beta 38.082715
_cell_angle_gamma 90.000000
_cell_volume 3342.917081
_symmetry_space_group_name_H-M "C 2/M"
_symmetry_group_IT_number 12
_symmetry_cell_setting 'monoclinic'
loop_
_space_group_symop_operation_xyz
x,y,z
-x,y,-z
-x,-y,-z
x,-y,z
1/2+x,1/2+y,z
1/2-x,1/2+y,-z
1/2-x,1/2-y,-z
1/2+x,1/2-y,z
loop_
_atom_site_type_symbol
_atom_site_label
_atom_site_fract_x
_atom_site_fract_y
_atom_site_fract_z
Si Si1 0.369508 0.823763 0.562663
Si Si2 0.634625 0.173039 0.183088
Si Si3 0.289369 0.823746 0.687431
Si Si4 0.528850 0.676167 0.806836
Si Si5 0.618461 0.332353 0.960240
Si Si6 0.866316 0.835414 0.951367
Si Si7 0.796332 0.177310 0.437058
Si Si8 0.956171 0.673531 0.685201
O O1 0.500000 0.760679 0.500000
O O2 0.324098 0.761103 0.626832
O O3 0.288765 0.769007 0.561428
O O4 0.369975 0.000000 0.562705
O O5 0.530620 0.255227 0.206682
O O6 0.760216 0.240330 0.110890
O O7 0.617354 0.200460 0.239625
O O8 0.628594 0.000000 0.174249
O O9 0.159423 0.763942 0.753843
O O10 0.377009 0.766170 0.683255
O O11 0.292568 0.000000 0.686709
O O12 0.528953 0.500000 0.801258
O O13 0.464456 0.733780 0.877302
O O14 0.619334 0.500000 0.942105
O O15 0.500000 0.247831 0.000000
O O16 0.597241 0.330881 0.018266
O O17 0.842384 0.000000 0.946145
O O18 0.750000 0.750000 0.000000
O O19 0.750000 0.250000 0.500000
O O20 0.925395 0.233181 0.367879
O O21 0.796494 0.000000 0.441503
O O22 0.987086 0.500000 0.665883
#
# Coordination Sequence:
#
# PCOD8087988 Si02
#       8
#     8   8   8   8   8   8   8   8
#     4   9  17  31  54  80 105 136 173 213 253 298
#     4  10  20  34  53  78 108 142 176 221 278 328
#     4   9  18  33  53  79 107 137 180 226 263 307
#     4  10  20  33  53  77 103 139 183 226 268 321
#     4   9  18  31  50  75 105 138 178 226 276 326
#     4  10  19  32  52  76 102 135 177 226 275 327
#     4  11  22  37  60  86 114 145 178 217 263 313
#     4  10  21  36  56  81 110 142 180 222 267 319
#
# _framework density 19.144957000000002
#
# number of rings (size 3 to 8) (size 9 to 14) (size 15 to 20)
#    0.000    2.250    1.250    1.875    1.750    3.500 
#    0.000    0.625    0.000    9.750    0.000    0.000 
#    0.000    0.000    0.000    0.000    0.000    0.000 
#
# Total GULP energy -396643.819429 kJ/mol
# GULP energy per Si atom -12395.119357 kJ/mol
# Density = 1.910138 g / cm^3
# Si number density = 19.144957 Si / 1000 Ang^3
#
#
#
# Elastic Constant Matrix: (Units=GPa)
#
#
# Indices 1 2 3 4 5 6 
#
# 1 169.9742 32.0940 84.8820 0.0020 -13.1579 0.0079
# 2 32.0940 30.2169 26.3941 -0.0013 -1.3978 0.0016
# 3 84.8820 26.3941 160.1099 0.0014 -3.7267 0.0013
# 4 0.0020 -0.0013 0.0014 23.3719 -0.0004 -1.0130
# 5 -13.1579 -1.3978 -3.7267 -0.0004 42.3705 -0.0015
# 6 0.0079 0.0016 0.0013 -1.0130 -0.0015 23.2619
#
#
#
# Elastic Compliance Matrix: (Units=1/GPa)
#
#
# Indices 1 2 3 4 5 6 
#
# 1 0.009122 -0.006314 -0.003742 -0.000001 0.002295 -0.000002
# 2 -0.006314 0.043053 -0.003770 0.000003 -0.000872 0.000000
# 3 -0.003742 -0.003770 0.008839 0.000000 -0.000509 0.000001
# 4 -0.000001 0.000003 0.000000 0.042867 0.000000 0.001867
# 5 0.002295 -0.000872 -0.000509 0.000000 0.024241 0.000001
# 6 -0.000002 0.000000 0.000001 0.001867 0.000001 0.043070
#
#
# Mechanical properties :
#
#
# Convention : Reuss Voigt Hill
#
# Bulk Modulus (GPa) = 29.97400 71.89346 50.93373
# Shear Modulus (GPa) = 23.81366 32.26293 28.03830
#
# Velocity S-wave (km/s) = 3.53067 4.10956 3.83106
# Velocity P-wave (km/s) = 5.68429 7.75575 6.79937
#
# Compressibility (1/GPa) = 0.03336225
#
# Stress axis : x y z
#
# Youngs Moduli (GPa) = 109.63093 23.22715 113.13548
#
# Poissons Ratio (x) = 0.14665 0.42330
# Poissons Ratio (y) = 0.69219 0.42656
# Poissons Ratio (z) = 0.41018 0.08757
#
# Static dielectric constant tensor:
#      x y z
#    x 3.576870 -0.000010 -0.088180 
#    y -0.000010 3.091510 -0.000010 
#    z -0.088180 -0.000010 3.784690 
# 
# 
# High freq. dielectric constant tensor:
#      x y z
#    x 1.757940 0.000000 -0.000360 
#    y 0.000000 1.693470 0.000000 
#    z -0.000360 0.000000 1.766800 
# 
# From -- ./inp_files/378185.got.cif
#   From: 2010.06.25/outbox.cif.g09.slc.cpg/sg12_190_cif.got.tgz:378185.got - 2010.06.28 00:19:55.
