data_PCOD8087979
_publ_section_title
;
Structure prediction by ZEFSAII (Michael W. Deem and Ramdas Pophale) SiO2 
 PCOD8087979
Probable space group: C 2/M
;
_chemical_formula_sum "Si O2"
_cell_formula_units_Z 56
_cell_length_a 18.335461
_cell_length_b 8.996131
_cell_length_c 26.389495
_cell_angle_alpha 90.000000
_cell_angle_beta 137.467126
_cell_angle_gamma 90.000000
_cell_volume 2942.617453
_symmetry_space_group_name_H-M "C 2/M"
_symmetry_group_IT_number 12
_symmetry_cell_setting 'monoclinic'
loop_
_space_group_symop_operation_xyz
x,y,z
-x,y,-z
-x,-y,-z
x,-y,z
1/2+x,1/2+y,z
1/2-x,1/2+y,-z
1/2-x,1/2-y,-z
1/2+x,1/2-y,z
loop_
_atom_site_type_symbol
_atom_site_label
_atom_site_fract_x
_atom_site_fract_y
_atom_site_fract_z
Si Si1 0.779318 0.675417 0.194115
Si Si2 0.213851 0.676333 0.363291
Si Si3 0.482390 0.826656 0.668379
Si Si4 0.588534 0.327087 0.913258
Si Si5 0.344967 0.326480 0.767839
Si Si6 0.279827 0.826183 0.937191
Si Si7 0.166147 0.325918 0.494049
O O1 0.781555 0.500000 0.186425
O O2 0.900238 0.743766 0.261116
O O3 0.713547 0.717052 0.210405
O O4 0.718316 0.750089 0.116313
O O5 0.223650 0.500000 0.370750
O O6 0.210843 0.730929 0.304401
O O7 0.320914 0.747254 0.444619
O O8 0.107367 0.736916 0.338567
O O9 0.449882 0.798891 0.592532
O O10 0.490274 0.000000 0.682943
O O11 0.595401 0.500000 0.930905
O O12 0.469653 0.279974 0.835462
O O13 0.667906 0.286037 0.907824
O O14 0.620015 0.235453 0.979276
O O15 0.332056 0.500000 0.748562
O O16 0.295315 0.000000 0.938016
O O17 0.190813 0.500000 0.512060
O O18 0.250000 0.250000 0.500000
#
# Coordination Sequence:
#
# PCOD8087979 Si02
#       7
#     8   8   8   8   8   8   8
#     4  10  20  35  53  73 101 134 167 203 247 298
#     4  10  19  32  52  76 102 132 167 208 252 296
#     4   8  16  31  52  76  98 127 167 206 246 293
#     4   9  19  36  55  76 101 129 165 205 247 295
#     4  10  21  35  52  74 100 133 169 205 247 295
#     4  10  20  34  54  78 101 128 164 205 248 293
#     4   9  16  29  50  76 103 129 165 210 252 295
#
# _framework density 19.030677000000001
#
# number of rings (size 3 to 8) (size 9 to 14) (size 15 to 20)
#    0.000    2.571    0.000    3.000    0.000    2.286 
#    0.000    7.143    0.000    4.286    0.000    0.000 
#    0.000    0.000    0.000    0.000    0.000    0.000 
#
# Total GULP energy -347144.869114 kJ/mol
# GULP energy per Si atom -12398.031040 kJ/mol
# Density = 1.898736 g / cm^3
# Si number density = 19.030677 Si / 1000 Ang^3
#
#
#
# Elastic Constant Matrix: (Units=GPa)
#
#
# Indices 1 2 3 4 5 6 
#
# 1 60.8680 31.6711 35.4114 0.0000 -26.0797 0.0000
# 2 31.6711 66.9281 41.9928 0.0000 -22.0940 0.0000
# 3 35.4114 41.9928 95.8913 0.0000 -38.9394 0.0000
# 4 0.0000 0.0000 0.0000 30.9512 0.0000 -7.8514
# 5 -26.0797 -22.0940 -38.9394 0.0000 29.5697 0.0000
# 6 0.0000 0.0000 0.0000 -7.8514 0.0000 21.6788
#
#
#
# Elastic Compliance Matrix: (Units=1/GPa)
#
#
# Indices 1 2 3 4 5 6 
#
# 1 0.028719 -0.007305 0.001424 0.000000 0.021747 0.000000
# 2 -0.007305 0.023275 -0.006554 0.000000 0.002317 0.000000
# 3 0.001424 -0.006554 0.024276 0.000000 0.028327 0.000000
# 4 0.000000 0.000000 0.000000 0.035578 0.000000 0.012885
# 5 0.021747 0.002317 0.028327 0.000000 0.092033 0.000000
# 6 0.000000 0.000000 0.000000 0.012885 0.000000 0.050795
#
#
# Mechanical properties :
#
#
# Convention : Reuss Voigt Hill
#
# Bulk Modulus (GPa) = 19.45497 49.09309 34.27403
# Shear Modulus (GPa) = 16.85330 24.08073 20.46701
#
# Velocity S-wave (km/s) = 2.97911 3.56105 3.28300
# Velocity P-wave (km/s) = 4.69879 6.53919 5.69384
#
# Compressibility (1/GPa) = 0.05140074
#
# Stress axis : x y z
#
# Youngs Moduli (GPa) = 34.82017 42.96376 41.19366
#
# Poissons Ratio (x) = 0.31384 -0.05868
# Poissons Ratio (y) = 0.25435 0.26999
# Poissons Ratio (z) = -0.04960 0.28159
#
# Static dielectric constant tensor:
#      x y z
#    x 3.324190 0.000000 0.028710 
#    y 0.000000 3.355580 0.000000 
#    z 0.028710 0.000000 3.825280 
# 
# 
# High freq. dielectric constant tensor:
#      x y z
#    x 1.714360 0.000000 -0.011520 
#    y 0.000000 1.727570 0.000000 
#    z -0.011520 0.000000 1.755330 
# 
# From -- ./inp_files/280307.got.cif
#   From: 2010.06.25/outbox.cif.g09.slc.cpg/sg12_141_cif.got.tgz:280307.got - 2010.06.28 00:19:55.
