data_PCOD8087039
_publ_section_title
;
Structure prediction by ZEFSAII (Michael W. Deem and Ramdas Pophale) SiO2 
 PCOD8087039
Probable space group: C 2/M
;
_chemical_formula_sum "Si O2"
_cell_formula_units_Z 64
_cell_length_a 28.315058
_cell_length_b 20.315537
_cell_length_c 18.607370
_cell_angle_alpha 90.000000
_cell_angle_beta 162.882703
_cell_angle_gamma 90.000000
_cell_volume 3150.384758
_symmetry_space_group_name_H-M "C 2/M"
_symmetry_group_IT_number 12
_symmetry_cell_setting 'monoclinic'
loop_
_space_group_symop_operation_xyz
x,y,z
-x,y,-z
-x,-y,-z
x,-y,z
1/2+x,1/2+y,z
1/2-x,1/2+y,-z
1/2-x,1/2-y,-z
1/2+x,1/2-y,z
loop_
_atom_site_type_symbol
_atom_site_label
_atom_site_fract_x
_atom_site_fract_y
_atom_site_fract_z
Si Si1 0.078682 0.281607 0.907755
Si Si2 0.920527 0.217127 0.456561
Si Si3 0.593591 0.342189 0.412941
Si Si4 0.698433 0.573581 0.001456
Si Si5 0.567990 0.159374 0.742815
Si Si6 0.218039 0.426021 0.722910
Si Si7 0.055390 0.075347 0.161516
Si Si8 0.296174 0.825169 0.580234
O O1 0.108478 0.329870 0.884434
O O2 0.984920 0.219500 0.741076
O O3 0.983740 0.324755 0.830318
O O4 0.245245 0.254820 0.182189
O O5 0.888675 0.166546 0.475512
O O6 0.000000 0.184992 0.500000
O O7 0.040289 0.274311 0.656972
O O8 0.483526 0.406497 0.242907
O O9 0.762381 0.349225 0.614029
O O10 0.695676 0.500000 0.965362
O O11 0.771493 0.624181 0.051030
O O12 0.816275 0.575684 0.241851
O O13 0.408502 0.115991 0.505403
O O14 0.205862 0.500000 0.674237
O O15 0.400048 0.400405 0.979823
O O16 0.199658 0.125578 0.387135
O O17 0.105797 0.000000 0.253879
O O18 0.000000 0.081417 0.000000
O O19 0.250000 0.750000 0.500000
#
# Coordination Sequence:
#
# PCOD8087039 Si02
#       8
#     8   8   8   8   8   8   8   8
#     4  10  22  38  56  85 116 153 196 244 301 353
#     4  11  22  36  59  83 114 155 192 242 299 360
#     4  10  21  38  58  84 115 155 197 243 302 352
#     4  11  21  35  58  85 116 151 193 242 291 358
#     4  11  21  34  56  84 119 152 188 241 296 358
#     4  10  19  31  52  83 116 150 186 230 291 356
#     4  10  20  35  58  86 120 161 199 247 312 372
#     4  10  21  38  56  86 123 157 206 252 298 366
#
# _framework density 20.314979000000001
#
# number of rings (size 3 to 8) (size 9 to 14) (size 15 to 20)
#    0.000    1.625    1.250    4.500    1.750    3.500 
#    0.000    0.625    0.000    4.875    0.000    1.750 
#    0.000    0.000    0.000    0.000    0.000    0.000 
#
# Total GULP energy -396571.328642 kJ/mol
# GULP energy per Si atom -12392.854020 kJ/mol
# Density = 2.026874 g / cm^3
# Si number density = 20.314979 Si / 1000 Ang^3
#
#
#
# Elastic Constant Matrix: (Units=GPa)
#
#
# Indices 1 2 3 4 5 6 
#
# 1 140.7357 26.3581 30.5807 0.0000 8.6852 0.0000
# 2 26.3581 64.4791 8.8059 0.0000 2.6516 0.0000
# 3 30.5807 8.8059 47.7167 0.0000 7.7554 0.0000
# 4 0.0000 0.0000 0.0000 35.2087 0.0000 3.9228
# 5 8.6852 2.6516 7.7554 0.0000 28.4082 0.0000
# 6 0.0000 0.0000 0.0000 3.9228 0.0000 24.5710
#
#
#
# Elastic Compliance Matrix: (Units=1/GPa)
#
#
# Indices 1 2 3 4 5 6 
#
# 1 0.008779 -0.002873 -0.004922 0.000000 -0.001072 0.000000
# 2 -0.002873 0.016864 -0.001212 0.000000 -0.000365 0.000000
# 3 -0.004922 -0.001212 0.025190 0.000000 -0.005259 0.000000
# 4 0.000000 0.000000 0.000000 0.028916 0.000000 -0.004617
# 5 -0.001072 -0.000365 -0.005259 0.000000 0.036999 0.000000
# 6 0.000000 0.000000 0.000000 -0.004617 0.000000 0.041435
#
#
# Mechanical properties :
#
#
# Convention : Reuss Voigt Hill
#
# Bulk Modulus (GPa) = 30.46932 42.71342 36.59137
# Shear Modulus (GPa) = 26.71854 30.11669 28.41761
#
# Velocity S-wave (km/s) = 3.63052 3.85448 3.74418
# Velocity P-wave (km/s) = 5.71010 6.39380 6.06160
#
# Compressibility (1/GPa) = 0.03281990
#
# Stress axis : x y z
#
# Youngs Moduli (GPa) = 113.90574 59.29918 39.69859
#
# Poissons Ratio (x) = 0.17034 0.19540
# Poissons Ratio (y) = 0.32720 0.04811
# Poissons Ratio (z) = 0.56065 0.07186
#
# Static dielectric constant tensor:
#      x y z
#    x 4.383800 0.000000 0.265010 
#    y 0.000000 3.542080 0.000000 
#    z 0.265010 0.000000 3.529180 
# 
# 
# High freq. dielectric constant tensor:
#      x y z
#    x 1.811260 0.000000 0.017380 
#    y 0.000000 1.771890 0.000000 
#    z 0.017380 0.000000 1.770830 
# 
# From -- ./inp_files/135416.got.cif
#   From: 2010.06.25/outbox.cif.g09.slc.cpg/sg12_68_cif.got.tgz:135416.got - 2010.06.28 00:19:55.
