data_PCOD8087218
_publ_section_title
;
Structure prediction by ZEFSAII (Michael W. Deem and Ramdas Pophale) SiO2 
 PCOD8087218
Probable space group: C 2/M
;
_chemical_formula_sum "Si O2"
_cell_formula_units_Z 56
_cell_length_a 19.357985
_cell_length_b 9.296851
_cell_length_c 18.216560
_cell_angle_alpha 90.000000
_cell_angle_beta 80.023386
_cell_angle_gamma 90.000000
_cell_volume 3228.829155
_symmetry_space_group_name_H-M "C 2/M"
_symmetry_group_IT_number 12
_symmetry_cell_setting 'monoclinic'
loop_
_space_group_symop_operation_xyz
x,y,z
-x,y,-z
-x,-y,-z
x,-y,z
1/2+x,1/2+y,z
1/2-x,1/2+y,-z
1/2-x,1/2-y,-z
1/2+x,1/2-y,z
loop_
_atom_site_type_symbol
_atom_site_label
_atom_site_fract_x
_atom_site_fract_y
_atom_site_fract_z
Si Si1 0.956638 0.666456 0.245839
Si Si2 0.179876 0.332357 0.812285
Si Si3 0.039635 0.170152 0.605636
Si Si4 0.600491 0.330953 0.447690
Si Si5 0.613427 0.164476 0.198606
Si Si6 0.241900 0.668732 0.077226
Si Si7 0.808532 0.167064 0.694853
O O1 0.949008 0.500000 0.268373
O O2 0.899096 0.708347 0.195267
O O3 0.941698 0.754668 0.321860
O O4 0.032323 0.700031 0.195509
O O5 0.187342 0.500000 0.833192
O O6 0.202066 0.233838 0.876178
O O7 0.229137 0.295755 0.732534
O O8 0.095670 0.224294 0.532708
O O9 0.963909 0.223471 0.590917
O O10 0.042889 0.000000 0.618432
O O11 0.591581 0.500000 0.455269
O O12 0.673207 0.286029 0.392860
O O13 0.662393 0.197296 0.119365
O O14 0.635751 0.258799 0.262809
O O15 0.622872 0.000000 0.220860
O O16 0.257470 0.500000 0.064526
O O17 0.250000 0.750000 0.000000
O O18 0.823957 0.000000 0.701055
#
# Coordination Sequence:
#
# PCOD8087218 Si02
#       7
#     8   8   8   8   8   8   8
#     4  10  19  32  47  70 102 130 157 193 240 289
#     4   9  19  33  51  73  99 129 158 192 237 284
#     4   9  16  27  44  66  93 127 166 206 242 278
#     4   8  14  25  43  67  92 121 165 211 244 274
#     4   9  18  31  49  72  97 125 156 191 233 282
#     4  10  20  36  57  78  98 122 154 191 231 278
#     4   9  15  28  49  69  89 122 168 208 236 273
#
# _framework density 17.343747
#
# number of rings (size 3 to 8) (size 9 to 14) (size 15 to 20)
#    0.000    2.857    1.429    1.286    0.000    1.143 
#    0.000    3.571    0.000    4.286    0.000    0.000 
#    0.000    0.000    0.000    0.000    0.000    0.000 
#
# Total GULP energy -346967.568191 kJ/mol
# GULP energy per Si atom -12391.698864 kJ/mol
# Density = 1.730427 g / cm^3
# Si number density = 17.343747 Si / 1000 Ang^3
#
#
#
# Elastic Constant Matrix: (Units=GPa)
#
#
# Indices 1 2 3 4 5 6 
#
# 1 108.7009 38.2706 53.2997 0.0000 -2.0591 0.0000
# 2 38.2706 54.5571 49.7887 0.0000 1.3974 0.0000
# 3 53.2997 49.7887 121.4469 0.0000 -7.0944 0.0000
# 4 0.0000 0.0000 0.0000 27.1583 0.0000 2.7493
# 5 -2.0591 1.3974 -7.0944 0.0000 19.4280 0.0000
# 6 0.0000 0.0000 0.0000 2.7493 0.0000 19.8153
#
#
#
# Elastic Compliance Matrix: (Units=1/GPa)
#
#
# Indices 1 2 3 4 5 6 
#
# 1 0.012927 -0.006306 -0.003047 0.000000 0.000711 0.000000
# 2 -0.006306 0.033223 -0.011272 0.000000 -0.007174 0.000000
# 3 -0.003047 -0.011272 0.014531 0.000000 0.005794 0.000000
# 4 0.000000 0.000000 0.000000 0.037346 0.000000 -0.005182
# 5 0.000711 -0.007174 0.005794 0.000000 0.054179 0.000000
# 6 0.000000 0.000000 0.000000 -0.005182 0.000000 0.051185
#
#
# Mechanical properties :
#
#
# Convention : Reuss Voigt Hill
#
# Bulk Modulus (GPa) = 51.46104 63.04697 57.25400
# Shear Modulus (GPa) = 19.91103 22.83672 21.37387
#
# Velocity S-wave (km/s) = 3.39193 3.63259 3.51432
# Velocity P-wave (km/s) = 6.71386 7.35014 7.03919
#
# Compressibility (1/GPa) = 0.01943218
#
# Stress axis : x y z
#
# Youngs Moduli (GPa) = 77.35737 30.09925 68.82010
#
# Poissons Ratio (x) = 0.18980 0.20967
# Poissons Ratio (y) = 0.48781 0.77574
# Poissons Ratio (z) = 0.23567 0.33928
#
# Static dielectric constant tensor:
#      x y z
#    x 3.262390 0.000000 -0.283350 
#    y 0.000000 3.113960 0.000000 
#    z -0.283350 0.000000 3.334080 
# 
# 
# High freq. dielectric constant tensor:
#      x y z
#    x 1.654900 0.000000 -0.021050 
#    y 0.000000 1.656530 0.000000 
#    z -0.021050 0.000000 1.665430 
# 
# From -- ./inp_files/280175.got.cif
#   From: 2010.06.25/outbox.cif.g09.slc.cpg/sg12_141_cif.got.tgz:280175.got - 2010.06.28 00:19:55.
