data_PCOD8087518
_publ_section_title
;
Structure prediction by ZEFSAII (Michael W. Deem and Ramdas Pophale) SiO2 
 PCOD8087518
Probable space group: C 2/M
;
_chemical_formula_sum "Si O2"
_cell_formula_units_Z 48
_cell_length_a 31.845354
_cell_length_b 9.048292
_cell_length_c 9.635541
_cell_angle_alpha 90.000000
_cell_angle_beta 104.999146
_cell_angle_gamma 90.000000
_cell_volume 2681.848896
_symmetry_space_group_name_H-M "C 2/M"
_symmetry_group_IT_number 12
_symmetry_cell_setting 'monoclinic'
loop_
_space_group_symop_operation_xyz
x,y,z
-x,y,-z
-x,-y,-z
x,-y,z
1/2+x,1/2+y,z
1/2-x,1/2+y,-z
1/2-x,1/2-y,-z
1/2+x,1/2-y,z
loop_
_atom_site_type_symbol
_atom_site_label
_atom_site_fract_x
_atom_site_fract_y
_atom_site_fract_z
Si Si1 0.361500 0.327834 0.391076
Si Si2 0.427256 0.330055 0.680521
Si Si3 0.111617 0.175611 0.889151
Si Si4 0.636418 0.827538 0.177184
Si Si5 0.704026 0.826967 0.469753
Si Si6 0.983802 0.827261 0.132303
O O1 0.349214 0.500000 0.387563
O O2 0.406149 0.296096 0.513355
O O3 0.369013 0.273101 0.241308
O O4 0.321950 0.235998 0.420893
O O5 0.419229 0.500000 0.717197
O O6 0.406388 0.230773 0.782438
O O7 0.478960 0.295824 0.719851
O O8 0.062372 0.239974 0.859616
O O9 0.112935 0.000000 0.902455
O O10 0.141649 0.245734 0.034473
O O11 0.678566 0.791421 0.305898
O O12 0.631083 0.000000 0.146226
O O13 0.750000 0.750000 0.500000
O O14 0.710312 0.000000 0.497709
O O15 0.976110 0.000000 0.105429
O O16 0.000000 0.758550 0.000000
#
# Coordination Sequence:
#
# PCOD8087518 Si02
#       6
#     8   8   8   8   8   8
#     4   9  19  33  52  78 106 136 171 210 258 307
#     4   9  16  30  50  71 100 139 178 217 254 293
#     4  10  19  32  50  75 107 141 175 213 253 296
#     4  10  20  33  51  76 103 133 169 208 253 306
#     4  10  21  38  60  81 101 127 164 208 254 311
#     4   9  15  25  46  74 102 136 181 220 248 286
#
# _framework density 17.898101
#
# number of rings (size 3 to 8) (size 9 to 14) (size 15 to 20)
#    0.000    2.500    1.667    1.000    0.000    3.333 
#    0.000    5.833    0.000    0.000    0.000    5.833 
#    0.000    0.000    0.000    0.000    0.000    0.000 
#
# Total GULP energy -297560.651369 kJ/mol
# GULP energy per Si atom -12398.360474 kJ/mol
# Density = 1.785736 g / cm^3
# Si number density = 17.898101 Si / 1000 Ang^3
#
#
#
# Elastic Constant Matrix: (Units=GPa)
#
#
# Indices 1 2 3 4 5 6 
#
# 1 130.1125 50.0298 69.9142 0.0000 -2.4388 0.0000
# 2 50.0298 53.8576 53.1461 0.0000 -3.7343 0.0000
# 3 69.9142 53.1461 147.7382 0.0000 -12.3351 0.0000
# 4 0.0000 0.0000 0.0000 24.4377 0.0000 1.3096
# 5 -2.4388 -3.7343 -12.3351 0.0000 20.1306 0.0000
# 6 0.0000 0.0000 0.0000 1.3096 0.0000 20.8281
#
#
#
# Elastic Compliance Matrix: (Units=1/GPa)
#
#
# Indices 1 2 3 4 5 6 
#
# 1 0.012695 -0.009053 -0.002912 0.000000 -0.001926 0.000000
# 2 -0.009053 0.035263 -0.008375 0.000000 0.000313 0.000000
# 3 -0.002912 -0.008375 0.011593 0.000000 0.005198 0.000000
# 4 0.000000 0.000000 0.000000 0.041059 0.000000 -0.002582
# 5 -0.001926 0.000313 0.005198 0.000000 0.052685 0.000000
# 6 0.000000 0.000000 0.000000 -0.002582 0.000000 0.048174
#
#
# Mechanical properties :
#
#
# Convention : Reuss Voigt Hill
#
# Bulk Modulus (GPa) = 52.98861 75.32094 64.15478
# Shear Modulus (GPa) = 20.12553 23.65381 21.88967
#
# Velocity S-wave (km/s) = 3.35692 3.63930 3.50096
# Velocity P-wave (km/s) = 6.68545 7.73524 7.22942
#
# Compressibility (1/GPa) = 0.01887198
#
# Stress axis : x y z
#
# Youngs Moduli (GPa) = 78.76981 28.35826 86.25581
#
# Poissons Ratio (x) = 0.25673 0.25117
# Poissons Ratio (y) = 0.71311 0.72239
# Poissons Ratio (z) = 0.22937 0.23750
#
# Static dielectric constant tensor:
#      x y z
#    x 3.275960 0.000000 0.094600 
#    y 0.000000 3.144640 0.000000 
#    z 0.094600 0.000000 3.415990 
# 
# 
# High freq. dielectric constant tensor:
#      x y z
#    x 1.682580 0.000000 0.011090 
#    y 0.000000 1.671920 0.000000 
#    z 0.011090 0.000000 1.692680 
# 
# From -- ./inp_files/108646.got.cif
#   From: 2010.06.25/outbox.cif.g09.slc.cpg/sg12_55_cif.got.tgz:108646.got - 2010.06.28 00:19:55.
