data_PCOD8087670
_publ_section_title
;
Structure prediction by ZEFSAII (Michael W. Deem and Ramdas Pophale) SiO2 
 PCOD8087670
Probable space group: C 2/M
;
_chemical_formula_sum "Si O2"
_cell_formula_units_Z 64
_cell_length_a 28.262679
_cell_length_b 9.194817
_cell_length_c 14.169018
_cell_angle_alpha 90.000000
_cell_angle_beta 87.130989
_cell_angle_gamma 90.000000
_cell_volume 3677.489750
_symmetry_space_group_name_H-M "C 2/M"
_symmetry_group_IT_number 12
_symmetry_cell_setting 'monoclinic'
loop_
_space_group_symop_operation_xyz
x,y,z
-x,y,-z
-x,-y,-z
x,-y,z
1/2+x,1/2+y,z
1/2-x,1/2+y,-z
1/2-x,1/2-y,-z
1/2+x,1/2-y,z
loop_
_atom_site_type_symbol
_atom_site_label
_atom_site_fract_x
_atom_site_fract_y
_atom_site_fract_z
Si Si1 0.654679 0.830252 0.947956
Si Si2 0.776621 0.831040 0.186405
Si Si3 0.854096 0.832526 0.334924
Si Si4 0.798072 0.169822 0.519752
Si Si5 0.188716 0.834078 0.269255
Si Si6 0.885468 0.834470 0.875855
Si Si7 0.577741 0.830468 0.798114
Si Si8 0.492815 0.330088 0.893069
O O1 0.701429 0.749697 0.906093
O O2 0.610647 0.795719 0.884327
O O3 0.665815 0.000000 0.952712
O O4 0.642575 0.771028 0.051835
O O5 0.808500 0.801491 0.274808
O O6 0.724936 0.768354 0.210738
O O7 0.772316 0.000000 0.162346
O O8 0.839572 0.786969 0.442338
O O9 0.898430 0.735365 0.298274
O O10 0.869690 0.000000 0.326298
O O11 0.750000 0.250000 0.500000
O O12 0.816356 0.214343 0.621517
O O13 0.787053 0.000000 0.511899
O O14 0.137371 0.818454 0.225584
O O15 0.207234 0.000000 0.261317
O O16 0.940237 0.789787 0.864154
O O17 0.881268 0.000000 0.914200
O O18 0.527300 0.756803 0.820402
O O19 0.570199 0.000000 0.782614
O O20 0.504329 0.500000 0.882433
O O21 0.500000 0.278034 0.000000
#
# Coordination Sequence:
#
# PCOD8087670 Si02
#       8
#     8   8   8   8   8   8   8   8
#     4  10  20  33  50  74 104 138 173 211 254 301
#     4  10  19  32  51  74 103 138 175 210 248 302
#     4   9  18  32  51  76 104 133 168 207 251 303
#     4  10  19  33  54  79 104 134 170 212 256 300
#     4  10  21  35  52  75 106 137 170 213 257 302
#     4  10  21  36  52  74 103 138 174 209 255 308
#     4  10  20  32  51  79 106 130 165 213 261 301
#     4  10  19  33  55  77 100 133 172 211 254 304
#
# _framework density 17.403175999999998
#
# number of rings (size 3 to 8) (size 9 to 14) (size 15 to 20)
#    0.000    2.125    2.500    1.125    0.000    3.750 
#    0.000    0.000    0.000    0.750    0.000    5.250 
#    0.000    0.000    0.000    0.000    0.000    0.000 
#
# Total GULP energy -396908.618116 kJ/mol
# GULP energy per Si atom -12403.394316 kJ/mol
# Density = 1.736357 g / cm^3
# Si number density = 17.403176 Si / 1000 Ang^3
#
#
#
# Elastic Constant Matrix: (Units=GPa)
#
#
# Indices 1 2 3 4 5 6 
#
# 1 110.2228 50.8342 67.6015 0.0000 -11.6182 0.0000
# 2 50.8342 76.4099 51.3782 0.0000 -9.6691 0.0000
# 3 67.6015 51.3782 114.4558 0.0000 -11.2892 0.0000
# 4 0.0000 0.0000 0.0000 22.9746 0.0000 -6.9999
# 5 -11.6182 -9.6691 -11.2892 0.0000 25.8350 0.0000
# 6 0.0000 0.0000 0.0000 -6.9999 0.0000 27.1807
#
#
#
# Elastic Compliance Matrix: (Units=1/GPa)
#
#
# Indices 1 2 3 4 5 6 
#
# 1 0.016127 -0.006012 -0.006618 0.000000 0.002110 0.000000
# 2 -0.006012 0.021292 -0.005735 0.000000 0.002759 0.000000
# 3 -0.006618 -0.005735 0.015378 0.000000 0.001597 0.000000
# 4 0.000000 0.000000 0.000000 0.047232 0.000000 0.012164
# 5 0.002110 0.002759 0.001597 0.000000 0.041387 0.000000
# 6 0.000000 0.000000 0.000000 0.012164 0.000000 0.039923
#
#
# Mechanical properties :
#
#
# Convention : Reuss Voigt Hill
#
# Bulk Modulus (GPa) = 62.23967 71.19070 66.71519
# Shear Modulus (GPa) = 22.37893 23.94970 23.16431
#
# Velocity S-wave (km/s) = 3.58985 3.71370 3.65230
# Velocity P-wave (km/s) = 7.28174 7.70612 7.49693
#
# Compressibility (1/GPa) = 0.01606692
#
# Stress axis : x y z
#
# Youngs Moduli (GPa) = 62.00965 46.96570 65.02852
#
# Poissons Ratio (x) = 0.28234 0.43037
# Poissons Ratio (y) = 0.37277 0.37294
# Poissons Ratio (z) = 0.41039 0.26935
#
# Static dielectric constant tensor:
#      x y z
#    x 3.109140 0.000000 -0.073740 
#    y 0.000000 3.232150 0.000000 
#    z -0.073740 0.000000 3.267480 
# 
# 
# High freq. dielectric constant tensor:
#      x y z
#    x 1.657040 0.000000 -0.011970 
#    y 0.000000 1.675730 0.000000 
#    z -0.011970 0.000000 1.663290 
# 
# From -- ./inp_files/244010.got.cif
#   From: 2010.06.25/outbox.cif.g09.slc.cpg/sg12_123_cif.got.tgz:244010.got - 2010.06.28 00:19:55.
