data_PCOD8087639
_publ_section_title
;
Structure prediction by ZEFSAII (Michael W. Deem and Ramdas Pophale) SiO2 
 PCOD8087639
Probable space group: C 2/M
;
_chemical_formula_sum "Si O2"
_cell_formula_units_Z 64
_cell_length_a 30.459954
_cell_length_b 9.472417
_cell_length_c 22.792564
_cell_angle_alpha 90.000000
_cell_angle_beta 148.404030
_cell_angle_gamma 90.000000
_cell_volume 3445.507369
_symmetry_space_group_name_H-M "C 2/M"
_symmetry_group_IT_number 12
_symmetry_cell_setting 'monoclinic'
loop_
_space_group_symop_operation_xyz
x,y,z
-x,y,-z
-x,-y,-z
x,-y,z
1/2+x,1/2+y,z
1/2-x,1/2+y,-z
1/2-x,1/2-y,-z
1/2+x,1/2-y,z
loop_
_atom_site_type_symbol
_atom_site_label
_atom_site_fract_x
_atom_site_fract_y
_atom_site_fract_z
Si Si1 0.884792 0.168191 0.000961
Si Si2 0.821753 0.839929 0.053169
Si Si3 0.877063 0.166126 0.578108
Si Si4 0.751468 0.332167 0.243495
Si Si5 0.039391 0.159005 0.693821
Si Si6 0.080493 0.333228 0.628791
Si Si7 0.733804 0.666181 0.355728
Si Si8 0.432566 0.665534 0.768195
O O1 0.839425 0.219388 0.008551
O O2 0.979609 0.229992 0.107723
O O3 0.887525 0.000000 0.002239
O O4 0.829804 0.226409 0.883969
O O5 0.907034 0.828062 0.186341
O O6 0.789479 0.000000 0.013452
O O7 0.750000 0.750000 0.000000
O O8 0.793668 0.250920 0.467864
O O9 0.908933 0.225240 0.677086
O O10 0.944965 0.198523 0.604752
O O11 0.856561 0.000000 0.558357
O O12 0.750758 0.500000 0.242435
O O13 0.836728 0.277339 0.310144
O O14 0.747224 0.276579 0.305104
O O15 0.075335 0.264673 0.686672
O O16 0.043407 0.000000 0.673208
O O17 0.083446 0.500000 0.641391
O O18 0.000000 0.286264 0.500000
O O19 0.753089 0.500000 0.382879
O O20 0.638719 0.701036 0.265658
O O21 0.445288 0.500000 0.774958
#
# Coordination Sequence:
#
# PCOD8087639 Si02
#       8
#     8   8   8   8   8   8   8   8
#     4   9  16  30  51  73 102 136 167 206 255 304
#     4  10  19  32  51  74 100 132 169 208 251 301
#     4  10  19  34  53  75 104 136 169 206 256 310
#     4   9  18  31  48  74 105 136 170 208 255 305
#     4  10  20  33  51  75 101 132 172 212 250 300
#     4  10  20  34  51  73 105 141 173 209 256 307
#     4  10  20  33  52  79 104 129 168 215 256 300
#     4   9  17  31  52  76 102 132 168 211 257 303
#
# _framework density 18.574912000000001
#
# number of rings (size 3 to 8) (size 9 to 14) (size 15 to 20)
#    0.000    2.375    1.250    1.875    0.000    3.750 
#    0.000    3.125    0.000    1.500    0.000    0.875 
#    0.000    0.000    0.000    0.000    0.000    0.000 
#
# Total GULP energy -396789.523627 kJ/mol
# GULP energy per Si atom -12399.672613 kJ/mol
# Density = 1.853263 g / cm^3
# Si number density = 18.574912 Si / 1000 Ang^3
#
#
#
# Elastic Constant Matrix: (Units=GPa)
#
#
# Indices 1 2 3 4 5 6 
#
# 1 109.7162 22.2803 51.5073 0.0000 1.2952 0.0000
# 2 22.2803 26.1780 22.1487 0.0000 5.5071 0.0000
# 3 51.5073 22.1487 136.9585 0.0000 7.6130 0.0000
# 4 0.0000 0.0000 0.0000 20.9756 0.0000 -2.0061
# 5 1.2952 5.5071 7.6130 0.0000 32.3342 0.0000
# 6 0.0000 0.0000 0.0000 -2.0061 0.0000 21.1481
#
#
#
# Elastic Compliance Matrix: (Units=1/GPa)
#
#
# Indices 1 2 3 4 5 6 
#
# 1 0.012321 -0.007922 -0.003445 0.000000 0.001667 0.000000
# 2 -0.007922 0.050501 -0.004790 0.000000 -0.007156 0.000000
# 3 -0.003445 -0.004790 0.009442 0.000000 -0.001269 0.000000
# 4 0.000000 0.000000 0.000000 0.048111 0.000000 0.004564
# 5 0.001667 -0.007156 -0.001269 0.000000 0.032378 0.000000
# 6 0.000000 0.000000 0.000000 0.004564 0.000000 0.047718
#
#
# Mechanical properties :
#
#
# Convention : Reuss Voigt Hill
#
# Bulk Modulus (GPa) = 25.03148 51.63616 38.33382
# Shear Modulus (GPa) = 20.31678 26.68600 23.50139
#
# Velocity S-wave (km/s) = 3.31082 3.79445 3.56086
# Velocity P-wave (km/s) = 5.30288 6.85977 6.13094
#
# Compressibility (1/GPa) = 0.03994969
#
# Stress axis : x y z
#
# Youngs Moduli (GPa) = 81.16303 19.80169 105.90681
#
# Poissons Ratio (x) = 0.15687 0.36486
# Poissons Ratio (y) = 0.64299 0.50727
# Poissons Ratio (z) = 0.27962 0.09484
#
# Static dielectric constant tensor:
#      x y z
#    x 3.503400 0.000000 0.062430 
#    y 0.000000 2.993260 0.000000 
#    z 0.062430 0.000000 3.774420 
# 
# 
# High freq. dielectric constant tensor:
#      x y z
#    x 1.730630 0.000000 0.003300 
#    y 0.000000 1.667600 0.000000 
#    z 0.003300 0.000000 1.735320 
# 
# From -- ./inp_files/324945.got.cif
#   From: 2010.06.25/outbox.cif.g09.slc.cpg/sg12_163_cif.got.tgz:324945.got - 2010.06.28 00:19:55.
