data_PCOD8087913
_publ_section_title
;
Structure prediction by ZEFSAII (Michael W. Deem and Ramdas Pophale) SiO2 
 PCOD8087913
Probable space group: C 2/M
;
_chemical_formula_sum "Si O2"
_cell_formula_units_Z 56
_cell_length_a 33.120477
_cell_length_b 9.669311
_cell_length_c 15.836025
_cell_angle_alpha 90.000000
_cell_angle_beta 142.110004
_cell_angle_gamma 90.000000
_cell_volume 3114.661957
_symmetry_space_group_name_H-M "C 2/M"
_symmetry_group_IT_number 12
_symmetry_cell_setting 'monoclinic'
loop_
_space_group_symop_operation_xyz
x,y,z
-x,y,-z
-x,-y,-z
x,-y,z
1/2+x,1/2+y,z
1/2-x,1/2+y,-z
1/2-x,1/2-y,-z
1/2+x,1/2-y,z
loop_
_atom_site_type_symbol
_atom_site_label
_atom_site_fract_x
_atom_site_fract_y
_atom_site_fract_z
Si Si1 0.507010 0.339424 0.106441
Si Si2 0.298359 0.156310 0.886383
Si Si3 0.154193 0.841908 0.353186
Si Si4 0.079397 0.163149 0.880665
Si Si5 0.799272 0.842681 0.133574
Si Si6 0.277588 0.160050 0.663126
Si Si7 0.554865 0.662034 0.653214
O O1 0.489859 0.500000 0.070204
O O2 0.580329 0.314179 0.262416
O O3 0.459113 0.277314 0.100142
O O4 0.500000 0.273285 0.000000
O O5 0.228142 0.161504 0.816650
O O6 0.282319 0.206868 0.766513
O O7 0.326994 0.000000 0.935658
O O8 0.351258 0.259414 0.014427
O O9 0.204051 0.803815 0.510540
O O10 0.167654 0.747030 0.295005
O O11 0.162867 0.000000 0.338129
O O12 0.039749 0.193012 0.727613
O O13 0.092450 0.000000 0.911002
O O14 0.872872 0.779959 0.252270
O O15 0.799060 0.000000 0.097480
O O16 0.750000 0.750000 0.000000
O O17 0.293893 0.000000 0.676023
O O18 0.500000 0.729863 0.500000
O O19 0.555574 0.500000 0.636953
#
# Coordination Sequence:
#
# PCOD8087913 Si02
#       7
#     8   8   8   8   8   8   8
#     4   9  17  28  45  71  98 123 157 201 245 287
#     4  10  20  32  49  73 101 130 162 203 251 300
#     4   9  17  31  49  68  96 130 163 203 246 290
#     4  10  19  32  52  74  97 129 167 207 248 298
#     4  10  19  33  53  75 101 132 166 207 253 302
#     4   9  18  31  47  70  97 128 164 200 245 297
#     4   9  18  32  51  77 104 129 164 211 258 301
#
# _framework density 17.979479999999999
#
# number of rings (size 3 to 8) (size 9 to 14) (size 15 to 20)
#    0.000    2.571    1.429    0.857    0.000    2.857 
#    0.000    6.429    0.000    4.286    0.000    2.000 
#    0.000    0.000    0.000    0.000    0.000    0.000 
#
# Total GULP energy -347037.457234 kJ/mol
# GULP energy per Si atom -12394.194901 kJ/mol
# Density = 1.793856 g / cm^3
# Si number density = 17.979480 Si / 1000 Ang^3
#
#
#
# Elastic Constant Matrix: (Units=GPa)
#
#
# Indices 1 2 3 4 5 6 
#
# 1 110.0635 20.2066 57.7805 0.0000 -0.7766 0.0000
# 2 20.2066 32.1362 27.7685 0.0000 -1.8534 0.0000
# 3 57.7805 27.7685 112.3188 0.0000 -3.5033 0.0000
# 4 0.0000 0.0000 0.0000 19.5797 0.0000 1.9055
# 5 -0.7766 -1.8534 -3.5033 0.0000 31.5781 0.0000
# 6 0.0000 0.0000 0.0000 1.9055 0.0000 19.0004
#
#
#
# Elastic Compliance Matrix: (Units=1/GPa)
#
#
# Indices 1 2 3 4 5 6 
#
# 1 0.012674 -0.002990 -0.005797 0.000000 -0.000507 0.000000
# 2 -0.002990 0.040325 -0.008389 0.000000 0.001363 0.000000
# 3 -0.005797 -0.008389 0.013988 0.000000 0.000917 0.000000
# 4 0.000000 0.000000 0.000000 0.051577 0.000000 -0.005173
# 5 -0.000507 0.001363 0.000917 0.000000 0.031837 0.000000
# 6 0.000000 0.000000 0.000000 -0.005173 0.000000 0.053149
#
#
# Mechanical properties :
#
#
# Convention : Reuss Voigt Hill
#
# Bulk Modulus (GPa) = 30.64092 51.78109 41.21100
# Shear Modulus (GPa) = 20.09821 23.94918 22.02370
#
# Velocity S-wave (km/s) = 3.34704 3.65366 3.50370
# Velocity P-wave (km/s) = 5.65827 6.83093 6.27207
#
# Compressibility (1/GPa) = 0.03263609
#
# Stress axis : x y z
#
# Youngs Moduli (GPa) = 78.90151 24.79866 71.49087
#
# Poissons Ratio (x) = 0.07414 0.41441
# Poissons Ratio (y) = 0.23589 0.59974
# Poissons Ratio (z) = 0.45736 0.20804
#
# Static dielectric constant tensor:
#      x y z
#    x 3.631440 0.000000 -0.001690 
#    y 0.000000 3.042190 0.000000 
#    z -0.001690 0.000000 3.469940 
# 
# 
# High freq. dielectric constant tensor:
#      x y z
#    x 1.703830 0.000000 -0.003510 
#    y 0.000000 1.658440 0.000000 
#    z -0.003510 0.000000 1.696980 
# 
# From -- ./inp_files/250599.got.cif
#   From: 2010.06.25/outbox.cif.g09.slc.cpg/sg12_126_cif.got.tgz:250599.got - 2010.06.28 00:19:55.
