data_PCOD8087723
_publ_section_title
;
Structure prediction by ZEFSAII (Michael W. Deem and Ramdas Pophale) SiO2 
 PCOD8087723
Probable space group: C 2/M
;
_chemical_formula_sum "Si O2"
_cell_formula_units_Z 40
_cell_length_a 28.780485
_cell_length_b 7.758992
_cell_length_c 9.732709
_cell_angle_alpha 90.000000
_cell_angle_beta 90.425010
_cell_angle_gamma 90.000000
_cell_volume 2173.327636
_symmetry_space_group_name_H-M "C 2/M"
_symmetry_group_IT_number 12
_symmetry_cell_setting 'monoclinic'
loop_
_space_group_symop_operation_xyz
x,y,z
-x,y,-z
-x,-y,-z
x,-y,z
1/2+x,1/2+y,z
1/2-x,1/2+y,-z
1/2-x,1/2-y,-z
1/2+x,1/2-y,z
loop_
_atom_site_type_symbol
_atom_site_label
_atom_site_fract_x
_atom_site_fract_y
_atom_site_fract_z
Si Si1 0.383933 0.309211 0.844214
Si Si2 0.696915 0.195624 0.338533
Si Si3 0.882208 0.801867 0.161264
Si Si4 0.448807 0.000000 0.163450
Si Si5 0.800747 0.798360 0.362952
Si Si6 0.947774 0.500000 0.837653
O O1 0.406289 0.500000 0.832601
O O2 0.336844 0.308502 0.755921
O O3 0.420637 0.170649 0.786570
O O4 0.371107 0.268969 0.001579
O O5 0.749324 0.267811 0.320753
O O6 0.682014 0.206418 0.497849
O O7 0.692870 0.000000 0.287088
O O8 0.922900 0.673830 0.213051
O O9 0.835569 0.752711 0.241182
O O10 0.897369 0.000000 0.190058
O O11 0.500773 0.000000 0.227549
O O12 0.451891 0.000000 0.000410
O O13 0.798451 0.000000 0.394099
#
# Coordination Sequence:
#
# PCOD8087723 Si02
#       6
#     8   8   8   4   8   4
#     4  10  19  33  53  76 105 137 169 212 260 303
#     4  10  19  32  51  75 104 139 176 211 252 306
#     4   9  19  34  52  77 105 134 171 212 258 307
#     4   9  18  32  55  77 105 137 169 215 264 305
#     4   9  19  34  50  73 105 138 174 213 253 305
#     4   9  18  34  51  79 107 133 173 215 258 313
#
# _framework density 18.404957
#
# number of rings (size 3 to 8) (size 9 to 14) (size 15 to 20)
#    0.000    2.600    1.000    0.600    1.400    2.400 
#    0.000    4.000    0.000    2.400    0.000    4.200 
#    0.000    0.000    0.000    0.000    0.000    0.000 
#
# Total GULP energy -247986.051804 kJ/mol
# GULP energy per Si atom -12399.302590 kJ/mol
# Density = 1.836307 g / cm^3
# Si number density = 18.404957 Si / 1000 Ang^3
#
#
#
# Elastic Constant Matrix: (Units=GPa)
#
#
# Indices 1 2 3 4 5 6 
#
# 1 140.0281 63.4704 54.3932 0.0000 -1.1948 0.0000
# 2 63.4704 103.7256 32.7443 0.0000 -1.2621 0.0000
# 3 54.3932 32.7443 55.1783 0.0000 1.3027 0.0000
# 4 0.0000 0.0000 0.0000 21.7042 0.0000 -0.4191
# 5 -1.1948 -1.2621 1.3027 0.0000 7.1502 0.0000
# 6 0.0000 0.0000 0.0000 -0.4191 0.0000 22.5469
#
#
#
# Elastic Compliance Matrix: (Units=1/GPa)
#
#
# Indices 1 2 3 4 5 6 
#
# 1 0.013433 -0.004891 -0.010416 0.000000 0.003279 0.000000
# 2 -0.004891 0.013727 -0.003376 0.000000 0.002221 0.000000
# 3 -0.010416 -0.003376 0.030581 0.000000 -0.007908 0.000000
# 4 0.000000 0.000000 0.000000 0.046091 0.000000 0.000857
# 5 0.003279 0.002221 -0.007908 0.000000 0.142237 0.000000
# 6 0.000000 0.000000 0.000000 0.000857 0.000000 0.044368
#
#
# Mechanical properties :
#
#
# Convention : Reuss Voigt Hill
#
# Bulk Modulus (GPa) = 49.08528 66.68309 57.88418
# Shear Modulus (GPa) = 14.94340 20.16852 17.55596
#
# Velocity S-wave (km/s) = 2.85252 3.31391 3.09183
# Velocity P-wave (km/s) = 6.12998 7.13809 6.65316
#
# Compressibility (1/GPa) = 0.02037271
#
# Stress axis : x y z
#
# Youngs Moduli (GPa) = 74.44536 72.85003 32.69953
#
# Poissons Ratio (x) = 0.35634 0.34061
# Poissons Ratio (y) = 0.36414 0.11041
# Poissons Ratio (z) = 0.77544 0.24598
#
# Static dielectric constant tensor:
#      x y z
#    x 3.462450 0.000000 -0.044810 
#    y 0.000000 3.495060 0.000000 
#    z -0.044810 0.000000 3.098100 
# 
# 
# High freq. dielectric constant tensor:
#      x y z
#    x 1.701960 0.000000 -0.000030 
#    y 0.000000 1.727210 0.000000 
#    z -0.000030 0.000000 1.684220 
# 
# From -- ./inp_files/92870.got.cif
#   From: 2010.06.25/outbox.cif.g09.slc.cpg/sg12_47_cif.got.tgz:92870.got - 2010.06.28 00:19:55.
