data_PCOD8087570
_publ_section_title
;
Structure prediction by ZEFSAII (Michael W. Deem and Ramdas Pophale) SiO2 
 PCOD8087570
Probable space group: C 2/M
;
_chemical_formula_sum "Si O2"
_cell_formula_units_Z 56
_cell_length_a 19.616166
_cell_length_b 8.975077
_cell_length_c 24.303428
_cell_angle_alpha 90.000000
_cell_angle_beta 53.190907
_cell_angle_gamma 90.000000
_cell_volume 3425.745689
_symmetry_space_group_name_H-M "C 2/M"
_symmetry_group_IT_number 12
_symmetry_cell_setting 'monoclinic'
loop_
_space_group_symop_operation_xyz
x,y,z
-x,y,-z
-x,-y,-z
x,-y,z
1/2+x,1/2+y,z
1/2-x,1/2+y,-z
1/2-x,1/2-y,-z
1/2+x,1/2-y,z
loop_
_atom_site_type_symbol
_atom_site_label
_atom_site_fract_x
_atom_site_fract_y
_atom_site_fract_z
Si Si1 0.556001 0.175612 0.421215
Si Si2 0.101047 0.326251 0.799525
Si Si3 0.556662 0.174178 0.199528
Si Si4 0.996546 0.174842 0.939554
Si Si5 0.287031 0.668028 0.685419
Si Si6 0.338196 0.675631 0.942005
Si Si7 0.932578 0.168117 0.691259
O O1 0.500000 0.225872 0.500000
O O2 0.654169 0.230266 0.383286
O O3 0.518315 0.256865 0.384705
O O4 0.553663 0.000000 0.413354
O O5 0.108429 0.500000 0.808678
O O6 0.192720 0.263004 0.736247
O O7 0.034278 0.291088 0.783758
O O8 0.073746 0.248263 0.869106
O O9 0.630742 0.260535 0.131372
O O10 0.551597 0.231550 0.263662
O O11 0.578329 0.000000 0.188139
O O12 0.906116 0.218104 0.956400
O O13 0.011750 0.000000 0.930547
O O14 0.000000 0.236155 0.000000
O O15 0.283042 0.500000 0.663296
O O16 0.331795 0.666279 0.724364
O O17 0.326073 0.500000 0.942198
O O18 0.250000 0.750000 0.000000
O O19 0.966369 0.000000 0.684843
#
# Coordination Sequence:
#
# PCOD8087570 Si02
#       7
#     8   8   8   8   8   8   8
#     4   9  17  30  50  76 103 129 161 200 242 288
#     4   9  18  33  50  70  96 128 162 199 243 292
#     4  10  19  32  51  71  97 129 163 201 245 293
#     4   9  19  34  49  68  92 123 162 204 247 289
#     4   8  17  31  48  72  99 126 160 197 240 287
#     4  10  20  34  50  68  94 126 163 204 249 296
#     4   9  18  31  49  73 100 127 160 198 240 287
#
# _framework density 16.346806000000001
#
# number of rings (size 3 to 8) (size 9 to 14) (size 15 to 20)
#    0.857    2.000    0.000    1.286    0.000    4.286 
#    0.000    2.857    0.000    0.857    0.000    0.000 
#    0.000    0.000    0.000    0.000    0.000    0.000 
#
# Total GULP energy -347033.216355 kJ/mol
# GULP energy per Si atom -12394.043441 kJ/mol
# Density = 1.630960 g / cm^3
# Si number density = 16.346806 Si / 1000 Ang^3
#
#
#
# Elastic Constant Matrix: (Units=GPa)
#
#
# Indices 1 2 3 4 5 6 
#
# 1 60.2135 31.1058 63.8043 -0.0001 -2.8631 0.0004
# 2 31.1058 65.7598 51.6654 -0.0002 -1.3283 0.0005
# 3 63.8043 51.6654 145.6431 0.0000 -3.4165 0.0001
# 4 -0.0001 -0.0002 0.0000 31.7572 0.0000 1.1349
# 5 -2.8631 -1.3283 -3.4165 0.0000 29.0111 0.0000
# 6 0.0004 0.0005 0.0001 1.1349 0.0000 18.8101
#
#
#
# Elastic Compliance Matrix: (Units=1/GPa)
#
#
# Indices 1 2 3 4 5 6 
#
# 1 0.032588 -0.005817 -0.012177 0.000000 0.001516 0.000000
# 2 -0.005817 0.022121 -0.005303 0.000000 -0.000186 0.000000
# 3 -0.012177 -0.005303 0.014087 0.000000 0.000214 0.000000
# 4 0.000000 0.000000 0.000000 0.031557 0.000000 -0.001904
# 5 0.001516 -0.000186 0.000214 0.000000 0.034636 0.000000
# 6 0.000000 0.000000 0.000000 -0.001904 0.000000 0.053278
#
#
# Mechanical properties :
#
#
# Convention : Reuss Voigt Hill
#
# Bulk Modulus (GPa) = 45.04224 62.75192 53.89708
# Shear Modulus (GPa) = 20.63870 24.25174 22.44522
#
# Velocity S-wave (km/s) = 3.55710 3.85590 3.70951
# Velocity P-wave (km/s) = 6.66967 7.63513 7.16867
#
# Compressibility (1/GPa) = 0.02220138
#
# Stress axis : x y z
#
# Youngs Moduli (GPa) = 30.68590 45.20533 70.98635
#
# Poissons Ratio (x) = 0.26295 0.86443
# Poissons Ratio (y) = 0.17850 0.37647
# Poissons Ratio (z) = 0.37368 0.23974
#
# Static dielectric constant tensor:
#      x y z
#    x 3.003270 0.000000 -0.038980 
#    y 0.000000 3.098620 0.000000 
#    z -0.038980 0.000000 3.072080 
# 
# 
# High freq. dielectric constant tensor:
#      x y z
#    x 1.611230 0.000000 -0.000660 
#    y 0.000000 1.638470 0.000000 
#    z -0.000660 0.000000 1.618890 
# 
# From -- ./inp_files/345493.got.cif
#   From: 2010.06.25/outbox.cif.g09.slc.cpg/sg12_173_cif.got.tgz:345493.got - 2010.06.28 00:19:55.
