data_PCOD8087539
_publ_section_title
;
Structure prediction by ZEFSAII (Michael W. Deem and Ramdas Pophale) SiO2 
 PCOD8087539
Probable space group: C 2/M
;
_chemical_formula_sum "Si O2"
_cell_formula_units_Z 64
_cell_length_a 30.304440
_cell_length_b 8.884457
_cell_length_c 19.850558
_cell_angle_alpha 90.000000
_cell_angle_beta 36.778920
_cell_angle_gamma 90.000000
_cell_volume 3199.927470
_symmetry_space_group_name_H-M "C 2/M"
_symmetry_group_IT_number 12
_symmetry_cell_setting 'monoclinic'
loop_
_space_group_symop_operation_xyz
x,y,z
-x,y,-z
-x,-y,-z
x,-y,z
1/2+x,1/2+y,z
1/2-x,1/2+y,-z
1/2-x,1/2-y,-z
1/2+x,1/2-y,z
loop_
_atom_site_type_symbol
_atom_site_label
_atom_site_fract_x
_atom_site_fract_y
_atom_site_fract_z
Si Si1 0.631989 0.179156 0.918064
Si Si2 0.500360 0.820815 0.168574
Si Si3 0.270497 0.330347 0.543890
Si Si4 0.386052 0.829419 0.204497
Si Si5 0.813125 0.321950 0.875917
Si Si6 0.021183 0.677294 0.291139
Si Si7 0.706431 0.678855 0.244348
Si Si8 0.615785 0.321322 0.485749
O O1 0.601582 0.244969 0.884022
O O2 0.712958 0.239668 0.834744
O O3 0.635368 0.000000 0.907809
O O4 0.577628 0.233928 0.042953
O O5 0.433481 0.750453 0.205858
O O6 0.494836 0.759538 0.250856
O O7 0.497691 0.000000 0.174877
O O8 0.290612 0.500000 0.499632
O O9 0.250000 0.250000 0.500000
O O10 0.200365 0.322866 0.677640
O O11 0.336869 0.258859 0.507572
O O12 0.415333 0.000000 0.166782
O O13 0.800738 0.500000 0.891399
O O14 0.893581 0.277972 0.805587
O O15 0.814018 0.260156 0.799473
O O16 0.750000 0.250000 0.000000
O O17 0.010729 0.500000 0.312149
O O18 0.967391 0.757408 0.410729
O O19 0.704949 0.500000 0.234841
O O20 0.651042 0.729515 0.371545
O O21 0.615355 0.500000 0.489689
#
# Coordination Sequence:
#
# PCOD8087539 Si02
#       8
#     8   8   8   8   8   8   8   8
#     4   9  15  27  48  75 108 142 178 228 280 330
#     4   9  16  26  46  76 106 139 180 227 283 336
#     4  10  19  32  50  76 111 153 197 238 284 337
#     4   9  15  25  44  73 106 138 178 226 276 331
#     4  11  24  42  64  90 118 148 187 234 289 352
#     4  10  22  39  57  82 114 147 187 239 292 344
#     4  10  20  37  60  84 115 153 194 242 291 340
#     4  10  21  37  57  82 114 154 199 243 290 345
#
# _framework density 20.000454000000001
#
# number of rings (size 3 to 8) (size 9 to 14) (size 15 to 20)
#    0.000    2.250    1.250    2.250    0.000    7.000 
#    0.000    2.500    0.000    0.000    0.000    0.000 
#    0.000    6.000    0.000    0.000    0.000    0.000 
#
# Total GULP energy -396620.864740 kJ/mol
# GULP energy per Si atom -12394.402023 kJ/mol
# Density = 1.995493 g / cm^3
# Si number density = 20.000454 Si / 1000 Ang^3
#
#
#
# Elastic Constant Matrix: (Units=GPa)
#
#
# Indices 1 2 3 4 5 6 
#
# 1 125.2686 31.1564 59.4934 0.0030 4.4213 -0.0017
# 2 31.1564 32.7636 31.0438 -0.0038 1.4854 0.0059
# 3 59.4934 31.0438 128.3919 0.0000 -1.8511 0.0005
# 4 0.0030 -0.0038 0.0000 24.7274 -0.0016 0.4179
# 5 4.4213 1.4854 -1.8511 -0.0016 39.2649 -0.0003
# 6 -0.0017 0.0059 0.0005 0.4179 -0.0003 25.4865
#
#
#
# Elastic Compliance Matrix: (Units=1/GPa)
#
#
# Indices 1 2 3 4 5 6 
#
# 1 0.011607 -0.007616 -0.003554 -0.000003 -0.001186 0.000003
# 2 -0.007616 0.044740 -0.007305 0.000008 -0.001179 -0.000011
# 3 -0.003554 -0.007305 0.011219 -0.000001 0.001205 0.000001
# 4 -0.000003 0.000008 -0.000001 0.040452 0.000002 -0.000663
# 5 -0.001186 -0.001179 0.001205 0.000002 0.025703 0.000000
# 6 0.000003 -0.000011 0.000001 -0.000663 0.000000 0.039247
#
#
# Mechanical properties :
#
#
# Convention : Reuss Voigt Hill
#
# Bulk Modulus (GPa) = 32.66420 58.86794 45.76607
# Shear Modulus (GPa) = 22.71442 28.87780 25.79611
#
# Velocity S-wave (km/s) = 3.37366 3.80393 3.59524
# Velocity P-wave (km/s) = 5.61629 6.98501 6.33771
#
# Compressibility (1/GPa) = 0.03061456
#
# Stress axis : x y z
#
# Youngs Moduli (GPa) = 86.15589 22.35146 89.13326
#
# Poissons Ratio (x) = 0.17024 0.31677
# Poissons Ratio (y) = 0.65620 0.65115
# Poissons Ratio (z) = 0.30619 0.16329
#
# Static dielectric constant tensor:
#      x y z
#    x 3.911110 -0.000020 0.000170 
#    y -0.000020 3.138250 0.000030 
#    z 0.000170 0.000030 3.808660 
# 
# 
# High freq. dielectric constant tensor:
#      x y z
#    x 1.794490 0.000000 0.001510 
#    y 0.000000 1.721910 0.000000 
#    z 0.001510 0.000000 1.796290 
# 
# From -- ./inp_files/295608.got.cif
#   From: 2010.06.25/outbox.cif.g09.slc.cpg/sg12_148_cif.got.tgz:295608.got - 2010.06.28 00:19:55.
