data_PCOD8087769
_publ_section_title
;
Structure prediction by ZEFSAII (Michael W. Deem and Ramdas Pophale) SiO2 
 PCOD8087769
Probable space group: C 2/M
;
_chemical_formula_sum "Si O2"
_cell_formula_units_Z 64
_cell_length_a 20.156681
_cell_length_b 8.830539
_cell_length_c 23.496193
_cell_angle_alpha 90.000000
_cell_angle_beta 58.164502
_cell_angle_gamma 90.000000
_cell_volume 3553.046456
_symmetry_space_group_name_H-M "C 2/M"
_symmetry_group_IT_number 12
_symmetry_cell_setting 'monoclinic'
loop_
_space_group_symop_operation_xyz
x,y,z
-x,y,-z
-x,-y,-z
x,-y,z
1/2+x,1/2+y,z
1/2-x,1/2+y,-z
1/2-x,1/2-y,-z
1/2+x,1/2-y,z
loop_
_atom_site_type_symbol
_atom_site_label
_atom_site_fract_x
_atom_site_fract_y
_atom_site_fract_z
Si Si1 0.668599 0.680227 0.055732
Si Si2 0.085317 0.670067 0.193056
Si Si3 0.991687 0.820879 0.329030
Si Si4 0.280933 0.823429 0.542875
Si Si5 0.981033 0.822334 0.946719
Si Si6 0.537822 0.824166 0.541728
Si Si7 0.153565 0.320863 0.668481
Si Si8 0.567100 0.833200 0.814603
O O1 0.673917 0.500000 0.054089
O O2 0.650106 0.738414 0.127777
O O3 0.601041 0.737362 0.042269
O O4 0.750000 0.750000 0.000000
O O5 0.116149 0.500000 0.191416
O O6 0.066087 0.754455 0.260891
O O7 0.006622 0.663685 0.193121
O O8 0.000544 0.774364 0.390759
O O9 0.909926 0.755665 0.343695
O O10 0.991694 0.000000 0.321927
O O11 0.250000 0.750000 0.500000
O O12 0.371506 0.789417 0.506508
O O13 0.238460 0.744383 0.615557
O O14 0.261431 0.000000 0.551775
O O15 0.053359 0.780881 0.872798
O O16 0.976483 0.000000 0.954093
O O17 0.000000 0.750341 0.000000
O O18 0.500000 0.772278 0.500000
O O19 0.521892 0.000000 0.562355
O O20 0.148887 0.500000 0.659746
O O21 0.138936 0.281900 0.741900
O O22 0.581861 0.000000 0.833688
#
# Coordination Sequence:
#
# PCOD8087769 Si02
#       8
#     8   8   8   8   8   8   8   8
#     4  10  19  32  52  78 107 136 173 215 259 306
#     4   9  17  31  51  75 104 135 171 214 261 308
#     4  11  20  31  52  80 106 134 173 217 263 310
#     4  11  21  33  54  81 106 133 171 217 264 308
#     4   9  18  32  51  75 103 135 171 210 250 301
#     4  10  22  39  56  74 103 142 180 213 255 316
#     4  10  19  32  51  76 107 136 170 216 263 310
#     4   8  16  29  47  73 101 132 168 207 253 300
#
# _framework density 18.012710999999999
#
# number of rings (size 3 to 8) (size 9 to 14) (size 15 to 20)
#    0.000    2.250    1.250    3.375    0.000    5.000 
#    0.000    0.000    2.750    0.000    0.000    0.000 
#    0.000    0.000    0.000    0.000    0.000    0.000 
#
# Total GULP energy -396737.269633 kJ/mol
# GULP energy per Si atom -12398.039676 kJ/mol
# Density = 1.797171 g / cm^3
# Si number density = 18.012711 Si / 1000 Ang^3
#
#
#
# Elastic Constant Matrix: (Units=GPa)
#
#
# Indices 1 2 3 4 5 6 
#
# 1 63.8065 37.0036 56.5073 -0.0003 3.3154 -0.0010
# 2 37.0036 94.2774 63.0792 -0.0005 -3.2800 -0.0023
# 3 56.5073 63.0792 170.2649 -0.0001 -7.3755 -0.0002
# 4 -0.0003 -0.0005 -0.0001 38.8056 0.0000 -4.3486
# 5 3.3154 -3.2800 -7.3755 0.0000 26.0904 -0.0002
# 6 -0.0010 -0.0023 -0.0002 -4.3486 -0.0002 18.1721
#
#
#
# Elastic Compliance Matrix: (Units=1/GPa)
#
#
# Indices 1 2 3 4 5 6 
#
# 1 0.024959 -0.005700 -0.006418 0.000000 -0.005703 0.000001
# 2 -0.005700 0.015407 -0.003747 0.000000 0.001602 0.000002
# 3 -0.006418 -0.003747 0.009523 0.000000 0.003037 -0.000001
# 4 0.000000 0.000000 0.000000 0.026480 0.000000 0.006337
# 5 -0.005703 0.001602 0.003037 0.000000 0.040113 0.000000
# 6 0.000001 0.000002 -0.000001 0.006337 0.000000 0.056546
#
#
# Mechanical properties :
#
#
# Convention : Reuss Voigt Hill
#
# Bulk Modulus (GPa) = 55.07276 71.28098 63.17687
# Shear Modulus (GPa) = 23.71806 28.06420 25.89113
#
# Velocity S-wave (km/s) = 3.63263 3.95146 3.79539
# Velocity P-wave (km/s) = 6.94517 7.77671 7.37267
#
# Compressibility (1/GPa) = 0.01815780
#
# Stress axis : x y z
#
# Youngs Moduli (GPa) = 40.06634 64.90603 105.00901
#
# Poissons Ratio (x) = 0.36997 0.67400
# Poissons Ratio (y) = 0.22838 0.39344
# Poissons Ratio (z) = 0.25717 0.24319
#
# Static dielectric constant tensor:
#      x y z
#    x 2.979660 0.000000 -0.028800 
#    y 0.000000 3.400190 0.000000 
#    z -0.028800 0.000000 3.734780 
# 
# 
# High freq. dielectric constant tensor:
#      x y z
#    x 1.648650 0.000000 -0.007810 
#    y 0.000000 1.703710 0.000000 
#    z -0.007810 0.000000 1.716480 
# 
# From -- ./inp_files/319785.got.cif
#   From: 2010.06.25/outbox.cif.g09.slc.cpg/sg12_160_cif.got.tgz:319785.got - 2010.06.28 00:19:55.
