data_PCOD8087430
_publ_section_title
;
Structure prediction by ZEFSAII (Michael W. Deem and Ramdas Pophale) SiO2 
 PCOD8087430
Probable space group: C 2/M
;
_chemical_formula_sum "Si O2"
_cell_formula_units_Z 40
_cell_length_a 24.442692
_cell_length_b 8.684361
_cell_length_c 12.182113
_cell_angle_alpha 90.000000
_cell_angle_beta 118.665522
_cell_angle_gamma 90.000000
_cell_volume 2268.947631
_symmetry_space_group_name_H-M "C 2/M"
_symmetry_group_IT_number 12
_symmetry_cell_setting 'monoclinic'
loop_
_space_group_symop_operation_xyz
x,y,z
-x,y,-z
-x,-y,-z
x,-y,z
1/2+x,1/2+y,z
1/2-x,1/2+y,-z
1/2-x,1/2-y,-z
1/2+x,1/2-y,z
loop_
_atom_site_type_symbol
_atom_site_label
_atom_site_fract_x
_atom_site_fract_y
_atom_site_fract_z
Si Si1 0.499156 0.320990 0.839102
Si Si2 0.043006 0.179334 0.442146
Si Si3 0.697900 0.322085 0.300986
Si Si4 0.667235 0.178855 0.498660
Si Si5 0.593104 0.179697 0.078649
O O1 0.488315 0.500000 0.854528
O O2 0.493915 0.285273 0.705485
O O3 0.447572 0.222987 0.853918
O O4 0.567508 0.269085 0.946771
O O5 0.107133 0.274352 0.511089
O O6 0.000000 0.237130 0.500000
O O7 0.059229 0.000000 0.469506
O O8 0.683942 0.500000 0.267451
O O9 0.668184 0.278489 0.389332
O O10 0.771463 0.284594 0.369726
O O11 0.664582 0.227436 0.171392
O O12 0.665550 0.000000 0.464056
O O13 0.588802 0.000000 0.051318
#
# Coordination Sequence:
#
# PCOD8087430 Si02
#       5
#     8   8   8   8   8
#     4  10  19  32  50  72 102 137 170 205 255 307
#     4  10  21  36  54  75 103 139 174 208 249 303
#     4  10  19  32  50  74 105 136 165 206 260 312
#     4  10  20  32  50  76 103 133 170 211 255 301
#     4  11  20  30  49  76 105 132 166 212 257 302
#
# _framework density 17.629318999999999
#
# number of rings (size 3 to 8) (size 9 to 14) (size 15 to 20)
#    0.000    1.800    2.000    4.800    0.000    3.600 
#    0.000    0.000    0.000    1.200    0.000    0.000 
#    0.000    0.000    0.000    0.000    0.000    0.000 
#
# Total GULP energy -248044.406823 kJ/mol
# GULP energy per Si atom -12402.220341 kJ/mol
# Density = 1.758919 g / cm^3
# Si number density = 17.629319 Si / 1000 Ang^3
#
#
#
# Elastic Constant Matrix: (Units=GPa)
#
#
# Indices 1 2 3 4 5 6 
#
# 1 93.9515 24.8368 52.0126 0.0000 9.7704 0.0000
# 2 24.8368 59.7764 29.3692 0.0000 8.6313 0.0000
# 3 52.0126 29.3692 109.7773 0.0000 17.3408 0.0000
# 4 0.0000 0.0000 0.0000 20.8576 0.0000 9.5514
# 5 9.7704 8.6313 17.3408 0.0000 30.5269 0.0000
# 6 0.0000 0.0000 0.0000 9.5514 0.0000 23.0766
#
#
#
# Elastic Compliance Matrix: (Units=1/GPa)
#
#
# Indices 1 2 3 4 5 6 
#
# 1 0.014927 -0.003110 -0.006179 0.000000 -0.000388 0.000000
# 2 -0.003110 0.020124 -0.003481 0.000000 -0.002717 0.000000
# 3 -0.006179 -0.003481 0.013733 0.000000 -0.004839 0.000000
# 4 0.000000 0.000000 0.000000 0.059156 0.000000 -0.024485
# 5 -0.000388 -0.002717 -0.004839 0.000000 0.036399 0.000000
# 6 0.000000 0.000000 0.000000 -0.024485 0.000000 0.053468
#
#
# Mechanical properties :
#
#
# Convention : Reuss Voigt Hill
#
# Bulk Modulus (GPa) = 43.02356 52.88250 47.95303
# Shear Modulus (GPa) = 21.63602 25.37799 23.50700
#
# Velocity S-wave (km/s) = 3.50705 3.79823 3.65554
# Velocity P-wave (km/s) = 6.39193 7.02122 6.71395
#
# Compressibility (1/GPa) = 0.02324308
#
# Stress axis : x y z
#
# Youngs Moduli (GPa) = 66.99179 49.69216 72.81894
#
# Poissons Ratio (x) = 0.15455 0.44996
# Poissons Ratio (y) = 0.20836 0.25348
# Poissons Ratio (z) = 0.41395 0.17298
#
# Static dielectric constant tensor:
#      x y z
#    x 3.061850 0.000000 0.340380 
#    y 0.000000 3.314210 0.000000 
#    z 0.340380 0.000000 3.498550 
# 
# 
# High freq. dielectric constant tensor:
#      x y z
#    x 1.642980 0.000000 0.033220 
#    y 0.000000 1.693510 0.000000 
#    z 0.033220 0.000000 1.683140 
# 
# From -- ./inp_files/171871.got.cif
#   From: 2010.06.25/outbox.cif.g09.slc.cpg/sg12_86_cif.got.tgz:171871.got - 2010.06.28 00:19:55.
