data_PCOD8087056
_publ_section_title
;
Structure prediction by ZEFSAII (Michael W. Deem and Ramdas Pophale) SiO2 
 PCOD8087056
Probable space group: C 2/M
;
_chemical_formula_sum "Si O2"
_cell_formula_units_Z 64
_cell_length_a 11.160864
_cell_length_b 13.903566
_cell_length_c 31.902536
_cell_angle_alpha 90.000000
_cell_angle_beta 136.849162
_cell_angle_gamma 90.000000
_cell_volume 3385.754004
_symmetry_space_group_name_H-M "C 2/M"
_symmetry_group_IT_number 12
_symmetry_cell_setting 'monoclinic'
loop_
_space_group_symop_operation_xyz
x,y,z
-x,y,-z
-x,-y,-z
x,-y,z
1/2+x,1/2+y,z
1/2-x,1/2+y,-z
1/2-x,1/2-y,-z
1/2+x,1/2-y,z
loop_
_atom_site_type_symbol
_atom_site_label
_atom_site_fract_x
_atom_site_fract_y
_atom_site_fract_z
Si Si1 0.877602 0.890193 0.759394
Si Si2 0.976810 0.389464 0.834847
Si Si3 0.549360 0.753571 0.465077
Si Si4 0.888432 0.889502 0.932875
Si Si5 0.137650 0.798696 0.159088
Si Si6 0.533548 0.799298 0.254129
Si Si7 0.477885 0.107802 0.375484
Si Si8 0.264622 0.389319 0.383304
O O1 0.943047 0.856306 0.822103
O O2 0.969806 0.816927 0.750782
O O3 0.668800 0.877932 0.698161
O O4 0.938517 0.000000 0.767027
O O5 0.922031 0.500000 0.829974
O O6 0.891572 0.316601 0.846727
O O7 0.901861 0.355141 0.770962
O O8 0.184732 0.375950 0.890556
O O9 0.500000 0.788627 0.500000
O O10 0.750000 0.750000 0.500000
O O11 0.447418 0.824947 0.407704
O O12 0.463814 0.647785 0.438099
O O13 0.946195 0.833231 0.905839
O O14 0.937238 0.000000 0.937932
O O15 0.000000 0.846989 0.000000
O O16 0.338032 0.831893 0.213500
O O17 0.665119 0.827708 0.323658
O O18 0.667445 0.127397 0.402882
O O19 0.468918 0.000000 0.390743
O O20 0.266588 0.500000 0.370455
#
# Coordination Sequence:
#
# PCOD8087056 Si02
#       8
#     8   8   8   8   8   8   8   8
#     4  10  19  32  54  82 109 137 177 226 279 331
#     4   9  19  33  50  77 110 144 180 225 279 328
#     4  12  25  42  63  86 118 152 193 241 287 346
#     4   9  18  33  52  75 105 142 187 232 273 324
#     4  10  19  31  53  79 108 145 179 226 277 333
#     4  10  19  33  54  81 112 139 180 224 277 335
#     4  10  21  38  61  85 111 147 186 233 288 339
#     4  11  22  38  62  86 112 149 192 234 284 347
#
# _framework density 18.902730999999999
#
# number of rings (size 3 to 8) (size 9 to 14) (size 15 to 20)
#    0.000    1.875    3.750    0.750    0.000    3.000 
#    0.000    0.000    0.000    2.625    0.000    0.000 
#    0.000    0.000    0.000    0.000    0.000    0.000 
#
# Total GULP energy -396623.933566 kJ/mol
# GULP energy per Si atom -12394.497924 kJ/mol
# Density = 1.885971 g / cm^3
# Si number density = 18.902731 Si / 1000 Ang^3
#
#
#
# Elastic Constant Matrix: (Units=GPa)
#
#
# Indices 1 2 3 4 5 6 
#
# 1 57.5862 29.2099 30.8876 0.0000 -17.0633 0.0000
# 2 29.2099 115.6317 45.3820 0.0000 -24.8629 0.0000
# 3 30.8876 45.3820 92.0923 0.0000 -23.7802 0.0000
# 4 0.0000 0.0000 0.0000 27.3058 0.0000 -0.5582
# 5 -17.0633 -24.8629 -23.7802 0.0000 27.7242 0.0000
# 6 0.0000 0.0000 0.0000 -0.5582 0.0000 30.6874
#
#
#
# Elastic Compliance Matrix: (Units=1/GPa)
#
#
# Indices 1 2 3 4 5 6 
#
# 1 0.023495 -0.002330 -0.004544 0.000000 0.008473 0.000000
# 2 -0.002330 0.011959 -0.003485 0.000000 0.006302 0.000000
# 3 -0.004544 -0.003485 0.016147 0.000000 0.007928 0.000000
# 4 0.000000 0.000000 0.000000 0.036636 0.000000 0.000666
# 5 0.008473 0.006302 0.007928 0.000000 0.053737 0.000000
# 6 0.000000 0.000000 0.000000 0.000666 0.000000 0.032599
#
#
# Mechanical properties :
#
#
# Convention : Reuss Voigt Hill
#
# Bulk Modulus (GPa) = 32.37848 52.91881 42.64864
# Shear Modulus (GPa) = 24.32077 27.79885 26.05981
#
# Velocity S-wave (km/s) = 3.59085 3.83904 3.71701
# Velocity P-wave (km/s) = 5.86161 6.90703 6.40568
#
# Compressibility (1/GPa) = 0.03088471
#
# Stress axis : x y z
#
# Youngs Moduli (GPa) = 42.56204 83.61614 61.93008
#
# Poissons Ratio (x) = 0.19481 0.28142
# Poissons Ratio (y) = 0.09916 0.21581
# Poissons Ratio (z) = 0.19341 0.29137
#
# Static dielectric constant tensor:
#      x y z
#    x 3.299040 0.000000 -0.089550 
#    y 0.000000 3.521930 0.000000 
#    z -0.089550 0.000000 3.477300 
# 
# 
# High freq. dielectric constant tensor:
#      x y z
#    x 1.713890 0.000000 -0.007950 
#    y 0.000000 1.736890 0.000000 
#    z -0.007950 0.000000 1.733300 
# 
# From -- ./inp_files/374115.got.cif
#   From: 2010.06.25/outbox.cif.g09.slc.cpg/sg12_188_cif.got.tgz:374115.got - 2010.06.28 00:19:55.
