data_PCOD8087724
_publ_section_title
;
Structure prediction by ZEFSAII (Michael W. Deem and Ramdas Pophale) SiO2 
 PCOD8087724
Probable space group: C 2/M
;
_chemical_formula_sum "Si O2"
_cell_formula_units_Z 48
_cell_length_a 18.709635
_cell_length_b 11.446623
_cell_length_c 12.806590
_cell_angle_alpha 90.000000
_cell_angle_beta 110.178460
_cell_angle_gamma 90.000000
_cell_volume 2574.348184
_symmetry_space_group_name_H-M "C 2/M"
_symmetry_group_IT_number 12
_symmetry_cell_setting 'monoclinic'
loop_
_space_group_symop_operation_xyz
x,y,z
-x,y,-z
-x,-y,-z
x,-y,z
1/2+x,1/2+y,z
1/2-x,1/2+y,-z
1/2-x,1/2-y,-z
1/2+x,1/2-y,z
loop_
_atom_site_type_symbol
_atom_site_label
_atom_site_fract_x
_atom_site_fract_y
_atom_site_fract_z
Si Si1 0.996763 0.364851 0.380455
Si Si2 0.358940 0.239395 0.651669
Si Si3 0.175636 0.871107 0.168037
Si Si4 0.661117 0.232811 0.743619
Si Si5 0.203650 0.870742 0.566297
Si Si6 0.803001 0.135746 0.043361
O O1 0.017219 0.500000 0.391244
O O2 0.914574 0.344617 0.287782
O O3 0.000000 0.314967 0.500000
O O4 0.058339 0.301647 0.339643
O O5 0.364657 0.280097 0.775155
O O6 0.295648 0.137926 0.610706
O O7 0.329892 0.345502 0.565000
O O8 0.266437 0.850042 0.202515
O O9 0.162131 0.000000 0.206811
O O10 0.142669 0.861680 0.032569
O O11 0.666098 0.284332 0.630166
O O12 0.654433 0.337330 0.826095
O O13 0.180702 0.000000 0.587385
O O14 0.768593 0.000000 0.033333
O O15 0.750000 0.250000 0.000000
#
# Coordination Sequence:
#
# PCOD8087724 Si02
#       6
#     8   8   8   8   8   8
#     4  11  22  37  55  78 111 147 185 230 282 342
#     4  10  20  34  51  77 106 139 181 226 270 333
#     4   9  18  34  57  81 106 143 185 227 275 331
#     4  10  19  34  55  82 111 140 183 230 276 330
#     4  10  19  32  51  75 104 139 176 222 275 324
#     4   9  18  34  58  86 115 148 191 237 282 330
#
# _framework density 18.645496000000001
#
# number of rings (size 3 to 8) (size 9 to 14) (size 15 to 20)
#    0.000    2.167    1.667    2.000    0.000    0.667 
#    0.000    5.833    0.000    3.000    0.000    0.000 
#    0.000    0.000    0.000    0.000    0.000    0.000 
#
# Total GULP energy -297324.996940 kJ/mol
# GULP energy per Si atom -12388.541539 kJ/mol
# Density = 1.860306 g / cm^3
# Si number density = 18.645496 Si / 1000 Ang^3
#
#
#
# Elastic Constant Matrix: (Units=GPa)
#
#
# Indices 1 2 3 4 5 6 
#
# 1 96.7386 14.5889 21.9385 0.0000 -16.5118 0.0000
# 2 14.5889 82.6582 17.7971 0.0000 -8.3028 0.0000
# 3 21.9385 17.7971 88.5318 0.0000 -23.3191 0.0000
# 4 0.0000 0.0000 0.0000 15.6410 0.0000 -6.0762
# 5 -16.5118 -8.3028 -23.3191 0.0000 21.5854 0.0000
# 6 0.0000 0.0000 0.0000 -6.0762 0.0000 14.1176
#
#
#
# Elastic Compliance Matrix: (Units=1/GPa)
#
#
# Indices 1 2 3 4 5 6 
#
# 1 0.012035 -0.001179 -0.000615 0.000000 0.008088 0.000000
# 2 -0.001179 0.012898 -0.001721 0.000000 0.002200 0.000000
# 3 -0.000615 -0.001721 0.016068 0.000000 0.016226 0.000000
# 4 0.000000 0.000000 0.000000 0.076771 0.000000 0.033042
# 5 0.008088 0.002200 0.016226 0.000000 0.070890 0.000000
# 6 0.000000 0.000000 0.000000 0.033042 0.000000 0.085055
#
#
# Mechanical properties :
#
#
# Convention : Reuss Voigt Hill
#
# Bulk Modulus (GPa) = 29.43801 41.84196 35.63999
# Shear Modulus (GPa) = 17.11923 24.50906 20.81415
#
# Velocity S-wave (km/s) = 3.03337 3.62950 3.34475
# Velocity P-wave (km/s) = 5.30010 6.32882 5.83716
#
# Compressibility (1/GPa) = 0.03396968
#
# Stress axis : x y z
#
# Youngs Moduli (GPa) = 83.09120 77.53331 62.23736
#
# Poissons Ratio (x) = 0.09144 0.03826
# Poissons Ratio (y) = 0.09799 0.10712
# Poissons Ratio (z) = 0.05108 0.13345
#
# Static dielectric constant tensor:
#      x y z
#    x 3.073860 0.000000 -0.197100 
#    y 0.000000 3.399380 0.000000 
#    z -0.197100 0.000000 3.758560 
# 
# 
# High freq. dielectric constant tensor:
#      x y z
#    x 1.685580 0.000000 -0.022990 
#    y 0.000000 1.724950 0.000000 
#    z -0.022990 0.000000 1.735180 
# 
# From -- ./inp_files/153653.got.cif
#   From: 2010.06.25/outbox.cif.g09.slc.cpg/sg12_77_cif.got.tgz:153653.got - 2010.06.28 00:19:55.
