data_PCOD8087072
_publ_section_title
;
Structure prediction by ZEFSAII (Michael W. Deem and Ramdas Pophale) SiO2 
 PCOD8087072
Probable space group: C 2/M
;
_chemical_formula_sum "Si O2"
_cell_formula_units_Z 64
_cell_length_a 19.801085
_cell_length_b 8.863637
_cell_length_c 21.428520
_cell_angle_alpha 90.000000
_cell_angle_beta 111.827083
_cell_angle_gamma 90.000000
_cell_volume 3491.292541
_symmetry_space_group_name_H-M "C 2/M"
_symmetry_group_IT_number 12
_symmetry_cell_setting 'monoclinic'
loop_
_space_group_symop_operation_xyz
x,y,z
-x,y,-z
-x,-y,-z
x,-y,z
1/2+x,1/2+y,z
1/2-x,1/2+y,-z
1/2-x,1/2-y,-z
1/2+x,1/2-y,z
loop_
_atom_site_type_symbol
_atom_site_label
_atom_site_fract_x
_atom_site_fract_y
_atom_site_fract_z
Si Si1 0.218575 0.820524 0.051557
Si Si2 0.414259 0.828342 0.466788
Si Si3 0.383314 0.668345 0.808230
Si Si4 0.219939 0.666713 0.799412
Si Si5 0.672162 0.326261 0.666553
Si Si6 0.422263 0.825533 0.942612
Si Si7 0.173722 0.822262 0.457497
Si Si8 0.334243 0.824911 0.673898
O O1 0.273920 0.775279 0.126998
O O2 0.138046 0.757671 0.036385
O O3 0.213111 0.000000 0.044041
O O4 0.250000 0.750000 0.000000
O O5 0.500000 0.817288 0.500000
O O6 0.387466 0.772323 0.389957
O O7 0.383540 0.719863 0.509292
O O8 0.387457 0.000000 0.467759
O O9 0.415333 0.500000 0.810206
O O10 0.300844 0.658478 0.801376
O O11 0.429308 0.756479 0.875929
O O12 0.387558 0.759493 0.745079
O O13 0.184468 0.500000 0.784782
O O14 0.172863 0.777897 0.739748
O O15 0.649680 0.500000 0.655394
O O16 0.749977 0.297067 0.661338
O O17 0.400100 0.000000 0.929804
O O18 0.500000 0.802105 0.000000
O O19 0.250000 0.750000 0.500000
O O20 0.145105 0.761552 0.381882
O O21 0.183145 0.000000 0.457916
O O22 0.351214 0.000000 0.671119
#
# Coordination Sequence:
#
# PCOD8087072 Si02
#       8
#     8   8   8   8   8   8   8   8
#     4  10  20  34  55  82 111 143 180 225 274 322
#     4  11  24  40  58  79 108 146 183 222 272 327
#     4   9  17  30  50  78 109 142 180 224 271 317
#     4   8  16  30  49  75 106 138 175 219 266 318
#     4  10  19  31  53  81 107 139 177 222 268 317
#     4  10  20  34  54  80 111 147 185 225 270 323
#     4  12  23  36  57  84 112 142 180 227 272 320
#     4  10  19  32  53  82 112 141 177 224 274 320
#
# _framework density 18.331320000000002
#
# number of rings (size 3 to 8) (size 9 to 14) (size 15 to 20)
#    0.000    2.000    1.250    4.125    0.000    6.500 
#    0.000    0.000    2.750    0.000    0.000    0.000 
#    0.000    0.000    0.000    0.000    0.000    0.000 
#
# Total GULP energy -396824.885221 kJ/mol
# GULP energy per Si atom -12400.777663 kJ/mol
# Density = 1.828960 g / cm^3
# Si number density = 18.331320 Si / 1000 Ang^3
#
#
#
# Elastic Constant Matrix: (Units=GPa)
#
#
# Indices 1 2 3 4 5 6 
#
# 1 46.6811 38.4455 42.5880 0.0000 -6.2736 0.0000
# 2 38.4455 145.1158 79.5260 0.0000 -1.5405 0.0000
# 3 42.5880 79.5260 156.4521 0.0000 -13.3821 0.0000
# 4 0.0000 0.0000 0.0000 38.2804 0.0000 -3.7349
# 5 -6.2736 -1.5405 -13.3821 0.0000 25.4115 0.0000
# 6 0.0000 0.0000 0.0000 -3.7349 0.0000 23.4355
#
#
#
# Elastic Compliance Matrix: (Units=1/GPa)
#
#
# Indices 1 2 3 4 5 6 
#
# 1 0.031358 -0.005259 -0.005474 0.000000 0.004540 0.000000
# 2 -0.005259 0.010539 -0.004170 0.000000 -0.002855 0.000000
# 3 -0.005474 -0.004170 0.010329 0.000000 0.003835 0.000000
# 4 0.000000 0.000000 0.000000 0.026536 0.000000 0.004229
# 5 0.004540 -0.002855 0.003835 0.000000 0.042320 0.000000
# 6 0.000000 0.000000 0.000000 0.004229 0.000000 0.043344
#
#
# Mechanical properties :
#
#
# Convention : Reuss Voigt Hill
#
# Bulk Modulus (GPa) = 44.60359 74.37424 59.48891
# Shear Modulus (GPa) = 24.78850 29.93809 27.36330
#
# Velocity S-wave (km/s) = 3.68128 4.04563 3.86775
# Velocity P-wave (km/s) = 6.51566 7.90463 7.24351
#
# Compressibility (1/GPa) = 0.02241972
#
# Stress axis : x y z
#
# Youngs Moduli (GPa) = 31.88991 94.88375 96.81070
#
# Poissons Ratio (x) = 0.49904 0.52996
# Poissons Ratio (y) = 0.16772 0.40367
# Poissons Ratio (z) = 0.17457 0.39564
#
# Static dielectric constant tensor:
#      x y z
#    x 2.859660 0.000000 -0.128030 
#    y 0.000000 3.615570 0.000000 
#    z -0.128030 0.000000 3.743280 
# 
# 
# High freq. dielectric constant tensor:
#      x y z
#    x 1.659460 0.000000 -0.009160 
#    y 0.000000 1.729130 0.000000 
#    z -0.009160 0.000000 1.728510 
# 
# From -- ./inp_files/320077.got.cif
#   From: 2010.06.25/outbox.cif.g09.slc.cpg/sg12_161_cif.got.tgz:320077.got - 2010.06.28 00:19:55.
