data_PCOD8087104
_publ_section_title
;
Structure prediction by ZEFSAII (Michael W. Deem and Ramdas Pophale) SiO2 
 PCOD8087104
Probable space group: C 2/M
;
_chemical_formula_sum "Si O2"
_cell_formula_units_Z 56
_cell_length_a 24.872709
_cell_length_b 8.771798
_cell_length_c 36.237293
_cell_angle_alpha 90.000000
_cell_angle_beta 156.735652
_cell_angle_gamma 90.000000
_cell_volume 3122.740436
_symmetry_space_group_name_H-M "C 2/M"
_symmetry_group_IT_number 12
_symmetry_cell_setting 'monoclinic'
loop_
_space_group_symop_operation_xyz
x,y,z
-x,y,-z
-x,-y,-z
x,-y,z
1/2+x,1/2+y,z
1/2-x,1/2+y,-z
1/2-x,1/2-y,-z
1/2+x,1/2-y,z
loop_
_atom_site_type_symbol
_atom_site_label
_atom_site_fract_x
_atom_site_fract_y
_atom_site_fract_z
Si Si1 0.601152 0.179389 0.906558
Si Si2 0.243948 0.175105 0.791327
Si Si3 0.280605 0.822802 0.899735
Si Si4 0.515114 0.677709 0.778807
Si Si5 0.060754 0.825488 0.397151
Si Si6 0.168412 0.324909 0.393628
Si Si7 0.509905 0.322359 0.090597
O O1 0.515484 0.231351 0.817191
O O2 0.520555 0.229092 0.891859
O O3 0.618197 0.000000 0.917387
O O4 0.750000 0.250000 0.000000
O O5 0.256123 0.217535 0.841919
O O6 0.337706 0.284402 0.826194
O O7 0.088767 0.204737 0.680665
O O8 0.287077 0.000000 0.811995
O O9 0.146993 0.776427 0.838226
O O10 0.315419 0.000000 0.927369
O O11 0.406882 0.723847 0.993198
O O12 0.511993 0.500000 0.785757
O O13 0.380036 0.723281 0.671213
O O14 0.086188 0.716339 0.378666
O O15 0.170891 0.793921 0.498714
O O16 0.072044 0.000000 0.389857
O O17 0.139089 0.500000 0.365720
O O18 0.496384 0.500000 0.090581
#
# Coordination Sequence:
#
# PCOD8087104 Si02
#       7
#     8   8   8   8   8   8   8
#     4  12  24  40  60  82 108 144 187 231 276 323
#     4  10  20  37  57  78 110 152 191 225 271 330
#     4  10  20  35  56  79 110 151 188 222 271 328
#     4  11  21  36  58  83 114 148 183 227 277 329
#     4   9  18  34  54  79 112 150 187 226 277 333
#     4  10  19  31  53  84 115 145 183 230 279 330
#     4  12  25  38  54  80 113 148 187 230 277 327
#
# _framework density 17.932967000000001
#
# number of rings (size 3 to 8) (size 9 to 14) (size 15 to 20)
#    0.000    1.429    2.857    3.857    0.000    4.000 
#    0.000    0.000    0.000    0.857    0.000    6.000 
#    0.000    0.000    0.000    0.000    0.000    0.000 
#
# Total GULP energy -347339.834443 kJ/mol
# GULP energy per Si atom -12404.994087 kJ/mol
# Density = 1.789215 g / cm^3
# Si number density = 17.932967 Si / 1000 Ang^3
#
#
#
# Elastic Constant Matrix: (Units=GPa)
#
#
# Indices 1 2 3 4 5 6 
#
# 1 80.9714 35.0909 45.3378 0.0049 3.2087 -0.0014
# 2 35.0909 94.8796 44.1515 0.0074 1.1435 -0.0081
# 3 45.3378 44.1515 121.7758 0.0211 3.5313 -0.0026
# 4 0.0049 0.0074 0.0211 30.5743 -0.0045 -1.9592
# 5 3.2087 1.1435 3.5313 -0.0045 22.3672 -0.0001
# 6 -0.0014 -0.0081 -0.0026 -1.9592 -0.0001 29.1212
#
#
#
# Elastic Compliance Matrix: (Units=1/GPa)
#
#
# Indices 1 2 3 4 5 6 
#
# 1 0.016803 -0.003976 -0.004772 0.000001 -0.001454 -0.000001
# 2 -0.003976 0.013620 -0.003470 0.000000 0.000422 0.000003
# 3 -0.004772 -0.003470 0.011273 -0.000006 -0.000918 -0.000001
# 4 0.000001 0.000000 -0.000006 0.032849 0.000008 0.002210
# 5 -0.001454 0.000422 -0.000918 0.000008 0.045040 0.000001
# 6 -0.000001 0.000003 -0.000001 0.002210 0.000001 0.034488
#
#
# Mechanical properties :
#
#
# Convention : Reuss Voigt Hill
#
# Bulk Modulus (GPa) = 57.93931 60.75415 59.34673
# Shear Modulus (GPa) = 27.13520 27.94896 27.54208
#
# Velocity S-wave (km/s) = 3.89414 3.95210 3.92322
# Velocity P-wave (km/s) = 7.25245 7.40118 7.32719
#
# Compressibility (1/GPa) = 0.01725944
#
# Stress axis : x y z
#
# Youngs Moduli (GPa) = 59.51380 73.42175 88.70665
#
# Poissons Ratio (x) = 0.29195 0.42330
# Poissons Ratio (y) = 0.23665 0.30780
# Poissons Ratio (z) = 0.28400 0.25477
#
# Static dielectric constant tensor:
#      x y z
#    x 3.226800 -0.000030 -0.017270 
#    y -0.000030 3.408160 0.000040 
#    z -0.017270 0.000040 3.490330 
# 
# 
# High freq. dielectric constant tensor:
#      x y z
#    x 1.672180 0.000000 -0.001740 
#    y 0.000000 1.700500 0.000000 
#    z -0.001740 0.000000 1.698940 
# 
# From -- ./inp_files/380742.got.cif
#   From: 2010.06.25/outbox.cif.g09.slc.cpg/sg12_191_cif.got.tgz:380742.got - 2010.06.28 00:19:55.
