data_PCOD8087899
_publ_section_title
;
Structure prediction by ZEFSAII (Michael W. Deem and Ramdas Pophale) SiO2 
 PCOD8087899
Probable space group: C 2/M
;
_chemical_formula_sum "Si O2"
_cell_formula_units_Z 32
_cell_length_a 19.046733
_cell_length_b 8.842569
_cell_length_c 11.230645
_cell_angle_alpha 90.000000
_cell_angle_beta 98.344590
_cell_angle_gamma 90.000000
_cell_volume 1871.463351
_symmetry_space_group_name_H-M "C 2/M"
_symmetry_group_IT_number 12
_symmetry_cell_setting 'monoclinic'
loop_
_space_group_symop_operation_xyz
x,y,z
-x,y,-z
-x,-y,-z
x,-y,z
1/2+x,1/2+y,z
1/2-x,1/2+y,-z
1/2-x,1/2-y,-z
1/2+x,1/2-y,z
loop_
_atom_site_type_symbol
_atom_site_label
_atom_site_fract_x
_atom_site_fract_y
_atom_site_fract_z
Si Si1 0.773103 0.669108 0.886603
Si Si2 0.422515 0.822292 0.526917
Si Si3 0.154509 0.821826 0.294156
Si Si4 0.706144 0.671980 0.630628
O O1 0.798026 0.500000 0.924315
O O2 0.839025 0.756509 0.838714
O O3 0.707993 0.667820 0.776246
O O4 0.750000 0.750000 0.000000
O O5 0.500000 0.779974 0.500000
O O6 0.413611 0.747931 0.655714
O O7 0.366468 0.752272 0.421406
O O8 0.410517 0.000000 0.533413
O O9 0.223025 0.767681 0.391678
O O10 0.148951 0.000000 0.287331
O O11 0.709420 0.500000 0.580616
#
# Coordination Sequence:
#
# PCOD8087899 Si02
#       4
#     8   8   8   8
#     4   9  18  31  51  77 101 127 163 207 248 289
#     4  11  22  34  49  72 103 135 167 204 249 298
#     4  10  19  32  52  74 101 132 165 205 248 292
#     4   9  19  33  51  74 101 130 165 205 246 295
#
# _framework density 17.098918999999999
#
# number of rings (size 3 to 8) (size 9 to 14) (size 15 to 20)
#    1.500    0.750    0.000    4.500    0.000    2.000 
#    0.000    0.000    0.000    1.500    0.000   10.500 
#    0.000    0.000    0.000    0.000    0.000    0.000 
#
# Total GULP energy -198259.903713 kJ/mol
# GULP energy per Si atom -12391.243982 kJ/mol
# Density = 1.706000 g / cm^3
# Si number density = 17.098919 Si / 1000 Ang^3
#
#
#
# Elastic Constant Matrix: (Units=GPa)
#
#
# Indices 1 2 3 4 5 6 
#
# 1 81.6672 61.8268 36.4682 0.0000 -26.5321 0.0000
# 2 61.8268 166.3913 54.6603 0.0000 -30.1284 0.0000
# 3 36.4682 54.6603 87.0543 0.0000 -37.2828 0.0000
# 4 0.0000 0.0000 0.0000 33.9829 0.0000 -4.3025
# 5 -26.5321 -30.1284 -37.2828 0.0000 25.8599 0.0000
# 6 0.0000 0.0000 0.0000 -4.3025 0.0000 25.0655
#
#
#
# Elastic Compliance Matrix: (Units=1/GPa)
#
#
# Indices 1 2 3 4 5 6 
#
# 1 0.021478 -0.005309 0.002939 0.000000 0.020089 0.000000
# 2 -0.005309 0.009155 -0.003370 0.000000 0.000361 0.000000
# 3 0.002939 -0.003370 0.031321 0.000000 0.044245 0.000000
# 4 0.000000 0.000000 0.000000 0.030080 0.000000 0.005163
# 5 0.020089 0.000361 0.044245 0.000000 0.123491 0.000000
# 6 0.000000 0.000000 0.000000 0.005163 0.000000 0.040782
#
#
# Mechanical properties :
#
#
# Convention : Reuss Voigt Hill
#
# Bulk Modulus (GPa) = 19.81169 71.22483 45.51826
# Shear Modulus (GPa) = 17.56793 29.12549 23.34671
#
# Velocity S-wave (km/s) = 3.20883 4.13165 3.69913
# Velocity P-wave (km/s) = 5.03393 8.03154 6.70247
#
# Compressibility (1/GPa) = 0.05047524
#
# Stress axis : x y z
#
# Youngs Moduli (GPa) = 46.55992 109.23163 31.92796
#
# Poissons Ratio (x) = 0.57988 -0.09385
# Poissons Ratio (y) = 0.24717 0.10759
# Poissons Ratio (z) = -0.13686 0.36807
#
# Static dielectric constant tensor:
#      x y z
#    x 2.863730 0.000000 -0.169770 
#    y 0.000000 3.308350 0.000000 
#    z -0.169770 0.000000 3.151680 
# 
# 
# High freq. dielectric constant tensor:
#      x y z
#    x 1.613720 0.000000 -0.021090 
#    y 0.000000 1.684060 0.000000 
#    z -0.021090 0.000000 1.658370 
# 
# From -- ./inp_files/138631.got.cif
#   From: 2010.06.25/outbox.cif.g09.slc.cpg/sg12_70_cif.got.tgz:138631.got - 2010.06.28 00:19:55.
