data_PCOD8087035
_publ_section_title
;
Structure prediction by ZEFSAII (Michael W. Deem and Ramdas Pophale) SiO2 
 PCOD8087035
Probable space group: C 2/M
;
_chemical_formula_sum "Si O2"
_cell_formula_units_Z 56
_cell_length_a 22.468158
_cell_length_b 22.841886
_cell_length_c 10.963088
_cell_angle_alpha 90.000000
_cell_angle_beta 32.790097
_cell_angle_gamma 90.000000
_cell_volume 3047.061707
_symmetry_space_group_name_H-M "C 2/M"
_symmetry_group_IT_number 12
_symmetry_cell_setting 'monoclinic'
loop_
_space_group_symop_operation_xyz
x,y,z
-x,y,-z
-x,-y,-z
x,-y,z
1/2+x,1/2+y,z
1/2-x,1/2+y,-z
1/2-x,1/2-y,-z
1/2+x,1/2-y,z
loop_
_atom_site_type_symbol
_atom_site_label
_atom_site_fract_x
_atom_site_fract_y
_atom_site_fract_z
Si Si1 0.717249 0.667207 0.855253
Si Si2 0.561115 0.935171 0.172059
Si Si3 0.311764 0.934022 0.541545
Si Si4 0.730172 0.711729 0.303030
Si Si5 0.146519 0.677093 0.141683
Si Si6 0.012273 0.208257 0.342445
Si Si7 0.622387 0.879240 0.820603
O O1 0.730399 0.606836 0.759814
O O2 0.732168 0.721470 0.736653
O O3 0.810677 0.679187 0.795207
O O4 0.597929 0.667323 0.123058
O O5 0.430476 0.931193 0.397784
O O6 0.603532 0.888408 0.195814
O O7 0.599114 0.000000 0.147739
O O8 0.611236 0.923790 0.952144
O O9 0.320103 0.913498 0.387885
O O10 0.264579 0.000000 0.625882
O O11 0.599577 0.704608 0.543216
O O12 0.798204 0.674244 0.282953
O O13 0.755959 0.692707 0.119438
O O14 0.049697 0.723873 0.286374
O O15 0.000000 0.182676 0.500000
O O16 0.500000 0.855079 0.000000
#
# Coordination Sequence:
#
# PCOD8087035 Si02
#       7
#     8   8   8   8   8   8   8
#     4  11  21  33  53  82 112 141 176 217 269 326
#     4   9  18  32  55  82 107 140 181 217 261 323
#     4  10  21  36  53  75 108 146 178 224 273 310
#     4  10  19  34  56  82 107 140 178 219 266 315
#     4  10  19  31  52  83 114 140 169 217 270 320
#     4  11  18  33  56  80 108 145 176 210 265 330
#     4   9  19  37  58  80 107 141 181 222 265 317
#
# _framework density 18.378361000000002
#
# number of rings (size 3 to 8) (size 9 to 14) (size 15 to 20)
#    0.000    2.000    2.857    2.143    0.000    4.000 
#    0.000    2.143    0.000    5.571    0.000    0.000 
#    0.000    0.000    0.000    0.000    0.000    0.000 
#
# Total GULP energy -347202.640475 kJ/mol
# GULP energy per Si atom -12400.094303 kJ/mol
# Density = 1.833653 g / cm^3
# Si number density = 18.378361 Si / 1000 Ang^3
#
#
#
# Elastic Constant Matrix: (Units=GPa)
#
#
# Indices 1 2 3 4 5 6 
#
# 1 48.1840 42.7529 29.4466 0.0007 -11.8390 -0.0004
# 2 42.7529 152.7308 62.0595 0.0003 -1.3434 -0.0002
# 3 29.4466 62.0595 110.8353 0.0006 -6.8688 -0.0003
# 4 0.0007 0.0003 0.0006 23.1297 -0.0006 -1.9264
# 5 -11.8390 -1.3434 -6.8688 -0.0006 23.5263 0.0003
# 6 -0.0004 -0.0002 -0.0003 -1.9264 0.0003 24.4372
#
#
#
# Elastic Compliance Matrix: (Units=1/GPa)
#
#
# Indices 1 2 3 4 5 6 
#
# 1 0.033710 -0.007832 -0.003612 0.000000 0.015462 0.000000
# 2 -0.007832 0.010315 -0.003975 0.000000 -0.004513 0.000000
# 3 -0.003612 -0.003975 0.012303 0.000000 0.001547 0.000000
# 4 0.000000 0.000000 0.000000 0.043520 0.000001 0.003431
# 5 0.015462 -0.004513 0.001547 0.000001 0.050480 0.000000
# 6 0.000000 0.000000 0.000000 0.003431 0.000000 0.041192
#
#
# Mechanical properties :
#
#
# Convention : Reuss Voigt Hill
#
# Bulk Modulus (GPa) = 39.23074 64.47422 51.85248
# Shear Modulus (GPa) = 21.65854 26.05138 23.85496
#
# Velocity S-wave (km/s) = 3.43662 3.76906 3.60667
# Velocity P-wave (km/s) = 6.09423 7.35519 6.75420
#
# Compressibility (1/GPa) = 0.02549021
#
# Stress axis : x y z
#
# Youngs Moduli (GPa) = 29.66488 96.94409 81.27824
#
# Poissons Ratio (x) = 0.75931 0.29359
# Poissons Ratio (y) = 0.23235 0.32304
# Poissons Ratio (z) = 0.10716 0.38531
#
# Static dielectric constant tensor:
#      x y z
#    x 3.201640 0.000000 0.047240 
#    y 0.000000 3.432140 0.000000 
#    z 0.047240 0.000000 3.409400 
# 
# 
# High freq. dielectric constant tensor:
#      x y z
#    x 1.696910 0.000000 0.007320 
#    y 0.000000 1.704110 0.000000 
#    z 0.007320 0.000000 1.710000 
# 
# From -- ./inp_files/134898.got.cif
#   From: 2010.06.25/outbox.cif.g09.slc.cpg/sg12_68_cif.got.tgz:134898.got - 2010.06.28 00:19:55.
