data_PCOD8087953
_publ_section_title
;
Structure prediction by ZEFSAII (Michael W. Deem and Ramdas Pophale) SiO2 
 PCOD8087953
Probable space group: C 2/M
;
_chemical_formula_sum "Si O2"
_cell_formula_units_Z 56
_cell_length_a 18.458717
_cell_length_b 9.130040
_cell_length_c 26.269109
_cell_angle_alpha 90.000000
_cell_angle_beta 137.335988
_cell_angle_gamma 90.000000
_cell_volume 3000.237901
_symmetry_space_group_name_H-M "C 2/M"
_symmetry_group_IT_number 12
_symmetry_cell_setting 'monoclinic'
loop_
_space_group_symop_operation_xyz
x,y,z
-x,y,-z
-x,-y,-z
x,-y,z
1/2+x,1/2+y,z
1/2-x,1/2+y,-z
1/2-x,1/2-y,-z
1/2+x,1/2-y,z
loop_
_atom_site_type_symbol
_atom_site_label
_atom_site_fract_x
_atom_site_fract_y
_atom_site_fract_z
Si Si1 0.405087 0.172616 0.732907
Si Si2 0.166675 0.173507 0.593225
Si Si3 0.097839 0.665100 0.012017
Si Si4 0.773275 0.829180 0.842553
Si Si5 0.536850 0.672117 0.135226
Si Si6 0.983488 0.173308 0.572682
Si Si7 0.533499 0.170498 0.698357
O O1 0.285888 0.235082 0.661576
O O2 0.456834 0.257715 0.806259
O O3 0.475916 0.211003 0.720878
O O4 0.404016 0.000000 0.744340
O O5 0.116359 0.226428 0.513562
O O6 0.092973 0.226743 0.601993
O O7 0.168182 0.000000 0.593345
O O8 0.129034 0.500000 0.012263
O O9 0.198086 0.741387 0.091341
O O10 0.000000 0.665425 0.000000
O O11 0.065374 0.756916 0.945471
O O12 0.854464 0.791401 0.838987
O O13 0.656398 0.778290 0.764549
O O14 0.776662 0.000000 0.858250
O O15 0.517304 0.500000 0.129471
O O16 0.972898 0.246177 0.622070
O O17 0.983041 0.000000 0.579309
O O18 0.525088 0.000000 0.682112
#
# Coordination Sequence:
#
# PCOD8087953 Si02
#       7
#     8   8   8   8   8   8   8
#     4  10  20  34  50  69  99 135 167 200 241 291
#     4   8  16  32  53  75  97 126 165 206 246 286
#     4   9  17  30  51  78 101 123 159 203 244 289
#     4   9  18  33  51  72 100 130 160 199 247 292
#     4  10  19  32  52  75  99 127 161 203 247 289
#     4   9  17  32  54  75  96 126 166 207 244 288
#     4  10  21  34  48  71 103 134 162 198 246 293
#
# _framework density 18.665188000000001
#
# number of rings (size 3 to 8) (size 9 to 14) (size 15 to 20)
#    0.000    2.714    0.000    2.571    0.000    4.000 
#    0.000    2.857    0.000    0.000    0.000    0.000 
#    0.000    0.000    0.000    0.000    0.000    0.000 
#
# Total GULP energy -347211.387578 kJ/mol
# GULP energy per Si atom -12400.406699 kJ/mol
# Density = 1.862271 g / cm^3
# Si number density = 18.665188 Si / 1000 Ang^3
#
#
#
# Elastic Constant Matrix: (Units=GPa)
#
#
# Indices 1 2 3 4 5 6 
#
# 1 67.5159 37.0646 42.9153 0.0000 -24.4758 0.0000
# 2 37.0646 64.9061 45.6114 0.0000 -21.5085 0.0000
# 3 42.9153 45.6114 107.3570 0.0000 -38.2124 0.0000
# 4 0.0000 0.0000 0.0000 30.5974 0.0000 -7.0286
# 5 -24.4758 -21.5085 -38.2124 0.0000 25.8697 0.0000
# 6 0.0000 0.0000 0.0000 -7.0286 0.0000 18.6316
#
#
#
# Elastic Compliance Matrix: (Units=1/GPa)
#
#
# Indices 1 2 3 4 5 6 
#
# 1 0.026079 -0.008968 -0.001026 0.000000 0.015703 0.000000
# 2 -0.008968 0.026200 -0.005931 0.000000 0.004536 0.000000
# 3 -0.001026 -0.005931 0.021390 0.000000 0.025694 0.000000
# 4 0.000000 0.000000 0.000000 0.035783 0.000000 0.013499
# 5 0.015703 0.004536 0.025694 0.000000 0.095236 0.000000
# 6 0.000000 0.000000 0.000000 0.013499 0.000000 0.058765
#
#
# Mechanical properties :
#
#
# Convention : Reuss Voigt Hill
#
# Bulk Modulus (GPa) = 23.91299 54.55130 39.23215
# Shear Modulus (GPa) = 16.16854 22.63225 19.40039
#
# Velocity S-wave (km/s) = 2.94639 3.48593 3.22745
# Velocity P-wave (km/s) = 4.94108 6.74477 5.91212
#
# Compressibility (1/GPa) = 0.04181828
#
# Stress axis : x y z
#
# Youngs Moduli (GPa) = 38.34492 38.16853 46.75074
#
# Poissons Ratio (x) = 0.34230 0.04795
# Poissons Ratio (y) = 0.34389 0.27730
# Poissons Ratio (z) = 0.03933 0.22639
#
# Static dielectric constant tensor:
#      x y z
#    x 3.268000 0.000000 0.066470 
#    y 0.000000 3.245990 0.000000 
#    z 0.066470 0.000000 3.649840 
# 
# 
# High freq. dielectric constant tensor:
#      x y z
#    x 1.704010 0.000000 -0.007200 
#    y 0.000000 1.707710 0.000000 
#    z -0.007200 0.000000 1.737580 
# 
# From -- ./inp_files/342240.got.cif
#   From: 2010.06.25/outbox.cif.g09.slc.cpg/sg12_172_cif.got.tgz:342240.got - 2010.06.28 00:19:55.
