data_PCOD8087431
_publ_section_title
;
Structure prediction by ZEFSAII (Michael W. Deem and Ramdas Pophale) SiO2 
 PCOD8087431
Probable space group: C 2/M
;
_chemical_formula_sum "Si O2"
_cell_formula_units_Z 56
_cell_length_a 36.050272
_cell_length_b 14.038359
_cell_length_c 9.044720
_cell_angle_alpha 90.000000
_cell_angle_beta 138.164434
_cell_angle_gamma 90.000000
_cell_volume 3053.111428
_symmetry_space_group_name_H-M "C 2/M"
_symmetry_group_IT_number 12
_symmetry_cell_setting 'monoclinic'
loop_
_space_group_symop_operation_xyz
x,y,z
-x,y,-z
-x,-y,-z
x,-y,z
1/2+x,1/2+y,z
1/2-x,1/2+y,-z
1/2-x,1/2-y,-z
1/2+x,1/2-y,z
loop_
_atom_site_type_symbol
_atom_site_label
_atom_site_fract_x
_atom_site_fract_y
_atom_site_fract_z
Si Si1 0.244526 0.107628 0.264615
Si Si2 0.641325 0.611136 0.741147
Si Si3 0.998033 0.610237 0.165076
Si Si4 0.445917 0.760335 0.434516
Si Si5 0.267451 0.108113 0.653229
Si Si6 0.393390 0.892145 0.046228
Si Si7 0.785863 0.224767 0.246417
O O1 0.232955 0.134450 0.402189
O O2 0.295449 0.172132 0.351843
O O3 0.266282 0.000000 0.316296
O O4 0.186939 0.122752 0.005820
O O5 0.630495 0.500000 0.674359
O O6 0.583707 0.660336 0.616255
O O7 0.660678 0.664786 0.647114
O O8 0.015931 0.500000 0.242271
O O9 0.039587 0.680026 0.375615
O O10 0.935591 0.628203 0.037536
O O11 0.000000 0.638906 0.000000
O O12 0.500000 0.734987 0.500000
O O13 0.403900 0.824627 0.216464
O O14 0.250084 0.167305 0.742662
O O15 0.256461 0.000000 0.666266
O O16 0.331713 0.126720 0.803927
O O17 0.400970 0.000000 0.126086
O O18 0.750000 0.250000 0.000000
#
# Coordination Sequence:
#
# PCOD8087431 Si02
#       7
#     8   8   8   8   8   8   8
#     4   9  19  34  52  77 109 140 173 213 256 309
#     4  10  21  37  54  75 103 136 177 221 263 307
#     4   9  18  33  53  79 109 136 165 210 263 309
#     4  10  20  35  54  73  97 134 177 216 259 307
#     4  10  19  32  52  79 109 141 174 208 251 309
#     4   9  17  30  50  77 107 135 165 201 248 312
#     4  10  19  32  50  72 102 137 171 209 258 309
#
# _framework density 18.341944000000002
#
# number of rings (size 3 to 8) (size 9 to 14) (size 15 to 20)
#    0.000    2.429    0.000    3.000    0.000    3.714 
#    0.000    4.286    0.000    0.429    0.000    0.000 
#    0.000    0.000    0.000    0.000    0.000    0.000 
#
# Total GULP energy -347022.431452 kJ/mol
# GULP energy per Si atom -12393.658266 kJ/mol
# Density = 1.830020 g / cm^3
# Si number density = 18.341944 Si / 1000 Ang^3
#
#
#
# Elastic Constant Matrix: (Units=GPa)
#
#
# Indices 1 2 3 4 5 6 
#
# 1 105.2767 69.7069 42.8438 0.0000 -15.9765 0.0000
# 2 69.7069 121.1921 44.8660 0.0000 -8.4411 0.0000
# 3 42.8438 44.8660 62.8323 0.0000 -12.3446 0.0000
# 4 0.0000 0.0000 0.0000 24.7956 0.0000 -0.6669
# 5 -15.9765 -8.4411 -12.3446 0.0000 28.0100 0.0000
# 6 0.0000 0.0000 0.0000 -0.6669 0.0000 29.2874
#
#
#
# Elastic Compliance Matrix: (Units=1/GPa)
#
#
# Indices 1 2 3 4 5 6 
#
# 1 0.017677 -0.007777 -0.005451 0.000000 0.005336 0.000000
# 2 -0.007777 0.014639 -0.005643 0.000000 -0.002512 0.000000
# 3 -0.005451 -0.005643 0.024871 0.000000 0.006151 0.000000
# 4 0.000000 0.000000 0.000000 0.040354 0.000000 0.000919
# 5 0.005336 -0.002512 0.006151 0.000000 0.040699 0.000000
# 6 0.000000 0.000000 0.000000 0.000919 0.000000 0.034165
#
#
# Mechanical properties :
#
#
# Convention : Reuss Voigt Hill
#
# Bulk Modulus (GPa) = 51.43469 67.12606 59.28037
# Shear Modulus (GPa) = 23.08076 25.21090 24.14583
#
# Velocity S-wave (km/s) = 3.55118 3.71144 3.63220
# Velocity P-wave (km/s) = 6.70206 7.41909 7.06967
#
# Compressibility (1/GPa) = 0.01944213
#
# Stress axis : x y z
#
# Youngs Moduli (GPa) = 56.57132 68.31050 40.20796
#
# Poissons Ratio (x) = 0.53128 0.21919
# Poissons Ratio (y) = 0.43998 0.22691
# Poissons Ratio (z) = 0.30839 0.38550
#
# Static dielectric constant tensor:
#      x y z
#    x 3.456720 0.000000 -0.207340 
#    y 0.000000 3.634350 0.000000 
#    z -0.207340 0.000000 3.274570 
# 
# 
# High freq. dielectric constant tensor:
#      x y z
#    x 1.707640 0.000000 -0.017020 
#    y 0.000000 1.718970 0.000000 
#    z -0.017020 0.000000 1.692350 
# 
# From -- ./inp_files/104423.got.cif
#   From: 2010.06.25/outbox.cif.g09.slc.cpg/sg12_53_cif.got.tgz:104423.got - 2010.06.28 00:19:55.
