data_PCOD8087242
_publ_section_title
;
Structure prediction by ZEFSAII (Michael W. Deem and Ramdas Pophale) SiO2 
 PCOD8087242
Probable space group: C 2/M
;
_chemical_formula_sum "Si O2"
_cell_formula_units_Z 64
_cell_length_a 25.898829
_cell_length_b 12.938781
_cell_length_c 15.297696
_cell_angle_alpha 90.000000
_cell_angle_beta 135.152523
_cell_angle_gamma 90.000000
_cell_volume 3615.141755
_symmetry_space_group_name_H-M "C 2/M"
_symmetry_group_IT_number 12
_symmetry_cell_setting 'monoclinic'
loop_
_space_group_symop_operation_xyz
x,y,z
-x,y,-z
-x,-y,-z
x,-y,z
1/2+x,1/2+y,z
1/2-x,1/2+y,-z
1/2-x,1/2-y,-z
1/2+x,1/2-y,z
loop_
_atom_site_type_symbol
_atom_site_label
_atom_site_fract_x
_atom_site_fract_y
_atom_site_fract_z
Si Si1 0.427530 0.621689 0.868841
Si Si2 0.788380 0.248768 0.952865
Si Si3 0.507378 0.115227 0.406119
Si Si4 0.075638 0.878012 0.331558
Si Si5 0.646233 0.247071 0.555477
Si Si6 0.924309 0.211733 0.215335
Si Si7 0.776551 0.120645 0.776109
Si Si8 0.830826 0.881249 0.253362
O O1 0.438113 0.500000 0.874601
O O2 0.417565 0.664637 0.758895
O O3 0.358199 0.650235 0.844780
O O4 0.500000 0.671109 0.000000
O O5 0.767160 0.149540 0.867341
O O6 0.754878 0.348590 0.862384
O O7 0.750000 0.250000 0.000000
O O8 0.875810 0.246875 0.073010
O O9 0.500000 0.114413 0.500000
O O10 0.585722 0.158937 0.473692
O O11 0.442881 0.183558 0.288419
O O12 0.499919 0.000000 0.358793
O O13 0.139556 0.822118 0.463685
O O14 0.995284 0.851075 0.271219
O O15 0.088356 0.000000 0.353247
O O16 0.723601 0.188418 0.651036
O O17 0.632206 0.315688 0.624866
O O18 0.877185 0.136852 0.220985
O O19 0.758755 0.000000 0.742704
O O20 0.833279 0.000000 0.283153
#
# Coordination Sequence:
#
# PCOD8087242 Si02
#       8
#     8   8   8   8   8   8   8   8
#     4   9  18  33  53  79 103 130 170 212 262 312
#     4   9  20  33  47  74 101 127 168 208 248 308
#     4  10  19  32  49  68  98 136 172 213 254 294
#     4  10  20  32  52  77 105 136 170 219 262 301
#     4  10  20  34  48  75 103 135 180 210 252 313
#     4  10  19  33  49  74 101 133 177 210 255 313
#     4  10  20  35  56  75 104 140 169 211 262 309
#     4  10  19  32  48  68 101 138 168 208 256 311
#
# _framework density 17.703316999999998
#
# number of rings (size 3 to 8) (size 9 to 14) (size 15 to 20)
#    0.000    2.250    1.250    1.875    0.000    4.500 
#    0.000    1.875    0.000    0.000    0.000    7.875 
#    0.000   33.000    0.000    0.000    0.000    0.000 
#
# Total GULP energy -396676.473248 kJ/mol
# GULP energy per Si atom -12396.139789 kJ/mol
# Density = 1.766302 g / cm^3
# Si number density = 17.703317 Si / 1000 Ang^3
#
#
#
# Elastic Constant Matrix: (Units=GPa)
#
#
# Indices 1 2 3 4 5 6 
#
# 1 68.7740 27.3077 35.1411 0.0000 -7.0561 0.0000
# 2 27.3077 102.2567 44.5562 0.0000 2.4301 0.0000
# 3 35.1411 44.5562 126.0204 0.0000 0.0513 0.0000
# 4 0.0000 0.0000 0.0000 27.0065 0.0000 -0.3112
# 5 -7.0561 2.4301 0.0513 0.0000 29.1516 0.0000
# 6 0.0000 0.0000 0.0000 -0.3112 0.0000 16.9849
#
#
#
# Elastic Compliance Matrix: (Units=1/GPa)
#
#
# Indices 1 2 3 4 5 6 
#
# 1 0.018353 -0.003289 -0.003957 0.000000 0.004723 0.000000
# 2 -0.003289 0.012177 -0.003387 0.000000 -0.001805 0.000000
# 3 -0.003957 -0.003387 0.010236 0.000000 -0.000693 0.000000
# 4 0.000000 0.000000 0.000000 0.037036 0.000000 0.000679
# 5 0.004723 -0.001805 -0.000693 0.000000 0.035598 0.000000
# 6 0.000000 0.000000 0.000000 0.000679 0.000000 0.058888
#
#
# Mechanical properties :
#
#
# Convention : Reuss Voigt Hill
#
# Bulk Modulus (GPa) = 51.28380 56.78458 54.03419
# Shear Modulus (GPa) = 24.99319 27.29835 26.14577
#
# Velocity S-wave (km/s) = 3.76144 3.93108 3.84720
# Velocity P-wave (km/s) = 6.92069 7.26291 7.09386
#
# Compressibility (1/GPa) = 0.01949934
#
# Stress axis : x y z
#
# Youngs Moduli (GPa) = 54.48766 82.12520 97.69050
#
# Poissons Ratio (x) = 0.27014 0.38653
# Poissons Ratio (y) = 0.17923 0.33090
# Poissons Ratio (z) = 0.21559 0.27817
#
# Static dielectric constant tensor:
#      x y z
#    x 3.125730 0.000000 0.015360 
#    y 0.000000 3.232160 0.000000 
#    z 0.015360 0.000000 3.673800 
# 
# 
# High freq. dielectric constant tensor:
#      x y z
#    x 1.664190 0.000000 0.001700 
#    y 0.000000 1.669540 0.000000 
#    z 0.001700 0.000000 1.702190 
# 
# From -- ./inp_files/245955.got.cif
#   From: 2010.06.25/outbox.cif.g09.slc.cpg/sg12_123_cif.got.tgz:245955.got - 2010.06.28 00:19:55.
