data_PCOD8087779
_publ_section_title
;
Structure prediction by ZEFSAII (Michael W. Deem and Ramdas Pophale) SiO2 
 PCOD8087779
Probable space group: C 2/M
;
_chemical_formula_sum "Si O2"
_cell_formula_units_Z 64
_cell_length_a 31.654258
_cell_length_b 8.859992
_cell_length_c 15.899387
_cell_angle_alpha 90.000000
_cell_angle_beta 127.497379
_cell_angle_gamma 90.000000
_cell_volume 3537.754941
_symmetry_space_group_name_H-M "C 2/M"
_symmetry_group_IT_number 12
_symmetry_cell_setting 'monoclinic'
loop_
_space_group_symop_operation_xyz
x,y,z
-x,y,-z
-x,-y,-z
x,-y,z
1/2+x,1/2+y,z
1/2-x,1/2+y,-z
1/2-x,1/2-y,-z
1/2+x,1/2-y,z
loop_
_atom_site_type_symbol
_atom_site_label
_atom_site_fract_x
_atom_site_fract_y
_atom_site_fract_z
Si Si1 0.653467 0.824632 0.198496
Si Si2 0.771586 0.324252 0.942471
Si Si3 0.906878 0.678723 0.708241
Si Si4 0.637035 0.177433 0.519631
Si Si5 0.109890 0.328347 0.965820
Si Si6 0.510308 0.676904 0.769000
Si Si7 0.242169 0.320755 0.735352
Si Si8 0.976887 0.678200 0.560129
O O1 0.621419 0.767999 0.240905
O O2 0.707129 0.728324 0.257785
O O3 0.669598 0.000000 0.224612
O O4 0.616439 0.797075 0.072895
O O5 0.757669 0.500000 0.924653
O O6 0.834680 0.297283 0.014166
O O7 0.750000 0.250000 0.000000
O O8 0.742482 0.248701 0.828370
O O9 0.915417 0.500000 0.716413
O O10 0.870828 0.733933 0.585859
O O11 0.964812 0.753185 0.773175
O O12 0.690017 0.246527 0.625195
O O13 0.585267 0.224035 0.511181
O O14 0.643778 0.000000 0.527172
O O15 0.090947 0.500000 0.927332
O O16 0.067154 0.212802 0.878312
O O17 0.501872 0.500000 0.753900
O O18 0.509290 0.743764 0.674076
O O19 0.240918 0.500000 0.741927
O O20 0.984556 0.500000 0.580063
O O21 0.000000 0.736708 0.500000
#
# Coordination Sequence:
#
# PCOD8087779 Si02
#       8
#     8   8   8   8   8   8   8   8
#     4   9  19  35  55  77 100 133 178 220 255 300
#     4  10  21  37  56  78 104 136 175 215 256 304
#     4   9  18  36  57  74 100 138 177 213 252 306
#     4   8  16  31  51  76 103 134 172 209 250 304
#     4   9  19  36  54  73 101 138 176 210 252 309
#     4  11  22  34  51  78 108 134 167 214 263 306
#     4  10  19  32  51  76 108 140 170 210 259 309
#     4   9  18  35  57  76  99 136 177 211 248 302
#
# _framework density 18.090568000000001
#
# number of rings (size 3 to 8) (size 9 to 14) (size 15 to 20)
#    0.000    2.625    0.000    3.375    0.000    5.250 
#    0.000   10.000    0.000    0.000    0.000    0.000 
#    0.000    0.000    0.000    0.000    0.000    0.000 
#
# Total GULP energy -396821.348097 kJ/mol
# GULP energy per Si atom -12400.667128 kJ/mol
# Density = 1.804939 g / cm^3
# Si number density = 18.090568 Si / 1000 Ang^3
#
#
#
# Elastic Constant Matrix: (Units=GPa)
#
#
# Indices 1 2 3 4 5 6 
#
# 1 137.8845 47.3057 89.7990 0.0000 -24.8698 0.0000
# 2 47.3057 67.6003 46.1370 0.0000 -2.6333 0.0000
# 3 89.7990 46.1370 120.8199 0.0000 2.3039 0.0000
# 4 0.0000 0.0000 0.0000 23.1862 0.0000 1.9029
# 5 -24.8698 -2.6333 2.3039 0.0000 35.7538 0.0000
# 6 0.0000 0.0000 0.0000 1.9029 0.0000 27.2594
#
#
#
# Elastic Compliance Matrix: (Units=1/GPa)
#
#
# Indices 1 2 3 4 5 6 
#
# 1 0.020335 -0.004260 -0.013768 0.000000 0.014718 0.000000
# 2 -0.004260 0.021039 -0.004846 0.000000 -0.001102 0.000000
# 3 -0.013768 -0.004846 0.020575 0.000000 -0.011260 0.000000
# 4 0.000000 0.000000 0.000000 0.043378 0.000000 -0.003028
# 5 0.014718 -0.001102 -0.011260 0.000000 0.038851 0.000000
# 6 0.000000 0.000000 0.000000 -0.003028 0.000000 0.036896
#
#
# Mechanical properties :
#
#
# Convention : Reuss Voigt Hill
#
# Bulk Modulus (GPa) = 61.72926 76.97646 69.35286
# Shear Modulus (GPa) = 21.53093 26.77743 24.15418
#
# Velocity S-wave (km/s) = 3.45363 3.85149 3.65798
# Velocity P-wave (km/s) = 7.07813 7.90074 7.50072
#
# Compressibility (1/GPa) = 0.01619977
#
# Stress axis : x y z
#
# Youngs Moduli (GPa) = 49.17547 47.53068 48.60232
#
# Poissons Ratio (x) = 0.20250 0.66915
# Poissons Ratio (y) = 0.20951 0.23555
# Poissons Ratio (z) = 0.67704 0.23036
#
# Static dielectric constant tensor:
#      x y z
#    x 3.444870 0.000000 -0.040700 
#    y 0.000000 3.174820 0.000000 
#    z -0.040700 0.000000 3.301520 
# 
# 
# High freq. dielectric constant tensor:
#      x y z
#    x 1.704040 0.000000 -0.002740 
#    y 0.000000 1.687090 0.000000 
#    z -0.002740 0.000000 1.704570 
# 
# From -- ./inp_files/249197.got.cif
#   From: 2010.06.25/outbox.cif.g09.slc.cpg/sg12_125_cif.got.tgz:249197.got - 2010.06.28 00:19:55.
