data_PCOD8087168
_publ_section_title
;
Structure prediction by ZEFSAII (Michael W. Deem and Ramdas Pophale) SiO2 
 PCOD8087168
Probable space group: C 2/M
;
_chemical_formula_sum "Si O2"
_cell_formula_units_Z 32
_cell_length_a 17.170559
_cell_length_b 12.007632
_cell_length_c 9.297941
_cell_angle_alpha 90.000000
_cell_angle_beta 130.197785
_cell_angle_gamma 90.000000
_cell_volume 1464.266658
_symmetry_space_group_name_H-M "C 2/M"
_symmetry_group_IT_number 12
_symmetry_cell_setting 'monoclinic'
loop_
_space_group_symop_operation_xyz
x,y,z
-x,y,-z
-x,-y,-z
x,-y,z
1/2+x,1/2+y,z
1/2-x,1/2+y,-z
1/2-x,1/2-y,-z
1/2+x,1/2-y,z
loop_
_atom_site_type_symbol
_atom_site_label
_atom_site_fract_x
_atom_site_fract_y
_atom_site_fract_z
Si Si1 0.110817 0.500000 0.063502
Si Si2 0.633992 0.628243 0.925892
Si Si3 0.244806 0.807535 0.770797
Si Si4 0.991823 0.500000 0.660029
Si Si5 0.450144 0.239668 0.597695
O O1 0.100577 0.500000 0.875250
O O2 0.169740 0.390525 0.186320
O O3 0.000000 0.500000 0.000000
O O4 0.619941 0.500000 0.954766
O O5 0.688918 0.635285 0.838405
O O6 0.522438 0.686436 0.786409
O O7 0.704171 0.689610 0.127362
O O8 0.162526 0.791424 0.545718
O O9 0.936648 0.614093 0.643896
O O10 0.000000 0.500000 0.500000
O O11 0.500000 0.231770 0.500000
#
# Coordination Sequence:
#
# PCOD8087168 Si02
#       5
#     4   8   8   4   8
#     4  12  24  42  61  84 124 167 202 238 288 370
#     4  10  19  31  55  87 123 142 192 255 308 339
#     4  10  21  34  54  88 118 159 194 241 304 354
#     4  10  20  38  60  88 121 150 199 252 294 348
#     4   9  19  31  54  87 119 150 190 251 301 350
#
# _framework density 21.853943000000001
#
# number of rings (size 3 to 8) (size 9 to 14) (size 15 to 20)
#    0.000    2.000    3.750    0.000    7.000    1.500 
#    0.000    1.250    0.000    0.750    0.000    0.000 
#    0.000    0.000    0.000    0.000    0.000    0.000 
#
# Total GULP energy -198326.781763 kJ/mol
# GULP energy per Si atom -12395.423860 kJ/mol
# Density = 2.180420 g / cm^3
# Si number density = 21.853943 Si / 1000 Ang^3
#
#
#
# Elastic Constant Matrix: (Units=GPa)
#
#
# Indices 1 2 3 4 5 6 
#
# 1 45.8574 35.4220 29.3598 0.0000 26.4244 0.0000
# 2 35.4220 192.3978 54.4757 0.0000 31.0557 0.0000
# 3 29.3598 54.4757 137.7056 0.0000 42.6228 0.0000
# 4 0.0000 0.0000 0.0000 36.9500 0.0000 14.0537
# 5 26.4244 31.0557 42.6228 0.0000 30.6278 0.0000
# 6 0.0000 0.0000 0.0000 14.0537 0.0000 4.2807
#
#
#
# Elastic Compliance Matrix: (Units=1/GPa)
#
#
# Indices 1 2 3 4 5 6 
#
# 1 0.045938 -0.002795 0.004746 0.000000 -0.043403 0.000000
# 2 -0.002795 0.006448 -0.001190 0.000000 -0.002470 0.000000
# 3 0.004746 -0.001190 0.013376 0.000000 -0.021503 0.000000
# 4 0.000000 0.000000 0.000000 -0.108834 0.000000 0.357304
# 5 -0.043403 -0.002470 -0.021503 0.000000 0.102525 0.000000
# 6 0.000000 0.000000 0.000000 0.357304 0.000000 -0.939426
#
#
# Mechanical properties :
#
#
# Convention : Reuss Voigt Hill
#
# Bulk Modulus (GPa) = 14.86278 68.27508 41.56893
# Shear Modulus (GPa) = -5.82027 31.48528 12.83250
#
# Velocity S-wave (km/s) = -1.63372 3.79979 2.42584
# Velocity P-wave (km/s) = 1.80472 7.11060 5.18737
#
# Compressibility (1/GPa) = 0.06728217
#
# Stress axis : x y z
#
# Youngs Moduli (GPa) = 21.76864 155.08942 74.75826
#
# Poissons Ratio (x) = 0.43353 -0.35478
# Poissons Ratio (y) = 0.06085 0.08899
# Poissons Ratio (z) = -0.10331 0.18461
#
# Static dielectric constant tensor:
#      x y z
#    x 3.288330 0.000000 0.239990 
#    y 0.000000 4.148580 0.000000 
#    z 0.239990 0.000000 4.306290 
# 
# 
# High freq. dielectric constant tensor:
#      x y z
#    x 1.795060 0.000000 0.021300 
#    y 0.000000 1.872430 0.000000 
#    z 0.021300 0.000000 1.870340 
# 
# From -- ./inp_files/56840.got.cif
#   From: 2010.06.25/outbox.cif.g09.slc.cpg/sg12_29_cif.got.tgz:56840.got - 2010.06.28 00:19:55.
