data_PCOD8087235
_publ_section_title
;
Structure prediction by ZEFSAII (Michael W. Deem and Ramdas Pophale) SiO2 
 PCOD8087235
Probable space group: C 2/M
;
_chemical_formula_sum "Si O2"
_cell_formula_units_Z 56
_cell_length_a 17.878141
_cell_length_b 12.707309
_cell_length_c 19.844685
_cell_angle_alpha 90.000000
_cell_angle_beta 46.882923
_cell_angle_gamma 90.000000
_cell_volume 3290.928030
_symmetry_space_group_name_H-M "C 2/M"
_symmetry_group_IT_number 12
_symmetry_cell_setting 'monoclinic'
loop_
_space_group_symop_operation_xyz
x,y,z
-x,y,-z
-x,-y,-z
x,-y,z
1/2+x,1/2+y,z
1/2-x,1/2+y,-z
1/2-x,1/2-y,-z
1/2+x,1/2-y,z
loop_
_atom_site_type_symbol
_atom_site_label
_atom_site_fract_x
_atom_site_fract_y
_atom_site_fract_z
Si Si1 0.568128 0.762739 0.896140
Si Si2 0.939158 0.239401 0.773431
Si Si3 0.841224 0.624353 0.589798
Si Si4 0.097679 0.619583 0.080392
Si Si5 0.261277 0.878565 0.130601
Si Si6 0.488071 0.124737 0.616371
Si Si7 0.387363 0.624803 0.253931
O O1 0.507276 0.853798 0.893976
O O2 0.674724 0.811358 0.855087
O O3 0.588180 0.662848 0.836562
O O4 0.500000 0.720689 0.000000
O O5 0.886592 0.306721 0.864923
O O6 0.855123 0.160436 0.795503
O O7 0.981373 0.317659 0.691293
O O8 0.033929 0.171193 0.740989
O O9 0.841525 0.500000 0.592009
O O10 0.905825 0.660414 0.484773
O O11 0.725485 0.666879 0.656180
O O12 0.894758 0.662660 0.625979
O O13 0.090841 0.500000 0.109628
O O14 0.194104 0.636365 0.971921
O O15 0.265314 0.000000 0.149913
O O16 0.485243 0.000000 0.630773
O O17 0.395100 0.500000 0.249892
#
# Coordination Sequence:
#
# PCOD8087235 Si02
#       7
#     8   8   8   8   8   8   8
#     4   9  18  32  51  71  89 120 166 201 227 265
#     4  11  20  29  46  72  99 126 154 184 233 288
#     4   8  16  32  51  69  91 120 155 194 233 272
#     4   9  18  32  48  67  94 125 158 198 232 264
#     4  10  19  32  48  67  94 126 159 193 231 275
#     4   9  17  31  52  74  92 115 156 203 233 263
#     4  10  20  33  47  68 100 129 152 185 233 285
#
# _framework density 17.016476999999998
#
# number of rings (size 3 to 8) (size 9 to 14) (size 15 to 20)
#    0.000    2.571    0.000    3.429    0.000    2.571 
#    0.000    0.714    0.000    0.857    0.000   20.000 
#    0.000    0.000    0.000    0.000    0.000    0.000 
#
# Total GULP energy -347194.797215 kJ/mol
# GULP energy per Si atom -12399.814186 kJ/mol
# Density = 1.697775 g / cm^3
# Si number density = 17.016477 Si / 1000 Ang^3
#
#
#
# Elastic Constant Matrix: (Units=GPa)
#
#
# Indices 1 2 3 4 5 6 
#
# 1 107.8741 42.3820 55.6070 0.0000 -11.8788 0.0000
# 2 42.3820 74.4227 42.0490 0.0000 -1.9246 0.0000
# 3 55.6070 42.0490 86.8049 0.0000 -5.5712 0.0000
# 4 0.0000 0.0000 0.0000 21.8454 0.0000 0.4055
# 5 -11.8788 -1.9246 -5.5712 0.0000 32.0031 0.0000
# 6 0.0000 0.0000 0.0000 0.4055 0.0000 21.9078
#
#
#
# Elastic Compliance Matrix: (Units=1/GPa)
#
#
# Indices 1 2 3 4 5 6 
#
# 1 0.015258 -0.004419 -0.007370 0.000000 0.004115 0.000000
# 2 -0.004419 0.019786 -0.006859 0.000000 -0.001644 0.000000
# 3 -0.007370 -0.006859 0.019581 0.000000 0.000261 0.000000
# 4 0.000000 0.000000 0.000000 0.045792 0.000000 -0.000848
# 5 0.004115 -0.001644 0.000261 0.000000 0.032721 0.000000
# 6 0.000000 0.000000 0.000000 -0.000848 0.000000 0.045662
#
#
# Mechanical properties :
#
#
# Convention : Reuss Voigt Hill
#
# Bulk Modulus (GPa) = 57.70677 61.01974 59.36325
# Shear Modulus (GPa) = 22.53552 23.75551 23.14551
#
# Velocity S-wave (km/s) = 3.64309 3.74040 3.69207
# Velocity P-wave (km/s) = 7.18902 7.38859 7.28949
#
# Compressibility (1/GPa) = 0.01732899
#
# Stress axis : x y z
#
# Youngs Moduli (GPa) = 65.53830 50.54007 51.07078
#
# Poissons Ratio (x) = 0.22333 0.37638
# Poissons Ratio (y) = 0.28960 0.35032
# Poissons Ratio (z) = 0.48300 0.34668
#
# Static dielectric constant tensor:
#      x y z
#    x 3.242850 0.000000 -0.158310 
#    y 0.000000 2.959390 0.000000 
#    z -0.158310 0.000000 3.342110 
# 
# 
# High freq. dielectric constant tensor:
#      x y z
#    x 1.660920 0.000000 -0.005330 
#    y 0.000000 1.641020 0.000000 
#    z -0.005330 0.000000 1.654830 
# 
# From -- ./inp_files/214170.got.cif
#   From: 2010.06.25/outbox.cif.g09.slc.cpg/sg12_108_cif.got.tgz:214170.got - 2010.06.28 00:19:55.
