data_PCOD8087949
_publ_section_title
;
Structure prediction by ZEFSAII (Michael W. Deem and Ramdas Pophale) SiO2 
 PCOD8087949
Probable space group: C 2/M
;
_chemical_formula_sum "Si O2"
_cell_formula_units_Z 48
_cell_length_a 30.471948
_cell_length_b 9.224722
_cell_length_c 9.467139
_cell_angle_alpha 90.000000
_cell_angle_beta 90.311620
_cell_angle_gamma 90.000000
_cell_volume 2661.128436
_symmetry_space_group_name_H-M "C 2/M"
_symmetry_group_IT_number 12
_symmetry_cell_setting 'monoclinic'
loop_
_space_group_symop_operation_xyz
x,y,z
-x,y,-z
-x,-y,-z
x,-y,z
1/2+x,1/2+y,z
1/2-x,1/2+y,-z
1/2-x,1/2-y,-z
1/2+x,1/2-y,z
loop_
_atom_site_type_symbol
_atom_site_label
_atom_site_fract_x
_atom_site_fract_y
_atom_site_fract_z
Si Si1 0.901552 0.671273 0.892700
Si Si2 0.239367 0.666505 0.641388
Si Si3 0.665249 0.334818 0.296503
Si Si4 0.504187 0.159661 0.167478
Si Si5 0.658081 0.666585 0.622030
Si Si6 0.578822 0.668487 0.820852
O O1 0.897839 0.500000 0.918617
O O2 0.859832 0.726707 0.806619
O O3 0.945537 0.708301 0.802104
O O4 0.902510 0.748208 0.043934
O O5 0.229061 0.500000 0.607254
O O6 0.250000 0.750000 0.500000
O O7 0.282777 0.679662 0.739828
O O8 0.195531 0.740137 0.705139
O O9 0.649567 0.500000 0.270494
O O10 0.655333 0.288807 0.457774
O O11 0.468940 0.272566 0.228987
O O12 0.494883 0.000000 0.231924
O O13 0.500000 0.152418 0.000000
O O14 0.672229 0.500000 0.636570
O O15 0.611228 0.696602 0.691183
O O16 0.574436 0.500000 0.858657
#
# Coordination Sequence:
#
# PCOD8087949 Si02
#       6
#     8   8   8   8   8   8
#     4  10  20  33  50  73  99 128 163 201 241 287
#     4   9  17  30  50  73  97 128 164 199 238 287
#     4   9  18  33  51  72  98 126 160 201 240 283
#     4   8  16  31  48  68  96 127 162 201 236 282
#     4   9  19  34  51  74 101 127 161 203 242 286
#     4  10  19  32  52  75  98 127 162 200 244 290
#
# _framework density 18.037461
#
# number of rings (size 3 to 8) (size 9 to 14) (size 15 to 20)
#    0.000    2.833    0.000    3.500    0.000    8.333 
#    0.000    1.667    0.000    5.000    0.000    0.000 
#    0.000    0.000    0.000    0.000    0.000    0.000 
#
# Total GULP energy -297459.638323 kJ/mol
# GULP energy per Si atom -12394.151597 kJ/mol
# Density = 1.799641 g / cm^3
# Si number density = 18.037461 Si / 1000 Ang^3
#
#
#
# Elastic Constant Matrix: (Units=GPa)
#
#
# Indices 1 2 3 4 5 6 
#
# 1 34.2687 15.7673 -8.9179 0.0000 3.5915 0.0000
# 2 15.7673 77.3794 6.3403 0.0000 2.0758 0.0000
# 3 -8.9179 6.3403 19.6925 0.0000 0.5749 0.0000
# 4 0.0000 0.0000 0.0000 17.7557 0.0000 -0.1873
# 5 3.5915 2.0758 0.5749 0.0000 24.2544 0.0000
# 6 0.0000 0.0000 0.0000 -0.1873 0.0000 38.8472
#
#
#
# Elastic Compliance Matrix: (Units=1/GPa)
#
#
# Indices 1 2 3 4 5 6 
#
# 1 0.039768 -0.009699 0.021294 0.000000 -0.005563 0.000000
# 2 -0.009699 0.015665 -0.009445 0.000000 0.000319 0.000000
# 3 0.021294 -0.009445 0.063577 0.000000 -0.003852 0.000000
# 4 0.000000 0.000000 0.000000 0.056323 0.000000 0.000272
# 5 -0.005563 0.000319 -0.003852 0.000000 0.042117 0.000000
# 6 0.000000 0.000000 0.000000 0.000272 0.000000 0.025743
#
#
# Mechanical properties :
#
#
# Convention : Reuss Voigt Hill
#
# Bulk Modulus (GPa) = 8.10956 17.52444 12.81700
# Shear Modulus (GPa) = 17.85733 24.04820 20.95276
#
# Velocity S-wave (km/s) = 3.14986 3.65531 3.41196
# Velocity P-wave (km/s) = 4.21124 5.24898 4.75848
#
# Compressibility (1/GPa) = 0.12331130
#
# Stress axis : x y z
#
# Youngs Moduli (GPa) = 25.14567 63.83655 15.72887
#
# Poissons Ratio (x) = 0.61915 -0.33494
# Poissons Ratio (y) = 0.24389 0.14856
# Poissons Ratio (z) = -0.53546 0.60294
#
# Static dielectric constant tensor:
#      x y z
#    x 4.023580 0.000000 -0.043120 
#    y 0.000000 3.528200 0.000000 
#    z -0.043120 0.000000 2.914560 
# 
# 
# High freq. dielectric constant tensor:
#      x y z
#    x 1.714070 0.000000 -0.001470 
#    y 0.000000 1.708790 0.000000 
#    z -0.001470 0.000000 1.646610 
# 
# From -- ./inp_files/108770.got.cif
#   From: 2010.06.25/outbox.cif.g09.slc.cpg/sg12_55_cif.got.tgz:108770.got - 2010.06.28 00:19:55.
