data_PCOD8087714
_publ_section_title
;
Structure prediction by ZEFSAII (Michael W. Deem and Ramdas Pophale) SiO2 
 PCOD8087714
Probable space group: C 2/M
;
_chemical_formula_sum "Si O2"
_cell_formula_units_Z 48
_cell_length_a 19.484636
_cell_length_b 8.617577
_cell_length_c 18.628197
_cell_angle_alpha 90.000000
_cell_angle_beta 124.863080
_cell_angle_gamma 90.000000
_cell_volume 2566.478707
_symmetry_space_group_name_H-M "C 2/M"
_symmetry_group_IT_number 12
_symmetry_cell_setting 'monoclinic'
loop_
_space_group_symop_operation_xyz
x,y,z
-x,y,-z
-x,-y,-z
x,-y,z
1/2+x,1/2+y,z
1/2-x,1/2+y,-z
1/2-x,1/2-y,-z
1/2+x,1/2-y,z
loop_
_atom_site_type_symbol
_atom_site_label
_atom_site_fract_x
_atom_site_fract_y
_atom_site_fract_z
Si Si1 0.753180 0.181509 0.110658
Si Si2 0.777307 0.317650 0.745813
Si Si3 0.882910 0.679809 0.086936
Si Si4 0.556097 0.679299 0.217548
Si Si5 0.121995 0.677250 0.387465
Si Si6 0.286420 0.181133 0.424592
O O1 0.736599 0.237926 0.181306
O O2 0.832638 0.274513 0.128446
O O3 0.773785 0.000000 0.117826
O O4 0.671106 0.222153 0.015370
O O5 0.764515 0.500000 0.731193
O O6 0.706539 0.230552 0.654757
O O7 0.871145 0.274772 0.778250
O O8 0.906166 0.500000 0.104209
O O9 0.967649 0.776932 0.130816
O O10 0.574053 0.500000 0.216155
O O11 0.556172 0.717800 0.303727
O O12 0.096413 0.500000 0.358599
O O13 0.214177 0.708015 0.411725
O O14 0.128653 0.711963 0.477745
O O15 0.261120 0.000000 0.415994
#
# Coordination Sequence:
#
# PCOD8087714 Si02
#       6
#     8   8   8   8   8   8
#     4   9  20  37  55  75  98 129 167 204 245 298
#     4  10  19  32  51  75 104 133 164 203 247 293
#     4  10  20  36  56  74  97 130 167 205 248 298
#     4  11  21  32  49  75 105 132 166 208 247 290
#     4   9  16  27  44  67  97 131 165 200 242 290
#     4   9  16  26  43  69  99 129 163 201 241 289
#
# _framework density 18.702669
#
# number of rings (size 3 to 8) (size 9 to 14) (size 15 to 20)
#    0.000    2.333    0.000    5.500    0.000    4.667 
#    0.000    3.333    0.000    1.000    0.000    7.000 
#    0.000    0.000    0.000    0.000    0.000    0.000 
#
# Total GULP energy -297459.394265 kJ/mol
# GULP energy per Si atom -12394.141428 kJ/mol
# Density = 1.866010 g / cm^3
# Si number density = 18.702669 Si / 1000 Ang^3
#
#
#
# Elastic Constant Matrix: (Units=GPa)
#
#
# Indices 1 2 3 4 5 6 
#
# 1 37.6590 8.5919 30.6131 0.0000 -19.5706 0.0000
# 2 8.5919 50.0210 18.4668 0.0000 -7.2087 0.0000
# 3 30.6131 18.4668 95.5047 0.0000 -34.5979 0.0000
# 4 0.0000 0.0000 0.0000 33.0855 0.0000 0.7486
# 5 -19.5706 -7.2087 -34.5979 0.0000 21.0848 0.0000
# 6 0.0000 0.0000 0.0000 0.7486 0.0000 23.7352
#
#
#
# Elastic Compliance Matrix: (Units=1/GPa)
#
#
# Indices 1 2 3 4 5 6 
#
# 1 0.051719 -0.002404 0.002415 0.000000 0.051146 0.000000
# 2 -0.002404 0.021655 -0.003804 0.000000 -0.001070 0.000000
# 3 0.002415 -0.003804 0.026563 0.000000 0.044528 0.000000
# 4 0.000000 0.000000 0.000000 0.030246 0.000000 -0.000954
# 5 0.051146 -0.001070 0.044528 0.000000 0.167600 0.000000
# 6 0.000000 0.000000 0.000000 -0.000954 0.000000 0.042162
#
#
# Mechanical properties :
#
#
# Convention : Reuss Voigt Hill
#
# Bulk Modulus (GPa) = 10.82840 33.16981 21.99911
# Shear Modulus (GPa) = 13.21650 23.94862 18.58256
#
# Velocity S-wave (km/s) = 2.66120 3.58228 3.15553
# Velocity P-wave (km/s) = 3.90448 5.90628 5.00645
#
# Compressibility (1/GPa) = 0.09234976
#
# Stress axis : x y z
#
# Youngs Moduli (GPa) = 19.33537 46.17917 37.64622
#
# Poissons Ratio (x) = 0.11103 -0.09092
# Poissons Ratio (y) = 0.04649 0.14322
# Poissons Ratio (z) = -0.04670 0.17568
#
# Static dielectric constant tensor:
#      x y z
#    x 2.969220 0.000000 -0.167250 
#    y 0.000000 3.419070 0.000000 
#    z -0.167250 0.000000 4.111780 
# 
# 
# High freq. dielectric constant tensor:
#      x y z
#    x 1.666920 0.000000 -0.006110 
#    y 0.000000 1.735720 0.000000 
#    z -0.006110 0.000000 1.748880 
# 
# From -- ./inp_files/287956.got.cif
#   From: 2010.06.25/outbox.cif.g09.slc.cpg/sg12_144_cif.got.tgz:287956.got - 2010.06.28 00:19:55.
