data_PCOD8087827
_publ_section_title
;
Structure prediction by ZEFSAII (Michael W. Deem and Ramdas Pophale) SiO2 
 PCOD8087827
Probable space group: C 2/M
;
_chemical_formula_sum "Si O2"
_cell_formula_units_Z 56
_cell_length_a 28.450872
_cell_length_b 8.840697
_cell_length_c 12.921432
_cell_angle_alpha 90.000000
_cell_angle_beta 123.543075
_cell_angle_gamma 90.000000
_cell_volume 2708.838044
_symmetry_space_group_name_H-M "C 2/M"
_symmetry_group_IT_number 12
_symmetry_cell_setting 'monoclinic'
loop_
_space_group_symop_operation_xyz
x,y,z
-x,y,-z
-x,-y,-z
x,-y,z
1/2+x,1/2+y,z
1/2-x,1/2+y,-z
1/2-x,1/2-y,-z
1/2+x,1/2-y,z
loop_
_atom_site_type_symbol
_atom_site_label
_atom_site_fract_x
_atom_site_fract_y
_atom_site_fract_z
Si Si1 0.289783 0.665839 0.123459
Si Si2 0.561305 0.321396 0.236705
Si Si3 0.748108 0.335420 0.699179
Si Si4 0.937671 0.821534 0.139545
Si Si5 0.097822 0.322677 0.696825
Si Si6 0.122382 0.819439 0.516554
Si Si7 0.364492 0.320964 0.859798
O O1 0.310899 0.500000 0.107570
O O2 0.254995 0.637455 0.183448
O O3 0.338779 0.785340 0.197167
O O4 0.250000 0.750000 0.000000
O O5 0.567790 0.500000 0.245644
O O6 0.495907 0.274287 0.154478
O O7 0.591482 0.259331 0.376876
O O8 0.591840 0.255374 0.172137
O O9 0.757822 0.500000 0.657158
O O10 0.688092 0.263496 0.589131
O O11 0.802274 0.230025 0.748068
O O12 0.939101 0.743722 0.253978
O O13 0.935202 0.000000 0.155075
O O14 0.886231 0.767841 0.000788
O O15 0.086696 0.500000 0.674444
O O16 0.087247 0.247494 0.571416
O O17 0.122760 0.000000 0.531416
O O18 0.364691 0.500000 0.858457
#
# Coordination Sequence:
#
# PCOD8087827 Si02
#       7
#     8   8   8   8   8   8   8
#     4  10  19  32  51  77 110 146 185 226 273 328
#     4   9  19  37  60  81 104 141 187 232 273 323
#     4   9  19  33  50  75 108 143 176 216 266 322
#     4  10  20  36  58  82 109 142 182 227 278 332
#     4  11  22  35  53  79 112 145 182 228 276 327
#     4   9  19  38  59  79 107 144 186 225 271 332
#     4  10  20  34  56  85 111 138 179 227 272 325
#
# _framework density 20.673069999999999
#
# number of rings (size 3 to 8) (size 9 to 14) (size 15 to 20)
#    0.000    2.286    0.000    3.857    0.000    8.571 
#    0.000    5.000    0.000    1.714    0.000    0.000 
#    0.000    0.000    0.000    0.000    0.000    0.000 
#
# Total GULP energy -346909.627915 kJ/mol
# GULP energy per Si atom -12389.629568 kJ/mol
# Density = 2.062602 g / cm^3
# Si number density = 20.673070 Si / 1000 Ang^3
#
#
#
# Elastic Constant Matrix: (Units=GPa)
#
#
# Indices 1 2 3 4 5 6 
#
# 1 94.2666 24.0161 15.9884 0.0000 -11.8636 0.0000
# 2 24.0161 57.2359 22.2266 0.0000 -2.6686 0.0000
# 3 15.9884 22.2266 90.7173 0.0000 -0.7400 0.0000
# 4 0.0000 0.0000 0.0000 17.2225 0.0000 3.3209
# 5 -11.8636 -2.6686 -0.7400 0.0000 17.1693 0.0000
# 6 0.0000 0.0000 0.0000 3.3209 0.0000 25.3545
#
#
#
# Elastic Compliance Matrix: (Units=1/GPa)
#
#
# Indices 1 2 3 4 5 6 
#
# 1 0.013013 -0.004655 -0.001086 0.000000 0.008221 0.000000
# 2 -0.004655 0.021109 -0.004353 0.000000 -0.000123 0.000000
# 3 -0.001086 -0.004353 0.012274 0.000000 -0.000898 0.000000
# 4 0.000000 0.000000 0.000000 0.059568 0.000000 -0.007802
# 5 0.008221 -0.000123 -0.000898 0.000000 0.063866 0.000000
# 6 0.000000 0.000000 0.000000 -0.007802 0.000000 0.040463
#
#
# Mechanical properties :
#
#
# Convention : Reuss Voigt Hill
#
# Bulk Modulus (GPa) = 38.15502 40.74244 39.44873
# Shear Modulus (GPa) = 20.90155 23.94853 22.42504
#
# Velocity S-wave (km/s) = 3.18315 3.40728 3.29712
# Velocity P-wave (km/s) = 5.65742 5.93550 5.79813
#
# Compressibility (1/GPa) = 0.02620887
#
# Stress axis : x y z
#
# Youngs Moduli (GPa) = 76.84580 47.37233 81.47494
#
# Poissons Ratio (x) = 0.22053 0.08847
# Poissons Ratio (y) = 0.35774 0.35462
# Poissons Ratio (z) = 0.08344 0.20619
#
# Static dielectric constant tensor:
#      x y z
#    x 3.830790 0.000000 -0.105160 
#    y 0.000000 3.347500 0.000000 
#    z -0.105160 0.000000 3.864220 
# 
# 
# High freq. dielectric constant tensor:
#      x y z
#    x 1.809820 0.000000 -0.000050 
#    y 0.000000 1.775630 0.000000 
#    z -0.000050 0.000000 1.813330 
# 
# From -- ./inp_files/181074.got.cif
#   From: 2010.06.25/outbox.cif.g09.slc.cpg/sg12_91_cif.got.tgz:181074.got - 2010.06.28 00:19:55.
