data_PCOD8087494
_publ_section_title
;
Structure prediction by ZEFSAII (Michael W. Deem and Ramdas Pophale) SiO2 
 PCOD8087494
Probable space group: C 2/M
;
_chemical_formula_sum "Si O2"
_cell_formula_units_Z 48
_cell_length_a 27.489388
_cell_length_b 8.754204
_cell_length_c 11.708577
_cell_angle_alpha 90.000000
_cell_angle_beta 69.965430
_cell_angle_gamma 90.000000
_cell_volume 2647.135693
_symmetry_space_group_name_H-M "C 2/M"
_symmetry_group_IT_number 12
_symmetry_cell_setting 'monoclinic'
loop_
_space_group_symop_operation_xyz
x,y,z
-x,y,-z
-x,-y,-z
x,-y,z
1/2+x,1/2+y,z
1/2-x,1/2+y,-z
1/2-x,1/2-y,-z
1/2+x,1/2-y,z
loop_
_atom_site_type_symbol
_atom_site_label
_atom_site_fract_x
_atom_site_fract_y
_atom_site_fract_z
Si Si1 0.068102 0.319322 0.743863
Si Si2 0.035078 0.823207 0.132338
Si Si3 0.444272 0.680390 0.494655
Si Si4 0.805111 0.319973 0.981443
Si Si5 0.127337 0.176159 0.885455
Si Si6 0.104269 0.680200 0.260089
O O1 0.069438 0.500000 0.739421
O O2 0.066383 0.254049 0.618591
O O3 0.118981 0.258144 0.770095
O O4 0.018509 0.259598 0.855241
O O5 0.055689 0.745465 0.230277
O O6 0.023822 0.000000 0.167540
O O7 0.074731 0.801842 0.998177
O O8 0.500000 0.731228 0.500000
O O9 0.440237 0.500000 0.486475
O O10 0.398347 0.742249 0.613587
O O11 0.800910 0.500000 0.997498
O O12 0.842772 0.273517 0.846630
O O13 0.750000 0.250000 0.000000
O O14 0.825566 0.253526 0.084650
O O15 0.141158 0.000000 0.854816
O O16 0.098664 0.500000 0.276003
#
# Coordination Sequence:
#
# PCOD8087494 Si02
#       6
#     8   8   8   8   8   8
#     4  12  23  33  50  75 109 148 184 223 267 319
#     4  10  19  32  50  74 106 145 183 220 265 319
#     4  11  22  35  53  76 108 150 191 224 262 319
#     4  10  21  38  61  87 111 138 177 225 278 328
#     4  10  21  36  54  77 108 142 180 225 273 324
#     4  10  20  34  54  81 110 141 182 228 269 315
#
# _framework density 18.132808000000001
#
# number of rings (size 3 to 8) (size 9 to 14) (size 15 to 20)
#    0.000    1.500    1.667    4.500    0.000    6.667 
#    0.000    0.000    0.000    1.000    0.000    0.000 
#    0.000    0.000    0.000    0.000    0.000    0.000 
#
# Total GULP energy -297645.090034 kJ/mol
# GULP energy per Si atom -12401.878751 kJ/mol
# Density = 1.809154 g / cm^3
# Si number density = 18.132808 Si / 1000 Ang^3
#
#
#
# Elastic Constant Matrix: (Units=GPa)
#
#
# Indices 1 2 3 4 5 6 
#
# 1 123.1156 59.3757 57.2051 0.0000 21.3451 0.0000
# 2 59.3757 115.1584 53.3491 0.0000 18.7085 0.0000
# 3 57.2051 53.3491 90.7833 0.0000 26.6028 0.0000
# 4 0.0000 0.0000 0.0000 31.5868 0.0000 3.8196
# 5 21.3451 18.7085 26.6028 0.0000 24.9100 0.0000
# 6 0.0000 0.0000 0.0000 3.8196 0.0000 30.3224
#
#
#
# Elastic Compliance Matrix: (Units=1/GPa)
#
#
# Indices 1 2 3 4 5 6 
#
# 1 0.012759 -0.003822 -0.004995 0.000000 -0.002729 0.000000
# 2 -0.003822 0.013156 -0.004930 0.000000 -0.001341 0.000000
# 3 -0.004995 -0.004930 0.021426 0.000000 -0.014899 0.000000
# 4 0.000000 0.000000 0.000000 0.032148 0.000000 -0.004050
# 5 -0.002729 -0.001341 -0.014899 0.000000 0.059402 0.000000
# 6 0.000000 0.000000 0.000000 -0.004050 0.000000 0.033489
#
#
# Mechanical properties :
#
#
# Convention : Reuss Voigt Hill
#
# Bulk Modulus (GPa) = 50.38163 74.32414 62.35288
# Shear Modulus (GPa) = 24.21442 27.97234 26.09338
#
# Velocity S-wave (km/s) = 3.65827 3.93190 3.79755
# Velocity P-wave (km/s) = 6.75936 7.85436 7.32734
#
# Compressibility (1/GPa) = 0.01984851
#
# Stress axis : x y z
#
# Youngs Moduli (GPa) = 78.37395 76.01175 46.67319
#
# Poissons Ratio (x) = 0.29048 0.23311
# Poissons Ratio (y) = 0.29951 0.23010
# Poissons Ratio (z) = 0.39144 0.37474
#
# Static dielectric constant tensor:
#      x y z
#    x 3.180080 0.000000 0.099580 
#    y 0.000000 3.464960 0.000000 
#    z 0.099580 0.000000 3.360840 
# 
# 
# High freq. dielectric constant tensor:
#      x y z
#    x 1.676030 0.000000 0.018380 
#    y 0.000000 1.721050 0.000000 
#    z 0.018380 0.000000 1.700080 
# 
# From -- ./inp_files/172053.got.cif
#   From: 2010.06.25/outbox.cif.g09.slc.cpg/sg12_87_cif.got.tgz:172053.got - 2010.06.28 00:19:55.
