data_PCOD8087335
_publ_section_title
;
Structure prediction by ZEFSAII (Michael W. Deem and Ramdas Pophale) SiO2 
 PCOD8087335
Probable space group: C 2/M
;
_chemical_formula_sum "Si O2"
_cell_formula_units_Z 64
_cell_length_a 28.264669
_cell_length_b 8.869423
_cell_length_c 15.422657
_cell_angle_alpha 90.000000
_cell_angle_beta 90.776488
_cell_angle_gamma 90.000000
_cell_volume 3865.970968
_symmetry_space_group_name_H-M "C 2/M"
_symmetry_group_IT_number 12
_symmetry_cell_setting 'monoclinic'
loop_
_space_group_symop_operation_xyz
x,y,z
-x,y,-z
-x,-y,-z
x,-y,z
1/2+x,1/2+y,z
1/2-x,1/2+y,-z
1/2-x,1/2-y,-z
1/2+x,1/2-y,z
loop_
_atom_site_type_symbol
_atom_site_label
_atom_site_fract_x
_atom_site_fract_y
_atom_site_fract_z
Si Si1 0.451250 0.177407 0.317306
Si Si2 0.555719 0.173384 0.996271
Si Si3 0.055813 0.165799 0.510630
Si Si4 0.947244 0.822331 0.678646
Si Si5 0.605317 0.322463 0.837529
Si Si6 0.197725 0.325294 0.899304
Si Si7 0.706797 0.172647 0.098841
Si Si8 0.607060 0.825310 0.172042
O O1 0.431275 0.219009 0.412397
O O2 0.503464 0.240256 0.300752
O O3 0.415482 0.244447 0.247433
O O4 0.453098 0.000000 0.307027
O O5 0.578116 0.227760 0.087050
O O6 0.570026 0.000000 0.977787
O O7 0.500000 0.194618 0.000000
O O8 0.575505 0.275936 0.920664
O O9 0.074008 0.222359 0.416754
O O10 0.000000 0.152772 0.500000
O O11 0.076679 0.000000 0.533710
O O12 0.908476 0.774468 0.747407
O O13 0.956915 0.000000 0.683136
O O14 0.602541 0.500000 0.825871
O O15 0.659588 0.271636 0.846378
O O16 0.189796 0.500000 0.878300
O O17 0.250094 0.277657 0.869759
O O18 0.191004 0.289162 0.000660
O O19 0.662660 0.204225 0.160187
O O20 0.723665 0.000000 0.104330
O O21 0.596481 0.000000 0.191050
#
# Coordination Sequence:
#
# PCOD8087335 Si02
#       8
#     8   8   8   8   8   8   8   8
#     4  11  21  33  51  73  99 132 170 208 247 295
#     4  10  20  34  49  67  97 136 171 204 242 285
#     4   8  16  32  50  70  99 130 161 205 252 289
#     4  10  20  33  50  74 104 134 167 206 247 293
#     4  12  23  34  50  72  99 131 167 205 249 299
#     4  10  19  34  53  72  96 126 165 209 253 295
#     4   9  18  33  51  72  98 128 164 207 254 293
#     4  10  19  32  49  72 102 135 168 205 246 292
#
# _framework density 16.554703
#
# number of rings (size 3 to 8) (size 9 to 14) (size 15 to 20)
#    0.000    2.000    1.250    4.500    0.000    5.500 
#    0.000    0.000    0.000    0.000    0.000    0.875 
#    0.000    0.000    0.000    0.000    0.000    0.000 
#
# Total GULP energy -396841.453618 kJ/mol
# GULP energy per Si atom -12401.295426 kJ/mol
# Density = 1.651702 g / cm^3
# Si number density = 16.554703 Si / 1000 Ang^3
#
#
#
# Elastic Constant Matrix: (Units=GPa)
#
#
# Indices 1 2 3 4 5 6 
#
# 1 75.2364 41.6531 50.6959 0.0000 0.1970 0.0000
# 2 41.6531 101.1146 56.0405 0.0000 0.9195 0.0000
# 3 50.6959 56.0405 114.8204 0.0000 -8.1478 0.0000
# 4 0.0000 0.0000 0.0000 26.5842 0.0000 -1.5164
# 5 0.1970 0.9195 -8.1478 0.0000 8.3805 0.0000
# 6 0.0000 0.0000 0.0000 -1.5164 0.0000 23.8923
#
#
#
# Elastic Compliance Matrix: (Units=1/GPa)
#
#
# Indices 1 2 3 4 5 6 
#
# 1 0.020824 -0.004280 -0.007633 0.000000 -0.007441 0.000000
# 2 -0.004280 0.015026 -0.005965 0.000000 -0.007348 0.000000
# 3 -0.007633 -0.005965 0.016166 0.000000 0.016551 0.000000
# 4 0.000000 0.000000 0.000000 0.037753 0.000000 0.002396
# 5 -0.007441 -0.007348 0.016551 0.000000 0.136398 0.000000
# 6 0.000000 0.000000 0.000000 0.002396 0.000000 0.042007
#
#
# Mechanical properties :
#
#
# Convention : Reuss Voigt Hill
#
# Bulk Modulus (GPa) = 61.50841 65.32780 63.41811
# Shear Modulus (GPa) = 16.16295 21.29019 18.72657
#
# Velocity S-wave (km/s) = 3.12803 3.59005 3.36697
# Velocity P-wave (km/s) = 7.09094 7.53207 7.31483
#
# Compressibility (1/GPa) = 0.01625794
#
# Stress axis : x y z
#
# Youngs Moduli (GPa) = 48.02159 66.55206 61.85975
#
# Poissons Ratio (x) = 0.28483 0.47220
# Poissons Ratio (y) = 0.20553 0.36902
# Poissons Ratio (z) = 0.36657 0.39701
#
# Static dielectric constant tensor:
#      x y z
#    x 2.990870 0.000000 -0.051320 
#    y 0.000000 3.164100 0.000000 
#    z -0.051320 0.000000 3.360460 
# 
# 
# High freq. dielectric constant tensor:
#      x y z
#    x 1.618570 0.000000 -0.001820 
#    y 0.000000 1.644060 0.000000 
#    z -0.001820 0.000000 1.628160 
# 
# From -- ./inp_files/244033.got.cif
#   From: 2010.06.25/outbox.cif.g09.slc.cpg/sg12_123_cif.got.tgz:244033.got - 2010.06.28 00:19:55.
