data_PCOD8087813
_publ_section_title
;
Structure prediction by ZEFSAII (Michael W. Deem and Ramdas Pophale) SiO2 
 PCOD8087813
Probable space group: C 2/M
;
_chemical_formula_sum "Si O2"
_cell_formula_units_Z 56
_cell_length_a 30.888109
_cell_length_b 9.176027
_cell_length_c 14.548329
_cell_angle_alpha 90.000000
_cell_angle_beta 133.797470
_cell_angle_gamma 90.000000
_cell_volume 2976.257166
_symmetry_space_group_name_H-M "C 2/M"
_symmetry_group_IT_number 12
_symmetry_cell_setting 'monoclinic'
loop_
_space_group_symop_operation_xyz
x,y,z
-x,y,-z
-x,-y,-z
x,-y,z
1/2+x,1/2+y,z
1/2-x,1/2+y,-z
1/2-x,1/2-y,-z
1/2+x,1/2-y,z
loop_
_atom_site_type_symbol
_atom_site_label
_atom_site_fract_x
_atom_site_fract_y
_atom_site_fract_z
Si Si1 0.394833 0.330623 0.336219
Si Si2 0.144026 0.332590 0.047304
Si Si3 0.681076 0.170676 0.492842
Si Si4 0.199796 0.331557 0.314373
Si Si5 0.063798 0.673055 0.429874
Si Si6 0.261964 0.332424 0.110334
Si Si7 0.054203 0.171007 0.788346
O O1 0.406720 0.500000 0.375758
O O2 0.434152 0.234961 0.463606
O O3 0.325468 0.285115 0.247383
O O4 0.413917 0.291802 0.260888
O O5 0.125660 0.500000 0.000119
O O6 0.148413 0.300607 0.162868
O O7 0.210148 0.298500 0.106322
O O8 0.095931 0.225162 0.932601
O O9 0.739790 0.245119 0.621222
O O10 0.673340 0.214773 0.374319
O O11 0.622666 0.224504 0.461362
O O12 0.689643 0.000000 0.517428
O O13 0.218277 0.500000 0.339855
O O14 0.056636 0.500000 0.422092
O O15 0.007883 0.742934 0.294930
O O16 0.265704 0.500000 0.088014
O O17 0.250000 0.250000 0.000000
O O18 0.042671 0.000000 0.782977
#
# Coordination Sequence:
#
# PCOD8087813 Si02
#       7
#     8   8   8   8   8   8   8
#     4  10  21  37  55  78 107 142 182 222 268 318
#     4  10  20  34  55  81 109 142 179 217 265 321
#     4   9  19  36  57  84 112 138 174 220 269 318
#     4   9  18  35  60  85 110 140 173 216 269 321
#     4  11  23  37  55  79 107 141 182 225 267 316
#     4  10  19  32  51  77 108 138 170 211 260 312
#     4  11  23  38  55  75 106 146 184 224 267 316
#
# _framework density 18.815577999999999
#
# number of rings (size 3 to 8) (size 9 to 14) (size 15 to 20)
#    0.000    2.000    1.429    2.143    0.000    6.286 
#    0.000    0.714    0.000    4.286    0.000    0.000 
#    0.000    0.000    0.000    0.000    0.000    0.000 
#
# Total GULP energy -347286.932575 kJ/mol
# GULP energy per Si atom -12403.104735 kJ/mol
# Density = 1.877275 g / cm^3
# Si number density = 18.815578 Si / 1000 Ang^3
#
#
#
# Elastic Constant Matrix: (Units=GPa)
#
#
# Indices 1 2 3 4 5 6 
#
# 1 60.8459 32.6240 40.2225 0.0000 3.2185 0.0000
# 2 32.6240 61.5757 45.6817 0.0000 3.4407 0.0000
# 3 40.2225 45.6817 116.7990 0.0000 2.1595 0.0000
# 4 0.0000 0.0000 0.0000 36.5278 0.0000 3.6060
# 5 3.2185 3.4407 2.1595 0.0000 28.7335 0.0000
# 6 0.0000 0.0000 0.0000 3.6060 0.0000 24.8078
#
#
#
# Elastic Compliance Matrix: (Units=1/GPa)
#
#
# Indices 1 2 3 4 5 6 
#
# 1 0.024759 -0.009493 -0.004790 0.000000 -0.001277 0.000000
# 2 -0.009493 0.026642 -0.007122 0.000000 -0.001592 0.000000
# 3 -0.004790 -0.007122 0.012989 0.000000 0.000413 0.000000
# 4 0.000000 0.000000 0.000000 0.027775 0.000000 -0.004037
# 5 -0.001277 -0.001592 0.000413 0.000000 0.035105 0.000000
# 6 0.000000 0.000000 0.000000 -0.004037 0.000000 0.040897
#
#
# Mechanical properties :
#
#
# Convention : Reuss Voigt Hill
#
# Bulk Modulus (GPa) = 46.33685 52.91968 49.62826
# Shear Modulus (GPa) = 22.91808 26.05996 24.48902
#
# Velocity S-wave (km/s) = 3.49383 3.72562 3.61159
# Velocity P-wave (km/s) = 6.39969 6.83327 6.62003
#
# Compressibility (1/GPa) = 0.02158110
#
# Stress axis : x y z
#
# Youngs Moduli (GPa) = 40.38996 37.53490 76.98877
#
# Poissons Ratio (x) = 0.35631 0.36877
# Poissons Ratio (y) = 0.38341 0.54828
# Poissons Ratio (z) = 0.19346 0.26730
#
# Static dielectric constant tensor:
#      x y z
#    x 6.141390 0.000000 -2.141010 
#    y 0.000000 3.391290 0.000000 
#    z -2.141010 0.000000 5.229450 
# 
# 
# High freq. dielectric constant tensor:
#      x y z
#    x 1.722610 0.000000 -0.001220 
#    y 0.000000 1.728190 0.000000 
#    z -0.001220 0.000000 1.736080 
# 
# From -- ./inp_files/237819.got.cif
#   From: 2010.06.25/outbox.cif.g09.slc.cpg/sg12_119_cif.got.tgz:237819.got - 2010.06.28 00:19:55.
