data_PCOD8087828
_publ_section_title
;
Structure prediction by ZEFSAII (Michael W. Deem and Ramdas Pophale) SiO2 
 PCOD8087828
Probable space group: C 2/M
;
_chemical_formula_sum "Si O2"
_cell_formula_units_Z 56
_cell_length_a 30.891823
_cell_length_b 9.576452
_cell_length_c 11.588122
_cell_angle_alpha 90.000000
_cell_angle_beta 122.396317
_cell_angle_gamma 90.000000
_cell_volume 2894.610289
_symmetry_space_group_name_H-M "C 2/M"
_symmetry_group_IT_number 12
_symmetry_cell_setting 'monoclinic'
loop_
_space_group_symop_operation_xyz
x,y,z
-x,y,-z
-x,-y,-z
x,-y,z
1/2+x,1/2+y,z
1/2-x,1/2+y,-z
1/2-x,1/2-y,-z
1/2+x,1/2-y,z
loop_
_atom_site_type_symbol
_atom_site_label
_atom_site_fract_x
_atom_site_fract_y
_atom_site_fract_z
Si Si1 0.066035 0.159667 0.858587
Si Si2 0.243267 0.663440 0.875052
Si Si3 0.635376 0.160474 0.324172
Si Si4 0.517709 0.838264 0.152482
Si Si5 0.642908 0.160959 0.593328
Si Si6 0.441445 0.659853 0.413250
Si Si7 0.338263 0.336216 0.851760
O O1 0.082179 0.175073 0.748466
O O2 0.015355 0.250258 0.804787
O O3 0.052735 0.000000 0.869349
O O4 0.112612 0.213958 0.004277
O O5 0.245304 0.500000 0.908260
O O6 0.189684 0.706869 0.740948
O O7 0.287912 0.704216 0.850515
O O8 0.250000 0.750000 0.000000
O O9 0.576329 0.205553 0.249316
O O10 0.660254 0.184438 0.485447
O O11 0.664379 0.255672 0.273049
O O12 0.640050 0.000000 0.290593
O O13 0.508672 0.000000 0.167562
O O14 0.500000 0.798053 0.000000
O O15 0.592479 0.249665 0.548544
O O16 0.628196 0.000000 0.591929
O O17 0.500000 0.713694 0.500000
O O18 0.439376 0.500000 0.452880
O O19 0.340623 0.500000 0.829014
#
# Coordination Sequence:
#
# PCOD8087828 Si02
#       7
#     8   8   8   8   8   8   8
#     4  10  20  33  52  79 109 143 183 229 278 327
#     4  10  22  41  62  85 112 144 186 233 283 336
#     4  10  21  37  55  80 114 146 183 228 276 331
#     4  10  19  32  51  77 110 147 184 224 270 324
#     4  10  22  39  59  83 113 149 186 231 283 335
#     4  10  21  37  57  83 115 149 188 232 278 333
#     4  10  21  36  55  80 110 143 183 230 277 329
#
# _framework density 19.346301
#
# number of rings (size 3 to 8) (size 9 to 14) (size 15 to 20)
#    0.000    2.000    1.429    1.714    0.000    5.143 
#    0.000    0.000    0.000    0.000    0.000    0.000 
#    0.000    0.000    0.000    0.000    0.000    0.000 
#
# Total GULP energy -347323.566670 kJ/mol
# GULP energy per Si atom -12404.413095 kJ/mol
# Density = 1.930227 g / cm^3
# Si number density = 19.346301 Si / 1000 Ang^3
#
#
#
# Elastic Constant Matrix: (Units=GPa)
#
#
# Indices 1 2 3 4 5 6 
#
# 1 124.8157 64.9152 47.1267 0.0000 -5.0052 0.0000
# 2 64.9152 66.5312 41.6489 0.0000 -5.6004 0.0000
# 3 47.1267 41.6489 112.3366 0.0000 -1.8316 0.0000
# 4 0.0000 0.0000 0.0000 29.6055 0.0000 -6.1250
# 5 -5.0052 -5.6004 -1.8316 0.0000 24.7961 0.0000
# 6 0.0000 0.0000 0.0000 -6.1250 0.0000 32.8366
#
#
#
# Elastic Compliance Matrix: (Units=1/GPa)
#
#
# Indices 1 2 3 4 5 6 
#
# 1 0.016398 -0.015249 -0.001229 0.000000 -0.000225 0.000000
# 2 -0.015249 0.034136 -0.006191 0.000000 0.004175 0.000000
# 3 -0.001229 -0.006191 0.011700 0.000000 -0.000782 0.000000
# 4 0.000000 0.000000 0.000000 0.035133 0.000000 0.006553
# 5 -0.000225 0.004175 -0.000782 0.000000 0.041169 0.000000
# 6 0.000000 0.000000 0.000000 0.006553 0.000000 0.031676
#
#
# Mechanical properties :
#
#
# Convention : Reuss Voigt Hill
#
# Bulk Modulus (GPa) = 59.18585 67.89613 63.54099
# Shear Modulus (GPa) = 22.60592 27.44714 25.02653
#
# Velocity S-wave (km/s) = 3.42202 3.77069 3.60058
# Velocity P-wave (km/s) = 6.80242 7.35723 7.08526
#
# Compressibility (1/GPa) = 0.01689593
#
# Stress axis : x y z
#
# Youngs Moduli (GPa) = 60.98447 29.29474 85.47040
#
# Poissons Ratio (x) = 0.44671 0.10506
# Poissons Ratio (y) = 0.92994 0.52913
# Poissons Ratio (z) = 0.07496 0.18136
#
# Static dielectric constant tensor:
#      x y z
#    x 3.383140 0.000000 0.036140 
#    y 0.000000 3.402480 0.000000 
#    z 0.036140 0.000000 3.678190 
# 
# 
# High freq. dielectric constant tensor:
#      x y z
#    x 1.748100 0.000000 -0.001050 
#    y 0.000000 1.744120 0.000000 
#    z -0.001050 0.000000 1.765480 
# 
# From -- ./inp_files/180743.got.cif
#   From: 2010.06.25/outbox.cif.g09.slc.cpg/sg12_91_cif.got.tgz:180743.got - 2010.06.28 00:19:55.
