data_PCOD8087554
_publ_section_title
;
Structure prediction by ZEFSAII (Michael W. Deem and Ramdas Pophale) SiO2 
 PCOD8087554
Probable space group: C 2/M
;
_chemical_formula_sum "Si O2"
_cell_formula_units_Z 52
_cell_length_a 22.193093
_cell_length_b 7.820737
_cell_length_c 17.915642
_cell_angle_alpha 90.000000
_cell_angle_beta 116.234417
_cell_angle_gamma 90.000000
_cell_volume 2789.246802
_symmetry_space_group_name_H-M "C 2/M"
_symmetry_group_IT_number 12
_symmetry_cell_setting 'monoclinic'
loop_
_space_group_symop_operation_xyz
x,y,z
-x,y,-z
-x,-y,-z
x,-y,z
1/2+x,1/2+y,z
1/2-x,1/2+y,-z
1/2-x,1/2-y,-z
1/2+x,1/2-y,z
loop_
_atom_site_type_symbol
_atom_site_label
_atom_site_fract_x
_atom_site_fract_y
_atom_site_fract_z
Si Si1 0.838275 0.500000 0.376129
Si Si2 0.876713 0.199209 0.674085
Si Si3 0.116293 0.500000 0.434391
Si Si4 0.358467 0.807004 0.080322
Si Si5 0.970193 0.810634 0.237818
Si Si6 0.779087 0.812381 0.748752
Si Si7 0.038870 0.500000 0.660882
Si Si8 0.764084 0.305949 0.901524
O O1 0.841779 0.500000 0.467014
O O2 0.796415 0.331483 0.326755
O O3 0.912733 0.500000 0.383633
O O4 0.863903 0.325660 0.597737
O O5 0.828694 0.265617 0.713984
O O6 0.953014 0.222104 0.743976
O O7 0.861190 0.000000 0.643822
O O8 0.037203 0.500000 0.409528
O O9 0.423805 0.697584 0.138623
O O10 0.302698 0.800138 0.115879
O O11 0.383312 0.000000 0.084220
O O12 0.326608 0.735816 0.985463
O O13 0.945226 0.669289 0.282650
O O14 0.963316 0.000000 0.270131
O O15 0.779918 0.696822 0.822584
O O16 0.806572 0.000000 0.786992
O O17 0.750672 0.500000 0.919146
#
# Coordination Sequence:
#
# PCOD8087554 Si02
#       8
#     4   8   4   8   8   8   4   8
#     4  10  21  36  58  82 109 147 180 225 289 337
#     4   9  20  39  56  80 109 142 187 227 270 325
#     4  10  21  36  62  85 106 147 180 227 287 329
#     4  10  19  32  50  79 113 145 184 231 270 326
#     4  10  19  33  58  80 107 150 186 219 271 330
#     4   9  20  36  53  74 107 146 177 232 268 322
#     4  10  19  36  58  83 120 138 176 234 278 332
#     4  10  20  32  51  78 112 147 183 225 280 322
#
# _framework density 18.643027
#
# number of rings (size 3 to 8) (size 9 to 14) (size 15 to 20)
#    0.462    1.846    0.769    2.077    1.077    2.462 
#    0.000    2.308    0.000    8.308    0.000    0.000 
#    0.000    0.000    0.000    0.000    0.000    0.000 
#
# Total GULP energy -322281.446999 kJ/mol
# GULP energy per Si atom -12395.440269 kJ/mol
# Density = 1.860059 g / cm^3
# Si number density = 18.643027 Si / 1000 Ang^3
#
#
#
# Elastic Constant Matrix: (Units=GPa)
#
#
# Indices 1 2 3 4 5 6 
#
# 1 91.0331 23.2358 50.2324 0.0000 -18.4996 0.0000
# 2 23.2358 78.1473 33.5444 0.0000 -5.4887 0.0000
# 3 50.2324 33.5444 126.8177 0.0000 -9.2081 0.0000
# 4 0.0000 0.0000 0.0000 19.8642 0.0000 -3.1640
# 5 -18.4996 -5.4887 -9.2081 0.0000 22.6367 0.0000
# 6 0.0000 0.0000 0.0000 -3.1640 0.0000 21.0429
#
#
#
# Elastic Compliance Matrix: (Units=1/GPa)
#
#
# Indices 1 2 3 4 5 6 
#
# 1 0.016614 -0.001903 -0.005281 0.000000 0.010968 0.000000
# 2 -0.001903 0.014742 -0.003090 0.000000 0.000762 0.000000
# 3 -0.005281 -0.003090 0.010744 0.000000 -0.000695 0.000000
# 4 0.000000 0.000000 0.000000 0.051577 0.000000 0.007755
# 5 0.010968 0.000762 -0.000695 0.000000 0.053042 0.000000
# 6 0.000000 0.000000 0.000000 0.007755 0.000000 0.048688
#
#
# Mechanical properties :
#
#
# Convention : Reuss Voigt Hill
#
# Bulk Modulus (GPa) = 46.39993 56.66927 51.53460
# Shear Modulus (GPa) = 22.40761 25.30779 23.85770
#
# Velocity S-wave (km/s) = 3.47065 3.68842 3.58119
# Velocity P-wave (km/s) = 6.40337 6.97153 6.69348
#
# Compressibility (1/GPa) = 0.02155176
#
# Stress axis : x y z
#
# Youngs Moduli (GPa) = 60.19179 67.83255 93.07383
#
# Poissons Ratio (x) = 0.12906 0.49152
# Poissons Ratio (y) = 0.11452 0.28764
# Poissons Ratio (z) = 0.31787 0.20963
#
# Static dielectric constant tensor:
#      x y z
#    x 3.282230 0.000000 0.142980 
#    y 0.000000 3.400110 0.000000 
#    z 0.142980 0.000000 3.254380 
# 
# 
# High freq. dielectric constant tensor:
#      x y z
#    x 1.712210 0.000000 0.012120 
#    y 0.000000 1.721390 0.000000 
#    z 0.012120 0.000000 1.711330 
# 
# From -- ./inp_files/280511.got.cif
#   From: 2010.06.25/outbox.cif.g09.slc.cpg/sg12_141_cif.got.tgz:280511.got - 2010.06.28 00:19:55.
