data_PCOD8087085
_publ_section_title
;
Structure prediction by ZEFSAII (Michael W. Deem and Ramdas Pophale) SiO2 
 PCOD8087085
Probable space group: C 2/M
;
_chemical_formula_sum "Si O2"
_cell_formula_units_Z 64
_cell_length_a 20.479435
_cell_length_b 9.189277
_cell_length_c 26.116584
_cell_angle_alpha 90.000000
_cell_angle_beta 46.842641
_cell_angle_gamma 90.000000
_cell_volume 3585.319098
_symmetry_space_group_name_H-M "C 2/M"
_symmetry_group_IT_number 12
_symmetry_cell_setting 'monoclinic'
loop_
_space_group_symop_operation_xyz
x,y,z
-x,y,-z
-x,-y,-z
x,-y,z
1/2+x,1/2+y,z
1/2-x,1/2+y,-z
1/2-x,1/2-y,-z
1/2+x,1/2-y,z
loop_
_atom_site_type_symbol
_atom_site_label
_atom_site_fract_x
_atom_site_fract_y
_atom_site_fract_z
Si Si1 0.426112 0.330559 0.669256
Si Si2 0.252364 0.667919 0.421558
Si Si3 0.224230 0.834068 0.171164
Si Si4 0.284125 0.167564 0.030355
Si Si5 0.111530 0.669067 0.585337
Si Si6 0.645245 0.668522 0.828615
Si Si7 0.792962 0.668931 0.668425
Si Si8 0.018016 0.671072 0.048238
O O1 0.443195 0.500000 0.648954
O O2 0.371477 0.306805 0.751248
O O3 0.518769 0.249225 0.626356
O O4 0.372102 0.264189 0.650362
O O5 0.282776 0.500000 0.404957
O O6 0.169180 0.693901 0.503526
O O7 0.337170 0.763197 0.393500
O O8 0.220693 0.718680 0.382595
O O9 0.298426 0.728095 0.153990
O O10 0.256987 0.000000 0.163153
O O11 0.217716 0.803356 0.114010
O O12 0.383000 0.223156 0.990773
O O13 0.286456 0.000000 0.014500
O O14 0.250000 0.250000 0.000000
O O15 0.093997 0.500000 0.605744
O O16 0.627325 0.500000 0.847385
O O17 0.699340 0.697686 0.747347
O O18 0.550447 0.749977 0.876396
O O19 0.821219 0.500000 0.657235
O O20 0.004865 0.500000 0.061634
O O21 0.000000 0.721084 0.000000
#
# Coordination Sequence:
#
# PCOD8087085 Si02
#       8
#     8   8   8   8   8   8   8   8
#     4  10  20  34  56  81 106 140 178 216 259 314
#     4   9  19  37  58  77 105 144 178 212 261 315
#     4   9  18  36  56  73 101 143 178 206 256 317
#     4  10  21  37  55  75 102 137 173 216 261 306
#     4  10  20  35  56  80 107 140 178 219 259 308
#     4  10  19  31  53  83 107 130 169 222 263 299
#     4   9  19  36  55  78 109 140 173 217 265 310
#     4  10  19  35  57  75 100 139 177 210 253 314
#
# _framework density 17.850573000000001
#
# number of rings (size 3 to 8) (size 9 to 14) (size 15 to 20)
#    0.000    2.375    1.250    1.125    0.000    3.750 
#    2.250    2.500    0.000    0.000    0.000    0.000 
#    0.000    0.000    0.000    0.000    0.000    0.000 
#
# Total GULP energy -396856.573872 kJ/mol
# GULP energy per Si atom -12401.767934 kJ/mol
# Density = 1.780994 g / cm^3
# Si number density = 17.850573 Si / 1000 Ang^3
#
#
#
# Elastic Constant Matrix: (Units=GPa)
#
#
# Indices 1 2 3 4 5 6 
#
# 1 147.4242 74.9425 78.4014 0.0000 2.7538 0.0000
# 2 74.9425 90.7426 55.4899 -0.0001 -5.5855 0.0000
# 3 78.4014 55.4899 92.0211 0.0000 3.4384 0.0000
# 4 0.0000 -0.0001 0.0000 30.1755 0.0000 -3.5521
# 5 2.7538 -5.5855 3.4384 0.0000 30.1147 0.0000
# 6 0.0000 0.0000 0.0000 -3.5521 0.0000 37.1981
#
#
#
# Elastic Compliance Matrix: (Units=1/GPa)
#
#
# Indices 1 2 3 4 5 6 
#
# 1 0.014962 -0.007470 -0.008175 0.000000 -0.001820 0.000000
# 2 -0.007470 0.021804 -0.006991 0.000000 0.005525 0.000000
# 3 -0.008175 -0.006991 0.022163 0.000000 -0.003079 0.000000
# 4 0.000000 0.000000 0.000000 0.033516 0.000000 0.003201
# 5 -0.001820 0.005525 -0.003079 0.000000 0.034749 0.000000
# 6 0.000000 0.000000 0.000000 0.003201 0.000000 0.027189
#
#
# Mechanical properties :
#
#
# Convention : Reuss Voigt Hill
#
# Bulk Modulus (GPa) = 73.21678 83.09507 78.15593
# Shear Modulus (GPa) = 24.48507 27.58794 26.03650
#
# Velocity S-wave (km/s) = 3.70762 3.93554 3.82328
# Velocity P-wave (km/s) = 7.70935 8.20382 7.96043
#
# Compressibility (1/GPa) = 0.01365807
#
# Stress axis : x y z
#
# Youngs Moduli (GPa) = 66.83639 45.86303 45.12081
#
# Poissons Ratio (x) = 0.34258 0.36887
# Poissons Ratio (y) = 0.49924 0.31542
# Poissons Ratio (z) = 0.54640 0.32061
#
# Static dielectric constant tensor:
#      x y z
#    x 3.233290 0.000000 -0.021230 
#    y 0.000000 3.362730 0.000000 
#    z -0.021230 0.000000 3.479700 
# 
# 
# High freq. dielectric constant tensor:
#      x y z
#    x 1.679720 0.000000 -0.004180 
#    y 0.000000 1.694670 0.000000 
#    z -0.004180 0.000000 1.695300 
# 
# From -- ./inp_files/346010.got.cif
#   From: 2010.06.25/outbox.cif.g09.slc.cpg/sg12_174_cif.got.tgz:346010.got - 2010.06.28 00:19:55.
