data_PCOD8087690
_publ_section_title
;
Structure prediction by ZEFSAII (Michael W. Deem and Ramdas Pophale) SiO2 
 PCOD8087690
Probable space group: C 2/M
;
_chemical_formula_sum "Si O2"
_cell_formula_units_Z 64
_cell_length_a 23.503284
_cell_length_b 8.800583
_cell_length_c 19.843259
_cell_angle_alpha 90.000000
_cell_angle_beta 58.578719
_cell_angle_gamma 90.000000
_cell_volume 3502.546111
_symmetry_space_group_name_H-M "C 2/M"
_symmetry_group_IT_number 12
_symmetry_cell_setting 'monoclinic'
loop_
_space_group_symop_operation_xyz
x,y,z
-x,y,-z
-x,-y,-z
x,-y,z
1/2+x,1/2+y,z
1/2-x,1/2+y,-z
1/2-x,1/2-y,-z
1/2+x,1/2-y,z
loop_
_atom_site_type_symbol
_atom_site_label
_atom_site_fract_x
_atom_site_fract_y
_atom_site_fract_z
Si Si1 0.556570 0.321734 0.766877
Si Si2 0.334920 0.681078 0.592006
Si Si3 0.458448 0.320128 0.713192
Si Si4 0.960490 0.675100 0.455395
Si Si5 0.195328 0.329560 0.834851
Si Si6 0.811444 0.668056 0.321057
Si Si7 0.669743 0.179885 0.258559
Si Si8 0.439406 0.319825 0.083695
O O1 0.557366 0.500000 0.767379
O O2 0.496473 0.264192 0.757170
O O3 0.627870 0.272095 0.691400
O O4 0.546912 0.259200 0.848803
O O5 0.344601 0.500000 0.588804
O O6 0.386298 0.759016 0.509466
O O7 0.261230 0.724640 0.609098
O O8 0.345739 0.744589 0.660154
O O9 0.446002 0.500000 0.720518
O O10 0.502852 0.276335 0.622062
O O11 0.388336 0.232182 0.756304
O O12 0.957317 0.500000 0.434133
O O13 0.000000 0.692670 0.500000
O O14 0.200966 0.500000 0.860535
O O15 0.192179 0.331603 0.756889
O O16 0.260244 0.233806 0.816744
O O17 0.128465 0.251001 0.904503
O O18 0.825982 0.500000 0.339654
O O19 0.669632 0.000000 0.267624
O O20 0.431697 0.500000 0.087158
O O21 0.500000 0.263652 0.000000
#
# Coordination Sequence:
#
# PCOD8087690 Si02
#       8
#     8   8   8   8   8   8   8   8
#     4   9  19  34  52  76 103 134 170 203 245 305
#     4  10  19  32  51  74  99 130 169 214 263 305
#     4  11  22  35  51  71 100 137 173 210 254 304
#     4  11  22  34  49  73 100 129 173 220 260 302
#     4   9  17  30  49  76 106 134 168 209 250 295
#     4   8  16  30  49  72  97 128 165 206 251 298
#     4  11  20  31  49  74 101 132 172 214 256 300
#     4   9  17  32  56  84 111 136 163 203 253 300
#
# _framework density 18.272421000000001
#
# number of rings (size 3 to 8) (size 9 to 14) (size 15 to 20)
#    0.000    2.250    1.250    3.375    0.000    5.250 
#    0.000    0.625    0.000    0.750    0.000    0.000 
#    0.000    0.000    0.000    0.000    0.000    0.000 
#
# Total GULP energy -396744.028289 kJ/mol
# GULP energy per Si atom -12398.250884 kJ/mol
# Density = 1.823083 g / cm^3
# Si number density = 18.272421 Si / 1000 Ang^3
#
#
#
# Elastic Constant Matrix: (Units=GPa)
#
#
# Indices 1 2 3 4 5 6 
#
# 1 120.6800 30.6608 45.7594 -0.0001 -24.3841 0.0005
# 2 30.6608 52.3954 18.6541 -0.0001 -6.7584 0.0029
# 3 45.7594 18.6541 70.9209 -0.0001 -27.5161 0.0002
# 4 -0.0001 -0.0001 -0.0001 18.5835 0.0001 -10.0201
# 5 -24.3841 -6.7584 -27.5161 0.0001 31.2999 0.0000
# 6 0.0005 0.0029 0.0002 -10.0201 0.0000 30.5059
#
#
#
# Elastic Compliance Matrix: (Units=1/GPa)
#
#
# Indices 1 2 3 4 5 6 
#
# 1 0.012255 -0.004847 -0.005060 0.000000 0.004053 0.000000
# 2 -0.004847 0.022980 -0.003728 -0.000001 -0.002092 -0.000002
# 3 -0.005060 -0.003728 0.025047 0.000000 0.017272 0.000000
# 4 0.000000 -0.000001 0.000000 0.065393 0.000000 0.021479
# 5 0.004053 -0.002092 0.017272 0.000000 0.049838 0.000000
# 6 0.000000 -0.000002 0.000000 0.021479 0.000000 0.039836
#
#
# Mechanical properties :
#
#
# Convention : Reuss Voigt Hill
#
# Bulk Modulus (GPa) = 30.29351 48.23832 39.26592
# Shear Modulus (GPa) = 19.71421 26.00598 22.86009
#
# Velocity S-wave (km/s) = 3.28823 3.77667 3.54089
# Velocity P-wave (km/s) = 5.57059 6.74348 6.18490
#
# Compressibility (1/GPa) = 0.03301037
#
# Stress axis : x y z
#
# Youngs Moduli (GPa) = 81.59614 43.51650 39.92493
#
# Poissons Ratio (x) = 0.21094 0.20203
# Poissons Ratio (y) = 0.39553 0.14886
# Poissons Ratio (z) = 0.41289 0.16225
#
# Static dielectric constant tensor:
#      x y z
#    x 3.685140 0.000000 -0.219860 
#    y 0.000000 3.421710 0.000000 
#    z -0.219860 0.000000 3.314800 
# 
# 
# High freq. dielectric constant tensor:
#      x y z
#    x 1.708370 0.000000 -0.030730 
#    y 0.000000 1.713930 0.000000 
#    z -0.030730 0.000000 1.673650 
# 
# From -- ./inp_files/319855.got.cif
#   From: 2010.06.25/outbox.cif.g09.slc.cpg/sg12_160_cif.got.tgz:319855.got - 2010.06.28 00:19:55.
