data_PCOD8087026
_publ_section_title
;
Structure prediction by ZEFSAII (Michael W. Deem and Ramdas Pophale) SiO2 
 PCOD8087026
Probable space group: C 2/M
;
_chemical_formula_sum "Si O2"
_cell_formula_units_Z 64
_cell_length_a 22.139755
_cell_length_b 8.845609
_cell_length_c 21.507541
_cell_angle_alpha 90.000000
_cell_angle_beta 129.577409
_cell_angle_gamma 90.000000
_cell_volume 3246.482143
_symmetry_space_group_name_H-M "C 2/M"
_symmetry_group_IT_number 12
_symmetry_cell_setting 'monoclinic'
loop_
_space_group_symop_operation_xyz
x,y,z
-x,y,-z
-x,-y,-z
x,-y,z
1/2+x,1/2+y,z
1/2-x,1/2+y,-z
1/2-x,1/2-y,-z
1/2+x,1/2-y,z
loop_
_atom_site_type_symbol
_atom_site_label
_atom_site_fract_x
_atom_site_fract_y
_atom_site_fract_z
Si Si1 0.458310 0.670868 0.646412
Si Si2 0.084492 0.674161 0.038263
Si Si3 0.749477 0.673504 0.665559
Si Si4 0.686794 0.178011 0.505093
Si Si5 0.113955 0.676402 0.786975
Si Si6 0.747631 0.823228 0.192487
Si Si7 0.093680 0.169141 0.247327
Si Si8 0.442474 0.827775 0.116555
O O1 0.465626 0.500000 0.626017
O O2 0.401078 0.764959 0.564361
O O3 0.544227 0.743614 0.703302
O O4 0.420260 0.674092 0.688773
O O5 0.077422 0.500000 0.052688
O O6 0.158689 0.741894 0.124986
O O7 0.104979 0.694637 0.978481
O O8 0.000000 0.750990 0.000000
O O9 0.736094 0.500000 0.637204
O O10 0.705008 0.781580 0.588437
O O11 0.720676 0.704478 0.716924
O O12 0.841227 0.708376 0.725607
O O13 0.750000 0.250000 0.500000
O O14 0.691403 0.000000 0.498773
O O15 0.106806 0.500000 0.769263
O O16 0.196861 0.735960 0.818384
O O17 0.110027 0.714476 0.858060
O O18 0.749014 0.000000 0.176389
O O19 0.016380 0.217367 0.160046
O O20 0.118388 0.000000 0.242977
O O21 0.472726 0.000000 0.143078
#
# Coordination Sequence:
#
# PCOD8087026 Si02
#       8
#     8   8   8   8   8   8   8   8
#     4  10  20  36  58  84 115 150 189 236 284 338
#     4   9  17  33  58  86 115 148 191 239 287 347
#     4  11  22  36  56  81 113 151 192 238 290 347
#     4  12  23  36  57  88 122 152 186 232 286 345
#     4  10  21  37  57  82 114 153 196 242 290 339
#     4  10  22  39  59  82 110 152 199 241 288 345
#     4  10  19  31  52  82 115 148 184 231 288 346
#     4   9  18  33  55  82 112 150 195 238 284 340
#
# _framework density 19.713645
#
# number of rings (size 3 to 8) (size 9 to 14) (size 15 to 20)
#    0.000    1.875    1.250    3.375    0.000    5.000 
#    0.000    1.250    0.000    5.250    0.000    0.000 
#    0.000    0.000    0.000    0.000    0.000    0.000 
#
# Total GULP energy -396781.384392 kJ/mol
# GULP energy per Si atom -12399.418262 kJ/mol
# Density = 1.966878 g / cm^3
# Si number density = 19.713645 Si / 1000 Ang^3
#
#
#
# Elastic Constant Matrix: (Units=GPa)
#
#
# Indices 1 2 3 4 5 6 
#
# 1 92.7676 30.3996 42.0263 0.0000 10.5304 0.0000
# 2 30.3996 89.1917 39.7317 0.0000 4.0451 0.0000
# 3 42.0263 39.7317 109.3098 0.0000 -0.1845 0.0000
# 4 0.0000 0.0000 0.0000 25.0176 0.0000 3.3173
# 5 10.5304 4.0451 -0.1845 0.0000 22.3170 0.0000
# 6 0.0000 0.0000 0.0000 3.3173 0.0000 30.4369
#
#
#
# Elastic Compliance Matrix: (Units=1/GPa)
#
#
# Indices 1 2 3 4 5 6 
#
# 1 0.014445 -0.002571 -0.004630 0.000000 -0.006388 0.000000
# 2 -0.002571 0.013973 -0.004092 0.000000 -0.001353 0.000000
# 3 -0.004630 -0.004092 0.012421 0.000000 0.003029 0.000000
# 4 0.000000 0.000000 0.000000 0.040558 0.000000 -0.004420
# 5 -0.006388 -0.001353 0.003029 0.000000 0.048094 0.000000
# 6 0.000000 0.000000 0.000000 -0.004420 0.000000 0.033337
#
#
# Mechanical properties :
#
#
# Convention : Reuss Voigt Hill
#
# Bulk Modulus (GPa) = 54.79020 57.28716 56.03868
# Shear Modulus (GPa) = 26.11006 27.49505 26.80256
#
# Velocity S-wave (km/s) = 3.64327 3.73865 3.69127
# Velocity P-wave (km/s) = 6.74917 6.91082 6.83047
#
# Compressibility (1/GPa) = 0.01825144
#
# Stress axis : x y z
#
# Youngs Moduli (GPa) = 69.22938 71.56877 80.50907
#
# Poissons Ratio (x) = 0.18401 0.37274
# Poissons Ratio (y) = 0.17800 0.32948
# Poissons Ratio (z) = 0.32052 0.29289
#
# Static dielectric constant tensor:
#      x y z
#    x 3.463420 0.000000 -0.011890 
#    y 0.000000 3.582970 0.000000 
#    z -0.011890 0.000000 3.702670 
# 
# 
# High freq. dielectric constant tensor:
#      x y z
#    x 1.750670 0.000000 -0.001740 
#    y 0.000000 1.760140 0.000000 
#    z -0.001740 0.000000 1.773280 
# 
# From -- ./inp_files/324333.got.cif
#   From: 2010.06.25/outbox.cif.g09.slc.cpg/sg12_163_cif.got.tgz:324333.got - 2010.06.28 00:19:55.
