data_PCOD8087058
_publ_section_title
;
Structure prediction by ZEFSAII (Michael W. Deem and Ramdas Pophale) SiO2 
 PCOD8087058
Probable space group: C 2/M
;
_chemical_formula_sum "Si O2"
_cell_formula_units_Z 64
_cell_length_a 30.334640
_cell_length_b 9.183797
_cell_length_c 14.730724
_cell_angle_alpha 90.000000
_cell_angle_beta 59.010795
_cell_angle_gamma 90.000000
_cell_volume 3518.033439
_symmetry_space_group_name_H-M "C 2/M"
_symmetry_group_IT_number 12
_symmetry_cell_setting 'monoclinic'
loop_
_space_group_symop_operation_xyz
x,y,z
-x,y,-z
-x,-y,-z
x,-y,z
1/2+x,1/2+y,z
1/2-x,1/2+y,-z
1/2-x,1/2-y,-z
1/2+x,1/2-y,z
loop_
_atom_site_type_symbol
_atom_site_label
_atom_site_fract_x
_atom_site_fract_y
_atom_site_fract_z
Si Si1 0.612862 0.827270 0.713752
Si Si2 0.173366 0.672839 0.826636
Si Si3 0.711066 0.670794 0.277112
Si Si4 0.628633 0.328935 0.514733
Si Si5 0.002026 0.672974 0.895643
Si Si6 0.942936 0.667515 0.538078
Si Si7 0.139991 0.668096 0.222186
Si Si8 0.894692 0.326365 0.935722
O O1 0.645936 0.773030 0.764407
O O2 0.637125 0.747378 0.601853
O O3 0.553942 0.776209 0.790398
O O4 0.616854 0.000000 0.695726
O O5 0.172502 0.500000 0.830039
O O6 0.231647 0.731304 0.767359
O O7 0.142443 0.734245 0.946025
O O8 0.710792 0.500000 0.258614
O O9 0.677871 0.710520 0.400981
O O10 0.688347 0.746078 0.211547
O O11 0.622078 0.500000 0.535132
O O12 0.577505 0.265845 0.522231
O O13 0.001183 0.500000 0.902669
O O14 0.952715 0.730867 0.891910
O O15 0.000000 0.736648 0.000000
O O16 0.942088 0.500000 0.506392
O O17 0.909894 0.690817 0.663202
O O18 0.000000 0.720275 0.500000
O O19 0.155896 0.500000 0.199123
O O20 0.126123 0.732925 0.138179
O O21 0.895188 0.500000 0.934224
#
# Coordination Sequence:
#
# PCOD8087058 Si02
#       8
#     8   8   8   8   8   8   8   8
#     4  10  19  31  53  80 102 127 167 211 249 293
#     4   9  17  31  51  76 100 128 167 209 251 294
#     4   9  19  36  53  68  97 136 171 207 246 293
#     4  10  21  35  49  69 101 139 171 202 247 298
#     4   9  15  26  47  77 106 127 154 202 256 299
#     4   9  18  32  51  75 100 128 166 211 251 290
#     4   9  18  31  49  75 103 128 160 204 252 295
#     4   9  16  27  47  77 106 127 155 202 254 300
#
# _framework density 18.191981999999999
#
# number of rings (size 3 to 8) (size 9 to 14) (size 15 to 20)
#    0.000    2.750    1.250    0.375    1.750    1.750 
#    0.000    0.625    0.000    1.125    0.000    0.000 
#    0.000    0.000    0.000    0.000    0.000    0.000 
#
# Total GULP energy -396801.362290 kJ/mol
# GULP energy per Si atom -12400.042572 kJ/mol
# Density = 1.815058 g / cm^3
# Si number density = 18.191982 Si / 1000 Ang^3
#
#
#
# Elastic Constant Matrix: (Units=GPa)
#
#
# Indices 1 2 3 4 5 6 
#
# 1 178.8259 37.0043 91.8087 0.0000 -0.3113 0.0000
# 2 37.0043 31.6173 31.3378 0.0000 5.0906 0.0000
# 3 91.8087 31.3378 106.5206 0.0000 18.6296 0.0000
# 4 0.0000 0.0000 0.0000 13.7245 0.0000 1.5160
# 5 -0.3113 5.0906 18.6296 0.0000 37.9421 0.0000
# 6 0.0000 0.0000 0.0000 1.5160 0.0000 22.4705
#
#
#
# Elastic Compliance Matrix: (Units=1/GPa)
#
#
# Indices 1 2 3 4 5 6 
#
# 1 0.011406 -0.004997 -0.009292 0.000000 0.005326 0.000000
# 2 -0.004997 0.046845 -0.009155 0.000000 -0.001831 0.000000
# 3 -0.009292 -0.009155 0.021757 0.000000 -0.009530 0.000000
# 4 0.000000 0.000000 0.000000 0.073409 0.000000 -0.004953
# 5 0.005326 -0.001831 -0.009530 0.000000 0.031325 0.000000
# 6 0.000000 0.000000 0.000000 -0.004953 0.000000 0.044837
#
#
# Mechanical properties :
#
#
# Convention : Reuss Voigt Hill
#
# Bulk Modulus (GPa) = 30.19277 70.80726 50.50001
# Shear Modulus (GPa) = 17.39097 25.28161 21.33629
#
# Velocity S-wave (km/s) = 3.09523 3.73193 3.42839
# Velocity P-wave (km/s) = 5.42279 7.58791 6.59481
#
# Compressibility (1/GPa) = 0.03312051
#
# Stress axis : x y z
#
# Youngs Moduli (GPa) = 87.67475 21.34698 45.96316
#
# Poissons Ratio (x) = 0.10667 0.42709
# Poissons Ratio (y) = 0.43810 0.42077
# Poissons Ratio (z) = 0.81467 0.19542
#
# Static dielectric constant tensor:
#      x y z
#    x 3.579440 0.000000 -0.010210 
#    y 0.000000 2.911970 0.000000 
#    z -0.010210 0.000000 3.438730 
# 
# 
# High freq. dielectric constant tensor:
#      x y z
#    x 1.715580 0.000000 0.002150 
#    y 0.000000 1.655160 0.000000 
#    z 0.002150 0.000000 1.710440 
# 
# From -- ./inp_files/249073.got.cif
#   From: 2010.06.25/outbox.cif.g09.slc.cpg/sg12_125_cif.got.tgz:249073.got - 2010.06.28 00:19:55.
