data_PCOD8087547
_publ_section_title
;
Structure prediction by ZEFSAII (Michael W. Deem and Ramdas Pophale) SiO2 
 PCOD8087547
Probable space group: C 2/M
;
_chemical_formula_sum "Si O2"
_cell_formula_units_Z 64
_cell_length_a 33.000305
_cell_length_b 9.383113
_cell_length_c 15.797211
_cell_angle_alpha 90.000000
_cell_angle_beta 139.740956
_cell_angle_gamma 90.000000
_cell_volume 3161.128447
_symmetry_space_group_name_H-M "C 2/M"
_symmetry_group_IT_number 12
_symmetry_cell_setting 'monoclinic'
loop_
_space_group_symop_operation_xyz
x,y,z
-x,y,-z
-x,-y,-z
x,-y,z
1/2+x,1/2+y,z
1/2-x,1/2+y,-z
1/2-x,1/2-y,-z
1/2+x,1/2-y,z
loop_
_atom_site_type_symbol
_atom_site_label
_atom_site_fract_x
_atom_site_fract_y
_atom_site_fract_z
Si Si1 0.442627 0.664606 0.343199
Si Si2 0.906292 0.840064 0.650217
Si Si3 0.004802 0.331966 0.725598
Si Si4 0.927645 0.157500 0.867545
Si Si5 0.737737 0.660508 0.565347
Si Si6 0.732089 0.161805 0.206571
Si Si7 0.295717 0.669501 0.140053
Si Si8 0.403124 0.160045 0.983115
O O1 0.500000 0.694694 0.500000
O O2 0.445473 0.500000 0.319699
O O3 0.454986 0.768732 0.285713
O O4 0.370839 0.701974 0.256749
O O5 0.917625 0.769867 0.760551
O O6 0.833507 0.844100 0.519214
O O7 0.937096 0.742783 0.625919
O O8 0.935331 0.000000 0.691778
O O9 0.997640 0.500000 0.700987
O O10 0.039829 0.289035 0.868072
O O11 0.893596 0.247572 0.884437
O O12 0.896743 0.000000 0.817410
O O13 0.000000 0.147683 0.000000
O O14 0.763123 0.500000 0.588497
O O15 0.750000 0.750000 0.500000
O O16 0.766767 0.732257 0.697014
O O17 0.774780 0.227305 0.199892
O O18 0.659883 0.171163 0.060930
O O19 0.754627 0.000000 0.255969
O O20 0.283304 0.500000 0.110158
O O21 0.250000 0.750000 0.000000
O O22 0.415047 0.000000 0.970795
#
# Coordination Sequence:
#
# PCOD8087547 Si02
#       8
#     8   8   8   8   8   8   8   8
#     4  10  23  41  65  92 117 154 202 249 298 361
#     4  10  21  36  56  81 113 153 195 238 287 348
#     4  11  23  37  57  86 117 151 188 239 300 353
#     4  10  19  32  50  77 112 150 187 233 285 330
#     4  10  21  37  59  83 113 153 194 240 290 341
#     4   9  19  36  59  84 111 150 193 233 283 345
#     4  10  21  40  65  92 123 158 201 250 304 364
#     4  10  20  34  54  81 113 149 190 232 280 343
#
# _framework density 20.245934999999999
#
# number of rings (size 3 to 8) (size 9 to 14) (size 15 to 20)
#    0.000    2.000    1.250    1.875    1.750    3.500 
#    0.000    1.250    0.000    0.000    0.000    0.000 
#    0.000    0.000    0.000    0.000    0.000    0.000 
#
# Total GULP energy -396465.393020 kJ/mol
# GULP energy per Si atom -12389.543532 kJ/mol
# Density = 2.019985 g / cm^3
# Si number density = 20.245935 Si / 1000 Ang^3
#
#
#
# Elastic Constant Matrix: (Units=GPa)
#
#
# Indices 1 2 3 4 5 6 
#
# 1 137.1216 56.4397 39.6179 0.0000 -6.6936 0.0000
# 2 56.4397 73.7910 29.6273 0.0000 -7.9457 0.0000
# 3 39.6179 29.6273 82.1568 0.0000 4.2464 0.0000
# 4 0.0000 0.0000 0.0000 22.2509 0.0000 -2.3591
# 5 -6.6936 -7.9457 4.2464 0.0000 34.0443 0.0000
# 6 0.0000 0.0000 0.0000 -2.3591 0.0000 48.7188
#
#
#
# Elastic Compliance Matrix: (Units=1/GPa)
#
#
# Indices 1 2 3 4 5 6 
#
# 1 0.011151 -0.007324 -0.002779 0.000000 0.000830 0.000000
# 2 -0.007324 0.021352 -0.004380 0.000000 0.004090 0.000000
# 3 -0.002779 -0.004380 0.015271 0.000000 -0.003473 0.000000
# 4 0.000000 0.000000 0.000000 0.045174 0.000000 0.002187
# 5 0.000830 0.004090 -0.003473 0.000000 0.030924 0.000000
# 6 0.000000 0.000000 0.000000 0.002187 0.000000 0.020632
#
#
# Mechanical properties :
#
#
# Convention : Reuss Voigt Hill
#
# Bulk Modulus (GPa) = 53.16586 60.49323 56.82955
# Shear Modulus (GPa) = 27.81824 32.16176 29.99000
#
# Velocity S-wave (km/s) = 3.71079 3.98999 3.85292
# Velocity P-wave (km/s) = 6.68409 7.15337 6.92271
#
# Compressibility (1/GPa) = 0.01880906
#
# Stress axis : x y z
#
# Youngs Moduli (GPa) = 89.68124 46.83370 65.48402
#
# Poissons Ratio (x) = 0.34299 0.18198
# Poissons Ratio (y) = 0.65678 0.28681
# Poissons Ratio (z) = 0.24922 0.20512
#
# Static dielectric constant tensor:
#      x y z
#    x 3.724320 0.000000 0.083310 
#    y 0.000000 3.636370 0.000000 
#    z 0.083310 0.000000 4.089970 
# 
# 
# High freq. dielectric constant tensor:
#      x y z
#    x 1.798430 0.000000 0.006800 
#    y 0.000000 1.765240 0.000000 
#    z 0.006800 0.000000 1.798650 
# 
# From -- ./inp_files/249995.got.cif
#   From: 2010.06.25/outbox.cif.g09.slc.cpg/sg12_125_cif.got.tgz:249995.got - 2010.06.28 00:19:55.
