data_PCOD8087742
_publ_section_title
;
Structure prediction by ZEFSAII (Michael W. Deem and Ramdas Pophale) SiO2 
 PCOD8087742
Probable space group: C 2/M
;
_chemical_formula_sum "Si O2"
_cell_formula_units_Z 56
_cell_length_a 29.570323
_cell_length_b 9.115231
_cell_length_c 16.700778
_cell_angle_alpha 90.000000
_cell_angle_beta 41.394723
_cell_angle_gamma 90.000000
_cell_volume 2976.606264
_symmetry_space_group_name_H-M "C 2/M"
_symmetry_group_IT_number 12
_symmetry_cell_setting 'monoclinic'
loop_
_space_group_symop_operation_xyz
x,y,z
-x,y,-z
-x,-y,-z
x,-y,z
1/2+x,1/2+y,z
1/2-x,1/2+y,-z
1/2-x,1/2-y,-z
1/2+x,1/2-y,z
loop_
_atom_site_type_symbol
_atom_site_label
_atom_site_fract_x
_atom_site_fract_y
_atom_site_fract_z
Si Si1 0.052350 0.167831 0.053227
Si Si2 0.707948 0.674356 0.292284
Si Si3 0.591605 0.674944 0.562669
Si Si4 0.194432 0.825448 0.129080
Si Si5 0.106808 0.832465 0.721444
Si Si6 0.154476 0.326444 0.806003
Si Si7 0.941350 0.173881 0.775949
O O1 0.072593 0.226376 0.114733
O O2 0.971653 0.181121 0.147172
O O3 0.076268 0.000000 0.008935
O O4 0.088738 0.269894 0.940704
O O5 0.705009 0.500000 0.297221
O O6 0.643330 0.738507 0.427523
O O7 0.704442 0.731574 0.206075
O O8 0.777404 0.731524 0.240442
O O9 0.590845 0.500000 0.562211
O O10 0.615786 0.725845 0.618816
O O11 0.514696 0.734824 0.647221
O O12 0.119319 0.772044 0.200883
O O13 0.202252 0.000000 0.111598
O O14 0.250000 0.750000 0.000000
O O15 0.153946 0.734497 0.716376
O O16 0.131395 0.000000 0.695794
O O17 0.152662 0.500000 0.804971
O O18 0.946053 0.000000 0.771266
#
# Coordination Sequence:
#
# PCOD8087742 Si02
#       7
#     8   8   8   8   8   8   8
#     4   9  17  31  49  70  95 121 156 199 238 278
#     4   9  19  32  46  69 101 129 153 191 239 282
#     4   8  15  31  51  71  95 121 155 200 243 275
#     4  10  19  32  51  76 102 126 155 189 231 283
#     4   9  18  32  51  70  89 121 162 200 238 279
#     4  11  21  30  43  68 100 130 158 190 234 284
#     4   8  15  28  50  75  94 119 158 200 234 273
#
# _framework density 18.813371
#
# number of rings (size 3 to 8) (size 9 to 14) (size 15 to 20)
#    0.000    2.857    0.000    3.429    0.000    3.429 
#    0.000    3.571    0.000    2.571    0.000    1.000 
#    0.000    0.000    0.000    0.000    0.000    0.000 
#
# Total GULP energy -347131.275514 kJ/mol
# GULP energy per Si atom -12397.545554 kJ/mol
# Density = 1.877055 g / cm^3
# Si number density = 18.813371 Si / 1000 Ang^3
#
#
#
# Elastic Constant Matrix: (Units=GPa)
#
#
# Indices 1 2 3 4 5 6 
#
# 1 162.8903 33.5280 67.8200 0.0000 9.8426 0.0000
# 2 33.5280 34.1438 24.9677 -0.0007 0.8266 0.0005
# 3 67.8200 24.9677 129.6329 -0.0001 17.3375 0.0001
# 4 0.0000 -0.0007 -0.0001 17.3292 0.0000 0.2828
# 5 9.8426 0.8266 17.3375 0.0000 20.9826 0.0000
# 6 0.0000 0.0005 0.0001 0.2828 0.0000 22.1501
#
#
#
# Elastic Compliance Matrix: (Units=1/GPa)
#
#
# Indices 1 2 3 4 5 6 
#
# 1 0.008866 -0.006290 -0.003265 0.000000 -0.001214 0.000000
# 2 -0.006290 0.038948 -0.004947 0.000001 0.005504 -0.000001
# 3 -0.003265 -0.004947 0.011404 0.000000 -0.007697 0.000000
# 4 0.000000 0.000001 0.000000 0.057718 0.000000 -0.000737
# 5 -0.001214 0.005504 -0.007697 0.000000 0.054371 0.000000
# 6 0.000000 -0.000001 0.000000 -0.000737 0.000000 0.045156
#
#
# Mechanical properties :
#
#
# Convention : Reuss Voigt Hill
#
# Bulk Modulus (GPa) = 33.09514 64.36651 48.73082
# Shear Modulus (GPa) = 19.56645 25.44913 22.50779
#
# Velocity S-wave (km/s) = 3.22845 3.68192 3.46261
# Velocity P-wave (km/s) = 5.61486 7.23621 6.47647
#
# Compressibility (1/GPa) = 0.03021592
#
# Stress axis : x y z
#
# Youngs Moduli (GPa) = 112.78524 25.67494 87.68518
#
# Poissons Ratio (x) = 0.16149 0.28629
# Poissons Ratio (y) = 0.70938 0.43379
# Poissons Ratio (z) = 0.36824 0.12702
#
# Static dielectric constant tensor:
#      x y z
#    x 3.841320 0.000000 -0.072720 
#    y 0.000000 2.950630 0.000000 
#    z -0.072720 0.000000 3.624170 
# 
# 
# High freq. dielectric constant tensor:
#      x y z
#    x 1.743550 0.000000 0.002270 
#    y 0.000000 1.676530 0.000000 
#    z 0.002270 0.000000 1.732580 
# 
# From -- ./inp_files/295069.got.cif
#   From: 2010.06.25/outbox.cif.g09.slc.cpg/sg12_148_cif.got.tgz:295069.got - 2010.06.28 00:19:55.
