data_PCOD8087160
_publ_section_title
;
Structure prediction by ZEFSAII (Michael W. Deem and Ramdas Pophale) SiO2 
 PCOD8087160
Probable space group: C 2/M
;
_chemical_formula_sum "Si O2"
_cell_formula_units_Z 64
_cell_length_a 19.763391
_cell_length_b 8.992989
_cell_length_c 25.248801
_cell_angle_alpha 90.000000
_cell_angle_beta 51.718792
_cell_angle_gamma 90.000000
_cell_volume 3522.610762
_symmetry_space_group_name_H-M "C 2/M"
_symmetry_group_IT_number 12
_symmetry_cell_setting 'monoclinic'
loop_
_space_group_symop_operation_xyz
x,y,z
-x,y,-z
-x,-y,-z
x,-y,z
1/2+x,1/2+y,z
1/2-x,1/2+y,-z
1/2-x,1/2-y,-z
1/2+x,1/2-y,z
loop_
_atom_site_type_symbol
_atom_site_label
_atom_site_fract_x
_atom_site_fract_y
_atom_site_fract_z
Si Si1 0.997268 0.830060 0.174805
Si Si2 0.189015 0.172710 0.071101
Si Si3 0.420928 0.824730 0.575462
Si Si4 0.071037 0.672811 0.691104
Si Si5 0.451495 0.326601 0.672315
Si Si6 0.321396 0.671351 0.209629
Si Si7 0.250155 0.826318 0.346575
Si Si8 0.215985 0.173168 0.177458
O O1 0.979992 0.721997 0.231981
O O2 0.924530 0.809199 0.165154
O O3 0.089629 0.790868 0.104709
O O4 0.997731 0.000000 0.196459
O O5 0.208508 0.229472 0.120916
O O6 0.208037 0.000000 0.058067
O O7 0.250000 0.250000 0.000000
O O8 0.500000 0.779625 0.500000
O O9 0.434939 0.758256 0.626334
O O10 0.335137 0.755088 0.590597
O O11 0.409727 0.000000 0.585442
O O12 0.052812 0.500000 0.690254
O O13 0.172742 0.704610 0.649581
O O14 0.039388 0.765013 0.655726
O O15 0.462156 0.500000 0.655271
O O16 0.373846 0.292650 0.750056
O O17 0.294104 0.500000 0.228386
O O18 0.272075 0.763659 0.278205
O O19 0.293525 0.734425 0.166322
O O20 0.231664 0.000000 0.348666
O O21 0.238851 0.000000 0.169633
#
# Coordination Sequence:
#
# PCOD8087160 Si02
#       8
#     8   8   8   8   8   8   8   8
#     4   9  18  35  54  77 111 147 182 225 278 329
#     4  10  21  38  56  77 109 146 184 225 274 330
#     4  11  24  40  58  83 115 148 185 231 277 327
#     4  10  20  33  55  86 115 142 184 235 274 322
#     4  11  21  36  59  84 113 148 186 228 278 331
#     4  10  19  31  55  84 109 141 183 230 275 323
#     4  10  20  35  55  82 115 149 183 225 278 330
#     4  10  20  35  55  80 112 144 179 229 278 325
#
# _framework density 18.168344000000001
#
# number of rings (size 3 to 8) (size 9 to 14) (size 15 to 20)
#    0.000    1.875    2.500    1.875    0.000    4.500 
#    0.000    1.250    0.000    3.750    0.000    0.000 
#    0.000    0.000    0.000    0.000    0.000    0.000 
#
# Total GULP energy -396877.254868 kJ/mol
# GULP energy per Si atom -12402.414215 kJ/mol
# Density = 1.812699 g / cm^3
# Si number density = 18.168344 Si / 1000 Ang^3
#
#
#
# Elastic Constant Matrix: (Units=GPa)
#
#
# Indices 1 2 3 4 5 6 
#
# 1 107.0080 40.7779 28.1143 0.0000 -16.6521 0.0003
# 2 40.7779 70.5280 31.1338 -0.0001 -11.6744 0.0008
# 3 28.1143 31.1338 71.8771 0.0000 -17.6645 -0.0002
# 4 0.0000 -0.0001 0.0000 28.0348 0.0000 -0.4175
# 5 -16.6521 -11.6744 -17.6645 0.0000 25.0386 0.0000
# 6 0.0003 0.0008 -0.0002 -0.4175 0.0000 35.3807
#
#
#
# Elastic Compliance Matrix: (Units=1/GPa)
#
#
# Indices 1 2 3 4 5 6 
#
# 1 0.012699 -0.006028 -0.001175 0.000000 0.004806 0.000000
# 2 -0.006028 0.020636 -0.006292 0.000000 0.001173 0.000000
# 3 -0.001175 -0.006292 0.019579 0.000000 0.010098 0.000000
# 4 0.000000 0.000000 0.000000 0.035676 0.000000 0.000421
# 5 0.004806 0.001173 0.010098 0.000000 0.050806 0.000000
# 6 0.000000 0.000000 0.000000 0.000421 0.000000 0.028269
#
#
# Mechanical properties :
#
#
# Convention : Reuss Voigt Hill
#
# Bulk Modulus (GPa) = 38.57480 49.94057 44.25769
# Shear Modulus (GPa) = 24.59461 27.64996 26.12228
#
# Velocity S-wave (km/s) = 3.68327 3.90535 3.79594
# Velocity P-wave (km/s) = 6.27428 6.91976 6.60491
#
# Compressibility (1/GPa) = 0.02592366
#
# Stress axis : x y z
#
# Youngs Moduli (GPa) = 78.74770 48.45903 51.07420
#
# Poissons Ratio (x) = 0.29211 0.06001
# Poissons Ratio (y) = 0.47469 0.32137
# Poissons Ratio (z) = 0.09252 0.30492
#
# Static dielectric constant tensor:
#      x y z
#    x 3.711300 0.000000 -0.117780 
#    y 0.000000 3.422800 0.000000 
#    z -0.117780 0.000000 3.140200 
# 
# 
# High freq. dielectric constant tensor:
#      x y z
#    x 1.721520 0.000000 -0.007090 
#    y 0.000000 1.713430 0.000000 
#    z -0.007090 0.000000 1.670050 
# 
# From -- ./inp_files/346006.got.cif
#   From: 2010.06.25/outbox.cif.g09.slc.cpg/sg12_174_cif.got.tgz:346006.got - 2010.06.28 00:19:55.
