data_PCOD8087042
_publ_section_title
;
Structure prediction by ZEFSAII (Michael W. Deem and Ramdas Pophale) SiO2 
 PCOD8087042
Probable space group: C 2/M
;
_chemical_formula_sum "Si O2"
_cell_formula_units_Z 56
_cell_length_a 29.438339
_cell_length_b 9.186517
_cell_length_c 20.367787
_cell_angle_alpha 90.000000
_cell_angle_beta 147.605051
_cell_angle_gamma 90.000000
_cell_volume 2951.019794
_symmetry_space_group_name_H-M "C 2/M"
_symmetry_group_IT_number 12
_symmetry_cell_setting 'monoclinic'
loop_
_space_group_symop_operation_xyz
x,y,z
-x,y,-z
-x,-y,-z
x,-y,z
1/2+x,1/2+y,z
1/2-x,1/2+y,-z
1/2-x,1/2-y,-z
1/2+x,1/2-y,z
loop_
_atom_site_type_symbol
_atom_site_label
_atom_site_fract_x
_atom_site_fract_y
_atom_site_fract_z
Si Si1 0.916911 0.828060 0.863167
Si Si2 0.604916 0.333165 0.445411
Si Si3 0.465406 0.331150 0.779692
Si Si4 0.625754 0.829687 0.928293
Si Si5 0.263270 0.172807 0.308819
Si Si6 0.083091 0.167609 0.749014
Si Si7 0.706953 0.667511 0.787298
O O1 0.916453 0.784369 0.785892
O O2 0.831642 0.767327 0.792934
O O3 0.918343 0.000000 0.873264
O O4 0.000000 0.760444 0.000000
O O5 0.631656 0.500000 0.490237
O O6 0.595219 0.300034 0.356133
O O7 0.676719 0.227271 0.559662
O O8 0.516829 0.298023 0.375084
O O9 0.492177 0.500000 0.814138
O O10 0.551317 0.239997 0.880444
O O11 0.629871 0.764139 0.860497
O O12 0.609322 0.000000 0.902341
O O13 0.713205 0.792505 0.070556
O O14 0.296408 0.232568 0.280442
O O15 0.266078 0.000000 0.311058
O O16 0.122189 0.200887 0.725508
O O17 0.098382 0.000000 0.787787
O O18 0.709849 0.500000 0.768142
#
# Coordination Sequence:
#
# PCOD8087042 Si02
#       7
#     8   8   8   8   8   8   8
#     4   9  18  34  56  81 106 134 173 216 257 311
#     4   9  19  36  55  75 102 138 179 219 259 310
#     4   9  18  35  58  78 103 145 184 210 251 317
#     4  10  19  31  52  84 114 135 166 221 274 307
#     4  11  23  36  54  79 105 136 176 224 269 307
#     4   9  19  36  57  77 102 144 185 211 250 317
#     4  10  21  36  53  76 108 144 179 215 261 316
#
# _framework density 18.976492
#
# number of rings (size 3 to 8) (size 9 to 14) (size 15 to 20)
#    0.000    2.429    0.000    3.000    0.000    6.286 
#    0.000    4.286    0.000    3.857    0.000    0.000 
#    0.000    0.000    0.000    0.000    0.000    0.000 
#
# Total GULP energy -347249.325039 kJ/mol
# GULP energy per Si atom -12401.761609 kJ/mol
# Density = 1.893330 g / cm^3
# Si number density = 18.976492 Si / 1000 Ang^3
#
#
#
# Elastic Constant Matrix: (Units=GPa)
#
#
# Indices 1 2 3 4 5 6 
#
# 1 128.1183 30.0538 56.0290 0.0000 -8.8444 0.0000
# 2 30.0538 57.0345 40.8025 0.0000 -6.8922 0.0000
# 3 56.0290 40.8025 111.6595 0.0000 -4.6788 0.0000
# 4 0.0000 0.0000 0.0000 32.1915 0.0000 -2.1416
# 5 -8.8444 -6.8922 -4.6788 0.0000 17.4035 0.0000
# 6 0.0000 0.0000 0.0000 -2.1416 0.0000 25.6741
#
#
#
# Elastic Compliance Matrix: (Units=1/GPa)
#
#
# Indices 1 2 3 4 5 6 
#
# 1 0.010404 -0.001955 -0.004366 0.000000 0.003339 0.000000
# 2 -0.001955 0.025020 -0.007877 0.000000 0.006797 0.000000
# 3 -0.004366 -0.007877 0.013959 0.000000 -0.001586 0.000000
# 4 0.000000 0.000000 0.000000 0.031237 0.000000 0.002606
# 5 0.003339 0.006797 -0.001586 0.000000 0.061422 0.000000
# 6 0.000000 0.000000 0.000000 0.002606 0.000000 0.039167
#
#
# Mechanical properties :
#
#
# Convention : Reuss Voigt Hill
#
# Bulk Modulus (GPa) = 47.65068 61.17589 54.41329
# Shear Modulus (GPa) = 23.08394 26.38228 24.73311
#
# Velocity S-wave (km/s) = 3.49155 3.73267 3.61412
# Velocity P-wave (km/s) = 6.43579 7.13336 6.79353
#
# Compressibility (1/GPa) = 0.02098606
#
# Stress axis : x y z
#
# Youngs Moduli (GPa) = 96.11837 39.96799 71.64059
#
# Poissons Ratio (x) = 0.07815 0.31279
# Poissons Ratio (y) = 0.18793 0.56430
# Poissons Ratio (z) = 0.41966 0.31482
#
# Static dielectric constant tensor:
#      x y z
#    x 3.715490 0.000000 0.066280 
#    y 0.000000 3.296830 0.000000 
#    z 0.066280 0.000000 3.438120 
# 
# 
# High freq. dielectric constant tensor:
#      x y z
#    x 1.746950 0.000000 -0.000630 
#    y 0.000000 1.720110 0.000000 
#    z -0.000630 0.000000 1.735270 
# 
# From -- ./inp_files/238266.got.cif
#   From: 2010.06.25/outbox.cif.g09.slc.cpg/sg12_120_cif.got.tgz:238266.got - 2010.06.28 00:19:55.
