data_PCOD8087398
_publ_section_title
;
Structure prediction by ZEFSAII (Michael W. Deem and Ramdas Pophale) SiO2 
 PCOD8087398
Probable space group: C 2/M
;
_chemical_formula_sum "Si O2"
_cell_formula_units_Z 64
_cell_length_a 28.438357
_cell_length_b 8.832751
_cell_length_c 15.517957
_cell_angle_alpha 90.000000
_cell_angle_beta 91.041292
_cell_angle_gamma 90.000000
_cell_volume 3897.295242
_symmetry_space_group_name_H-M "C 2/M"
_symmetry_group_IT_number 12
_symmetry_cell_setting 'monoclinic'
loop_
_space_group_symop_operation_xyz
x,y,z
-x,y,-z
-x,-y,-z
x,-y,z
1/2+x,1/2+y,z
1/2-x,1/2+y,-z
1/2-x,1/2-y,-z
1/2+x,1/2-y,z
loop_
_atom_site_type_symbol
_atom_site_label
_atom_site_fract_x
_atom_site_fract_y
_atom_site_fract_z
Si Si1 0.200132 0.172999 0.582040
Si Si2 0.054387 0.676791 0.498390
Si Si3 0.603936 0.326245 0.657015
Si Si4 0.449035 0.322441 0.175447
Si Si5 0.055632 0.832902 0.011253
Si Si6 0.105527 0.821812 0.338859
Si Si7 0.804775 0.325047 0.597181
Si Si8 0.049584 0.677566 0.182884
O O1 0.160171 0.197986 0.652754
O O2 0.188954 0.283269 0.502713
O O3 0.251130 0.209676 0.624829
O O4 0.199758 0.000000 0.547359
O O5 0.061256 0.500000 0.480330
O O6 0.077066 0.718684 0.590160
O O7 0.079165 0.768432 0.423600
O O8 0.000000 0.722361 0.500000
O O9 0.590404 0.500000 0.635808
O O10 0.588895 0.281586 0.752977
O O11 0.461862 0.500000 0.174327
O O12 0.496690 0.233022 0.196507
O O13 0.426123 0.275728 0.082068
O O14 0.069426 0.719895 0.088605
O O15 0.075788 0.000000 0.033662
O O16 0.000000 0.841263 0.000000
O O17 0.160157 0.773199 0.343490
O O18 0.083135 0.751142 0.253788
O O19 0.101575 0.000000 0.332582
O O20 0.818021 0.500000 0.609107
O O21 0.051038 0.500000 0.194676
#
# Coordination Sequence:
#
# PCOD8087398 Si02
#       8
#     8   8   8   8   8   8   8   8
#     4   9  18  32  50  72  96 125 159 198 242 289
#     4  11  23  35  46  66  97 130 163 199 237 277
#     4  10  19  32  50  72  96 128 165 194 230 283
#     4   9  18  32  50  72 100 132 164 196 232 281
#     4   8  15  30  49  69  95 127 161 197 237 281
#     4  12  23  35  50  68  93 128 167 200 240 291
#     4  10  19  32  50  71  96 123 158 203 247 283
#     4  11  21  32  48  71  98 127 162 203 245 285
#
# _framework density 16.421645999999999
#
# number of rings (size 3 to 8) (size 9 to 14) (size 15 to 20)
#    0.000    2.000    1.250    4.500    0.000    6.250 
#    0.000    0.000    0.000    0.000    0.000    0.875 
#    0.000    0.000    0.000    0.000    0.000    0.000 
#
# Total GULP energy -396769.308002 kJ/mol
# GULP energy per Si atom -12399.040875 kJ/mol
# Density = 1.638427 g / cm^3
# Si number density = 16.421646 Si / 1000 Ang^3
#
#
#
# Elastic Constant Matrix: (Units=GPa)
#
#
# Indices 1 2 3 4 5 6 
#
# 1 106.1051 42.7469 60.4485 0.0000 -4.7056 0.0000
# 2 42.7469 90.7275 46.4768 0.0000 1.6215 0.0000
# 3 60.4485 46.4768 112.7967 0.0000 -15.8390 0.0000
# 4 0.0000 0.0000 0.0000 17.6904 0.0000 7.9081
# 5 -4.7056 1.6215 -15.8390 0.0000 11.3954 0.0000
# 6 0.0000 0.0000 0.0000 7.9081 0.0000 15.7362
#
#
#
# Elastic Compliance Matrix: (Units=1/GPa)
#
#
# Indices 1 2 3 4 5 6 
#
# 1 0.014516 -0.003267 -0.006866 0.000000 -0.003085 0.000000
# 2 -0.003267 0.016278 -0.006798 0.000000 -0.013114 0.000000
# 3 -0.006866 -0.006798 0.018742 0.000000 0.024182 0.000000
# 4 0.000000 0.000000 0.000000 0.072906 0.000000 -0.036638
# 5 -0.003085 -0.013114 0.024182 0.000000 0.121958 0.000000
# 6 0.000000 0.000000 0.000000 -0.036638 0.000000 0.081960
#
#
# Mechanical properties :
#
#
# Convention : Reuss Voigt Hill
#
# Bulk Modulus (GPa) = 63.80125 67.66374 65.73250
# Shear Modulus (GPa) = 13.68190 19.62821 16.65506
#
# Velocity S-wave (km/s) = 2.88959 3.46101 3.18813
# Velocity P-wave (km/s) = 7.07596 7.56736 7.32578
#
# Compressibility (1/GPa) = 0.01567367
#
# Stress axis : x y z
#
# Youngs Moduli (GPa) = 68.89176 61.43312 53.35666
#
# Poissons Ratio (x) = 0.20068 0.36635
# Poissons Ratio (y) = 0.22505 0.36272
# Poissons Ratio (z) = 0.47302 0.41762
#
# Static dielectric constant tensor:
#      x y z
#    x 3.187640 0.000000 -0.121850 
#    y 0.000000 3.166500 0.000000 
#    z -0.121850 0.000000 3.360130 
# 
# 
# High freq. dielectric constant tensor:
#      x y z
#    x 1.615270 0.000000 -0.003900 
#    y 0.000000 1.639230 0.000000 
#    z -0.003900 0.000000 1.619440 
# 
# From -- ./inp_files/244167.got.cif
#   From: 2010.06.25/outbox.cif.g09.slc.cpg/sg12_123_cif.got.tgz:244167.got - 2010.06.28 00:19:55.
