data_PCOD8087964
_publ_section_title
;
Structure prediction by ZEFSAII (Michael W. Deem and Ramdas Pophale) SiO2 
 PCOD8087964
Probable space group: C 2/M
;
_chemical_formula_sum "Si O2"
_cell_formula_units_Z 64
_cell_length_a 12.844709
_cell_length_b 13.680715
_cell_length_c 22.399440
_cell_angle_alpha 90.000000
_cell_angle_beta 112.878670
_cell_angle_gamma 90.000000
_cell_volume 3626.482075
_symmetry_space_group_name_H-M "C 2/M"
_symmetry_group_IT_number 12
_symmetry_cell_setting 'monoclinic'
loop_
_space_group_symop_operation_xyz
x,y,z
-x,y,-z
-x,-y,-z
x,-y,z
1/2+x,1/2+y,z
1/2-x,1/2+y,-z
1/2-x,1/2-y,-z
1/2+x,1/2-y,z
loop_
_atom_site_type_symbol
_atom_site_label
_atom_site_fract_x
_atom_site_fract_y
_atom_site_fract_z
Si Si1 0.970957 0.886917 0.258210
Si Si2 0.263514 0.278488 0.171060
Si Si3 0.029452 0.110177 0.605734
Si Si4 0.773907 0.211776 0.409300
Si Si5 0.054626 0.387210 0.074955
Si Si6 0.631278 0.775128 0.261803
Si Si7 0.574167 0.113645 0.834754
Si Si8 0.233107 0.110061 0.473013
O O1 0.861183 0.860189 0.194924
O O2 0.954581 0.854127 0.322922
O O3 0.079002 0.832109 0.256161
O O4 0.998409 0.000000 0.258841
O O5 0.163040 0.317367 0.106800
O O6 0.219786 0.265160 0.228279
O O7 0.314745 0.177230 0.156658
O O8 0.099694 0.179525 0.578001
O O9 0.901511 0.116331 0.556579
O O10 0.076016 0.000000 0.609526
O O11 0.693418 0.191116 0.335494
O O12 0.723099 0.151104 0.453842
O O13 0.780452 0.326003 0.428631
O O14 0.094626 0.500000 0.086390
O O15 0.959613 0.367710 0.103913
O O16 0.000000 0.359670 0.000000
O O17 0.533487 0.855297 0.229078
O O18 0.602205 0.000000 0.829042
O O19 0.276577 0.000000 0.473285
#
# Coordination Sequence:
#
# PCOD8087964 Si02
#       8
#     8   8   8   8   8   8   8   8
#     4  10  19  32  52  76 101 128 166 212 253 301
#     4  10  19  34  54  78 107 138 172 208 255 305
#     4  10  19  33  53  74  94 123 165 208 253 304
#     4  11  20  33  55  74  99 130 170 216 259 312
#     4   9  18  34  56  81 108 139 175 213 252 295
#     4  10  20  33  51  75 102 133 169 211 259 307
#     4   9  20  35  51  76 109 140 172 211 251 300
#     4  10  22  37  52  73  99 131 170 214 262 312
#
# _framework density 17.647957000000002
#
# number of rings (size 3 to 8) (size 9 to 14) (size 15 to 20)
#    0.000    2.125    2.500    1.125    0.000    3.500 
#    0.000    0.000    0.000    7.125    0.000    0.000 
#    0.000    0.000    0.000    0.000    0.000    0.000 
#
# Total GULP energy -396827.905266 kJ/mol
# GULP energy per Si atom -12400.872040 kJ/mol
# Density = 1.760779 g / cm^3
# Si number density = 17.647957 Si / 1000 Ang^3
#
#
#
# Elastic Constant Matrix: (Units=GPa)
#
#
# Indices 1 2 3 4 5 6 
#
# 1 73.8811 44.5541 30.3048 0.0000 4.1008 0.0000
# 2 44.5541 107.6151 44.6915 0.0000 -1.3557 0.0000
# 3 30.3048 44.6915 119.1313 0.0000 1.9620 0.0000
# 4 0.0000 0.0000 0.0000 20.3260 0.0000 -4.6281
# 5 4.1008 -1.3557 1.9620 0.0000 13.1153 0.0000
# 6 0.0000 0.0000 0.0000 -4.6281 0.0000 26.4555
#
#
#
# Elastic Compliance Matrix: (Units=1/GPa)
#
#
# Indices 1 2 3 4 5 6 
#
# 1 0.019016 -0.007093 -0.002072 0.000000 -0.006369 0.000000
# 2 -0.007093 0.013693 -0.003401 0.000000 0.004142 0.000000
# 3 -0.002072 -0.003401 0.010217 0.000000 -0.001232 0.000000
# 4 0.000000 0.000000 0.000000 0.051239 0.000000 0.008964
# 5 -0.006369 0.004142 -0.001232 0.000000 0.078850 0.000000
# 6 0.000000 0.000000 0.000000 0.008964 0.000000 0.039367
#
#
# Mechanical properties :
#
#
# Convention : Reuss Voigt Hill
#
# Bulk Modulus (GPa) = 56.19276 59.96980 58.08128
# Shear Modulus (GPa) = 20.53846 24.05118 22.29482
#
# Velocity S-wave (km/s) = 3.41513 3.69566 3.55816
# Velocity P-wave (km/s) = 6.88919 7.22949 7.06139
#
# Compressibility (1/GPa) = 0.01779589
#
# Stress axis : x y z
#
# Youngs Moduli (GPa) = 52.58799 73.02782 97.87395
#
# Poissons Ratio (x) = 0.51796 0.20275
# Poissons Ratio (y) = 0.37299 0.33287
# Poissons Ratio (z) = 0.10894 0.24837
#
# Static dielectric constant tensor:
#      x y z
#    x 3.165050 0.000000 -0.051170 
#    y 0.000000 3.314530 0.000000 
#    z -0.051170 0.000000 3.302660 
# 
# 
# High freq. dielectric constant tensor:
#      x y z
#    x 1.672220 0.000000 -0.001060 
#    y 0.000000 1.680070 0.000000 
#    z -0.001060 0.000000 1.684790 
# 
# From -- ./inp_files/263327.got.cif
#   From: 2010.06.25/outbox.cif.g09.slc.cpg/sg12_132_cif.got.tgz:263327.got - 2010.06.28 00:19:55.
