data_PCOD8087600
_publ_section_title
;
Structure prediction by ZEFSAII (Michael W. Deem and Ramdas Pophale) SiO2 
 PCOD8087600
Probable space group: C 2/M
;
_chemical_formula_sum "Si O2"
_cell_formula_units_Z 64
_cell_length_a 31.046709
_cell_length_b 12.757990
_cell_length_c 14.937548
_cell_angle_alpha 90.000000
_cell_angle_beta 143.924355
_cell_angle_gamma 90.000000
_cell_volume 3484.046335
_symmetry_space_group_name_H-M "C 2/M"
_symmetry_group_IT_number 12
_symmetry_cell_setting 'monoclinic'
loop_
_space_group_symop_operation_xyz
x,y,z
-x,y,-z
-x,-y,-z
x,-y,z
1/2+x,1/2+y,z
1/2-x,1/2+y,-z
1/2-x,1/2-y,-z
1/2+x,1/2-y,z
loop_
_atom_site_type_symbol
_atom_site_label
_atom_site_fract_x
_atom_site_fract_y
_atom_site_fract_z
Si Si1 0.414913 0.615634 0.352795
Si Si2 0.094564 0.377609 0.974556
Si Si3 0.348587 0.229523 0.101349
Si Si4 0.724273 0.120960 0.861557
Si Si5 0.776856 0.703775 0.692171
Si Si6 0.930407 0.620430 0.678892
Si Si7 0.857096 0.749632 0.410791
Si Si8 0.279841 0.885261 0.513107
O O1 0.500000 0.602309 0.500000
O O2 0.379673 0.500000 0.275252
O O3 0.398188 0.697420 0.246676
O O4 0.386955 0.656117 0.401259
O O5 0.115929 0.500000 0.014218
O O6 0.103817 0.335332 0.889104
O O7 0.009446 0.359337 0.857509
O O8 0.145708 0.313829 0.128896
O O9 0.304182 0.145365 0.086234
O O10 0.293656 0.305871 0.956165
O O11 0.665075 0.150140 0.687281
O O12 0.745666 0.000000 0.889771
O O13 0.710855 0.699003 0.651188
O O14 0.775721 0.814290 0.637486
O O15 0.765046 0.618009 0.594451
O O16 0.927536 0.500000 0.639275
O O17 0.919617 0.702651 0.579870
O O18 0.865556 0.642667 0.640840
O O19 0.262486 0.000000 0.447805
#
# Coordination Sequence:
#
# PCOD8087600 Si02
#       8
#     8   8   8   8   8   8   8   8
#     4  10  21  35  51  71 102 145 186 221 259 309
#     4  11  21  34  53  81 112 139 172 214 267 320
#     4  10  20  34  47  75 105 138 175 216 264 303
#     4  10  19  32  51  73 103 138 175 218 262 305
#     4  10  20  35  54  83 108 133 174 214 270 316
#     4   9  19  34  55  80 108 139 171 216 267 322
#     4  10  19  35  54  78 104 138 182 223 261 310
#     4   9  19  37  58  80 107 136 172 215 264 321
#
# _framework density 18.369446
#
# number of rings (size 3 to 8) (size 9 to 14) (size 15 to 20)
#    0.000    2.125    1.250    2.250    0.000    2.000 
#    0.000    1.875    0.000    6.750    0.000    7.875 
#    0.000    0.000    0.000    0.000    0.000    0.000 
#
# Total GULP energy -396688.005385 kJ/mol
# GULP energy per Si atom -12396.500168 kJ/mol
# Density = 1.832764 g / cm^3
# Si number density = 18.369446 Si / 1000 Ang^3
#
#
#
# Elastic Constant Matrix: (Units=GPa)
#
#
# Indices 1 2 3 4 5 6 
#
# 1 77.4768 42.0213 35.2784 0.0000 -8.5018 0.0000
# 2 42.0213 91.6897 49.4762 0.0000 3.4155 0.0000
# 3 35.2784 49.4762 107.6814 0.0000 2.5970 0.0000
# 4 0.0000 0.0000 0.0000 5.3870 0.0000 7.9342
# 5 -8.5018 3.4155 2.5970 0.0000 23.7656 0.0000
# 6 0.0000 0.0000 0.0000 7.9342 0.0000 20.8960
#
#
#
# Elastic Compliance Matrix: (Units=1/GPa)
#
#
# Indices 1 2 3 4 5 6 
#
# 1 0.019280 -0.007485 -0.003078 0.000000 0.008309 0.000000
# 2 -0.007485 0.017451 -0.005456 0.000000 -0.004589 0.000000
# 3 -0.003078 -0.005456 0.012843 0.000000 -0.001720 0.000000
# 4 0.000000 0.000000 0.000000 0.421157 0.000000 -0.159912
# 5 0.008309 -0.004589 -0.001720 0.000000 0.045898 0.000000
# 6 0.000000 0.000000 0.000000 -0.159912 0.000000 0.108574
#
#
# Mechanical properties :
#
#
# Convention : Reuss Voigt Hill
#
# Bulk Modulus (GPa) = 57.01826 58.93331 57.97579
# Shear Modulus (GPa) = 7.54051 20.01453 13.77752
#
# Velocity S-wave (km/s) = 2.02826 3.30442 2.74163
# Velocity P-wave (km/s) = 6.04915 6.83453 6.45380
#
# Compressibility (1/GPa) = 0.01753824
#
# Stress axis : x y z
#
# Youngs Moduli (GPa) = 51.86783 57.30216 77.86240
#
# Poissons Ratio (x) = 0.42888 0.23965
# Poissons Ratio (y) = 0.38821 0.42478
# Poissons Ratio (z) = 0.15964 0.31262
#
# Static dielectric constant tensor:
#      x y z
#    x 3.406100 0.000000 -0.032190 
#    y 0.000000 3.455790 0.000000 
#    z -0.032190 0.000000 3.332730 
# 
# 
# High freq. dielectric constant tensor:
#      x y z
#    x 1.707920 0.000000 -0.003580 
#    y 0.000000 1.713320 0.000000 
#    z -0.003580 0.000000 1.708810 
# 
# From -- ./inp_files/250847.got.cif
#   From: 2010.06.25/outbox.cif.g09.slc.cpg/sg12_126_cif.got.tgz:250847.got - 2010.06.28 00:19:55.
