data_PCOD8087287
_publ_section_title
;
Structure prediction by ZEFSAII (Michael W. Deem and Ramdas Pophale) SiO2 
 PCOD8087287
Probable space group: C 2/M
;
_chemical_formula_sum "Si O2"
_cell_formula_units_Z 60
_cell_length_a 13.064589
_cell_length_b 12.971282
_cell_length_c 23.072461
_cell_angle_alpha 90.000000
_cell_angle_beta 57.699050
_cell_angle_gamma 90.000000
_cell_volume 3304.907286
_symmetry_space_group_name_H-M "C 2/M"
_symmetry_group_IT_number 12
_symmetry_cell_setting 'monoclinic'
loop_
_space_group_symop_operation_xyz
x,y,z
-x,y,-z
-x,-y,-z
x,-y,z
1/2+x,1/2+y,z
1/2-x,1/2+y,-z
1/2-x,1/2-y,-z
1/2+x,1/2-y,z
loop_
_atom_site_type_symbol
_atom_site_label
_atom_site_fract_x
_atom_site_fract_y
_atom_site_fract_z
Si Si1 0.000000 0.217853 0.500000
Si Si2 0.732702 0.382862 0.389234
Si Si3 0.623025 0.766897 0.569781
Si Si4 0.436925 0.119778 0.076670
Si Si5 0.294591 0.263133 0.811928
Si Si6 0.027141 0.120673 0.695052
Si Si7 0.458465 0.879784 0.833064
Si Si8 0.678449 0.254499 0.730665
O O1 0.887149 0.140195 0.537945
O O2 0.976147 0.290741 0.450692
O O3 0.736749 0.500000 0.366757
O O4 0.854099 0.359529 0.391181
O O5 0.722540 0.304906 0.338039
O O6 0.750000 0.750000 0.500000
O O7 0.572232 0.668973 0.620856
O O8 0.307532 0.172729 0.124116
O O9 0.530085 0.139076 0.101436
O O10 0.408179 0.000000 0.078001
O O11 0.500000 0.164964 0.000000
O O12 0.398680 0.337791 0.756501
O O13 0.340831 0.177261 0.842965
O O14 0.235072 0.207698 0.773965
O O15 0.126770 0.144644 0.714429
O O16 0.015960 0.000000 0.688382
O O17 0.576287 0.833136 0.767508
O O18 0.449397 0.000000 0.820562
#
# Coordination Sequence:
#
# PCOD8087287 Si02
#       8
#     4   8   8   8   8   8   8   8
#     4  10  19  32  49  68  92 122 157 200 243 290
#     4  10  19  32  50  70  93 123 159 198 241 292
#     4   9  20  34  48  70 100 126 156 201 249 295
#     4   9  18  33  52  75 105 138 170 207 252 298
#     4  10  19  32  53  78 102 131 169 211 249 293
#     4  10  20  34  53  75  98 127 166 209 251 296
#     4   9  18  32  50  73 101 134 169 203 246 298
#     4   9  19  33  48  71 100 127 158 202 251 296
#
# _framework density 18.154820999999998
#
# number of rings (size 3 to 8) (size 9 to 14) (size 15 to 20)
#    0.000    2.533    0.000    1.800    0.000    6.400 
#    0.000    0.333    0.000   13.200    0.000    0.000 
#    0.000    0.000    0.000    0.000    0.000    0.000 
#
# Total GULP energy -371789.830917 kJ/mol
# GULP energy per Si atom -12392.994364 kJ/mol
# Density = 1.811350 g / cm^3
# Si number density = 18.154821 Si / 1000 Ang^3
#
#
#
# Elastic Constant Matrix: (Units=GPa)
#
#
# Indices 1 2 3 4 5 6 
#
# 1 116.5334 39.8201 41.5087 0.0000 12.1839 0.0000
# 2 39.8201 60.3363 31.8896 0.0000 -0.3981 0.0000
# 3 41.5087 31.8896 108.0570 0.0000 2.5684 0.0000
# 4 0.0000 0.0000 0.0000 20.5326 0.0000 -0.5395
# 5 12.1839 -0.3981 2.5684 0.0000 26.6665 0.0000
# 6 0.0000 0.0000 0.0000 -0.5395 0.0000 21.5653
#
#
#
# Elastic Compliance Matrix: (Units=1/GPa)
#
#
# Indices 1 2 3 4 5 6 
#
# 1 0.012437 -0.006859 -0.002622 0.000000 -0.005532 0.000000
# 2 -0.006859 0.023439 -0.004375 0.000000 0.003905 0.000000
# 3 -0.002622 -0.004375 0.011552 0.000000 0.000020 0.000000
# 4 0.000000 0.000000 0.000000 0.048735 0.000000 0.001219
# 5 -0.005532 0.003905 0.000020 0.000000 0.040084 0.000000
# 6 0.000000 0.000000 0.000000 0.001219 0.000000 0.046401
#
#
# Mechanical properties :
#
#
# Convention : Reuss Voigt Hill
#
# Bulk Modulus (GPa) = 50.72008 56.81815 53.76912
# Shear Modulus (GPa) = 23.04855 25.20010 24.12432
#
# Velocity S-wave (km/s) = 3.56695 3.72972 3.64924
# Velocity P-wave (km/s) = 6.70540 7.06485 6.88747
#
# Compressibility (1/GPa) = 0.01971606
#
# Stress axis : x y z
#
# Youngs Moduli (GPa) = 80.40313 42.66446 86.56295
#
# Poissons Ratio (x) = 0.29263 0.22696
# Poissons Ratio (y) = 0.55148 0.37873
# Poissons Ratio (z) = 0.21081 0.18667
#
# Static dielectric constant tensor:
#      x y z
#    x 3.649500 0.000000 0.183010 
#    y 0.000000 3.063260 0.000000 
#    z 0.183010 0.000000 3.479080 
# 
# 
# High freq. dielectric constant tensor:
#      x y z
#    x 1.713050 0.000000 0.009370 
#    y 0.000000 1.670710 0.000000 
#    z 0.009370 0.000000 1.708720 
# 
# From -- ./inp_files/335903.got.cif
#   From: 2010.06.25/outbox.cif.g09.slc.cpg/sg12_168_cif.got.tgz:335903.got - 2010.06.28 00:19:55.
