data_PCOD8087958
_publ_section_title
;
Structure prediction by ZEFSAII (Michael W. Deem and Ramdas Pophale) SiO2 
 PCOD8087958
Probable space group: C 2/M
;
_chemical_formula_sum "Si O2"
_cell_formula_units_Z 64
_cell_length_a 15.074899
_cell_length_b 30.357408
_cell_length_c 8.320483
_cell_angle_alpha 90.000000
_cell_angle_beta 59.222128
_cell_angle_gamma 90.000000
_cell_volume 3271.451347
_symmetry_space_group_name_H-M "C 2/M"
_symmetry_group_IT_number 12
_symmetry_cell_setting 'monoclinic'
loop_
_space_group_symop_operation_xyz
x,y,z
-x,y,-z
-x,-y,-z
x,-y,z
1/2+x,1/2+y,z
1/2-x,1/2+y,-z
1/2-x,1/2-y,-z
1/2+x,1/2-y,z
loop_
_atom_site_type_symbol
_atom_site_label
_atom_site_fract_x
_atom_site_fract_y
_atom_site_fract_z
Si Si1 0.389733 0.625459 0.539747
Si Si2 0.445453 0.918951 0.204598
Si Si3 0.385151 0.128378 0.552184
Si Si4 0.557655 0.685240 0.786818
Si Si5 0.747162 0.951631 0.770082
Si Si6 0.641573 0.294067 0.208330
Si Si7 0.252301 0.210490 0.776102
Si Si8 0.356240 0.949866 0.807197
O O1 0.500000 0.609614 0.500000
O O2 0.396968 0.643038 0.349866
O O3 0.317724 0.583189 0.613605
O O4 0.344671 0.663269 0.695624
O O5 0.388302 0.880633 0.358327
O O6 0.362858 0.954024 0.217102
O O7 0.526480 0.944829 0.240160
O O8 0.500000 0.895946 0.000000
O O9 0.500000 0.140414 0.500000
O O10 0.312923 0.169381 0.650694
O O11 0.338105 0.084947 0.681861
O O12 0.477143 0.711146 0.744487
O O13 0.650902 0.717618 0.756987
O O14 0.500000 0.667406 0.000000
O O15 0.798207 0.000000 0.710832
O O16 0.726798 0.939335 0.975629
O O17 0.673542 0.252981 0.291309
O O18 0.719708 0.299658 0.988646
O O19 0.342010 0.000000 0.757727
#
# Coordination Sequence:
#
# PCOD8087958 Si02
#       8
#     8   8   8   8   8   8   8   8
#     4  10  20  35  54  75 102 136 174 214 258 313
#     4   9  18  32  49  72 103 138 172 208 256 311
#     4  10  20  31  50  77 106 138 172 214 258 306
#     4   9  19  36  57  79 103 138 175 208 259 317
#     4  10  19  32  52  75  99 131 174 220 261 305
#     4   9  20  36  57  80 104 137 174 213 261 318
#     4  10  19  36  57  79 108 136 171 220 262 303
#     4   9  18  32  49  72 104 139 172 209 259 316
#
# _framework density 19.563182999999999
#
# number of rings (size 3 to 8) (size 9 to 14) (size 15 to 20)
#    0.000    2.500    0.000    1.875    0.000    6.500 
#    0.000    2.500    0.000    9.375    0.000    0.000 
#    0.000    0.000    0.000    0.000    0.000    0.000 
#
# Total GULP energy -396692.569284 kJ/mol
# GULP energy per Si atom -12396.642790 kJ/mol
# Density = 1.951866 g / cm^3
# Si number density = 19.563183 Si / 1000 Ang^3
#
#
#
# Elastic Constant Matrix: (Units=GPa)
#
#
# Indices 1 2 3 4 5 6 
#
# 1 71.4448 49.4743 41.3801 0.0000 1.6034 0.0000
# 2 49.4743 120.4211 60.1402 0.0000 -8.9088 0.0000
# 3 41.3801 60.1402 95.0180 0.0000 0.9416 0.0000
# 4 0.0000 0.0000 0.0000 18.4661 0.0000 -8.8296
# 5 1.6034 -8.9088 0.9416 0.0000 26.2131 0.0000
# 6 0.0000 0.0000 0.0000 -8.8296 0.0000 15.5102
#
#
#
# Elastic Compliance Matrix: (Units=1/GPa)
#
#
# Indices 1 2 3 4 5 6 
#
# 1 0.021626 -0.006500 -0.005271 0.000000 -0.003342 0.000000
# 2 -0.006500 0.014626 -0.006482 0.000000 0.005601 0.000000
# 3 -0.005271 -0.006482 0.016947 0.000000 -0.002489 0.000000
# 4 0.000000 0.000000 0.000000 0.074407 0.000000 0.042358
# 5 -0.003342 0.005601 -0.002489 0.000000 0.040346 0.000000
# 6 0.000000 0.000000 0.000000 0.042358 0.000000 0.088587
#
#
# Mechanical properties :
#
#
# Convention : Reuss Voigt Hill
#
# Bulk Modulus (GPa) = 59.90411 65.43035 62.66723
# Shear Modulus (GPa) = 16.74425 21.09718 18.92072
#
# Velocity S-wave (km/s) = 2.92876 3.28748 3.11329
# Velocity P-wave (km/s) = 6.49031 6.92303 6.71016
#
# Compressibility (1/GPa) = 0.01669334
#
# Stress axis : x y z
#
# Youngs Moduli (GPa) = 46.24146 68.36963 59.00598
#
# Poissons Ratio (x) = 0.44438 0.31102
# Poissons Ratio (y) = 0.30055 0.38250
# Poissons Ratio (z) = 0.24374 0.44320
#
# Static dielectric constant tensor:
#      x y z
#    x 3.558830 0.000000 0.039370 
#    y 0.000000 3.282610 0.000000 
#    z 0.039370 0.000000 3.826390 
# 
# 
# High freq. dielectric constant tensor:
#      x y z
#    x 1.752590 0.000000 0.001740 
#    y 0.000000 1.735680 0.000000 
#    z 0.001740 0.000000 1.776680 
# 
# From -- ./inp_files/68208.got.cif
#   From: 2010.06.25/outbox.cif.g09.slc.cpg/sg12_35_cif.got.tgz:68208.got - 2010.06.28 00:19:55.
