data_PCOD8087267
_publ_section_title
;
Structure prediction by ZEFSAII (Michael W. Deem and Ramdas Pophale) SiO2 
 PCOD8087267
Probable space group: C 2/M
;
_chemical_formula_sum "Si O2"
_cell_formula_units_Z 56
_cell_length_a 10.221845
_cell_length_b 25.645329
_cell_length_c 15.882259
_cell_angle_alpha 90.000000
_cell_angle_beta 52.444679
_cell_angle_gamma 90.000000
_cell_volume 3300.611533
_symmetry_space_group_name_H-M "C 2/M"
_symmetry_group_IT_number 12
_symmetry_cell_setting 'monoclinic'
loop_
_space_group_symop_operation_xyz
x,y,z
-x,y,-z
-x,-y,-z
x,-y,z
1/2+x,1/2+y,z
1/2-x,1/2+y,-z
1/2-x,1/2-y,-z
1/2+x,1/2-y,z
loop_
_atom_site_type_symbol
_atom_site_label
_atom_site_fract_x
_atom_site_fract_y
_atom_site_fract_z
Si Si1 0.649511 0.127510 0.497821
Si Si2 0.930850 0.812476 0.939461
Si Si3 0.755735 0.650643 0.285653
Si Si4 0.843843 0.280918 0.392364
Si Si5 0.056068 0.689164 0.067801
Si Si6 0.304503 0.440490 0.575902
Si Si7 0.959805 0.822622 0.284407
O O1 0.500000 0.105813 0.500000
O O2 0.569352 0.170654 0.593011
O O3 0.729947 0.079859 0.517086
O O4 0.790879 0.153048 0.384235
O O5 0.957986 0.751046 0.925033
O O6 0.024618 0.835632 0.820925
O O7 0.740981 0.829150 0.012446
O O8 0.000000 0.835586 0.000000
O O9 0.716371 0.692923 0.375226
O O10 0.764143 0.592341 0.318725
O O11 0.618503 0.653436 0.267882
O O12 0.939007 0.663620 0.182953
O O13 0.750000 0.250000 0.500000
O O14 0.966449 0.240416 0.297571
O O15 0.000000 0.667220 0.000000
O O16 0.500000 0.433862 0.500000
O O17 0.249798 0.500000 0.609530
#
# Coordination Sequence:
#
# PCOD8087267 Si02
#       7
#     8   8   8   8   8   8   8
#     4  10  22  35  52  82 111 140 183 221 276 334
#     4  10  21  32  48  73 110 149 184 219 265 310
#     4  11  20  34  56  77 105 149 192 219 273 329
#     4   9  21  29  46  73 111 146 177 216 254 317
#     4  10  19  32  48  75 103 141 189 227 256 312
#     4  10  21  40  60  81 108 139 184 238 281 331
#     4  11  20  33  51  75 111 154 182 219 267 327
#
# _framework density 16.966553000000001
#
# number of rings (size 3 to 8) (size 9 to 14) (size 15 to 20)
#    0.000    1.857    4.286    0.000    4.000    2.571 
#    0.000    0.000    0.000    0.429    0.000    0.000 
#    0.000    2.857    0.000    0.000    0.000    0.000 
#
# Total GULP energy -347067.055295 kJ/mol
# GULP energy per Si atom -12395.251975 kJ/mol
# Density = 1.692794 g / cm^3
# Si number density = 16.966553 Si / 1000 Ang^3
#
#
#
# Elastic Constant Matrix: (Units=GPa)
#
#
# Indices 1 2 3 4 5 6 
#
# 1 136.1971 42.6469 53.8452 0.0000 12.7587 0.0000
# 2 42.6469 87.0255 39.0721 0.0000 2.8167 0.0000
# 3 53.8452 39.0721 106.9540 0.0000 8.7502 0.0000
# 4 0.0000 0.0000 0.0000 15.8557 0.0000 -0.2694
# 5 12.7587 2.8167 8.7502 0.0000 33.0585 0.0000
# 6 0.0000 0.0000 0.0000 -0.2694 0.0000 14.3984
#
#
#
# Elastic Compliance Matrix: (Units=1/GPa)
#
#
# Indices 1 2 3 4 5 6 
#
# 1 0.010039 -0.003184 -0.003676 0.000000 -0.002630 0.000000
# 2 -0.003184 0.014756 -0.003869 0.000000 0.000996 0.000000
# 3 -0.003676 -0.003869 0.012747 0.000000 -0.001626 0.000000
# 4 0.000000 0.000000 0.000000 0.063089 0.000000 0.001181
# 5 -0.002630 0.000996 -0.001626 0.000000 0.031610 0.000000
# 6 0.000000 0.000000 0.000000 0.001181 0.000000 0.069474
#
#
# Mechanical properties :
#
#
# Convention : Reuss Voigt Hill
#
# Bulk Modulus (GPa) = 62.17337 66.81168 64.49252
# Shear Modulus (GPa) = 21.87860 25.63669 23.75765
#
# Velocity S-wave (km/s) = 3.59488 3.89139 3.74607
# Velocity P-wave (km/s) = 7.34541 7.72363 7.53690
#
# Compressibility (1/GPa) = 0.01608406
#
# Stress axis : x y z
#
# Youngs Moduli (GPa) = 99.61271 67.76819 78.45168
#
# Poissons Ratio (x) = 0.21579 0.28836
# Poissons Ratio (y) = 0.31719 0.30354
# Poissons Ratio (z) = 0.36613 0.26220
#
# Static dielectric constant tensor:
#      x y z
#    x 3.245720 0.000000 0.204860 
#    y 0.000000 2.953840 0.000000 
#    z 0.204860 0.000000 3.315440 
# 
# 
# High freq. dielectric constant tensor:
#      x y z
#    x 1.660740 0.000000 0.014290 
#    y 0.000000 1.606240 0.000000 
#    z 0.014290 0.000000 1.658440 
# 
# From -- ./inp_files/198992.got.cif
#   From: 2010.06.25/outbox.cif.g09.slc.cpg/sg12_100_cif.got.tgz:198992.got - 2010.06.28 00:19:55.
