data_PCOD8087788
_publ_section_title
;
Structure prediction by ZEFSAII (Michael W. Deem and Ramdas Pophale) SiO2 
 PCOD8087788
Probable space group: C 2/M
;
_chemical_formula_sum "Si O2"
_cell_formula_units_Z 56
_cell_length_a 27.528699
_cell_length_b 8.826406
_cell_length_c 13.287313
_cell_angle_alpha 90.000000
_cell_angle_beta 120.260710
_cell_angle_gamma 90.000000
_cell_volume 2788.627143
_symmetry_space_group_name_H-M "C 2/M"
_symmetry_group_IT_number 12
_symmetry_cell_setting 'monoclinic'
loop_
_space_group_symop_operation_xyz
x,y,z
-x,y,-z
-x,-y,-z
x,-y,z
1/2+x,1/2+y,z
1/2-x,1/2+y,-z
1/2-x,1/2-y,-z
1/2+x,1/2-y,z
loop_
_atom_site_type_symbol
_atom_site_label
_atom_site_fract_x
_atom_site_fract_y
_atom_site_fract_z
Si Si1 0.017823 0.826447 0.169627
Si Si2 0.115496 0.322557 0.175781
Si Si3 0.601145 0.674953 0.746668
Si Si4 0.689301 0.178500 0.443480
Si Si5 0.614314 0.328781 0.979570
Si Si6 0.517049 0.176799 0.372115
Si Si7 0.623103 0.325964 0.553536
O O1 0.056118 0.767658 0.117785
O O2 0.036303 0.717193 0.279750
O O3 0.033085 0.000000 0.210287
O O4 0.952516 0.809238 0.079987
O O5 0.104627 0.500000 0.167089
O O6 0.154803 0.268624 0.308941
O O7 0.142623 0.276162 0.095541
O O8 0.580890 0.500000 0.737227
O O9 0.546840 0.778797 0.674701
O O10 0.641661 0.693238 0.691139
O O11 0.632351 0.721027 0.884299
O O12 0.750000 0.250000 0.500000
O O13 0.660790 0.227554 0.518345
O O14 0.695332 0.000000 0.450868
O O15 0.633558 0.500000 0.020584
O O16 0.558456 0.270855 0.487423
O O17 0.525522 0.000000 0.401730
O O18 0.627745 0.500000 0.524689
#
# Coordination Sequence:
#
# PCOD8087788 Si02
#       7
#     8   8   8   8   8   8   8
#     4  10  19  32  51  76 110 153 193 227 271 331
#     4  11  22  35  54  81 112 143 181 233 285 333
#     4   9  20  36  53  79 114 153 193 227 267 330
#     4  11  25  43  62  86 112 140 184 239 292 341
#     4   9  19  34  52  78 113 152 191 224 262 328
#     4  11  20  30  48  79 116 152 190 232 275 328
#     4  11  21  36  59  81 109 149 188 231 284 335
#
# _framework density 20.081565000000001
#
# number of rings (size 3 to 8) (size 9 to 14) (size 15 to 20)
#    0.000    1.714    1.429    4.714    0.000    9.143 
#    0.000    0.000    0.000    0.857    0.000    0.000 
#    0.000    0.000    0.000    0.000    0.000    0.000 
#
# Total GULP energy -347048.748872 kJ/mol
# GULP energy per Si atom -12394.598174 kJ/mol
# Density = 2.003586 g / cm^3
# Si number density = 20.081565 Si / 1000 Ang^3
#
#
#
# Elastic Constant Matrix: (Units=GPa)
#
#
# Indices 1 2 3 4 5 6 
#
# 1 65.6157 28.7345 54.9251 0.0000 -27.5800 0.0000
# 2 28.7345 74.9167 34.1010 0.0000 -7.0040 0.0000
# 3 54.9251 34.1010 92.7711 0.0000 -38.6554 0.0000
# 4 0.0000 0.0000 0.0000 26.2353 0.0000 0.0788
# 5 -27.5800 -7.0040 -38.6554 0.0000 33.8684 0.0000
# 6 0.0000 0.0000 0.0000 0.0788 0.0000 20.4169
#
#
#
# Elastic Compliance Matrix: (Units=1/GPa)
#
#
# Indices 1 2 3 4 5 6 
#
# 1 0.033311 -0.005854 -0.012912 0.000000 0.011178 0.000000
# 2 -0.005854 0.017847 -0.006756 0.000000 -0.008787 0.000000
# 3 -0.012912 -0.006756 0.030402 0.000000 0.022787 0.000000
# 4 0.000000 0.000000 0.000000 0.038117 0.000000 -0.000147
# 5 0.011178 -0.008787 0.022787 0.000000 0.062820 0.000000
# 6 0.000000 0.000000 0.000000 -0.000147 0.000000 0.048980
#
#
# Mechanical properties :
#
#
# Convention : Reuss Voigt Hill
#
# Bulk Modulus (GPa) = 32.76942 52.09164 42.43053
# Shear Modulus (GPa) = 17.08282 23.80697 20.44490
#
# Velocity S-wave (km/s) = 2.91979 3.44686 3.19422
# Velocity P-wave (km/s) = 5.26503 6.46819 5.89737
#
# Compressibility (1/GPa) = 0.03051625
#
# Stress axis : x y z
#
# Youngs Moduli (GPa) = 30.02043 56.03163 32.89250
#
# Poissons Ratio (x) = 0.32801 0.42471
# Poissons Ratio (y) = 0.17574 0.22221
# Poissons Ratio (z) = 0.38763 0.37853
#
# Static dielectric constant tensor:
#      x y z
#    x 3.514920 0.000000 -0.492580 
#    y 0.000000 3.585290 0.000000 
#    z -0.492580 0.000000 3.909540 
# 
# 
# High freq. dielectric constant tensor:
#      x y z
#    x 1.754980 0.000000 -0.046610 
#    y 0.000000 1.785850 0.000000 
#    z -0.046610 0.000000 1.778560 
# 
# From -- ./inp_files/249294.got.cif
#   From: 2010.06.25/outbox.cif.g09.slc.cpg/sg12_125_cif.got.tgz:249294.got - 2010.06.28 00:19:55.
