data_PCOD8087849
_publ_section_title
;
Structure prediction by ZEFSAII (Michael W. Deem and Ramdas Pophale) SiO2 
 PCOD8087849
Probable space group: C 2/M
;
_chemical_formula_sum "Si O2"
_cell_formula_units_Z 64
_cell_length_a 32.057284
_cell_length_b 8.837810
_cell_length_c 14.910367
_cell_angle_alpha 90.000000
_cell_angle_beta 130.630493
_cell_angle_gamma 90.000000
_cell_volume 3205.962922
_symmetry_space_group_name_H-M "C 2/M"
_symmetry_group_IT_number 12
_symmetry_cell_setting 'monoclinic'
loop_
_space_group_symop_operation_xyz
x,y,z
-x,y,-z
-x,-y,-z
x,-y,z
1/2+x,1/2+y,z
1/2-x,1/2+y,-z
1/2-x,1/2-y,-z
1/2+x,1/2-y,z
loop_
_atom_site_type_symbol
_atom_site_label
_atom_site_fract_x
_atom_site_fract_y
_atom_site_fract_z
Si Si1 0.444768 0.179057 0.699997
Si Si2 0.402725 0.321753 0.809702
Si Si3 0.128761 0.680236 0.048576
Si Si4 0.297424 0.165159 0.614449
Si Si5 0.746513 0.836137 0.252663
Si Si6 0.638326 0.823262 0.569407
Si Si7 0.439490 0.672538 0.399243
Si Si8 0.445271 0.326141 0.202727
O O1 0.447671 0.250868 0.804550
O O2 0.389921 0.222854 0.565218
O O3 0.495542 0.247293 0.716707
O O4 0.451369 0.000000 0.718377
O O5 0.411742 0.500000 0.831548
O O6 0.402140 0.248804 0.907448
O O7 0.347420 0.280911 0.679450
O O8 0.125307 0.500000 0.051719
O O9 0.193065 0.732471 0.125561
O O10 0.097763 0.737510 0.918175
O O11 0.250000 0.250000 0.500000
O O12 0.279871 0.131245 0.689230
O O13 0.312049 0.000000 0.590376
O O14 0.798433 0.727733 0.334055
O O15 0.764935 0.000000 0.238012
O O16 0.605609 0.760054 0.607667
O O17 0.638227 0.000000 0.579611
O O18 0.500000 0.743220 0.500000
O O19 0.439867 0.500000 0.433831
O O20 0.422740 0.684730 0.272036
O O21 0.450386 0.500000 0.178532
#
# Coordination Sequence:
#
# PCOD8087849 Si02
#       8
#     8   8   8   8   8   8   8   8
#     4  11  23  38  57  87 124 159 196 245 300 353
#     4  11  22  36  56  83 116 157 202 248 291 348
#     4  10  22  42  63  85 118 160 201 245 296 349
#     4  10  19  32  51  78 112 154 199 245 297 351
#     4   9  20  37  57  80 113 156 196 236 290 351
#     4  11  23  36  59  92 123 153 193 246 296 348
#     4  10  21  40  64  89 120 155 189 235 297 361
#     4  11  23  40  64  91 116 152 199 244 294 357
#
# _framework density 19.962800000000001
#
# number of rings (size 3 to 8) (size 9 to 14) (size 15 to 20)
#    0.000    1.625    1.250    4.500    0.000    8.250 
#    0.000    3.125    0.000    0.000    0.000    0.000 
#    0.000    0.000    0.000    0.000    0.000    0.000 
#
# Total GULP energy -396608.969263 kJ/mol
# GULP energy per Si atom -12394.030289 kJ/mol
# Density = 1.991736 g / cm^3
# Si number density = 19.962800 Si / 1000 Ang^3
#
#
#
# Elastic Constant Matrix: (Units=GPa)
#
#
# Indices 1 2 3 4 5 6 
#
# 1 69.1790 42.0719 28.1359 0.0000 4.5109 0.0000
# 2 42.0719 116.2110 42.0792 0.0000 -1.1350 0.0000
# 3 28.1359 42.0792 89.0148 0.0000 0.9180 0.0000
# 4 0.0000 0.0000 0.0000 30.8437 0.0000 0.7163
# 5 4.5109 -1.1350 0.9180 0.0000 25.6711 0.0000
# 6 0.0000 0.0000 0.0000 0.7163 0.0000 31.3753
#
#
#
# Elastic Compliance Matrix: (Units=1/GPa)
#
#
# Indices 1 2 3 4 5 6 
#
# 1 0.019672 -0.005935 -0.003375 0.000000 -0.003598 0.000000
# 2 -0.005935 0.012183 -0.003901 0.000000 0.001721 0.000000
# 3 -0.003375 -0.003901 0.014146 0.000000 -0.000085 0.000000
# 4 0.000000 0.000000 0.000000 0.032439 0.000000 -0.000741
# 5 -0.003598 0.001721 -0.000085 0.000000 0.039666 0.000000
# 6 0.000000 0.000000 0.000000 -0.000741 0.000000 0.031889
#
#
# Mechanical properties :
#
#
# Convention : Reuss Voigt Hill
#
# Bulk Modulus (GPa) = 51.07621 55.44207 53.25914
# Shear Modulus (GPa) = 27.33092 28.38587 27.85840
#
# Velocity S-wave (km/s) = 3.70414 3.77495 3.73971
# Velocity P-wave (km/s) = 6.62838 6.84349 6.73679
#
# Compressibility (1/GPa) = 0.01957859
#
# Stress axis : x y z
#
# Youngs Moduli (GPa) = 50.83369 82.08194 70.69172
#
# Poissons Ratio (x) = 0.48714 0.23861
# Poissons Ratio (y) = 0.30169 0.27577
# Poissons Ratio (z) = 0.17158 0.32020
#
# Static dielectric constant tensor:
#      x y z
#    x 3.609350 0.000000 0.107240 
#    y 0.000000 3.687270 0.000000 
#    z 0.107240 0.000000 3.484520 
# 
# 
# High freq. dielectric constant tensor:
#      x y z
#    x 1.772350 0.000000 0.003930 
#    y 0.000000 1.786610 0.000000 
#    z 0.003930 0.000000 1.777490 
# 
# From -- ./inp_files/250012.got.cif
#   From: 2010.06.25/outbox.cif.g09.slc.cpg/sg12_126_cif.got.tgz:250012.got - 2010.06.28 00:19:55.
