data_PCOD8087689
_publ_section_title
;
Structure prediction by ZEFSAII (Michael W. Deem and Ramdas Pophale) SiO2 
 PCOD8087689
Probable space group: C 2/M
;
_chemical_formula_sum "Si O2"
_cell_formula_units_Z 64
_cell_length_a 31.634547
_cell_length_b 8.810714
_cell_length_c 15.687567
_cell_angle_alpha 90.000000
_cell_angle_beta 125.628579
_cell_angle_gamma 90.000000
_cell_volume 3554.000750
_symmetry_space_group_name_H-M "C 2/M"
_symmetry_group_IT_number 12
_symmetry_cell_setting 'monoclinic'
loop_
_space_group_symop_operation_xyz
x,y,z
-x,y,-z
-x,-y,-z
x,-y,z
1/2+x,1/2+y,z
1/2-x,1/2+y,-z
1/2-x,1/2-y,-z
1/2+x,1/2-y,z
loop_
_atom_site_type_symbol
_atom_site_label
_atom_site_fract_x
_atom_site_fract_y
_atom_site_fract_z
Si Si1 0.926691 0.674948 0.578213
Si Si2 0.306450 0.677290 0.163947
Si Si3 0.709472 0.321050 0.143533
Si Si4 0.321965 0.824872 0.540613
Si Si5 0.271244 0.823493 0.657266
Si Si6 0.357609 0.179670 0.066989
Si Si7 0.088401 0.174629 0.618393
Si Si8 0.458386 0.176240 0.280324
O O1 0.923994 0.500000 0.547407
O O2 0.882570 0.713321 0.596052
O O3 0.917313 0.772577 0.484145
O O4 0.983412 0.712270 0.685245
O O5 0.301957 0.500000 0.135368
O O6 0.255011 0.732511 0.149459
O O7 0.315139 0.772695 0.088001
O O8 0.353142 0.710221 0.283828
O O9 0.717065 0.500000 0.143612
O O10 0.707897 0.275478 0.240313
O O11 0.655722 0.266402 0.036493
O O12 0.309858 0.787039 0.624435
O O13 0.287279 0.723360 0.436741
O O14 0.308990 0.000000 0.505467
O O15 0.271151 0.000000 0.682368
O O16 0.414911 0.238634 0.163435
O O17 0.355581 0.000000 0.049796
O O18 0.047278 0.254447 0.632335
O O19 0.074759 0.000000 0.607392
O O20 0.447973 0.000000 0.278750
#
# Coordination Sequence:
#
# PCOD8087689 Si02
#       8
#     8   8   8   8   8   8   8   8
#     4  10  19  32  51  74  99 129 166 203 243 291
#     4  10  20  34  50  72 103 135 167 203 244 292
#     4  12  23  34  51  74  99 130 168 206 247 294
#     4   9  19  35  55  78 104 131 159 198 246 295
#     4  10  20  35  54  77 104 131 161 198 244 297
#     4  10  20  35  52  71  98 132 169 207 247 289
#     4  10  20  31  46  72 104 135 166 200 239 286
#     4   9  19  34  51  70  96 132 169 205 243 286
#
# _framework density 18.007874999999999
#
# number of rings (size 3 to 8) (size 9 to 14) (size 15 to 20)
#    0.000    2.000    0.000    4.125    0.000    7.000 
#    0.000    0.000    0.000    0.750    0.000    5.250 
#    0.000    0.000    0.000    0.000    0.000    0.000 
#
# Total GULP energy -396857.908147 kJ/mol
# GULP energy per Si atom -12401.809630 kJ/mol
# Density = 1.796689 g / cm^3
# Si number density = 18.007875 Si / 1000 Ang^3
#
#
#
# Elastic Constant Matrix: (Units=GPa)
#
#
# Indices 1 2 3 4 5 6 
#
# 1 103.4652 19.1519 47.5080 0.0000 11.3056 0.0000
# 2 19.1519 48.5147 27.7408 0.0000 3.6986 0.0000
# 3 47.5080 27.7408 98.5878 0.0000 -2.6492 0.0000
# 4 0.0000 0.0000 0.0000 31.0009 0.0000 -1.6355
# 5 11.3056 3.6986 -2.6492 0.0000 17.6096 0.0000
# 6 0.0000 0.0000 0.0000 -1.6355 0.0000 20.8947
#
#
#
# Elastic Compliance Matrix: (Units=1/GPa)
#
#
# Indices 1 2 3 4 5 6 
#
# 1 0.014011 -0.000919 -0.006757 0.000000 -0.009818 0.000000
# 2 -0.000919 0.025324 -0.006838 0.000000 -0.005758 0.000000
# 3 -0.006757 -0.006838 0.015541 0.000000 0.008112 0.000000
# 4 0.000000 0.000000 0.000000 0.032391 0.000000 0.002535
# 5 -0.009818 -0.005758 0.008112 0.000000 0.065521 0.000000
# 6 0.000000 0.000000 0.000000 0.002535 0.000000 0.048057
#
#
# Mechanical properties :
#
#
# Convention : Reuss Voigt Hill
#
# Bulk Modulus (GPa) = 38.68605 48.81878 43.75242
# Shear Modulus (GPa) = 20.96551 24.31218 22.63884
#
# Velocity S-wave (km/s) = 3.41580 3.67834 3.54950
# Velocity P-wave (km/s) = 6.08986 6.72375 6.41464
#
# Compressibility (1/GPa) = 0.02584911
#
# Stress axis : x y z
#
# Youngs Moduli (GPa) = 71.37498 39.48869 64.34527
#
# Poissons Ratio (x) = 0.03628 0.43476
# Poissons Ratio (y) = 0.06558 0.43996
# Poissons Ratio (z) = 0.48226 0.27001
#
# Static dielectric constant tensor:
#      x y z
#    x 3.376520 0.000000 0.160860 
#    y 0.000000 3.378030 0.000000 
#    z 0.160860 0.000000 3.494810 
# 
# 
# High freq. dielectric constant tensor:
#      x y z
#    x 1.681290 0.000000 0.011700 
#    y 0.000000 1.704800 0.000000 
#    z 0.011700 0.000000 1.693980 
# 
# From -- ./inp_files/249172.got.cif
#   From: 2010.06.25/outbox.cif.g09.slc.cpg/sg12_125_cif.got.tgz:249172.got - 2010.06.28 00:19:55.
