data_PCOD8087800
_publ_section_title
;
Structure prediction by ZEFSAII (Michael W. Deem and Ramdas Pophale) SiO2 
 PCOD8087800
Probable space group: C 2/M
;
_chemical_formula_sum "Si O2"
_cell_formula_units_Z 64
_cell_length_a 15.505439
_cell_length_b 9.196437
_cell_length_c 26.513111
_cell_angle_alpha 90.000000
_cell_angle_beta 64.126054
_cell_angle_gamma 90.000000
_cell_volume 3401.647121
_symmetry_space_group_name_H-M "C 2/M"
_symmetry_group_IT_number 12
_symmetry_cell_setting 'monoclinic'
loop_
_space_group_symop_operation_xyz
x,y,z
-x,y,-z
-x,-y,-z
x,-y,z
1/2+x,1/2+y,z
1/2-x,1/2+y,-z
1/2-x,1/2-y,-z
1/2+x,1/2-y,z
loop_
_atom_site_type_symbol
_atom_site_label
_atom_site_fract_x
_atom_site_fract_y
_atom_site_fract_z
Si Si1 0.427015 0.671332 0.059073
Si Si2 0.111261 0.668213 0.553276
Si Si3 0.805346 0.672190 0.758176
Si Si4 0.089816 0.827058 0.824654
Si Si5 0.801814 0.830028 0.561183
Si Si6 0.893308 0.670724 0.630656
Si Si7 0.919653 0.328564 0.825525
Si Si8 0.264380 0.168714 0.944559
O O1 0.441982 0.500000 0.054836
O O2 0.444250 0.727711 0.111309
O O3 0.319586 0.713773 0.072023
O O4 0.500000 0.743874 0.000000
O O5 0.116729 0.500000 0.535107
O O6 0.131545 0.766423 0.499716
O O7 0.189600 0.699629 0.577090
O O8 0.005795 0.709701 0.599560
O O9 0.803092 0.500000 0.762922
O O10 0.696798 0.730622 0.786691
O O11 0.857259 0.724518 0.694177
O O12 0.863297 0.733187 0.791403
O O13 0.021209 0.752567 0.801228
O O14 0.083631 0.000000 0.821106
O O15 0.829338 0.753529 0.606098
O O16 0.823270 0.000000 0.560398
O O17 0.876371 0.500000 0.627035
O O18 0.936546 0.500000 0.816442
O O19 0.862261 0.289435 0.891368
O O20 0.259895 0.000000 0.958679
O O21 0.250000 0.250000 0.000000
#
# Coordination Sequence:
#
# PCOD8087800 Si02
#       8
#     8   8   8   8   8   8   8   8
#     4   9  16  28  49  74 100 131 169 208 252 313
#     4   9  19  35  54  78 110 147 182 216 262 322
#     4   9  19  37  57  76 103 143 184 221 262 320
#     4  10  19  35  57  78 101 135 179 220 261 318
#     4  10  20  34  54  82 114 143 175 222 272 313
#     4  10  20  35  56  78 104 143 187 222 261 317
#     4  10  20  36  56  78 106 139 175 219 271 320
#     4  10  19  32  51  77 106 136 171 215 264 319
#
# _framework density 18.814416000000001
#
# number of rings (size 3 to 8) (size 9 to 14) (size 15 to 20)
#    0.000    2.375    1.250    1.500    0.000    5.000 
#    0.000    3.750    0.000    2.250    0.000    0.000 
#    0.000    0.000    0.000    0.000    0.000    0.000 
#
# Total GULP energy -396773.970245 kJ/mol
# GULP energy per Si atom -12399.186570 kJ/mol
# Density = 1.877159 g / cm^3
# Si number density = 18.814416 Si / 1000 Ang^3
#
#
#
# Elastic Constant Matrix: (Units=GPa)
#
#
# Indices 1 2 3 4 5 6 
#
# 1 151.0268 45.2581 81.2164 0.0000 3.0766 0.0000
# 2 45.2581 44.5331 42.5676 0.0000 6.4208 0.0000
# 3 81.2164 42.5676 129.7308 0.0000 4.5497 0.0000
# 4 0.0000 0.0000 0.0000 19.0041 0.0000 3.6461
# 5 3.0766 6.4208 4.5497 0.0000 28.4003 0.0000
# 6 0.0000 0.0000 0.0000 3.6461 0.0000 30.9014
#
#
#
# Elastic Compliance Matrix: (Units=1/GPa)
#
#
# Indices 1 2 3 4 5 6 
#
# 1 0.011290 -0.007058 -0.004792 0.000000 0.001140 0.000000
# 2 -0.007058 0.038075 -0.007844 0.000000 -0.006587 0.000000
# 3 -0.004792 -0.007844 0.013276 0.000000 0.000166 0.000000
# 4 0.000000 0.000000 0.000000 0.053839 0.000000 -0.006352
# 5 0.001140 -0.006587 0.000166 0.000000 0.036550 0.000000
# 6 0.000000 0.000000 0.000000 -0.006352 0.000000 0.033110
#
#
# Mechanical properties :
#
#
# Convention : Reuss Voigt Hill
#
# Bulk Modulus (GPa) = 43.00337 73.70831 58.35584
# Shear Modulus (GPa) = 21.43345 26.07775 23.75560
#
# Velocity S-wave (km/s) = 3.37887 3.72701 3.55720
# Velocity P-wave (km/s) = 6.17483 7.60147 6.92499
#
# Compressibility (1/GPa) = 0.02325399
#
# Stress axis : x y z
#
# Youngs Moduli (GPa) = 88.57257 26.26385 75.32145
#
# Poissons Ratio (x) = 0.18536 0.36096
# Poissons Ratio (y) = 0.62511 0.59082
# Poissons Ratio (z) = 0.42447 0.20601
#
# Static dielectric constant tensor:
#      x y z
#    x 3.619120 0.000000 -0.048440 
#    y 0.000000 3.126440 0.000000 
#    z -0.048440 0.000000 3.503790 
# 
# 
# High freq. dielectric constant tensor:
#      x y z
#    x 1.746220 0.000000 -0.000480 
#    y 0.000000 1.696210 0.000000 
#    z -0.000480 0.000000 1.730200 
# 
# From -- ./inp_files/359730.got.cif
#   From: 2010.06.25/outbox.cif.g09.slc.cpg/sg12_180_cif.got.tgz:359730.got - 2010.06.28 00:19:55.
