data_PCOD8087679
_publ_section_title
;
Structure prediction by ZEFSAII (Michael W. Deem and Ramdas Pophale) SiO2 
 PCOD8087679
Probable space group: C 2/M
;
_chemical_formula_sum "Si O2"
_cell_formula_units_Z 56
_cell_length_a 25.608195
_cell_length_b 18.539100
_cell_length_c 17.976689
_cell_angle_alpha 90.000000
_cell_angle_beta 21.067583
_cell_angle_gamma 90.000000
_cell_volume 3067.881949
_symmetry_space_group_name_H-M "C 2/M"
_symmetry_group_IT_number 12
_symmetry_cell_setting 'monoclinic'
loop_
_space_group_symop_operation_xyz
x,y,z
-x,y,-z
-x,-y,-z
x,-y,z
1/2+x,1/2+y,z
1/2-x,1/2+y,-z
1/2-x,1/2-y,-z
1/2+x,1/2-y,z
loop_
_atom_site_type_symbol
_atom_site_label
_atom_site_fract_x
_atom_site_fract_y
_atom_site_fract_z
Si Si1 0.541564 0.733209 0.222817
Si Si2 0.892020 0.419586 0.961488
Si Si3 0.012193 0.418157 0.404438
Si Si4 0.827115 0.418108 0.513668
Si Si5 0.213265 0.771881 0.682422
Si Si6 0.737135 0.863734 0.006674
Si Si7 0.066091 0.725762 0.023797
O O1 0.369914 0.736468 0.462103
O O2 0.622649 0.798046 0.156088
O O3 0.582414 0.734504 0.081210
O O4 0.601663 0.660640 0.182923
O O5 0.870444 0.500000 0.023935
O O6 0.048354 0.413732 0.713929
O O7 0.763895 0.405427 0.071016
O O8 0.887092 0.358817 0.031912
O O9 0.969616 0.500000 0.474696
O O10 0.894613 0.390079 0.501649
O O11 0.000000 0.376382 0.500000
O O12 0.174879 0.413999 0.155144
O O13 0.762618 0.500000 0.601805
O O14 0.706662 0.355731 0.661676
O O15 0.100346 0.727747 0.782164
O O16 0.169528 0.765667 0.827265
#
# Coordination Sequence:
#
# PCOD8087679 Si02
#       7
#     8   8   8   8   8   8   8
#     4  10  19  32  51  74 112 135 168 225 270 319
#     4   9  17  36  59  77 103 140 186 226 261 325
#     4   9  16  26  44  72 104 136 171 209 253 321
#     4   9  17  31  53  76 102 143 181 216 265 314
#     4  11  20  36  53  79 114 140 183 238 257 323
#     4   9  17  29  49  79  99 134 175 212 273 325
#     4  10  22  34  55  83 102 149 187 218 283 312
#
# _framework density 18.253634999999999
#
# number of rings (size 3 to 8) (size 9 to 14) (size 15 to 20)
#    0.000    2.429    4.286    1.714    2.000    0.000 
#    0.000    8.571    0.000    6.000    0.000    0.000 
#    0.000    0.000    0.000    0.000    0.000    0.000 
#
# Total GULP energy -346904.657481 kJ/mol
# GULP energy per Si atom -12389.452053 kJ/mol
# Density = 1.821209 g / cm^3
# Si number density = 18.253635 Si / 1000 Ang^3
#
#
#
# Elastic Constant Matrix: (Units=GPa)
#
#
# Indices 1 2 3 4 5 6 
#
# 1 58.6341 24.0577 17.2604 0.0024 0.1161 -0.0019
# 2 24.0577 89.4465 21.9393 0.0001 -5.9480 -0.0004
# 3 17.2604 21.9393 51.2798 -0.0015 -6.3560 -0.0005
# 4 0.0024 0.0001 -0.0015 23.2268 -0.0016 2.7787
# 5 0.1161 -5.9480 -6.3560 -0.0016 20.9565 0.0016
# 6 -0.0019 -0.0004 -0.0005 2.7787 0.0016 20.8623
#
#
#
# Elastic Compliance Matrix: (Units=1/GPa)
#
#
# Indices 1 2 3 4 5 6 
#
# 1 0.020440 -0.004377 -0.005377 -0.000003 -0.002986 0.000002
# 2 -0.004377 0.013509 -0.003978 0.000000 0.002652 -0.000001
# 3 -0.005377 -0.003978 0.023770 0.000003 0.006110 -0.000001
# 4 -0.000003 0.000000 0.000003 0.043751 0.000005 -0.005827
# 5 -0.002986 0.002652 0.006110 0.000005 0.050340 -0.000005
# 6 0.000002 -0.000001 -0.000001 -0.005827 -0.000005 0.048709
#
#
# Mechanical properties :
#
#
# Convention : Reuss Voigt Hill
#
# Bulk Modulus (GPa) = 33.05289 36.20835 34.63062
# Shear Modulus (GPa) = 21.00236 22.08266 21.54251
#
# Velocity S-wave (km/s) = 3.39571 3.48194 3.43910
# Velocity P-wave (km/s) = 5.78976 6.00371 5.89771
#
# Compressibility (1/GPa) = 0.03025454
#
# Stress axis : x y z
#
# Youngs Moduli (GPa) = 48.92429 74.02386 42.06996
#
# Poissons Ratio (x) = 0.32401 0.22622
# Poissons Ratio (y) = 0.21415 0.16734
# Poissons Ratio (z) = 0.26308 0.29444
#
# Static dielectric constant tensor:
#      x y z
#    x 3.673810 0.000000 0.077880 
#    y 0.000000 3.513610 0.000000 
#    z 0.077880 0.000000 3.120140 
# 
# 
# High freq. dielectric constant tensor:
#      x y z
#    x 1.703970 0.000000 0.005250 
#    y 0.000000 1.699740 0.000000 
#    z 0.005250 0.000000 1.672520 
# 
# From -- ./inp_files/330430.got.cif
#   From: 2010.06.25/outbox.cif.g09.slc.cpg/sg12_166_cif.got.tgz:330430.got - 2010.06.28 00:19:55.
