data_PCOD8087981
_publ_section_title
;
Structure prediction by ZEFSAII (Michael W. Deem and Ramdas Pophale) SiO2 
 PCOD8087981
Probable space group: C 2/M
;
_chemical_formula_sum "Si O2"
_cell_formula_units_Z 64
_cell_length_a 24.627493
_cell_length_b 18.629942
_cell_length_c 10.336008
_cell_angle_alpha 90.000000
_cell_angle_beta 128.379439
_cell_angle_gamma 90.000000
_cell_volume 3717.527967
_symmetry_space_group_name_H-M "C 2/M"
_symmetry_group_IT_number 12
_symmetry_cell_setting 'monoclinic'
loop_
_space_group_symop_operation_xyz
x,y,z
-x,y,-z
-x,-y,-z
x,-y,z
1/2+x,1/2+y,z
1/2-x,1/2+y,-z
1/2-x,1/2-y,-z
1/2+x,1/2-y,z
loop_
_atom_site_type_symbol
_atom_site_label
_atom_site_fract_x
_atom_site_fract_y
_atom_site_fract_z
Si Si1 0.667672 0.081696 0.151320
Si Si2 0.328444 0.418347 0.395983
Si Si3 0.419683 0.200611 0.379235
Si Si4 0.077233 0.797566 0.859882
Si Si5 0.080798 0.291600 0.116648
Si Si6 0.172665 0.582341 0.861054
Si Si7 0.669122 0.417749 0.898262
Si Si8 0.416110 0.707043 0.622460
O O1 0.747847 0.099908 0.292203
O O2 0.621855 0.133671 0.172058
O O3 0.651898 0.000000 0.169843
O O4 0.647951 0.092632 0.972100
O O5 0.343205 0.500000 0.461526
O O6 0.351911 0.407818 0.282486
O O7 0.371985 0.365750 0.551710
O O8 0.500000 0.178870 0.500000
O O9 0.401286 0.249730 0.230137
O O10 0.375041 0.128324 0.305097
O O11 0.397583 0.241880 0.475446
O O12 0.118818 0.871829 0.914646
O O13 0.996193 0.815541 0.739590
O O14 0.100138 0.757121 0.023015
O O15 0.104145 0.249076 0.278182
O O16 0.000000 0.310689 0.000000
O O17 0.164786 0.500000 0.807305
O O18 0.251997 0.607409 0.963673
O O19 0.660189 0.500000 0.926926
#
# Coordination Sequence:
#
# PCOD8087981 Si02
#       8
#     8   8   8   8   8   8   8   8
#     4   9  18  34  55  76 100 135 177 211 248 307
#     4   9  18  33  53  78 105 133 169 213 258 302
#     4  10  19  32  52  76 102 132 169 213 256 300
#     4  10  19  34  53  76 103 136 174 209 251 302
#     4  10  21  36  53  74 104 138 172 210 254 304
#     4   9  18  33  53  78 105 133 169 213 258 302
#     4   9  18  32  53  80 104 131 173 215 250 301
#     4  10  21  34  50  78 109 134 169 214 254 301
#
# _framework density 17.215741000000001
#
# number of rings (size 3 to 8) (size 9 to 14) (size 15 to 20)
#    0.000    2.500    2.500    1.500    0.000    3.000 
#    0.000    2.500    0.000    5.250    0.000    0.000 
#    0.000    0.000    0.000    0.000    0.000    0.000 
#
# Total GULP energy -396878.675687 kJ/mol
# GULP energy per Si atom -12402.458615 kJ/mol
# Density = 1.717656 g / cm^3
# Si number density = 17.215741 Si / 1000 Ang^3
#
#
#
# Elastic Constant Matrix: (Units=GPa)
#
#
# Indices 1 2 3 4 5 6 
#
# 1 81.3917 63.6223 42.0740 0.0000 -7.8507 0.0000
# 2 63.6223 121.2097 62.2536 0.0000 6.3200 0.0000
# 3 42.0740 62.2536 81.0126 0.0000 -8.4610 0.0000
# 4 0.0000 0.0000 0.0000 30.8168 0.0000 4.7637
# 5 -7.8507 6.3200 -8.4610 0.0000 22.7258 0.0000
# 6 0.0000 0.0000 0.0000 4.7637 0.0000 34.4606
#
#
#
# Elastic Compliance Matrix: (Units=1/GPa)
#
#
# Indices 1 2 3 4 5 6 
#
# 1 0.023735 -0.012011 -0.001969 0.000000 0.010806 0.000000
# 2 -0.012011 0.021265 -0.011605 0.000000 -0.014384 0.000000
# 3 -0.001969 -0.011605 0.023463 0.000000 0.011283 0.000000
# 4 0.000000 0.000000 0.000000 0.033158 0.000000 -0.004584
# 5 0.010806 -0.014384 0.011283 0.000000 0.055937 0.000000
# 6 0.000000 0.000000 0.000000 -0.004584 0.000000 0.029652
#
#
# Mechanical properties :
#
#
# Convention : Reuss Voigt Hill
#
# Bulk Modulus (GPa) = 57.82658 68.83487 63.33072
# Shear Modulus (GPa) = 20.47978 25.31158 22.89568
#
# Velocity S-wave (km/s) = 3.45279 3.83855 3.65077
# Velocity P-wave (km/s) = 7.03974 7.72764 7.39170
#
# Compressibility (1/GPa) = 0.01729308
#
# Stress axis : x y z
#
# Youngs Moduli (GPa) = 42.13245 47.02551 42.62092
#
# Poissons Ratio (x) = 0.56480 0.08390
# Poissons Ratio (y) = 0.50604 0.49464
# Poissons Ratio (z) = 0.08294 0.54575
#
# Static dielectric constant tensor:
#      x y z
#    x 3.071220 0.000000 0.015350 
#    y 0.000000 3.142240 0.000000 
#    z 0.015350 0.000000 3.097860 
# 
# 
# High freq. dielectric constant tensor:
#      x y z
#    x 1.652840 0.000000 0.008710 
#    y 0.000000 1.668220 0.000000 
#    z 0.008710 0.000000 1.655010 
# 
# From -- ./inp_files/112802.got.cif
#   From: 2010.06.25/outbox.cif.g09.slc.cpg/sg12_57_cif.got.tgz:112802.got - 2010.06.28 00:19:55.
