data_PCOD8087916
_publ_section_title
;
Structure prediction by ZEFSAII (Michael W. Deem and Ramdas Pophale) SiO2 
 PCOD8087916
Probable space group: C 2/M
;
_chemical_formula_sum "Si O2"
_cell_formula_units_Z 40
_cell_length_a 19.287269
_cell_length_b 8.758736
_cell_length_c 27.287972
_cell_angle_alpha 90.000000
_cell_angle_beta 151.988923
_cell_angle_gamma 90.000000
_cell_volume 2164.963600
_symmetry_space_group_name_H-M "C 2/M"
_symmetry_group_IT_number 12
_symmetry_cell_setting 'monoclinic'
loop_
_space_group_symop_operation_xyz
x,y,z
-x,y,-z
-x,-y,-z
x,-y,z
1/2+x,1/2+y,z
1/2-x,1/2+y,-z
1/2-x,1/2-y,-z
1/2+x,1/2-y,z
loop_
_atom_site_type_symbol
_atom_site_label
_atom_site_fract_x
_atom_site_fract_y
_atom_site_fract_z
Si Si1 0.819740 0.822323 0.091045
Si Si2 0.453090 0.682208 0.320216
Si Si3 0.658827 0.177335 0.089426
Si Si4 0.410456 0.819334 0.688441
Si Si5 0.079688 0.180989 0.501540
O O1 0.702432 0.793051 0.060735
O O2 0.974150 0.742392 0.199787
O O3 0.850456 0.000000 0.102193
O O4 0.750000 0.750000 0.000000
O O5 0.462051 0.500000 0.321157
O O6 0.287199 0.742724 0.205086
O O7 0.565042 0.749525 0.350007
O O8 0.497763 0.742392 0.401681
O O9 0.644051 0.000000 0.092212
O O10 0.500000 0.257684 0.000000
O O11 0.249648 0.767628 0.606850
O O12 0.424250 0.000000 0.693357
O O13 0.000000 0.250297 0.500000
O O14 0.067083 0.000000 0.494416
#
# Coordination Sequence:
#
# PCOD8087916 Si02
#       5
#     8   8   8   8   8
#     4  10  20  34  53  76 102 131 164 204 248 296
#     4   9  17  31  51  72  98 131 166 208 251 295
#     4   8  15  28  48  73  96 124 164 204 242 286
#     4  10  19  32  52  74  98 131 169 208 250 299
#     4   9  18  31  49  75 101 129 171 216 251 289
#
# _framework density 18.476061999999999
#
# number of rings (size 3 to 8) (size 9 to 14) (size 15 to 20)
#    0.000    2.800    0.000    3.000    0.000    1.600 
#    0.000    7.000    0.000   25.200    0.000    0.000 
#    0.000    0.000    0.000    0.000    0.000    0.000 
#
# Total GULP energy -247942.333181 kJ/mol
# GULP energy per Si atom -12397.116659 kJ/mol
# Density = 1.843401 g / cm^3
# Si number density = 18.476062 Si / 1000 Ang^3
#
#
#
# Elastic Constant Matrix: (Units=GPa)
#
#
# Indices 1 2 3 4 5 6 
#
# 1 136.6413 31.8818 100.7621 0.0000 0.7813 0.0001
# 2 31.8818 43.2921 35.1911 0.0006 -0.1078 0.0001
# 3 100.7621 35.1911 147.3695 0.0005 1.8907 0.0002
# 4 0.0000 0.0006 0.0005 23.0767 0.0004 -1.6325
# 5 0.7813 -0.1078 1.8907 0.0004 42.3985 0.0001
# 6 0.0001 0.0001 0.0002 -1.6325 0.0001 22.8419
#
#
#
# Elastic Compliance Matrix: (Units=1/GPa)
#
#
# Indices 1 2 3 4 5 6 
#
# 1 0.015154 -0.003395 -0.009552 0.000000 0.000138 0.000000
# 2 -0.003395 0.029429 -0.004711 -0.000001 0.000347 0.000000
# 3 -0.009552 -0.004711 0.014448 0.000000 -0.000480 0.000000
# 4 0.000000 -0.000001 0.000000 0.043554 0.000000 0.003113
# 5 0.000138 0.000347 -0.000480 0.000000 0.023606 0.000000
# 6 0.000000 0.000000 0.000000 0.003113 0.000000 0.044002
#
#
# Mechanical properties :
#
#
# Convention : Reuss Voigt Hill
#
# Bulk Modulus (GPa) = 42.16712 73.66364 57.91538
# Shear Modulus (GPa) = 23.42874 28.29461 25.86168
#
# Velocity S-wave (km/s) = 3.56485 3.91758 3.74537
# Velocity P-wave (km/s) = 6.31001 7.77300 7.07940
#
# Compressibility (1/GPa) = 0.02371516
#
# Stress axis : x y z
#
# Youngs Moduli (GPa) = 65.99008 33.97996 69.21314
#
# Poissons Ratio (x) = 0.11535 0.66115
# Poissons Ratio (y) = 0.22400 0.32606
# Poissons Ratio (z) = 0.63036 0.16008
#
# Static dielectric constant tensor:
#      x y z
#    x 3.517460 0.000000 0.069260 
#    y 0.000000 3.089320 0.000000 
#    z 0.069260 0.000000 3.753830 
# 
# 
# High freq. dielectric constant tensor:
#      x y z
#    x 1.714320 0.000000 -0.000350 
#    y 0.000000 1.681720 0.000000 
#    z -0.000350 0.000000 1.733770 
# 
# From -- ./inp_files/162725.got.cif
#   From: 2010.06.25/outbox.cif.g09.slc.cpg/sg12_82_cif.got.tgz:162725.got - 2010.06.28 00:19:55.
