data_PCOD8087387
_publ_section_title
;
Structure prediction by ZEFSAII (Michael W. Deem and Ramdas Pophale) SiO2 
 PCOD8087387
Probable space group: C 2/M
;
_chemical_formula_sum "Si O2"
_cell_formula_units_Z 48
_cell_length_a 17.341398
_cell_length_b 13.217978
_cell_length_c 11.819346
_cell_angle_alpha 90.000000
_cell_angle_beta 91.021114
_cell_angle_gamma 90.000000
_cell_volume 2708.779186
_symmetry_space_group_name_H-M "C 2/M"
_symmetry_group_IT_number 12
_symmetry_cell_setting 'monoclinic'
loop_
_space_group_symop_operation_xyz
x,y,z
-x,y,-z
-x,-y,-z
x,-y,z
1/2+x,1/2+y,z
1/2-x,1/2+y,-z
1/2-x,1/2-y,-z
1/2+x,1/2-y,z
loop_
_atom_site_type_symbol
_atom_site_label
_atom_site_fract_x
_atom_site_fract_y
_atom_site_fract_z
Si Si1 0.463999 0.119758 0.250226
Si Si2 0.168145 0.692749 0.898133
Si Si3 0.631235 0.194356 0.302134
Si Si4 0.855453 0.616150 0.451892
Si Si5 0.236877 0.616193 0.120630
Si Si6 0.780176 0.113565 0.717642
O O1 0.418372 0.172871 0.146406
O O2 0.548976 0.164518 0.250916
O O3 0.423346 0.147043 0.367603
O O4 0.465375 0.000000 0.230403
O O5 0.187498 0.812504 0.887396
O O6 0.228491 0.626630 0.827709
O O7 0.174403 0.654100 0.026837
O O8 0.635968 0.181645 0.436249
O O9 0.697222 0.127919 0.242437
O O10 0.646535 0.312615 0.277901
O O11 0.865009 0.500000 0.487324
O O12 0.772702 0.636750 0.393068
O O13 0.261866 0.500000 0.103327
O O14 0.812473 0.000000 0.715148
#
# Coordination Sequence:
#
# PCOD8087387 Si02
#       6
#     8   8   8   8   8   8
#     4  10  19  32  50  70  96 127 156 190 235 285
#     4   9  19  34  51  70  93 128 162 187 228 282
#     4  11  20  29  47  76 100 119 152 199 244 276
#     4   9  17  31  50  69  92 124 158 192 233 280
#     4  10  19  32  51  73  97 122 155 198 235 272
#     4   9  18  33  51  67  90 128 166 194 224 275
#
# _framework density 17.72016
#
# number of rings (size 3 to 8) (size 9 to 14) (size 15 to 20)
#    0.000    2.333    0.000    5.000    0.000    2.000 
#    0.000    2.500    0.000    2.000    0.000    7.000 
#    0.000    0.000    0.000    0.000    0.000    0.000 
#
# Total GULP energy -297626.058013 kJ/mol
# GULP energy per Si atom -12401.085751 kJ/mol
# Density = 1.767983 g / cm^3
# Si number density = 17.720160 Si / 1000 Ang^3
#
#
#
# Elastic Constant Matrix: (Units=GPa)
#
#
# Indices 1 2 3 4 5 6 
#
# 1 58.1687 47.0881 12.5396 0.0000 7.5957 0.0000
# 2 47.0881 124.2628 19.1175 0.0000 8.3198 0.0000
# 3 12.5396 19.1175 52.5301 0.0000 10.9043 0.0000
# 4 0.0000 0.0000 0.0000 19.4305 0.0000 2.6649
# 5 7.5957 8.3198 10.9043 0.0000 17.1138 0.0000
# 6 0.0000 0.0000 0.0000 2.6649 0.0000 25.9073
#
#
#
# Elastic Compliance Matrix: (Units=1/GPa)
#
#
# Indices 1 2 3 4 5 6 
#
# 1 0.025664 -0.009082 -0.001582 0.000000 -0.005967 0.000000
# 2 -0.009082 0.011832 -0.002052 0.000000 -0.000414 0.000000
# 3 -0.001582 -0.002052 0.022828 0.000000 -0.012845 0.000000
# 4 0.000000 0.000000 0.000000 0.052202 0.000000 -0.005370
# 5 -0.005967 -0.000414 -0.012845 0.000000 0.069466 0.000000
# 6 0.000000 0.000000 0.000000 -0.005370 0.000000 0.039151
#
#
# Mechanical properties :
#
#
# Convention : Reuss Voigt Hill
#
# Bulk Modulus (GPa) = 28.66119 43.60579 36.13349
# Shear Modulus (GPa) = 19.36431 22.90475 21.13453
#
# Velocity S-wave (km/s) = 3.30932 3.59915 3.45727
# Velocity P-wave (km/s) = 5.55081 6.47559 6.03095
#
# Compressibility (1/GPa) = 0.03489039
#
# Stress axis : x y z
#
# Youngs Moduli (GPa) = 38.96563 84.51342 43.80633
#
# Poissons Ratio (x) = 0.76755 0.06932
# Poissons Ratio (y) = 0.35389 0.08991
# Poissons Ratio (z) = 0.06166 0.17345
#
# Static dielectric constant tensor:
#      x y z
#    x 3.084740 0.000000 0.088950 
#    y 0.000000 3.273380 0.000000 
#    z 0.088950 0.000000 3.369400 
# 
# 
# High freq. dielectric constant tensor:
#      x y z
#    x 1.657400 0.000000 0.004050 
#    y 0.000000 1.679980 0.000000 
#    z 0.004050 0.000000 1.697500 
# 
# From -- ./inp_files/143013.got.cif
#   From: 2010.06.25/outbox.cif.g09.slc.cpg/sg12_72_cif.got.tgz:143013.got - 2010.06.28 00:19:55.
