data_PCOD8087609
_publ_section_title
;
Structure prediction by ZEFSAII (Michael W. Deem and Ramdas Pophale) SiO2 
 PCOD8087609
Probable space group: C 2/M
;
_chemical_formula_sum "Si O2"
_cell_formula_units_Z 56
_cell_length_a 19.827524
_cell_length_b 9.107421
_cell_length_c 30.682979
_cell_angle_alpha 90.000000
_cell_angle_beta 35.605587
_cell_angle_gamma 90.000000
_cell_volume 3225.784140
_symmetry_space_group_name_H-M "C 2/M"
_symmetry_group_IT_number 12
_symmetry_cell_setting 'monoclinic'
loop_
_space_group_symop_operation_xyz
x,y,z
-x,y,-z
-x,-y,-z
x,-y,z
1/2+x,1/2+y,z
1/2-x,1/2+y,-z
1/2-x,1/2-y,-z
1/2+x,1/2-y,z
loop_
_atom_site_type_symbol
_atom_site_label
_atom_site_fract_x
_atom_site_fract_y
_atom_site_fract_z
Si Si1 0.478462 0.670242 0.159024
Si Si2 0.356092 0.326902 0.851688
Si Si3 0.814175 0.828728 0.005365
Si Si4 0.589752 0.327546 0.274961
Si Si5 0.778366 0.675337 0.719632
Si Si6 0.130999 0.831732 0.557129
Si Si7 0.533392 0.670916 0.434247
O O1 0.463319 0.500000 0.176604
O O2 0.548243 0.734501 0.164210
O O3 0.350767 0.738223 0.221499
O O4 0.548926 0.695266 0.076473
O O5 0.337112 0.500000 0.866974
O O6 0.231911 0.247576 0.926080
O O7 0.397294 0.283720 0.782015
O O8 0.783146 0.000000 0.022654
O O9 0.750000 0.750000 0.000000
O O10 0.610156 0.500000 0.272746
O O11 0.682850 0.238595 0.254190
O O12 0.460676 0.282027 0.357770
O O13 0.783452 0.500000 0.718692
O O14 0.858313 0.733471 0.638544
O O15 0.250000 0.750000 0.500000
O O16 0.077346 0.798588 0.537959
O O17 0.161594 0.000000 0.546871
O O18 0.500000 0.722315 0.500000
O O19 0.568935 0.500000 0.413829
#
# Coordination Sequence:
#
# PCOD8087609 Si02
#       7
#     8   8   8   8   8   8   8
#     4   8  16  30  48  71  97 125 156 195 242 282
#     4   9  17  32  52  71  94 126 164 200 234 279
#     4   9  16  29  48  70  98 127 157 196 241 284
#     4   9  19  35  51  68  97 133 159 189 240 289
#     4  10  19  32  51  73  97 125 159 197 235 281
#     4   9  18  32  50  71  95 125 158 193 236 282
#     4   9  19  36  53  69  95 129 159 191 237 286
#
# _framework density 17.360119999999998
#
# number of rings (size 3 to 8) (size 9 to 14) (size 15 to 20)
#    0.000    3.000    0.000    2.571    0.000    4.286 
#    0.000    9.286    0.000    4.286    0.000    0.000 
#    0.000    0.000    0.000    0.000    0.000    0.000 
#
# Total GULP energy -347036.912311 kJ/mol
# GULP energy per Si atom -12394.175440 kJ/mol
# Density = 1.732061 g / cm^3
# Si number density = 17.360120 Si / 1000 Ang^3
#
#
#
# Elastic Constant Matrix: (Units=GPa)
#
#
# Indices 1 2 3 4 5 6 
#
# 1 97.1102 38.2123 90.4522 -0.0026 4.9222 0.0344
# 2 38.2123 54.1696 49.0941 -0.0209 -0.6304 0.0066
# 3 90.4522 49.0941 141.8276 0.0053 7.4549 0.0011
# 4 -0.0026 -0.0209 0.0053 31.7847 -0.0023 0.4195
# 5 4.9222 -0.6304 7.4549 -0.0023 34.3006 -0.0078
# 6 0.0344 0.0066 0.0011 0.4195 -0.0078 22.1550
#
#
#
# Elastic Compliance Matrix: (Units=1/GPa)
#
#
# Indices 1 2 3 4 5 6 
#
# 1 0.026230 -0.004921 -0.014994 0.000002 -0.000596 -0.000039
# 2 -0.004921 0.028045 -0.006710 0.000019 0.002680 0.000000
# 3 -0.014994 -0.006710 0.019047 -0.000009 -0.002111 0.000024
# 4 0.000002 0.000019 -0.000009 0.031470 0.000004 -0.000596
# 5 -0.000596 0.002680 -0.002111 0.000004 0.029748 0.000011
# 6 -0.000039 0.000000 0.000024 -0.000596 0.000011 0.045148
#
#
# Mechanical properties :
#
#
# Convention : Reuss Voigt Hill
#
# Bulk Modulus (GPa) = 49.82169 72.06940 60.94555
# Shear Modulus (GPa) = 20.86580 25.33797 23.10189
#
# Velocity S-wave (km/s) = 3.47066 3.82455 3.65189
# Velocity P-wave (km/s) = 6.69491 7.81712 7.27768
#
# Compressibility (1/GPa) = 0.02007158
#
# Stress axis : x y z
#
# Youngs Moduli (GPa) = 38.12444 35.65751 52.50224
#
# Poissons Ratio (x) = 0.17548 0.78720
# Poissons Ratio (y) = 0.18762 0.35229
# Poissons Ratio (z) = 0.57162 0.23926
#
# Static dielectric constant tensor:
#      x y z
#    x 3.151370 0.000200 -0.027070 
#    y 0.000200 3.176320 0.000250 
#    z -0.027070 0.000250 3.540120 
# 
# 
# High freq. dielectric constant tensor:
#      x y z
#    x 1.651010 0.000000 0.003550 
#    y 0.000000 1.659610 0.000000 
#    z 0.003550 0.000000 1.682790 
# 
# From -- ./inp_files/377651.got.cif
#   From: 2010.06.25/outbox.cif.g09.slc.cpg/sg12_189_cif.got.tgz:377651.got - 2010.06.28 00:19:55.
