data_PCOD8087454
_publ_section_title
;
Structure prediction by ZEFSAII (Michael W. Deem and Ramdas Pophale) SiO2 
 PCOD8087454
Probable space group: C 2/M
;
_chemical_formula_sum "Si O2"
_cell_formula_units_Z 56
_cell_length_a 15.001613
_cell_length_b 9.391424
_cell_length_c 24.580707
_cell_angle_alpha 90.000000
_cell_angle_beta 118.307779
_cell_angle_gamma 90.000000
_cell_volume 3048.949367
_symmetry_space_group_name_H-M "C 2/M"
_symmetry_group_IT_number 12
_symmetry_cell_setting 'monoclinic'
loop_
_space_group_symop_operation_xyz
x,y,z
-x,y,-z
-x,-y,-z
x,-y,z
1/2+x,1/2+y,z
1/2-x,1/2+y,-z
1/2-x,1/2-y,-z
1/2+x,1/2-y,z
loop_
_atom_site_type_symbol
_atom_site_label
_atom_site_fract_x
_atom_site_fract_y
_atom_site_fract_z
Si Si1 0.642726 0.330990 0.808325
Si Si2 0.310479 0.670281 0.805056
Si Si3 0.915627 0.168576 0.727092
Si Si4 0.815382 0.840977 0.059691
Si Si5 0.326874 0.666789 0.588149
Si Si6 0.098987 0.666428 0.492855
Si Si7 0.473995 0.339465 0.935037
O O1 0.651139 0.500000 0.802824
O O2 0.703168 0.246250 0.779871
O O3 0.529044 0.275993 0.768086
O O4 0.688339 0.283584 0.879912
O O5 0.301475 0.500000 0.804392
O O6 0.350886 0.725021 0.758990
O O7 0.382104 0.729764 0.874720
O O8 0.868358 0.225905 0.657387
O O9 0.914243 0.000000 0.726692
O O10 0.931905 0.837503 0.077640
O O11 0.771771 0.000000 0.043919
O O12 0.750000 0.750000 0.000000
O O13 0.347979 0.500000 0.585984
O O14 0.205840 0.696930 0.554152
O O15 0.392092 0.747398 0.560900
O O16 0.087147 0.500000 0.475645
O O17 0.000000 0.715534 0.500000
O O18 0.441219 0.500000 0.940456
O O19 0.500000 0.259639 0.000000
#
# Coordination Sequence:
#
# PCOD8087454 Si02
#       7
#     8   8   8   8   8   8   8
#     4  10  20  35  52  73 103 134 165 213 269 308
#     4  10  19  34  55  76  98 133 177 214 251 312
#     4   9  18  35  55  74 103 141 179 211 252 312
#     4  10  19  32  50  72  98 129 165 211 262 311
#     4   9  18  33  54  78 104 141 180 212 249 304
#     4   9  18  33  53  79 112 141 169 212 261 300
#     4   9  16  28  48  71  94 124 166 208 248 303
#
# _framework density 18.366982
#
# number of rings (size 3 to 8) (size 9 to 14) (size 15 to 20)
#    0.000    2.571    1.429    0.857    0.000    3.143 
#    0.000    4.286    0.000    2.571    0.000    0.000 
#    0.000    0.000    0.000    0.000    0.000    0.000 
#
# Total GULP energy -347032.965316 kJ/mol
# GULP energy per Si atom -12394.034476 kJ/mol
# Density = 1.832518 g / cm^3
# Si number density = 18.366982 Si / 1000 Ang^3
#
#
#
# Elastic Constant Matrix: (Units=GPa)
#
#
# Indices 1 2 3 4 5 6 
#
# 1 150.3171 39.5555 73.8397 0.0000 -13.6581 0.0000
# 2 39.5555 32.9712 41.5144 0.0000 -2.4222 0.0000
# 3 73.8397 41.5144 147.2339 0.0000 -12.3456 0.0000
# 4 0.0000 0.0000 0.0000 19.2893 0.0000 -3.6972
# 5 -13.6581 -2.4222 -12.3456 0.0000 24.9252 0.0000
# 6 0.0000 0.0000 0.0000 -3.6972 0.0000 27.5402
#
#
#
# Elastic Compliance Matrix: (Units=1/GPa)
#
#
# Indices 1 2 3 4 5 6 
#
# 1 0.010659 -0.009578 -0.002330 0.000000 0.003756 0.000000
# 2 -0.009578 0.055734 -0.011370 0.000000 -0.005463 0.000000
# 3 -0.002330 -0.011370 0.011442 0.000000 0.003286 0.000000
# 4 0.000000 0.000000 0.000000 0.053211 0.000000 0.007143
# 5 0.003756 -0.005463 0.003286 0.000000 0.043275 0.000000
# 6 0.000000 0.000000 0.000000 0.007143 0.000000 0.037269
#
#
# Mechanical properties :
#
#
# Convention : Reuss Voigt Hill
#
# Bulk Modulus (GPa) = 31.96943 71.14905 51.55924
# Shear Modulus (GPa) = 18.61703 26.05846 22.33774
#
# Velocity S-wave (km/s) = 3.18718 3.77074 3.49118
# Velocity P-wave (km/s) = 5.56668 7.60128 6.66211
#
# Compressibility (1/GPa) = 0.03127988
#
# Stress axis : x y z
#
# Youngs Moduli (GPa) = 93.81952 17.94235 87.39885
#
# Poissons Ratio (x) = 0.17184 0.20365
# Poissons Ratio (y) = 0.89856 0.99370
# Poissons Ratio (z) = 0.21861 0.20400
#
# Static dielectric constant tensor:
#      x y z
#    x 3.589080 0.000000 0.043830 
#    y 0.000000 3.061390 0.000000 
#    z 0.043830 0.000000 3.617600 
# 
# 
# High freq. dielectric constant tensor:
#      x y z
#    x 1.720860 0.000000 -0.002360 
#    y 0.000000 1.672020 0.000000 
#    z -0.002360 0.000000 1.717780 
# 
# From -- ./inp_files/339020.got.cif
#   From: 2010.06.25/outbox.cif.g09.slc.cpg/sg12_170_cif.got.tgz:339020.got - 2010.06.28 00:19:55.
