data_PCOD8087783
_publ_section_title
;
Structure prediction by ZEFSAII (Michael W. Deem and Ramdas Pophale) SiO2 
 PCOD8087783
Probable space group: C 2/M
;
_chemical_formula_sum "Si O2"
_cell_formula_units_Z 56
_cell_length_a 31.575396
_cell_length_b 8.983963
_cell_length_c 11.903760
_cell_angle_alpha 90.000000
_cell_angle_beta 56.541113
_cell_angle_gamma 90.000000
_cell_volume 2817.173640
_symmetry_space_group_name_H-M "C 2/M"
_symmetry_group_IT_number 12
_symmetry_cell_setting 'monoclinic'
loop_
_space_group_symop_operation_xyz
x,y,z
-x,y,-z
-x,-y,-z
x,-y,z
1/2+x,1/2+y,z
1/2-x,1/2+y,-z
1/2-x,1/2-y,-z
1/2+x,1/2-y,z
loop_
_atom_site_type_symbol
_atom_site_label
_atom_site_fract_x
_atom_site_fract_y
_atom_site_fract_z
Si Si1 0.323316 0.174168 0.137518
Si Si2 0.385995 0.323282 0.664572
Si Si3 0.195738 0.675728 0.591207
Si Si4 0.601954 0.175417 0.582071
Si Si5 0.506797 0.824037 0.865096
Si Si6 0.913076 0.322592 0.851915
Si Si7 0.728337 0.673685 0.140025
O O1 0.330388 0.231349 0.254355
O O2 0.265721 0.214798 0.187534
O O3 0.333362 0.000000 0.118492
O O4 0.364383 0.242643 0.991303
O O5 0.391097 0.500000 0.660417
O O6 0.410339 0.261896 0.514503
O O7 0.415433 0.253494 0.726751
O O8 0.327678 0.267503 0.750804
O O9 0.204467 0.500000 0.582963
O O10 0.250000 0.750000 0.500000
O O11 0.157700 0.720654 0.546597
O O12 0.560607 0.225512 0.734785
O O13 0.598394 0.000000 0.564072
O O14 0.462223 0.768671 0.848406
O O15 0.503810 0.000000 0.879633
O O16 0.500000 0.754517 0.000000
O O17 0.911248 0.500000 0.838212
O O18 0.727223 0.500000 0.117437
O O19 0.750000 0.750000 0.000000
#
# Coordination Sequence:
#
# PCOD8087783 Si02
#       7
#     8   8   8   8   8   8   8
#     4   9  17  31  53  79 106 138 175 221 277 325
#     4  11  23  37  54  80 116 152 186 227 276 333
#     4  10  20  35  55  80 111 145 181 222 272 331
#     4  10  21  37  58  83 112 147 186 230 277 329
#     4   9  18  35  61  90 111 135 183 240 284 323
#     4  10  19  34  59  84 108 141 184 233 278 328
#     4  10  19  32  51  76 108 144 180 221 267 321
#
# _framework density 19.878079
#
# number of rings (size 3 to 8) (size 9 to 14) (size 15 to 20)
#    0.000    2.143    1.429    2.143    0.000    6.286 
#    0.000    5.000    0.000    3.429    0.000    0.000 
#    0.000    0.000    0.000    0.000    0.000    0.000 
#
# Total GULP energy -347171.016160 kJ/mol
# GULP energy per Si atom -12398.964863 kJ/mol
# Density = 1.983284 g / cm^3
# Si number density = 19.878079 Si / 1000 Ang^3
#
#
#
# Elastic Constant Matrix: (Units=GPa)
#
#
# Indices 1 2 3 4 5 6 
#
# 1 136.9717 37.3247 70.9025 0.0000 10.3870 0.0000
# 2 37.3247 34.8117 32.8907 0.0000 6.0898 0.0000
# 3 70.9025 32.8907 136.8070 0.0000 18.9282 0.0000
# 4 0.0000 0.0000 0.0000 21.8074 0.0000 -0.2199
# 5 10.3870 6.0898 18.9282 0.0000 40.6455 0.0000
# 6 0.0000 0.0000 0.0000 -0.2199 0.0000 22.4373
#
#
#
# Elastic Compliance Matrix: (Units=1/GPa)
#
#
# Indices 1 2 3 4 5 6 
#
# 1 0.011774 -0.008885 -0.003991 0.000000 0.000181 0.000000
# 2 -0.008885 0.043960 -0.005736 0.000000 -0.001644 0.000000
# 3 -0.003991 -0.005736 0.011220 0.000000 -0.003346 0.000000
# 4 0.000000 0.000000 0.000000 0.045861 0.000000 0.000449
# 5 0.000181 -0.001644 -0.003346 0.000000 0.026361 0.000000
# 6 0.000000 0.000000 0.000000 0.000449 0.000000 0.044573
#
#
# Mechanical properties :
#
#
# Convention : Reuss Voigt Hill
#
# Bulk Modulus (GPa) = 33.63700 65.64734 49.64217
# Shear Modulus (GPa) = 21.65597 28.14287 24.89942
#
# Velocity S-wave (km/s) = 3.30425 3.76676 3.54306
# Velocity P-wave (km/s) = 5.61389 7.21212 6.46260
#
# Compressibility (1/GPa) = 0.02972917
#
# Stress axis : x y z
#
# Youngs Moduli (GPa) = 84.93183 22.74808 89.12621
#
# Poissons Ratio (x) = 0.20211 0.35571
# Poissons Ratio (y) = 0.75461 0.51126
# Poissons Ratio (z) = 0.33897 0.13049
#
# Static dielectric constant tensor:
#      x y z
#    x 4.792830 0.000000 -0.234440 
#    y 0.000000 3.217480 0.000000 
#    z -0.234440 0.000000 3.803080 
# 
# 
# High freq. dielectric constant tensor:
#      x y z
#    x 1.785950 0.000000 0.006400 
#    y 0.000000 1.729860 0.000000 
#    z 0.006400 0.000000 1.786280 
# 
# From -- ./inp_files/180841.got.cif
#   From: 2010.06.25/outbox.cif.g09.slc.cpg/sg12_91_cif.got.tgz:180841.got - 2010.06.28 00:19:55.
