data_PCOD8087415
_publ_section_title
;
Structure prediction by ZEFSAII (Michael W. Deem and Ramdas Pophale) SiO2 
 PCOD8087415
Probable space group: C 2/M
;
_chemical_formula_sum "Si O2"
_cell_formula_units_Z 64
_cell_length_a 25.211610
_cell_length_b 13.951564
_cell_length_c 12.432663
_cell_angle_alpha 90.000000
_cell_angle_beta 119.546711
_cell_angle_gamma 90.000000
_cell_volume 3804.380122
_symmetry_space_group_name_H-M "C 2/M"
_symmetry_group_IT_number 12
_symmetry_cell_setting 'monoclinic'
loop_
_space_group_symop_operation_xyz
x,y,z
-x,y,-z
-x,-y,-z
x,-y,z
1/2+x,1/2+y,z
1/2-x,1/2+y,-z
1/2-x,1/2-y,-z
1/2+x,1/2-y,z
loop_
_atom_site_type_symbol
_atom_site_label
_atom_site_fract_x
_atom_site_fract_y
_atom_site_fract_z
Si Si1 0.232520 0.391157 0.109523
Si Si2 0.384535 0.770854 0.757882
Si Si3 0.267479 0.891157 0.644482
Si Si4 0.431082 0.613896 0.431082
Si Si5 0.362671 0.611364 0.574080
Si Si6 0.500000 0.892471 0.127567
Si Si7 0.362671 0.611365 0.151263
Si Si8 0.615465 0.770853 0.988813
O O1 0.209473 0.500000 0.074231
O O2 0.251922 0.371362 0.251922
O O3 0.290503 0.371993 0.092359
O O4 0.177749 0.323414 0.018081
O O5 0.322251 0.823414 0.662584
O O6 0.386866 0.668801 0.701254
O O7 0.440251 0.836222 0.772845
O O8 0.388687 0.751479 0.888687
O O9 0.209497 0.871992 0.511353
O O10 0.290527 0.000000 0.655284
O O11 0.500000 0.652856 0.500000
O O12 0.428607 0.500000 0.428606
O O13 0.397031 0.651737 0.503179
O O14 0.397031 0.651738 0.290882
O O15 0.377819 0.500000 0.608724
O O16 0.500000 0.000000 0.176566
O O17 0.500000 0.899409 0.000000
O O18 0.440251 0.836222 0.107656
O O19 0.377819 0.500000 0.146915
O O20 0.386866 0.668801 0.072478
#
# Coordination Sequence:
#
# PCOD8087415 Si02
#       8
#     8   8   8   8   8   8   8   8
#     4   9  16  30  51  73  96 124 163 210 245 272
#     4  10  20  31  48  74 101 128 159 194 243 298
#     4   9  16  30  51  73  96 124 163 210 245 272
#     4   9  18  32  50  70  92 123 165 203 234 270
#     4  10  19  32  50  72 100 128 160 200 240 287
#     4   9  18  34  51  70  95 124 161 200 235 277
#     4  10  19  32  50  72 100 128 160 200 240 287
#     4  10  20  31  48  74 101 128 159 194 243 298
#
# _framework density 16.822714999999999
#
# number of rings (size 3 to 8) (size 9 to 14) (size 15 to 20)
#    0.000    2.500    1.250    1.500    1.750    3.500 
#    0.000    0.000    0.000    2.250    0.000    3.500 
#    0.000    0.000    0.000    0.000    0.000    0.000 
#
# Total GULP energy -396812.157680 kJ/mol
# GULP energy per Si atom -12400.379927 kJ/mol
# Density = 1.678443 g / cm^3
# Si number density = 16.822715 Si / 1000 Ang^3
#
#
#
# Elastic Constant Matrix: (Units=GPa)
#
#
# Indices 1 2 3 4 5 6 
#
# 1 89.1206 51.4324 42.2724 0.0000 11.2976 0.0000
# 2 51.4324 98.0652 50.4698 0.0000 0.5717 0.0000
# 3 42.2724 50.4698 64.2646 0.0000 3.4675 0.0000
# 4 0.0000 0.0000 0.0000 27.3074 0.0000 -1.5458
# 5 11.2976 0.5717 3.4675 0.0000 18.5661 0.0000
# 6 0.0000 0.0000 0.0000 -1.5458 0.0000 24.7052
#
#
#
# Elastic Compliance Matrix: (Units=1/GPa)
#
#
# Indices 1 2 3 4 5 6 
#
# 1 0.019804 -0.006566 -0.007304 0.000000 -0.010484 0.000000
# 2 -0.006566 0.019366 -0.011186 0.000000 0.005489 0.000000
# 3 -0.007304 -0.011186 0.029186 0.000000 -0.000662 0.000000
# 4 0.000000 0.000000 0.000000 0.036750 0.000000 0.002300
# 5 -0.010484 0.005489 -0.000662 0.000000 0.060196 0.000000
# 6 0.000000 0.000000 0.000000 0.002300 0.000000 0.040621
#
#
# Mechanical properties :
#
#
# Convention : Reuss Voigt Hill
#
# Bulk Modulus (GPa) = 54.81602 59.97773 57.39688
# Shear Modulus (GPa) = 19.07545 21.26747 20.17146
#
# Velocity S-wave (km/s) = 3.37101 3.55943 3.46650
# Velocity P-wave (km/s) = 6.91425 7.25417 7.08625
#
# Compressibility (1/GPa) = 0.01824284
#
# Stress axis : x y z
#
# Youngs Moduli (GPa) = 50.49498 51.63675 34.26330
#
# Poissons Ratio (x) = 0.33906 0.25027
# Poissons Ratio (y) = 0.33157 0.38327
# Poissons Ratio (z) = 0.36883 0.57760
#
# Static dielectric constant tensor:
#      x y z
#    x 3.218830 0.000000 0.164820 
#    y 0.000000 3.000420 0.000000 
#    z 0.164820 0.000000 2.941360 
# 
# 
# High freq. dielectric constant tensor:
#      x y z
#    x 1.655780 0.000000 0.017060 
#    y 0.000000 1.633430 0.000000 
#    z 0.017060 0.000000 1.627060 
# 
# From -- ./inp_files/167233.got.cif
#   From: 2010.06.25/outbox.cif.g09.slc.cpg/sg12_84_cif.got.tgz:167233.got - 2010.06.28 00:19:55.
