data_PCOD8087997
_publ_section_title
;
Structure prediction by ZEFSAII (Michael W. Deem and Ramdas Pophale) SiO2 
 PCOD8087997
Probable space group: C 2/M
;
_chemical_formula_sum "Si O2"
_cell_formula_units_Z 64
_cell_length_a 18.541460
_cell_length_b 8.902156
_cell_length_c 20.420631
_cell_angle_alpha 90.000000
_cell_angle_beta 90.819026
_cell_angle_gamma 90.000000
_cell_volume 3370.263941
_symmetry_space_group_name_H-M "C 2/M"
_symmetry_group_IT_number 12
_symmetry_cell_setting 'monoclinic'
loop_
_space_group_symop_operation_xyz
x,y,z
-x,y,-z
-x,-y,-z
x,-y,z
1/2+x,1/2+y,z
1/2-x,1/2+y,-z
1/2-x,1/2-y,-z
1/2+x,1/2-y,z
loop_
_atom_site_type_symbol
_atom_site_label
_atom_site_fract_x
_atom_site_fract_y
_atom_site_fract_z
Si Si1 0.330297 0.178750 0.619126
Si Si2 0.826282 0.824429 0.991500
Si Si3 0.426833 0.174844 0.736590
Si Si4 0.324320 0.176695 0.372939
Si Si5 0.420446 0.175978 0.884536
Si Si6 0.926948 0.175822 0.114881
Si Si7 0.080919 0.321710 0.504820
Si Si8 0.912594 0.322457 0.247582
O O1 0.372544 0.246489 0.682823
O O2 0.250259 0.241117 0.616556
O O3 0.372484 0.237028 0.555766
O O4 0.325633 0.000000 0.620873
O O5 0.861445 0.756407 0.927370
O O6 0.816602 0.000000 0.980678
O O7 0.750000 0.750000 0.000000
O O8 0.873703 0.787551 0.055266
O O9 0.398235 0.208425 0.809104
O O10 0.508303 0.236850 0.729399
O O11 0.429878 0.000000 0.721510
O O12 0.381281 0.233085 0.427944
O O13 0.355062 0.220047 0.302182
O O14 0.311721 0.000000 0.379102
O O15 0.498939 0.241146 0.900739
O O16 0.421790 0.000000 0.899849
O O17 0.890244 0.238777 0.180540
O O18 0.942313 0.000000 0.122436
O O19 0.076369 0.500000 0.503017
O O20 0.000000 0.254204 0.500000
O O21 0.915307 0.500000 0.233680
#
# Coordination Sequence:
#
# PCOD8087997 Si02
#       8
#     8   8   8   8   8   8   8   8
#     4  10  19  32  52  76 104 138 172 208 256 312
#     4  11  24  39  55  78 109 142 178 222 269 317
#     4   8  16  32  53  76 100 130 173 216 249 295
#     4  10  20  33  50  76 108 135 167 215 263 308
#     4  10  20  36  59  83 108 140 177 218 265 317
#     4  10  21  37  57  81 108 138 176 222 265 311
#     4   9  17  31  54  78  98 131 179 220 252 296
#     4   9  18  34  55  76 100 135 177 218 259 305
#
# _framework density 18.989609999999999
#
# number of rings (size 3 to 8) (size 9 to 14) (size 15 to 20)
#    0.000    2.375    0.000    3.375    0.000    8.000 
#    0.000    6.875    0.000    3.000    0.000    0.000 
#    0.000    0.000    0.000    0.000    0.000    0.000 
#
# Total GULP energy -396820.373713 kJ/mol
# GULP energy per Si atom -12400.636679 kJ/mol
# Density = 1.894639 g / cm^3
# Si number density = 18.989610 Si / 1000 Ang^3
#
#
#
# Elastic Constant Matrix: (Units=GPa)
#
#
# Indices 1 2 3 4 5 6 
#
# 1 112.6984 30.2520 54.1843 0.0000 -23.2291 0.0000
# 2 30.2520 43.7557 37.3992 0.0000 -4.9027 0.0000
# 3 54.1843 37.3992 109.6509 0.0000 -20.5754 0.0000
# 4 0.0000 0.0000 0.0000 22.9830 0.0000 -2.0685
# 5 -23.2291 -4.9027 -20.5754 0.0000 29.7149 0.0000
# 6 0.0000 0.0000 0.0000 -2.0685 0.0000 32.4154
#
#
#
# Elastic Compliance Matrix: (Units=1/GPa)
#
#
# Indices 1 2 3 4 5 6 
#
# 1 0.013518 -0.005630 -0.003392 0.000000 0.007290 0.000000
# 2 -0.005630 0.034785 -0.010150 0.000000 -0.005690 0.000000
# 3 -0.003392 -0.010150 0.015454 0.000000 0.006375 0.000000
# 4 0.000000 0.000000 0.000000 0.043762 0.000000 0.002793
# 5 0.007290 -0.005690 0.006375 0.000000 0.042827 0.000000
# 6 0.000000 0.000000 0.000000 0.002793 0.000000 0.031028
#
#
# Mechanical properties :
#
#
# Convention : Reuss Voigt Hill
#
# Bulk Modulus (GPa) = 39.34986 56.64179 47.99583
# Shear Modulus (GPa) = 21.91185 26.64061 24.27623
#
# Velocity S-wave (km/s) = 3.40058 3.74960 3.57934
# Velocity P-wave (km/s) = 6.01542 6.97413 6.51244
#
# Compressibility (1/GPa) = 0.02541305
#
# Stress axis : x y z
#
# Youngs Moduli (GPa) = 73.97631 28.74843 64.70903
#
# Poissons Ratio (x) = 0.16186 0.21947
# Poissons Ratio (y) = 0.41651 0.65677
# Poissons Ratio (z) = 0.25090 0.29179
#
# Static dielectric constant tensor:
#      x y z
#    x 3.499760 0.000000 0.045740 
#    y 0.000000 3.246590 0.000000 
#    z 0.045740 0.000000 3.751450 
# 
# 
# High freq. dielectric constant tensor:
#      x y z
#    x 1.741320 0.000000 -0.001650 
#    y 0.000000 1.711740 0.000000 
#    z -0.001650 0.000000 1.755040 
# 
# From -- ./inp_files/314037.got.cif
#   From: 2010.06.25/outbox.cif.g09.slc.cpg/sg12_158_cif.got.tgz:314037.got - 2010.06.28 00:19:55.
