data_PCOD8087024
_publ_section_title
;
Structure prediction by ZEFSAII (Michael W. Deem and Ramdas Pophale) SiO2 
 PCOD8087024
Probable space group: C 2/M
;
_chemical_formula_sum "Si O2"
_cell_formula_units_Z 48
_cell_length_a 30.933960
_cell_length_b 19.411430
_cell_length_c 13.021376
_cell_angle_alpha 90.000000
_cell_angle_beta 18.104118
_cell_angle_gamma 90.000000
_cell_volume 2429.705978
_symmetry_space_group_name_H-M "C 2/M"
_symmetry_group_IT_number 12
_symmetry_cell_setting 'monoclinic'
loop_
_space_group_symop_operation_xyz
x,y,z
-x,y,-z
-x,-y,-z
x,-y,z
1/2+x,1/2+y,z
1/2-x,1/2+y,-z
1/2-x,1/2-y,-z
1/2+x,1/2-y,z
loop_
_atom_site_type_symbol
_atom_site_label
_atom_site_fract_x
_atom_site_fract_y
_atom_site_fract_z
Si Si1 0.126015 0.734791 0.653085
Si Si2 0.075091 0.317272 0.231924
Si Si3 0.205606 0.861878 0.604067
Si Si4 0.106462 0.212717 0.475857
Si Si5 0.339470 0.924220 0.127476
Si Si6 0.532613 0.424650 0.734857
O O1 0.152998 0.811450 0.632873
O O2 0.253883 0.683309 0.386589
O O3 0.089271 0.741596 0.617290
O O4 0.000000 0.701084 0.000000
O O5 0.000000 0.351854 0.500000
O O6 0.979847 0.251662 0.416961
O O7 0.228971 0.292973 0.918290
O O8 0.077420 0.371872 0.133574
O O9 0.336371 0.901516 0.255018
O O10 0.086259 0.913129 0.911255
O O11 0.037711 0.136657 0.639731
O O12 0.178484 0.926854 0.462336
O O13 0.408581 0.000000 0.961041
O O14 0.505473 0.500000 0.744065
#
# Coordination Sequence:
#
# PCOD8087024 Si02
#       6
#     8   8   8   8   8   8
#     4  11  19  29  51  81 112 146 176 215 265 330
#     4  11  23  39  61  82 105 141 189 239 282 322
#     4  11  18  30  50  80 117 146 175 212 267 324
#     4  11  21  38  57  84 113 141 183 230 281 322
#     4  10  20  34  54  82 114 143 180 228 271 319
#     4  10  19  31  52  82 114 144 179 220 266 324
#
# _framework density 19.755476999999999
#
# number of rings (size 3 to 8) (size 9 to 14) (size 15 to 20)
#    0.000    1.333    5.000    3.500    0.000    1.667 
#    0.000    0.000    0.000   14.500    0.000    0.000 
#    0.000    0.000    0.000    0.000    0.000    0.000 
#
# Total GULP energy -297423.011508 kJ/mol
# GULP energy per Si atom -12392.625480 kJ/mol
# Density = 1.971051 g / cm^3
# Si number density = 19.755477 Si / 1000 Ang^3
#
#
#
# Elastic Constant Matrix: (Units=GPa)
#
#
# Indices 1 2 3 4 5 6 
#
# 1 39.0541 31.9213 25.5654 0.0001 7.9791 -0.0001
# 2 31.9213 127.2093 39.5368 0.0000 2.9482 0.0001
# 3 25.5654 39.5368 111.1166 -0.0003 18.3169 -0.0002
# 4 0.0001 0.0000 -0.0003 18.0178 0.0000 -1.2156
# 5 7.9791 2.9482 18.3169 0.0000 21.7705 0.0002
# 6 -0.0001 0.0001 -0.0002 -1.2156 0.0002 12.8519
#
#
#
# Elastic Compliance Matrix: (Units=1/GPa)
#
#
# Indices 1 2 3 4 5 6 
#
# 1 0.036379 -0.007615 -0.004217 0.000000 -0.008754 0.000000
# 2 -0.007615 0.010486 -0.002560 0.000000 0.003525 0.000000
# 3 -0.004217 -0.002560 0.012271 0.000000 -0.008432 0.000000
# 4 0.000000 0.000000 0.000000 0.055857 0.000000 0.005283
# 5 -0.008754 0.003525 -0.008432 0.000000 0.055759 -0.000001
# 6 0.000000 0.000000 0.000000 0.005283 -0.000001 0.078309
#
#
# Mechanical properties :
#
#
# Convention : Reuss Voigt Hill
#
# Bulk Modulus (GPa) = 32.94841 52.38079 42.66460
# Shear Modulus (GPa) = 17.36336 22.55181 19.95758
#
# Velocity S-wave (km/s) = 2.96786 3.38234 3.18186
# Velocity P-wave (km/s) = 5.33466 6.46729 5.92809
#
# Compressibility (1/GPa) = 0.03035048
#
# Stress axis : x y z
#
# Youngs Moduli (GPa) = 27.48831 95.36587 81.49491
#
# Poissons Ratio (x) = 0.72622 0.34370
# Poissons Ratio (y) = 0.20933 0.20863
# Poissons Ratio (z) = 0.11593 0.24414
#
# Static dielectric constant tensor:
#      x y z
#    x 3.201310 0.000000 0.000530 
#    y 0.000000 3.938360 0.000000 
#    z 0.000530 0.000000 3.655970 
# 
# 
# High freq. dielectric constant tensor:
#      x y z
#    x 1.726920 0.000000 0.001180 
#    y 0.000000 1.768350 0.000000 
#    z 0.001180 0.000000 1.770020 
# 
# From -- ./inp_files/132666.got.cif
#   From: 2010.06.25/outbox.cif.g09.slc.cpg/sg12_67_cif.got.tgz:132666.got - 2010.06.28 00:19:55.
