data_PCOD8087271
_publ_section_title
;
Structure prediction by ZEFSAII (Michael W. Deem and Ramdas Pophale) SiO2 
 PCOD8087271
Probable space group: C 2/M
;
_chemical_formula_sum "Si O2"
_cell_formula_units_Z 48
_cell_length_a 17.160392
_cell_length_b 11.522010
_cell_length_c 23.253917
_cell_angle_alpha 90.000000
_cell_angle_beta 35.523372
_cell_angle_gamma 90.000000
_cell_volume 2671.491915
_symmetry_space_group_name_H-M "C 2/M"
_symmetry_group_IT_number 12
_symmetry_cell_setting 'monoclinic'
loop_
_space_group_symop_operation_xyz
x,y,z
-x,y,-z
-x,-y,-z
x,-y,z
1/2+x,1/2+y,z
1/2-x,1/2+y,-z
1/2-x,1/2-y,-z
1/2+x,1/2-y,z
loop_
_atom_site_type_symbol
_atom_site_label
_atom_site_fract_x
_atom_site_fract_y
_atom_site_fract_z
Si Si1 0.233238 0.376654 0.942985
Si Si2 0.710915 0.500000 0.401926
Si Si3 0.116425 0.131558 0.885199
Si Si4 0.128372 0.788925 0.247812
Si Si5 0.068365 0.000000 0.367789
Si Si6 0.551836 0.713381 0.109493
Si Si7 0.037373 0.369418 0.730606
O O1 0.159880 0.500000 0.986794
O O2 0.325256 0.367561 0.832244
O O3 0.333717 0.372458 0.936928
O O4 0.116706 0.282651 0.016830
O O5 0.674439 0.500000 0.356231
O O6 0.581880 0.500000 0.518921
O O7 0.800640 0.385427 0.363362
O O8 0.246778 0.211157 0.808626
O O9 0.067122 0.141400 0.848373
O O10 0.160370 0.000000 0.871435
O O11 0.000000 0.168670 0.000000
O O12 0.006758 0.704309 0.299437
O O13 0.084191 0.879473 0.323446
O O14 0.508131 0.802956 0.184883
O O15 0.971829 0.500000 0.768650
#
# Coordination Sequence:
#
# PCOD8087271 Si02
#       7
#     8   4   8   8   4   8   8
#     4  10  19  32  48  77 111 150 192 229 275 337
#     4   9  22  42  61  90 111 151 191 239 314 356
#     4  11  22  35  51  79 117 156 197 238 277 339
#     4  11  21  36  58  85 115 151 192 239 283 338
#     4  11  22  40  66  89 117 142 194 251 302 349
#     4  10  19  33  52  76 111 157 192 231 282 337
#     4   9  20  38  59  84 114 151 196 230 289 352
#
# _framework density 17.967487999999999
#
# number of rings (size 3 to 8) (size 9 to 14) (size 15 to 20)
#    0.500    1.333    2.500    2.500    0.000    0.667 
#    1.500    1.250    0.000    0.000    0.000    3.500 
#    0.000    0.000    0.000    0.000    0.000    0.000 
#
# Total GULP energy -297328.529659 kJ/mol
# GULP energy per Si atom -12388.688736 kJ/mol
# Density = 1.792659 g / cm^3
# Si number density = 17.967488 Si / 1000 Ang^3
#
#
#
# Elastic Constant Matrix: (Units=GPa)
#
#
# Indices 1 2 3 4 5 6 
#
# 1 102.3393 41.1796 33.0362 0.0000 -3.7206 0.0000
# 2 41.1796 93.9209 36.7397 0.0001 5.1632 0.0000
# 3 33.0362 36.7397 79.5595 0.0001 -0.7009 0.0000
# 4 0.0000 0.0001 0.0001 22.5030 0.0000 -7.3210
# 5 -3.7206 5.1632 -0.7009 0.0000 24.8669 0.0000
# 6 0.0000 0.0000 0.0000 -7.3210 0.0000 28.7604
#
#
#
# Elastic Compliance Matrix: (Units=1/GPa)
#
#
# Indices 1 2 3 4 5 6 
#
# 1 0.012698 -0.004473 -0.003183 0.000000 0.002739 0.000000
# 2 -0.004473 0.014778 -0.005001 0.000000 -0.003879 0.000000
# 3 -0.003183 -0.005001 0.016209 0.000000 0.001019 0.000000
# 4 0.000000 0.000000 0.000000 0.048451 0.000000 0.012333
# 5 0.002739 -0.003879 0.001019 0.000000 0.041458 0.000000
# 6 0.000000 0.000000 0.000000 0.012333 0.000000 0.037909
#
#
# Mechanical properties :
#
#
# Convention : Reuss Voigt Hill
#
# Bulk Modulus (GPa) = 54.43286 55.30341 54.86814
# Shear Modulus (GPa) = 24.63752 26.21702 25.42727
#
# Velocity S-wave (km/s) = 3.70703 3.82401 3.76597
# Velocity P-wave (km/s) = 6.97737 7.09535 7.03660
#
# Compressibility (1/GPa) = 0.01837126
#
# Stress axis : x y z
#
# Youngs Moduli (GPa) = 78.75001 67.66821 61.69254
#
# Poissons Ratio (x) = 0.30268 0.19638
# Poissons Ratio (y) = 0.35225 0.30853
# Poissons Ratio (z) = 0.25067 0.33842
#
# Static dielectric constant tensor:
#      x y z
#    x 3.439580 0.000000 0.055820 
#    y 0.000000 3.358470 0.000000 
#    z 0.055820 0.000000 3.017150 
# 
# 
# High freq. dielectric constant tensor:
#      x y z
#    x 1.707310 0.000000 0.004580 
#    y 0.000000 1.700950 0.000000 
#    z 0.004580 0.000000 1.662870 
# 
# From -- ./inp_files/315231.got.cif
#   From: 2010.06.25/outbox.cif.g09.slc.cpg/sg12_158_cif.got.tgz:315231.got - 2010.06.28 00:19:55.
