data_PCOD8087763
_publ_section_title
;
Structure prediction by ZEFSAII (Michael W. Deem and Ramdas Pophale) SiO2 
 PCOD8087763
Probable space group: C 2/M
;
_chemical_formula_sum "Si O2"
_cell_formula_units_Z 56
_cell_length_a 26.720811
_cell_length_b 12.873598
_cell_length_c 11.026164
_cell_angle_alpha 90.000000
_cell_angle_beta 126.696457
_cell_angle_gamma 90.000000
_cell_volume 3041.213446
_symmetry_space_group_name_H-M "C 2/M"
_symmetry_group_IT_number 12
_symmetry_cell_setting 'monoclinic'
loop_
_space_group_symop_operation_xyz
x,y,z
-x,y,-z
-x,-y,-z
x,-y,z
1/2+x,1/2+y,z
1/2-x,1/2+y,-z
1/2-x,1/2-y,-z
1/2+x,1/2-y,z
loop_
_atom_site_type_symbol
_atom_site_label
_atom_site_fract_x
_atom_site_fract_y
_atom_site_fract_z
Si Si1 0.308347 0.618917 0.813708
Si Si2 0.362675 0.251054 0.690491
Si Si3 0.669885 0.118312 0.580367
Si Si4 0.435391 0.882543 0.976077
Si Si5 0.044127 0.880338 0.324851
Si Si6 0.930530 0.265464 0.420368
Si Si7 0.413969 0.289076 0.130465
O O1 0.328319 0.500000 0.829767
O O2 0.316486 0.671778 0.694021
O O3 0.235700 0.630078 0.746098
O O4 0.350862 0.670589 0.978118
O O5 0.327764 0.196977 0.528821
O O6 0.382752 0.160994 0.811246
O O7 0.422168 0.317918 0.733765
O O8 0.612856 0.145351 0.586448
O O9 0.660516 0.000000 0.521496
O O10 0.418591 0.000000 0.987218
O O11 0.500000 0.875543 0.000000
O O12 0.437455 0.817960 0.103667
O O13 0.064336 0.833881 0.483973
O O14 0.969777 0.872121 0.196947
O O15 0.064455 0.000000 0.350762
O O16 0.899219 0.229375 0.249896
O O17 0.000000 0.311982 0.500000
#
# Coordination Sequence:
#
# PCOD8087763 Si02
#       7
#     8   8   8   8   8   8   8
#     4  10  21  34  54  79 106 141 176 213 258 312
#     4  10  19  35  53  78 108 138 173 216 263 305
#     4  10  21  37  55  77 104 139 179 215 258 310
#     4  10  19  32  51  76 106 138 172 212 260 310
#     4  10  19  33  55  80 107 137 172 215 260 311
#     4   9  21  37  54  78 104 134 175 218 264 310
#     4  10  20  35  52  79 108 139 172 214 262 306
#
# _framework density 18.413703000000002
#
# number of rings (size 3 to 8) (size 9 to 14) (size 15 to 20)
#    0.000    2.143    1.429    1.714    0.000    4.571 
#    0.000    2.143    0.000    7.714    0.000    0.000 
#    0.000    0.000    0.000    0.000    0.000    0.000 
#
# Total GULP energy -347213.882990 kJ/mol
# GULP energy per Si atom -12400.495821 kJ/mol
# Density = 1.837179 g / cm^3
# Si number density = 18.413703 Si / 1000 Ang^3
#
#
#
# Elastic Constant Matrix: (Units=GPa)
#
#
# Indices 1 2 3 4 5 6 
#
# 1 82.5726 37.2313 40.6305 0.0000 0.8170 0.0000
# 2 37.2313 115.9659 44.0622 0.0000 -0.7620 0.0000
# 3 40.6305 44.0622 95.5049 0.0000 -0.8408 0.0000
# 4 0.0000 0.0000 0.0000 17.2540 0.0000 6.3691
# 5 0.8170 -0.7620 -0.8408 0.0000 25.0913 0.0000
# 6 0.0000 0.0000 0.0000 6.3691 0.0000 22.2236
#
#
#
# Elastic Compliance Matrix: (Units=1/GPa)
#
#
# Indices 1 2 3 4 5 6 
#
# 1 0.016220 -0.003138 -0.005460 0.000000 -0.000806 0.000000
# 2 -0.003138 0.011064 -0.003767 0.000000 0.000312 0.000000
# 3 -0.005460 -0.003767 0.014536 0.000000 0.000550 0.000000
# 4 0.000000 0.000000 0.000000 0.064814 0.000000 -0.018575
# 5 -0.000806 0.000312 0.000550 0.000000 0.039909 0.000000
# 6 0.000000 0.000000 0.000000 -0.018575 0.000000 0.050321
#
#
# Mechanical properties :
#
#
# Convention : Reuss Voigt Hill
#
# Bulk Modulus (GPa) = 58.51105 59.76571 59.13838
# Shear Modulus (GPa) = 21.99836 24.38843 23.19339
#
# Velocity S-wave (km/s) = 3.46015 3.64328 3.55290
# Velocity P-wave (km/s) = 6.91436 7.08700 7.00121
#
# Compressibility (1/GPa) = 0.01709079
#
# Stress axis : x y z
#
# Youngs Moduli (GPa) = 61.65206 90.38312 68.79490
#
# Poissons Ratio (x) = 0.28366 0.37560
# Poissons Ratio (y) = 0.19349 0.25912
# Poissons Ratio (z) = 0.33660 0.34044
#
# Static dielectric constant tensor:
#      x y z
#    x 3.377060 0.000000 -0.032690 
#    y 0.000000 3.387080 0.000000 
#    z -0.032690 0.000000 3.308380 
# 
# 
# High freq. dielectric constant tensor:
#      x y z
#    x 1.707630 0.000000 0.000010 
#    y 0.000000 1.714750 0.000000 
#    z 0.000010 0.000000 1.713900 
# 
# From -- ./inp_files/165030.got.cif
#   From: 2010.06.25/outbox.cif.g09.slc.cpg/sg12_83_cif.got.tgz:165030.got - 2010.06.28 00:19:55.
