data_PCOD8087439
_publ_section_title
;
Structure prediction by ZEFSAII (Michael W. Deem and Ramdas Pophale) SiO2 
 PCOD8087439
Probable space group: C 2/M
;
_chemical_formula_sum "Si O2"
_cell_formula_units_Z 48
_cell_length_a 29.531911
_cell_length_b 9.469203
_cell_length_c 22.327534
_cell_angle_alpha 90.000000
_cell_angle_beta 25.671924
_cell_angle_gamma 90.000000
_cell_volume 2704.903134
_symmetry_space_group_name_H-M "C 2/M"
_symmetry_group_IT_number 12
_symmetry_cell_setting 'monoclinic'
loop_
_space_group_symop_operation_xyz
x,y,z
-x,y,-z
-x,-y,-z
x,-y,z
1/2+x,1/2+y,z
1/2-x,1/2+y,-z
1/2-x,1/2-y,-z
1/2+x,1/2-y,z
loop_
_atom_site_type_symbol
_atom_site_label
_atom_site_fract_x
_atom_site_fract_y
_atom_site_fract_z
Si Si1 0.391290 0.837126 0.604742
Si Si2 0.013729 0.659359 0.835364
Si Si3 0.822584 0.345756 0.555780
Si Si4 0.153203 0.169632 0.586338
Si Si5 0.605705 0.253339 0.846741
Si Si6 0.699284 0.844258 0.853962
O O1 0.500000 0.774358 0.500000
O O2 0.387693 0.812810 0.537906
O O3 0.294186 0.761496 0.752328
O O4 0.380927 0.000000 0.634526
O O5 0.027717 0.500000 0.793396
O O6 0.051458 0.777047 0.743172
O O7 0.077375 0.663885 0.821767
O O8 0.892660 0.696333 0.990443
O O9 0.854788 0.500000 0.491482
O O10 0.852547 0.219091 0.475538
O O11 0.698107 0.360307 0.718150
O O12 0.250000 0.250000 0.500000
O O13 0.164070 0.000000 0.577457
O O14 0.653918 0.153529 0.840483
O O15 0.500000 0.328224 0.000000
O O16 0.741654 0.000000 0.817001
#
# Coordination Sequence:
#
# PCOD8087439 Si02
#       6
#     8   8   8   8   8   8
#     4   9  19  36  57  80 106 135 167 212 267 314
#     4  10  19  32  50  72 105 142 174 209 252 305
#     4  10  20  34  52  75 104 136 174 214 254 304
#     4  12  24  35  50  72 104 143 181 215 250 298
#     4   9  17  28  47  73 104 138 169 203 250 305
#     4   9  18  31  50  78 105 134 170 212 260 307
#
# _framework density 17.745552
#
# number of rings (size 3 to 8) (size 9 to 14) (size 15 to 20)
#    0.000    2.167    1.667    2.000    0.000    6.000 
#    0.000    3.333    0.000    1.000    0.000    0.000 
#    0.000    0.000    0.000    0.000    0.000    0.000 
#
# Total GULP energy -297424.036531 kJ/mol
# GULP energy per Si atom -12392.668189 kJ/mol
# Density = 1.770516 g / cm^3
# Si number density = 17.745552 Si / 1000 Ang^3
#
#
#
# Elastic Constant Matrix: (Units=GPa)
#
#
# Indices 1 2 3 4 5 6 
#
# 1 72.3997 41.8218 56.4249 -0.0001 -11.6272 0.0003
# 2 41.8218 119.8696 63.8349 0.0008 2.6162 -0.0007
# 3 56.4249 63.8349 118.1051 -0.0006 -2.3003 -0.0002
# 4 -0.0001 0.0008 -0.0006 31.2089 -0.0002 2.8821
# 5 -11.6272 2.6162 -2.3003 -0.0002 28.8742 0.0002
# 6 0.0003 -0.0007 -0.0002 2.8821 0.0002 18.8125
#
#
#
# Elastic Compliance Matrix: (Units=1/GPa)
#
#
# Indices 1 2 3 4 5 6 
#
# 1 0.025197 -0.003782 -0.009805 0.000000 0.009708 -0.000001
# 2 -0.003782 0.012353 -0.004929 0.000000 -0.003035 0.000001
# 3 -0.009805 -0.004929 0.015772 0.000000 -0.002245 0.000000
# 4 0.000000 0.000000 0.000000 0.032502 0.000000 -0.004979
# 5 0.009708 -0.003035 -0.002245 0.000000 0.038638 -0.000001
# 6 -0.000001 0.000001 0.000000 -0.004979 -0.000001 0.053919
#
#
# Mechanical properties :
#
#
# Convention : Reuss Voigt Hill
#
# Bulk Modulus (GPa) = 61.38509 70.50420 65.94465
# Shear Modulus (GPa) = 22.64048 25.66529 24.15288
#
# Velocity S-wave (km/s) = 3.57576 3.80714 3.69327
# Velocity P-wave (km/s) = 7.19132 7.69043 7.44506
#
# Compressibility (1/GPa) = 0.01629060
#
# Stress axis : x y z
#
# Youngs Moduli (GPa) = 39.68676 80.95245 63.40400
#
# Poissons Ratio (x) = 0.30612 0.62168
# Poissons Ratio (y) = 0.15008 0.31253
# Poissons Ratio (z) = 0.38913 0.39903
#
# Static dielectric constant tensor:
#      x y z
#    x 3.130370 0.000000 0.084890 
#    y 0.000000 3.165310 0.000000 
#    z 0.084890 0.000000 3.497280 
# 
# 
# High freq. dielectric constant tensor:
#      x y z
#    x 1.654030 0.000000 0.007800 
#    y 0.000000 1.680670 0.000000 
#    z 0.007800 0.000000 1.688240 
# 
# From -- ./inp_files/327169.got.cif
#   From: 2010.06.25/outbox.cif.g09.slc.cpg/sg12_164_cif.got.tgz:327169.got - 2010.06.28 00:19:55.
