data_PCOD8087939
_publ_section_title
;
Structure prediction by ZEFSAII (Michael W. Deem and Ramdas Pophale) SiO2 
 PCOD8087939
Probable space group: C 2/M
;
_chemical_formula_sum "Si O2"
_cell_formula_units_Z 64
_cell_length_a 5.196327
_cell_length_b 32.851673
_cell_length_c 19.627275
_cell_angle_alpha 90.000000
_cell_angle_beta 84.065093
_cell_angle_gamma 90.000000
_cell_volume 3332.574719
_symmetry_space_group_name_H-M "C 2/M"
_symmetry_group_IT_number 12
_symmetry_cell_setting 'monoclinic'
loop_
_space_group_symop_operation_xyz
x,y,z
-x,y,-z
-x,-y,-z
x,-y,z
1/2+x,1/2+y,z
1/2-x,1/2+y,-z
1/2-x,1/2-y,-z
1/2+x,1/2-y,z
loop_
_atom_site_type_symbol
_atom_site_label
_atom_site_fract_x
_atom_site_fract_y
_atom_site_fract_z
Si Si1 0.185772 0.140996 0.723862
Si Si2 0.640275 0.586419 0.856622
Si Si3 0.573821 0.734735 0.732041
Si Si4 0.341115 0.047045 0.188604
Si Si5 0.428282 0.230905 0.883558
Si Si6 0.707403 0.899072 0.677467
Si Si7 0.765060 0.546640 0.455525
Si Si8 0.258639 0.847337 0.957116
O O1 0.153795 0.118407 0.795546
O O2 0.470495 0.132879 0.686023
O O3 0.139646 0.188014 0.741504
O O4 0.974646 0.125779 0.674916
O O5 0.363219 0.564098 0.861307
O O6 0.671500 0.610232 0.926259
O O7 0.868889 0.553408 0.846212
O O8 0.819173 0.758563 0.691929
O O9 0.471222 0.758354 0.803099
O O10 0.305851 0.068741 0.261497
O O11 0.286226 0.000000 0.201893
O O12 0.687118 0.242051 0.918377
O O13 0.358022 0.183697 0.895962
O O14 0.695289 0.923663 0.608371
O O15 0.500000 0.558011 0.500000
O O16 0.758982 0.500000 0.429692
O O17 0.000000 0.553856 0.500000
O O18 0.500000 0.855358 0.000000
O O19 0.000000 0.829545 0.000000
#
# Coordination Sequence:
#
# PCOD8087939 Si02
#       8
#     8   8   8   8   8   8   8   8
#     4  10  20  34  54  79 108 146 181 225 276 318
#     4  10  21  37  55  76 104 136 174 221 277 328
#     4  10  19  32  52  75 106 140 172 214 272 327
#     4  10  20  35  59  83 104 134 174 226 276 319
#     4  10  21  35  52  74 102 135 170 208 254 316
#     4  10  20  34  54  83 117 146 185 223 258 316
#     4  10  20  34  54  82 121 163 191 216 257 311
#     4  12  25  39  56  76 104 141 179 216 264 336
#
# _framework density 19.204370999999998
#
# number of rings (size 3 to 8) (size 9 to 14) (size 15 to 20)
#    0.000    1.750    0.000    5.250    0.000    7.500 
#    0.000    3.750    0.000    7.500    0.000    0.000 
#    0.000   35.000    0.000    0.000    0.000    0.000 
#
# Total GULP energy -396679.325550 kJ/mol
# GULP energy per Si atom -12396.228923 kJ/mol
# Density = 1.916066 g / cm^3
# Si number density = 19.204371 Si / 1000 Ang^3
#
#
#
# Elastic Constant Matrix: (Units=GPa)
#
#
# Indices 1 2 3 4 5 6 
#
# 1 160.3029 39.7886 21.2329 0.0000 11.0517 0.0000
# 2 39.7886 101.6102 26.0520 0.0000 2.9888 0.0000
# 3 21.2329 26.0520 54.2617 0.0000 4.5190 0.0000
# 4 0.0000 0.0000 0.0000 22.9012 0.0000 -0.3580
# 5 11.0517 2.9888 4.5190 0.0000 17.4369 0.0000
# 6 0.0000 0.0000 0.0000 -0.3580 0.0000 33.2515
#
#
#
# Elastic Compliance Matrix: (Units=1/GPa)
#
#
# Indices 1 2 3 4 5 6 
#
# 1 0.007278 -0.002382 -0.001384 0.000000 -0.003846 0.000000
# 2 -0.002382 0.012008 -0.004893 0.000000 0.000720 0.000000
# 3 -0.001384 -0.004893 0.021644 0.000000 -0.003894 0.000000
# 4 0.000000 0.000000 0.000000 0.043673 0.000000 0.000470
# 5 -0.003846 0.000720 -0.003894 0.000000 0.060673 0.000000
# 6 0.000000 0.000000 0.000000 0.000470 0.000000 0.030079
#
#
# Mechanical properties :
#
#
# Convention : Reuss Voigt Hill
#
# Bulk Modulus (GPa) = 42.35132 54.48021 48.41577
# Shear Modulus (GPa) = 24.93230 29.99133 27.46182
#
# Velocity S-wave (km/s) = 3.60705 3.95611 3.78561
# Velocity P-wave (km/s) = 6.28081 7.02125 6.66133
#
# Compressibility (1/GPa) = 0.02361202
#
# Stress axis : x y z
#
# Youngs Moduli (GPa) = 137.40300 83.28071 46.20172
#
# Poissons Ratio (x) = 0.19837 0.06394
# Poissons Ratio (y) = 0.32728 0.22606
# Poissons Ratio (z) = 0.19016 0.40749
#
# Static dielectric constant tensor:
#      x y z
#    x 4.493470 0.000000 0.177610 
#    y 0.000000 3.414090 0.000000 
#    z 0.177610 0.000000 3.078670 
# 
# 
# High freq. dielectric constant tensor:
#      x y z
#    x 1.785390 0.000000 0.010570 
#    y 0.000000 1.743100 0.000000 
#    z 0.010570 0.000000 1.695760 
# 
# From -- ./inp_files/298300.got.cif
#   From: 2010.06.25/outbox.cif.g09.slc.cpg/sg12_150_cif.got.tgz:298300.got - 2010.06.28 00:19:55.
