data_PCOD8087960
_publ_section_title
;
Structure prediction by ZEFSAII (Michael W. Deem and Ramdas Pophale) SiO2 
 PCOD8087960
Probable space group: C 2/M
;
_chemical_formula_sum "Si O2"
_cell_formula_units_Z 48
_cell_length_a 18.287957
_cell_length_b 9.047222
_cell_length_c 16.300464
_cell_angle_alpha 90.000000
_cell_angle_beta 89.361821
_cell_angle_gamma 90.000000
_cell_volume 2696.829348
_symmetry_space_group_name_H-M "C 2/M"
_symmetry_group_IT_number 12
_symmetry_cell_setting 'monoclinic'
loop_
_space_group_symop_operation_xyz
x,y,z
-x,y,-z
-x,-y,-z
x,-y,z
1/2+x,1/2+y,z
1/2-x,1/2+y,-z
1/2-x,1/2-y,-z
1/2+x,1/2-y,z
loop_
_atom_site_type_symbol
_atom_site_label
_atom_site_fract_x
_atom_site_fract_y
_atom_site_fract_z
Si Si1 0.074415 0.669214 0.659796
Si Si2 0.548881 0.666401 0.418877
Si Si3 0.086288 0.669913 0.844819
Si Si4 0.828040 0.325637 0.494361
Si Si5 0.325984 0.325253 0.016816
Si Si6 0.040386 0.161968 0.085376
O O1 0.051754 0.500000 0.644743
O O2 0.107924 0.692450 0.749697
O O3 0.136278 0.716361 0.593788
O O4 0.000093 0.763950 0.652746
O O5 0.500000 0.669212 0.500000
O O6 0.571560 0.500000 0.394330
O O7 0.621868 0.761978 0.432775
O O8 0.092207 0.500000 0.871756
O O9 0.141521 0.765358 0.898288
O O10 0.001835 0.721462 0.857079
O O11 0.819529 0.500000 0.506258
O O12 0.750000 0.250000 0.500000
O O13 0.316868 0.500000 0.026264
O O14 0.250000 0.250000 0.000000
O O15 0.377493 0.285394 0.937982
O O16 0.041286 0.000000 0.128248
O O17 0.000000 0.147238 0.000000
#
# Coordination Sequence:
#
# PCOD8087960 Si02
#       6
#     8   8   8   8   8   8
#     4   9  19  34  51  73 101 131 162 203 252 295
#     4   9  17  30  50  74  96 123 163 203 239 287
#     4  10  19  32  52  76 100 128 165 205 246 294
#     4  10  19  33  52  73 101 134 167 203 246 296
#     4  10  20  34  52  74 101 132 166 203 246 294
#     4   8  16  31  49  70  96 126 159 196 239 286
#
# _framework density 17.798680000000001
#
# number of rings (size 3 to 8) (size 9 to 14) (size 15 to 20)
#    0.000    2.667    0.000    3.000    0.000    7.667 
#    0.000    1.667    0.000    2.000    0.000    0.000 
#    0.000    0.000    0.000    0.000    0.000    0.000 
#
# Total GULP energy -297528.755123 kJ/mol
# GULP energy per Si atom -12397.031463 kJ/mol
# Density = 1.775817 g / cm^3
# Si number density = 17.798680 Si / 1000 Ang^3
#
#
#
# Elastic Constant Matrix: (Units=GPa)
#
#
# Indices 1 2 3 4 5 6 
#
# 1 137.5815 68.4641 40.3413 0.0000 9.7516 0.0000
# 2 68.4641 115.9896 42.5823 0.0000 6.4718 0.0000
# 3 40.3413 42.5823 67.5359 0.0000 3.0975 0.0000
# 4 0.0000 0.0000 0.0000 24.1906 0.0000 3.0292
# 5 9.7516 6.4718 3.0975 0.0000 18.9842 0.0000
# 6 0.0000 0.0000 0.0000 3.0292 0.0000 35.3258
#
#
#
# Elastic Compliance Matrix: (Units=1/GPa)
#
#
# Indices 1 2 3 4 5 6 
#
# 1 0.010994 -0.005136 -0.003174 0.000000 -0.003379 0.000000
# 2 -0.005136 0.013755 -0.005553 0.000000 -0.001145 0.000000
# 3 -0.003174 -0.005553 0.020193 0.000000 0.000229 0.000000
# 4 0.000000 0.000000 0.000000 0.041787 0.000000 -0.003583
# 5 -0.003379 -0.001145 0.000229 0.000000 0.054764 0.000000
# 6 0.000000 0.000000 0.000000 -0.003583 0.000000 0.028615
#
#
# Mechanical properties :
#
#
# Convention : Reuss Voigt Hill
#
# Bulk Modulus (GPa) = 58.07854 69.32029 63.69941
# Shear Modulus (GPa) = 24.56115 27.01474 25.78795
#
# Velocity S-wave (km/s) = 3.71879 3.90011 3.81053
# Velocity P-wave (km/s) = 7.15128 7.70147 7.43147
#
# Compressibility (1/GPa) = 0.01721806
#
# Stress axis : x y z
#
# Youngs Moduli (GPa) = 90.95667 72.69960 49.52093
#
# Poissons Ratio (x) = 0.37336 0.15719
# Poissons Ratio (y) = 0.46712 0.27497
# Poissons Ratio (z) = 0.28871 0.40368
#
# Static dielectric constant tensor:
#      x y z
#    x 3.484380 0.000000 -0.093230 
#    y 0.000000 3.467480 0.000000 
#    z -0.093230 0.000000 3.116670 
# 
# 
# High freq. dielectric constant tensor:
#      x y z
#    x 1.680750 0.000000 0.002260 
#    y 0.000000 1.701650 0.000000 
#    z 0.002260 0.000000 1.663580 
# 
# From -- ./inp_files/273700.got.cif
#   From: 2010.06.25/outbox.cif.g09.slc.cpg/sg12_137_cif.got.tgz:273700.got - 2010.06.28 00:19:55.
