data_PCOD8087228
_publ_section_title
;
Structure prediction by ZEFSAII (Michael W. Deem and Ramdas Pophale) SiO2 
 PCOD8087228
Probable space group: C 2/M
;
_chemical_formula_sum "Si O2"
_cell_formula_units_Z 56
_cell_length_a 27.642333
_cell_length_b 9.008870
_cell_length_c 20.434807
_cell_angle_alpha 90.000000
_cell_angle_beta 138.179923
_cell_angle_gamma 90.000000
_cell_volume 3393.180879
_symmetry_space_group_name_H-M "C 2/M"
_symmetry_group_IT_number 12
_symmetry_cell_setting 'monoclinic'
loop_
_space_group_symop_operation_xyz
x,y,z
-x,y,-z
-x,-y,-z
x,-y,z
1/2+x,1/2+y,z
1/2-x,1/2+y,-z
1/2-x,1/2-y,-z
1/2+x,1/2-y,z
loop_
_atom_site_type_symbol
_atom_site_label
_atom_site_fract_x
_atom_site_fract_y
_atom_site_fract_z
Si Si1 0.789029 0.170782 0.480251
Si Si2 0.148421 0.331743 0.269560
Si Si3 0.220251 0.673643 0.905683
Si Si4 0.415345 0.327666 0.915658
Si Si5 0.080991 0.327667 0.343399
Si Si6 0.159250 0.676085 0.038917
Si Si7 0.078803 0.672626 0.828250
O O1 0.750000 0.250000 0.500000
O O2 0.736070 0.188353 0.364008
O O3 0.868390 0.244842 0.551789
O O4 0.799510 0.000000 0.509055
O O5 0.130434 0.500000 0.228905
O O6 0.118661 0.214163 0.188158
O O7 0.109928 0.298879 0.299641
O O8 0.238816 0.500000 0.924727
O O9 0.132848 0.699145 0.820764
O O10 0.250000 0.750000 0.000000
O O11 0.259614 0.751898 0.883713
O O12 0.400703 0.500000 0.915361
O O13 0.500000 0.290589 0.000000
O O14 0.378303 0.227588 0.933011
O O15 0.082522 0.500000 0.363332
O O16 0.999943 0.257877 0.266720
O O17 0.167712 0.500000 0.047342
O O18 0.112274 0.736212 0.929777
O O19 0.066530 0.500000 0.828949
#
# Coordination Sequence:
#
# PCOD8087228 Si02
#       7
#     8   8   8   8   8   8   8
#     4   9  17  29  44  64  88 115 148 184 223 264
#     4   9  18  31  46  63  88 123 156 183 214 263
#     4   9  16  28  45  66  92 120 152 188 225 266
#     4  11  23  34  45  66  93 119 151 190 226 262
#     4   9  16  28  46  68  92 118 149 182 220 265
#     4  10  19  32  48  64  88 124 159 188 222 265
#     4   8  15  27  45  68  92 119 148 180 220 266
#
# _framework density 16.503688
#
# number of rings (size 3 to 8) (size 9 to 14) (size 15 to 20)
#    0.000    2.714    0.000    4.286    0.000    5.143 
#    0.000    4.286    0.000    0.000    0.000    1.000 
#    0.000    8.000    0.000    0.000    0.000    0.000 
#
# Total GULP energy -346980.680245 kJ/mol
# GULP energy per Si atom -12392.167152 kJ/mol
# Density = 1.646612 g / cm^3
# Si number density = 16.503688 Si / 1000 Ang^3
#
#
#
# Elastic Constant Matrix: (Units=GPa)
#
#
# Indices 1 2 3 4 5 6 
#
# 1 90.0077 41.2546 41.4810 0.0000 22.9551 0.0000
# 2 41.2546 79.8656 39.5256 0.0000 11.1221 0.0000
# 3 41.4810 39.5256 88.9390 0.0000 25.2646 0.0000
# 4 0.0000 0.0000 0.0000 24.9307 0.0000 0.3981
# 5 22.9551 11.1221 25.2646 0.0000 25.9172 0.0000
# 6 0.0000 0.0000 0.0000 0.3981 0.0000 24.2598
#
#
#
# Elastic Compliance Matrix: (Units=1/GPa)
#
#
# Indices 1 2 3 4 5 6 
#
# 1 0.017987 -0.006607 -0.002396 0.000000 -0.010760 0.000000
# 2 -0.006607 0.018478 -0.006279 0.000000 0.004043 0.000000
# 3 -0.002396 -0.006279 0.019062 0.000000 -0.013765 0.000000
# 4 0.000000 0.000000 0.000000 0.040122 0.000000 -0.000658
# 5 -0.010760 0.004043 -0.013765 0.000000 0.059798 0.000000
# 6 0.000000 0.000000 0.000000 -0.000658 0.000000 0.041231
#
#
# Mechanical properties :
#
#
# Convention : Reuss Voigt Hill
#
# Bulk Modulus (GPa) = 40.05968 55.92607 47.99287
# Shear Modulus (GPa) = 21.22572 24.12493 22.67533
#
# Velocity S-wave (km/s) = 3.59014 3.82748 3.71071
# Velocity P-wave (km/s) = 6.44293 7.31392 6.89220
#
# Compressibility (1/GPa) = 0.02496276
#
# Stress axis : x y z
#
# Youngs Moduli (GPa) = 55.59609 54.11776 52.46048
#
# Poissons Ratio (x) = 0.35754 0.12572
# Poissons Ratio (y) = 0.36731 0.32940
# Poissons Ratio (z) = 0.13323 0.33981
#
# Static dielectric constant tensor:
#      x y z
#    x 3.222730 0.000000 0.482510 
#    y 0.000000 3.185590 0.000000 
#    z 0.482510 0.000000 3.294170 
# 
# 
# High freq. dielectric constant tensor:
#      x y z
#    x 1.618540 0.000000 0.029690 
#    y 0.000000 1.636070 0.000000 
#    z 0.029690 0.000000 1.613850 
# 
# From -- ./inp_files/291935.got.cif
#   From: 2010.06.25/outbox.cif.g09.slc.cpg/sg12_146_cif.got.tgz:291935.got - 2010.06.28 00:19:55.
