data_PCOD8087781
_publ_section_title
;
Structure prediction by ZEFSAII (Michael W. Deem and Ramdas Pophale) SiO2 
 PCOD8087781
Probable space group: C 2/M
;
_chemical_formula_sum "Si O2"
_cell_formula_units_Z 56
_cell_length_a 29.592147
_cell_length_b 9.068207
_cell_length_c 12.549666
_cell_angle_alpha 90.000000
_cell_angle_beta 105.187335
_cell_angle_gamma 90.000000
_cell_volume 3250.056238
_symmetry_space_group_name_H-M "C 2/M"
_symmetry_group_IT_number 12
_symmetry_cell_setting 'monoclinic'
loop_
_space_group_symop_operation_xyz
x,y,z
-x,y,-z
-x,-y,-z
x,-y,z
1/2+x,1/2+y,z
1/2-x,1/2+y,-z
1/2-x,1/2-y,-z
1/2+x,1/2-y,z
loop_
_atom_site_type_symbol
_atom_site_label
_atom_site_fract_x
_atom_site_fract_y
_atom_site_fract_z
Si Si1 0.451107 0.826555 0.517731
Si Si2 0.118400 0.673375 0.710909
Si Si3 0.045460 0.173127 0.260429
Si Si4 0.391369 0.329397 0.896475
Si Si5 0.201074 0.828861 0.847599
Si Si6 0.306835 0.828586 0.935133
Si Si7 0.059724 0.170389 0.852755
O O1 0.500000 0.766264 0.500000
O O2 0.409554 0.782434 0.412275
O O3 0.439589 0.751911 0.622147
O O4 0.454591 0.000000 0.537889
O O5 0.125133 0.500000 0.724173
O O6 0.169471 0.750255 0.738036
O O7 0.091100 0.728393 0.797557
O O8 0.081586 0.223185 0.191975
O O9 0.993747 0.221398 0.192566
O O10 0.047767 0.000000 0.280648
O O11 0.376668 0.500000 0.880271
O O12 0.344552 0.231464 0.874636
O O13 0.425724 0.301943 0.016820
O O14 0.255405 0.802545 0.853386
O O15 0.188199 0.000000 0.844622
O O16 0.187528 0.761259 0.952912
O O17 0.315309 0.000000 0.965034
O O18 0.066472 0.000000 0.824144
#
# Coordination Sequence:
#
# PCOD8087781 Si02
#       7
#     8   8   8   8   8   8   8
#     4  10  21  37  53  73 105 140 175 221 267 304
#     4  11  21  33  53  78 106 137 175 217 261 310
#     4  10  21  35  53  77 105 142 184 216 252 310
#     4  10  20  34  52  77 110 143 174 214 260 306
#     4  10  20  34  52  77 107 137 170 214 263 308
#     4  10  20  33  52  78 107 138 172 209 257 317
#     4  10  19  32  51  76 108 142 173 209 258 309
#
# _framework density 17.23047
#
# number of rings (size 3 to 8) (size 9 to 14) (size 15 to 20)
#    0.000    1.857    2.857    1.714    0.000    5.429 
#    0.000    0.000    0.000    3.429    0.000    0.000 
#    0.000    0.000    0.000    0.000    0.000    0.000 
#
# Total GULP energy -347294.388296 kJ/mol
# GULP energy per Si atom -12403.371011 kJ/mol
# Density = 1.719125 g / cm^3
# Si number density = 17.230470 Si / 1000 Ang^3
#
#
#
# Elastic Constant Matrix: (Units=GPa)
#
#
# Indices 1 2 3 4 5 6 
#
# 1 103.6588 43.6762 60.9786 0.0000 18.7877 0.0000
# 2 43.6762 68.9975 51.4233 0.0000 14.1644 0.0000
# 3 60.9786 51.4233 117.4484 0.0000 7.5574 0.0000
# 4 0.0000 0.0000 0.0000 24.1853 0.0000 0.3037
# 5 18.7877 14.1644 7.5574 0.0000 27.7102 0.0000
# 6 0.0000 0.0000 0.0000 0.3037 0.0000 30.0648
#
#
#
# Elastic Compliance Matrix: (Units=1/GPa)
#
#
# Indices 1 2 3 4 5 6 
#
# 1 0.016397 -0.004298 -0.006165 0.000000 -0.007239 0.000000
# 2 -0.004298 0.024849 -0.008162 0.000000 -0.007562 0.000000
# 3 -0.006165 -0.008162 0.015015 0.000000 0.004257 0.000000
# 4 0.000000 0.000000 0.000000 0.041353 0.000000 -0.000418
# 5 -0.007239 -0.007562 0.004257 0.000000 0.043700 0.000000
# 6 0.000000 0.000000 0.000000 -0.000418 0.000000 0.033266
#
#
# Mechanical properties :
#
#
# Convention : Reuss Voigt Hill
#
# Bulk Modulus (GPa) = 52.60313 66.91790 59.76051
# Shear Modulus (GPa) = 22.91816 25.32718 24.12267
#
# Velocity S-wave (km/s) = 3.65100 3.83810 3.74572
# Velocity P-wave (km/s) = 6.95475 7.65262 7.31201
#
# Compressibility (1/GPa) = 0.01901028
#
# Stress axis : x y z
#
# Youngs Moduli (GPa) = 60.98660 40.24233 66.59997
#
# Poissons Ratio (x) = 0.17298 0.41062
# Poissons Ratio (y) = 0.26215 0.54357
# Poissons Ratio (z) = 0.37601 0.32845
#
# Static dielectric constant tensor:
#      x y z
#    x 3.396770 0.000000 0.235770 
#    y 0.000000 3.234860 0.000000 
#    z 0.235770 0.000000 3.173300 
# 
# 
# High freq. dielectric constant tensor:
#      x y z
#    x 1.665700 0.000000 0.015280 
#    y 0.000000 1.669290 0.000000 
#    z 0.015280 0.000000 1.649280 
# 
# From -- ./inp_files/186399.got.cif
#   From: 2010.06.25/outbox.cif.g09.slc.cpg/sg12_94_cif.got.tgz:186399.got - 2010.06.28 00:19:55.
