data_PCOD8087190
_publ_section_title
;
Structure prediction by ZEFSAII (Michael W. Deem and Ramdas Pophale) SiO2 
 PCOD8087190
Probable space group: C 2/M
;
_chemical_formula_sum "Si O2"
_cell_formula_units_Z 64
_cell_length_a 26.691834
_cell_length_b 17.381318
_cell_length_c 22.488867
_cell_angle_alpha 90.000000
_cell_angle_beta 20.789364
_cell_angle_gamma 90.000000
_cell_volume 3703.186566
_symmetry_space_group_name_H-M "C 2/M"
_symmetry_group_IT_number 12
_symmetry_cell_setting 'monoclinic'
loop_
_space_group_symop_operation_xyz
x,y,z
-x,y,-z
-x,-y,-z
x,-y,z
1/2+x,1/2+y,z
1/2-x,1/2+y,-z
1/2-x,1/2-y,-z
1/2+x,1/2-y,z
loop_
_atom_site_type_symbol
_atom_site_label
_atom_site_fract_x
_atom_site_fract_y
_atom_site_fract_z
Si Si1 0.158695 0.589691 0.105206
Si Si2 0.663680 0.911234 0.872473
Si Si3 0.598272 0.716283 0.739884
Si Si4 0.177941 0.909986 0.190299
Si Si5 0.410516 0.201328 0.371296
Si Si6 0.631317 0.852558 0.782282
Si Si7 0.930784 0.086150 0.874710
Si Si8 0.422384 0.365912 0.405593
O O1 0.123479 0.500000 0.138574
O O2 0.013406 0.633756 0.278512
O O3 0.228564 0.623773 0.967459
O O4 0.269116 0.604537 0.036254
O O5 0.771908 0.877751 0.801595
O O6 0.679253 0.856259 0.797981
O O7 0.694766 0.000000 0.820918
O O8 0.505230 0.906276 0.075051
O O9 0.569365 0.779118 0.720435
O O10 0.749564 0.675470 0.561629
O O11 0.593807 0.763733 0.806681
O O12 0.481549 0.648343 0.867403
O O13 0.013842 0.891128 0.361407
O O14 0.203372 0.000000 0.163301
O O15 0.446292 0.275420 0.371067
O O16 0.758109 0.884183 0.600260
O O17 0.029599 0.088707 0.706390
O O18 0.941937 0.000000 0.888921
#
# Coordination Sequence:
#
# PCOD8087190 Si02
#       8
#     8   8   8   8   8   8   8   8
#     4   9  17  29  45  66  94 122 147 180 219 262
#     4  10  21  33  46  66  89 117 156 192 219 255
#     4   9  18  30  44  63  89 119 150 184 221 263
#     4   9  18  30  43  64  90 118 153 184 216 258
#     4   9  17  29  43  65  90 117 153 182 214 267
#     4  10  19  32  45  61  88 119 154 189 221 256
#     4   9  18  30  45  69  94 117 149 182 219 270
#     4   9  18  30  46  65  91 122 148 180 220 263
#
# _framework density 17.282412999999998
#
# number of rings (size 3 to 8) (size 9 to 14) (size 15 to 20)
#    0.000    2.750    0.000    3.375    0.000    8.500 
#    0.000    3.125    0.000    0.000    0.000    1.750 
#    0.000    1.000    0.000   32.000    0.000    1.250 
#
# Total GULP energy -396668.728203 kJ/mol
# GULP energy per Si atom -12395.897756 kJ/mol
# Density = 1.724308 g / cm^3
# Si number density = 17.282413 Si / 1000 Ang^3
#
#
#
# Elastic Constant Matrix: (Units=GPa)
#
#
# Indices 1 2 3 4 5 6 
#
# 1 78.0301 33.3508 9.9370 -0.0025 -12.1384 0.0008
# 2 33.3508 70.3374 23.3922 -0.0036 -8.8583 0.0023
# 3 9.9370 23.3922 57.1362 -0.0026 -9.9274 0.0019
# 4 -0.0025 -0.0036 -0.0026 25.6464 0.0030 -6.3151
# 5 -12.1384 -8.8583 -9.9274 0.0030 20.8467 -0.0015
# 6 0.0008 0.0023 0.0019 -6.3151 -0.0015 31.4773
#
#
#
# Elastic Compliance Matrix: (Units=1/GPa)
#
#
# Indices 1 2 3 4 5 6 
#
# 1 0.017039 -0.007631 0.001440 0.000000 0.007365 0.000000
# 2 -0.007631 0.020207 -0.006788 0.000001 0.000911 -0.000001
# 3 0.001440 -0.006788 0.021450 0.000000 0.008169 0.000000
# 4 0.000000 0.000001 0.000000 0.041018 -0.000005 0.008229
# 5 0.007365 0.000911 0.008169 -0.000005 0.056535 0.000001
# 6 0.000000 -0.000001 0.000000 0.008229 0.000001 0.033420
#
#
# Mechanical properties :
#
#
# Convention : Reuss Voigt Hill
#
# Bulk Modulus (GPa) = 30.54336 37.65152 34.09744
# Shear Modulus (GPa) = 22.07122 24.84900 23.46011
#
# Velocity S-wave (km/s) = 3.57752 3.79597 3.68836
# Velocity P-wave (km/s) = 5.89714 6.40671 6.15720
#
# Compressibility (1/GPa) = 0.03274034
#
# Stress axis : x y z
#
# Youngs Moduli (GPa) = 58.68799 49.48658 46.62024
#
# Poissons Ratio (x) = 0.37762 -0.06715
# Poissons Ratio (y) = 0.44783 0.31645
# Poissons Ratio (z) = -0.08453 0.33590
#
# Static dielectric constant tensor:
#      x y z
#    x 3.235760 -0.000010 -0.260560 
#    y -0.000010 3.032420 0.000010 
#    z -0.260560 0.000010 3.171490 
# 
# 
# High freq. dielectric constant tensor:
#      x y z
#    x 1.646210 0.000000 -0.031850 
#    y 0.000000 1.646610 0.000000 
#    z -0.031850 0.000000 1.657630 
# 
# From -- ./inp_files/352274.got.cif
#   From: 2010.06.25/outbox.cif.g09.slc.cpg/sg12_177_cif.got.tgz:352274.got - 2010.06.28 00:19:55.
