data_PCOD8087814
_publ_section_title
;
Structure prediction by ZEFSAII (Michael W. Deem and Ramdas Pophale) SiO2 
 PCOD8087814
Probable space group: C 2/M
;
_chemical_formula_sum "Si O2"
_cell_formula_units_Z 56
_cell_length_a 24.460916
_cell_length_b 8.651822
_cell_length_c 19.809079
_cell_angle_alpha 90.000000
_cell_angle_beta 45.565404
_cell_angle_gamma 90.000000
_cell_volume 2993.458557
_symmetry_space_group_name_H-M "C 2/M"
_symmetry_group_IT_number 12
_symmetry_cell_setting 'monoclinic'
loop_
_space_group_symop_operation_xyz
x,y,z
-x,y,-z
-x,-y,-z
x,-y,z
1/2+x,1/2+y,z
1/2-x,1/2+y,-z
1/2-x,1/2-y,-z
1/2+x,1/2-y,z
loop_
_atom_site_type_symbol
_atom_site_label
_atom_site_fract_x
_atom_site_fract_y
_atom_site_fract_z
Si Si1 0.363159 0.682470 0.692805
Si Si2 0.308171 0.183174 0.306401
Si Si3 0.034570 0.681754 0.774811
Si Si4 0.454807 0.680170 0.971602
Si Si5 0.691566 0.182009 0.846782
Si Si6 0.000668 0.816521 0.663613
Si Si7 0.640462 0.684325 0.455353
O O1 0.372235 0.500000 0.681288
O O2 0.278465 0.724328 0.793182
O O3 0.426833 0.751802 0.688168
O O4 0.376367 0.747458 0.605622
O O5 0.377790 0.243906 0.292615
O O6 0.321614 0.239879 0.218353
O O7 0.225395 0.242237 0.404954
O O8 0.307846 0.000000 0.305215
O O9 0.033264 0.500000 0.764483
O O10 0.996337 0.762860 0.744099
O O11 0.986878 0.721599 0.882203
O O12 0.464312 0.500000 0.947505
O O13 0.500000 0.729078 0.000000
O O14 0.365562 0.722814 0.056285
O O15 0.675553 0.000000 0.868214
O O16 0.077231 0.749789 0.561512
O O17 0.000343 0.000000 0.661648
O O18 0.638184 0.500000 0.456475
#
# Coordination Sequence:
#
# PCOD8087814 Si02
#       7
#     8   8   8   8   8   8   8
#     4   8  15  29  53  81 104 132 174 215 249 295
#     4   8  15  28  48  75 102 131 170 210 245 296
#     4  11  22  35  51  72 104 143 176 203 247 311
#     4  11  22  35  54  80 105 126 160 212 265 309
#     4   9  16  31  55  79 101 130 170 210 251 301
#     4  10  19  32  51  77 108 138 171 215 256 289
#     4   8  14  27  51  79 103 132 173 215 253 293
#
# _framework density 18.707457999999999
#
# number of rings (size 3 to 8) (size 9 to 14) (size 15 to 20)
#    0.000    2.714    1.429    3.000    0.000    2.857 
#    0.000    1.429    0.000    6.000    0.000    0.000 
#    0.000    0.000    0.000    0.000    0.000    0.000 
#
# Total GULP energy -347080.025260 kJ/mol
# GULP energy per Si atom -12395.715188 kJ/mol
# Density = 1.866488 g / cm^3
# Si number density = 18.707458 Si / 1000 Ang^3
#
#
#
# Elastic Constant Matrix: (Units=GPa)
#
#
# Indices 1 2 3 4 5 6 
#
# 1 104.5683 15.4533 55.1546 -0.0007 -2.8718 0.0000
# 2 15.4533 15.4520 9.7458 -0.0011 -4.1040 0.0025
# 3 55.1546 9.7458 98.4261 -0.0007 -10.9987 0.0015
# 4 -0.0007 -0.0011 -0.0007 8.3516 0.0007 0.0425
# 5 -2.8718 -4.1040 -10.9987 0.0007 27.7518 -0.0011
# 6 0.0000 0.0025 0.0015 0.0425 -0.0011 16.9654
#
#
#
# Elastic Compliance Matrix: (Units=1/GPa)
#
#
# Indices 1 2 3 4 5 6 
#
# 1 0.015231 -0.011163 -0.007783 -0.000001 -0.003159 0.000002
# 2 -0.011163 0.078881 -0.000398 0.000009 0.010352 -0.000011
# 3 -0.007783 -0.000398 0.015134 0.000000 0.005134 -0.000001
# 4 -0.000001 0.000009 0.000000 0.119739 -0.000002 -0.000300
# 5 -0.003159 0.010352 0.005134 -0.000002 0.039272 0.000001
# 6 0.000002 -0.000011 -0.000001 -0.000300 0.000001 0.058944
#
#
# Mechanical properties :
#
#
# Convention : Reuss Voigt Hill
#
# Bulk Modulus (GPa) = 14.17266 42.12819 28.15042
# Shear Modulus (GPa) = 12.83998 19.81996 16.32997
#
# Velocity S-wave (km/s) = 2.62268 3.25848 2.95771
# Velocity P-wave (km/s) = 4.09435 6.06014 5.17151
#
# Compressibility (1/GPa) = 0.07055839
#
# Stress axis : x y z
#
# Youngs Moduli (GPa) = 65.65575 12.67734 66.07566
#
# Poissons Ratio (x) = 0.14151 0.51424
# Poissons Ratio (y) = 0.73289 0.02633
# Poissons Ratio (z) = 0.51097 0.00505
#
# Static dielectric constant tensor:
#      x y z
#    x 3.773720 -0.000010 -0.269280 
#    y -0.000010 2.921770 0.000000 
#    z -0.269280 0.000000 3.466400 
# 
# 
# High freq. dielectric constant tensor:
#      x y z
#    x 1.726900 0.000000 -0.016900 
#    y 0.000000 1.680420 0.000000 
#    z -0.016900 0.000000 1.725030 
# 
# From -- ./inp_files/288187.got.cif
#   From: 2010.06.25/outbox.cif.g09.slc.cpg/sg12_145_cif.got.tgz:288187.got - 2010.06.28 00:19:55.
