data_PCOD8087034
_publ_section_title
;
Structure prediction by ZEFSAII (Michael W. Deem and Ramdas Pophale) SiO2 
 PCOD8087034
Probable space group: C 2/M
;
_chemical_formula_sum "Si O2"
_cell_formula_units_Z 64
_cell_length_a 22.370804
_cell_length_b 16.131827
_cell_length_c 10.066157
_cell_angle_alpha 90.000000
_cell_angle_beta 106.108012
_cell_angle_gamma 90.000000
_cell_volume 3490.076020
_symmetry_space_group_name_H-M "C 2/M"
_symmetry_group_IT_number 12
_symmetry_cell_setting 'monoclinic'
loop_
_space_group_symop_operation_xyz
x,y,z
-x,y,-z
-x,-y,-z
x,-y,z
1/2+x,1/2+y,z
1/2-x,1/2+y,-z
1/2-x,1/2-y,-z
1/2+x,1/2-y,z
loop_
_atom_site_type_symbol
_atom_site_label
_atom_site_fract_x
_atom_site_fract_y
_atom_site_fract_z
Si Si1 0.368246 0.407326 0.085142
Si Si2 0.488080 0.171088 0.148678
Si Si3 0.132628 0.409215 0.984815
Si Si4 0.891226 0.407078 0.720208
Si Si5 0.201069 0.259659 0.354279
Si Si6 0.134419 0.094932 0.225517
Si Si7 0.001215 0.143503 0.158039
Si Si8 0.746737 0.319436 0.891360
O O1 0.345151 0.500000 0.086905
O O2 0.363473 0.379730 0.928322
O O3 0.439605 0.400113 0.178471
O O4 0.323237 0.354729 0.152546
O O5 0.535589 0.112340 0.260626
O O6 0.501255 0.262747 0.210246
O O7 0.500000 0.163817 0.000000
O O8 0.415375 0.148378 0.128319
O O9 0.124604 0.500000 0.918671
O O10 0.115457 0.406770 0.127315
O O11 0.204477 0.385179 0.019043
O O12 0.874727 0.500000 0.653374
O O13 0.848021 0.332673 0.635697
O O14 0.250000 0.250000 0.500000
O O15 0.171884 0.167663 0.322260
O O16 0.236662 0.286752 0.243519
O O17 0.064071 0.096726 0.240602
O O18 0.159793 0.000000 0.264338
O O19 0.000000 0.140818 0.000000
O O20 0.750000 0.250000 0.000000
#
# Coordination Sequence:
#
# PCOD8087034 Si02
#       8
#     8   8   8   8   8   8   8   8
#     4  10  19  31  52  83 113 143 180 224 278 334
#     4   9  14  23  44  71 105 135 169 213 267 316
#     4   9  17  26  42  73 106 136 165 207 266 323
#     4   9  17  30  49  73 103 137 175 220 268 319
#     4  11  23  38  55  78 108 145 188 226 271 329
#     4  10  19  34  54  80 111 144 182 231 280 327
#     4   9  16  27  49  79 110 141 175 223 275 327
#     4  11  20  34  53  75 108 143 178 220 274 322
#
# _framework density 18.337710000000001
#
# number of rings (size 3 to 8) (size 9 to 14) (size 15 to 20)
#    0.000    2.250    2.500    1.875    3.500    4.000 
#    0.000    0.000    0.000    0.750    0.000    1.750 
#    0.000    3.250    0.000    0.000    0.000    0.000 
#
# Total GULP energy -396427.371866 kJ/mol
# GULP energy per Si atom -12388.355371 kJ/mol
# Density = 1.829597 g / cm^3
# Si number density = 18.337710 Si / 1000 Ang^3
#
#
#
# Elastic Constant Matrix: (Units=GPa)
#
#
# Indices 1 2 3 4 5 6 
#
# 1 108.5024 35.4348 31.0093 0.0000 24.2789 0.0000
# 2 35.4348 116.6145 38.6594 0.0000 19.0673 0.0000
# 3 31.0093 38.6594 60.2314 0.0000 18.9568 0.0000
# 4 0.0000 0.0000 0.0000 14.3113 0.0000 8.1564
# 5 24.2789 19.0673 18.9568 0.0000 17.8861 0.0000
# 6 0.0000 0.0000 0.0000 8.1564 0.0000 28.7965
#
#
#
# Elastic Compliance Matrix: (Units=1/GPa)
#
#
# Indices 1 2 3 4 5 6 
#
# 1 0.013464 -0.001093 -0.001268 0.000000 -0.015767 0.000000
# 2 -0.001093 0.011477 -0.005132 0.000000 -0.005313 0.000000
# 3 -0.001268 -0.005132 0.027439 0.000000 -0.021889 0.000000
# 4 0.000000 0.000000 0.000000 0.083326 0.000000 -0.023601
# 5 -0.015767 -0.005313 -0.021889 0.000000 0.106175 0.000000
# 6 0.000000 0.000000 0.000000 -0.023601 0.000000 0.041411
#
#
# Mechanical properties :
#
#
# Convention : Reuss Voigt Hill
#
# Bulk Modulus (GPa) = 26.74189 55.06170 40.90180
# Shear Modulus (GPa) = 16.09054 24.21511 20.15283
#
# Velocity S-wave (km/s) = 2.96540 3.63782 3.31869
# Velocity P-wave (km/s) = 5.13220 6.90917 6.08589
#
# Compressibility (1/GPa) = 0.03739451
#
# Stress axis : x y z
#
# Youngs Moduli (GPa) = 74.27373 87.12832 36.44505
#
# Poissons Ratio (x) = 0.09521 0.04620
# Poissons Ratio (y) = 0.08117 0.18704
# Poissons Ratio (z) = 0.09416 0.44715
#
# Static dielectric constant tensor:
#      x y z
#    x 3.195720 0.000000 0.296460 
#    y 0.000000 3.616940 0.000000 
#    z 0.296460 0.000000 2.782370 
# 
# 
# High freq. dielectric constant tensor:
#      x y z
#    x 1.709220 0.000000 0.038300 
#    y 0.000000 1.731000 0.000000 
#    z 0.038300 0.000000 1.638640 
# 
# From -- ./inp_files/168500.got.cif
#   From: 2010.06.25/outbox.cif.g09.slc.cpg/sg12_85_cif.got.tgz:168500.got - 2010.06.28 00:19:55.
