data_PCOD8087369
_publ_section_title
;
Structure prediction by ZEFSAII (Michael W. Deem and Ramdas Pophale) SiO2 
 PCOD8087369
Probable space group: C 2/M
;
_chemical_formula_sum "Si O2"
_cell_formula_units_Z 64
_cell_length_a 9.120721
_cell_length_b 19.883685
_cell_length_c 24.474828
_cell_angle_alpha 90.000000
_cell_angle_beta 130.750680
_cell_angle_gamma 90.000000
_cell_volume 3362.491114
_symmetry_space_group_name_H-M "C 2/M"
_symmetry_group_IT_number 12
_symmetry_cell_setting 'monoclinic'
loop_
_space_group_symop_operation_xyz
x,y,z
-x,y,-z
-x,-y,-z
x,-y,z
1/2+x,1/2+y,z
1/2-x,1/2+y,-z
1/2-x,1/2-y,-z
1/2+x,1/2-y,z
loop_
_atom_site_type_symbol
_atom_site_label
_atom_site_fract_x
_atom_site_fract_y
_atom_site_fract_z
Si Si1 0.629632 0.663052 0.582059
Si Si2 0.099367 0.799525 0.255985
Si Si3 0.327565 0.574978 0.793135
Si Si4 0.482887 0.260066 0.646433
Si Si5 0.113368 0.880054 0.079387
Si Si6 0.615584 0.922745 0.284999
Si Si7 0.482843 0.830337 0.827494
Si Si8 0.026688 0.268405 0.948576
O O1 0.500000 0.639580 0.500000
O O2 0.487278 0.692347 0.594348
O O3 0.738678 0.597119 0.631103
O O4 0.786668 0.716889 0.599054
O O5 0.068577 0.872758 0.222036
O O6 0.328378 0.786434 0.310116
O O7 0.012968 0.802455 0.296026
O O8 0.983871 0.741571 0.194440
O O9 0.352932 0.500000 0.775377
O O10 0.438720 0.579181 0.878590
O O11 0.101338 0.592263 0.746658
O O12 0.341596 0.883235 0.125344
O O13 0.085027 0.801097 0.079654
O O14 0.000000 0.910987 0.000000
O O15 0.668731 0.873173 0.246423
O O16 0.645756 0.000000 0.275758
O O17 0.432242 0.814610 0.878229
O O18 0.250000 0.250000 0.000000
O O19 0.000000 0.306499 0.000000
#
# Coordination Sequence:
#
# PCOD8087369 Si02
#       8
#     8   8   8   8   8   8   8   8
#     4  11  21  37  60  90 120 148 180 228 286 335
#     4  11  19  34  58  84 109 145 191 227 281 326
#     4  10  20  34  54  78 110 149 186 235 280 333
#     4  10  20  35  57  87 116 143 178 234 271 327
#     4  10  19  32  49  79 108 138 185 234 287 332
#     4  10  21  37  57  83 111 149 198 230 275 342
#     4  11  19  33  58  77 107 147 187 237 279 327
#     4  11  20  31  49  79 109 139 180 237 286 333
#
# _framework density 19.033508000000001
#
# number of rings (size 3 to 8) (size 9 to 14) (size 15 to 20)
#    0.000    1.500    7.500    1.125    0.000    0.500 
#    0.000    0.625    0.000    0.375    0.000    1.750 
#    0.000    0.500    0.000    0.000    0.000    0.000 
#
# Total GULP energy -396512.730949 kJ/mol
# GULP energy per Si atom -12391.022842 kJ/mol
# Density = 1.899019 g / cm^3
# Si number density = 19.033508 Si / 1000 Ang^3
#
#
#
# Elastic Constant Matrix: (Units=GPa)
#
#
# Indices 1 2 3 4 5 6 
#
# 1 75.1843 19.6746 28.8611 0.0000 -23.9049 0.0000
# 2 19.6746 93.6211 33.4099 0.0000 -20.0372 0.0000
# 3 28.8611 33.4099 128.5651 0.0000 -23.8083 0.0000
# 4 0.0000 0.0000 0.0000 15.9544 -0.0001 -5.7399
# 5 -23.9049 -20.0372 -23.8083 -0.0001 29.1197 -0.0001
# 6 0.0000 0.0000 0.0000 -5.7399 -0.0001 20.2325
#
#
#
# Elastic Compliance Matrix: (Units=1/GPa)
#
#
# Indices 1 2 3 4 5 6 
#
# 1 0.018273 -0.000419 -0.001495 0.000000 0.013490 0.000000
# 2 -0.000419 0.012967 -0.001988 0.000000 0.006953 0.000000
# 3 -0.001495 -0.001988 0.009604 0.000000 0.005257 0.000000
# 4 0.000000 0.000000 0.000000 0.069803 0.000000 0.019803
# 5 0.013490 0.006953 0.005257 0.000000 0.054498 0.000000
# 6 0.000000 0.000000 0.000000 0.019803 0.000000 0.055043
#
#
# Mechanical properties :
#
#
# Convention : Reuss Voigt Hill
#
# Bulk Modulus (GPa) = 30.26685 51.25133 40.75909
# Shear Modulus (GPa) = 20.91995 27.42299 24.17147
#
# Velocity S-wave (km/s) = 3.31888 3.79987 3.56749
# Velocity P-wave (km/s) = 5.53381 6.79981 6.19921
#
# Compressibility (1/GPa) = 0.03303945
#
# Stress axis : x y z
#
# Youngs Moduli (GPa) = 54.72414 77.11867 104.12458
#
# Poissons Ratio (x) = 0.03235 0.15566
# Poissons Ratio (y) = 0.02296 0.20700
# Poissons Ratio (z) = 0.08181 0.15331
#
# Static dielectric constant tensor:
#      x y z
#    x 3.698150 0.000000 -0.043520 
#    y 0.000000 3.188380 0.000000 
#    z -0.043520 0.000000 3.693770 
# 
# 
# High freq. dielectric constant tensor:
#      x y z
#    x 1.726370 0.000000 -0.005780 
#    y 0.000000 1.708370 0.000000 
#    z -0.005780 0.000000 1.747760 
# 
# From -- ./inp_files/333778.got.cif
#   From: 2010.06.25/outbox.cif.g09.slc.cpg/sg12_167_cif.got.tgz:333778.got - 2010.06.28 00:19:55.
