data_PCOD8087207
_publ_section_title
;
Structure prediction by ZEFSAII (Michael W. Deem and Ramdas Pophale) SiO2 
 PCOD8087207
Probable space group: C 2/M
;
_chemical_formula_sum "Si O2"
_cell_formula_units_Z 64
_cell_length_a 26.926032
_cell_length_b 18.431688
_cell_length_c 22.738643
_cell_angle_alpha 90.000000
_cell_angle_beta 20.103146
_cell_angle_gamma 90.000000
_cell_volume 3878.785545
_symmetry_space_group_name_H-M "C 2/M"
_symmetry_group_IT_number 12
_symmetry_cell_setting 'monoclinic'
loop_
_space_group_symop_operation_xyz
x,y,z
-x,y,-z
-x,-y,-z
x,-y,z
1/2+x,1/2+y,z
1/2-x,1/2+y,-z
1/2-x,1/2-y,-z
1/2+x,1/2-y,z
loop_
_atom_site_type_symbol
_atom_site_label
_atom_site_fract_x
_atom_site_fract_y
_atom_site_fract_z
Si Si1 0.913454 0.801856 0.872816
Si Si2 0.965206 0.415026 0.285898
Si Si3 0.439174 0.702919 0.632730
Si Si4 0.358502 0.581440 0.393747
Si Si5 0.616167 0.418551 0.497050
Si Si6 0.434739 0.079279 0.134880
Si Si7 0.886000 0.667731 0.977849
Si Si8 0.581663 0.197204 0.239657
O O1 0.940764 0.765704 0.778829
O O2 0.025508 0.865387 0.765171
O O3 0.943735 0.744136 0.890339
O O4 0.748093 0.829302 0.057314
O O5 0.980925 0.500000 0.281772
O O6 0.808009 0.395443 0.433105
O O7 0.985195 0.370812 0.324956
O O8 0.093547 0.390154 0.098514
O O9 0.500000 0.719646 0.500000
O O10 0.510415 0.632378 0.580122
O O11 0.273031 0.678918 0.819897
O O12 0.467886 0.774616 0.640793
O O13 0.382222 0.500000 0.343056
O O14 0.398750 0.586257 0.416823
O O15 0.585251 0.500000 0.509381
O O16 0.774652 0.392142 0.303482
O O17 0.433857 0.000000 0.169769
O O18 0.500000 0.065054 0.000000
O O19 0.519290 0.141755 0.073619
#
# Coordination Sequence:
#
# PCOD8087207 Si02
#       8
#     8   8   8   8   8   8   8   8
#     4   9  18  33  49  71  99 129 162 209 253 291
#     4  10  20  33  53  78 102 129 163 209 255 300
#     4  11  22  36  51  70 102 137 172 208 243 290
#     4  10  19  32  50  75 103 129 160 198 251 303
#     4  10  20  32  46  69 100 131 169 204 235 288
#     4  10  19  32  47  65  96 135 172 205 236 281
#     4  10  20  33  50  72 101 131 169 205 244 296
#     4   9  19  34  50  73 100 128 168 207 251 297
#
# _framework density 16.50001
#
# number of rings (size 3 to 8) (size 9 to 14) (size 15 to 20)
#    0.000    2.125    2.500    1.875    0.000    4.750 
#    0.000    0.000    0.000    0.375    0.000    0.000 
#    0.000    8.500    0.000    0.000    0.000    0.000 
#
# Total GULP energy -396584.840005 kJ/mol
# GULP energy per Si atom -12393.276250 kJ/mol
# Density = 1.646246 g / cm^3
# Si number density = 16.500010 Si / 1000 Ang^3
#
#
#
# Elastic Constant Matrix: (Units=GPa)
#
#
# Indices 1 2 3 4 5 6 
#
# 1 102.8165 43.4287 42.3447 -0.0099 -2.9714 0.0021
# 2 43.4287 90.2748 51.0532 -0.0225 1.4801 0.0047
# 3 42.3447 51.0532 89.8567 -0.0286 6.7028 0.0149
# 4 -0.0099 -0.0225 -0.0286 27.7190 0.0205 -8.3472
# 5 -2.9714 1.4801 6.7028 0.0205 17.4510 0.0001
# 6 0.0021 0.0047 0.0149 -8.3472 0.0001 28.0937
#
#
#
# Elastic Compliance Matrix: (Units=1/GPa)
#
#
# Indices 1 2 3 4 5 6 
#
# 1 0.013331 -0.004053 -0.004298 -0.000006 0.004264 0.000000
# 2 -0.004053 0.017639 -0.008184 0.000005 0.000957 0.000003
# 3 -0.004298 -0.008184 0.018332 0.000015 -0.007079 -0.000004
# 4 -0.000006 0.000005 0.000015 0.039622 -0.000054 0.011772
# 5 0.004264 0.000957 -0.007079 -0.000054 0.060667 -0.000013
# 6 0.000000 0.000003 -0.000004 0.011772 -0.000013 0.039093
#
#
# Mechanical properties :
#
#
# Convention : Reuss Voigt Hill
#
# Bulk Modulus (GPa) = 61.59837 61.84457 61.72147
# Shear Modulus (GPa) = 22.01061 24.39418 23.20239
#
# Velocity S-wave (km/s) = 3.65633 3.84921 3.75401
# Velocity P-wave (km/s) = 7.43225 7.57088 7.50188
#
# Compressibility (1/GPa) = 0.01623420
#
# Stress axis : x y z
#
# Youngs Moduli (GPa) = 75.01244 56.69175 54.54999
#
# Poissons Ratio (x) = 0.22975 0.23445
# Poissons Ratio (y) = 0.30400 0.44641
# Poissons Ratio (z) = 0.32239 0.46394
#
# Static dielectric constant tensor:
#      x y z
#    x 3.035850 -0.000040 -0.013840 
#    y -0.000040 3.131820 0.000050 
#    z -0.013840 0.000050 3.195420 
# 
# 
# High freq. dielectric constant tensor:
#      x y z
#    x 1.617560 0.000000 -0.013050 
#    y 0.000000 1.625950 0.000000 
#    z -0.013050 0.000000 1.636110 
# 
# From -- ./inp_files/352266.got.cif
#   From: 2010.06.25/outbox.cif.g09.slc.cpg/sg12_177_cif.got.tgz:352266.got - 2010.06.28 00:19:55.
