data_PCOD8087603
_publ_section_title
;
Structure prediction by ZEFSAII (Michael W. Deem and Ramdas Pophale) SiO2 
 PCOD8087603
Probable space group: C 2/M
;
_chemical_formula_sum "Si O2"
_cell_formula_units_Z 44
_cell_length_a 19.662399
_cell_length_b 26.604906
_cell_length_c 5.316843
_cell_angle_alpha 90.000000
_cell_angle_beta 117.756505
_cell_angle_gamma 90.000000
_cell_volume 2461.293069
_symmetry_space_group_name_H-M "C 2/M"
_symmetry_group_IT_number 12
_symmetry_cell_setting 'monoclinic'
loop_
_space_group_symop_operation_xyz
x,y,z
-x,y,-z
-x,-y,-z
x,-y,z
1/2+x,1/2+y,z
1/2-x,1/2+y,-z
1/2-x,1/2-y,-z
1/2+x,1/2-y,z
loop_
_atom_site_type_symbol
_atom_site_label
_atom_site_fract_x
_atom_site_fract_y
_atom_site_fract_z
Si Si1 0.701136 0.115704 0.347690
Si Si2 0.566296 0.175961 0.962071
Si Si3 0.000000 0.594696 0.500000
Si Si4 0.165173 0.442598 0.772805
Si Si5 0.658399 0.741459 0.864165
Si Si6 0.811005 0.795436 0.581949
O O1 0.706242 0.078634 0.593626
O O2 0.777208 0.149522 0.476237
O O3 0.630611 0.154587 0.263606
O O4 0.693067 0.087261 0.067707
O O5 0.520393 0.129011 0.771150
O O6 0.609102 0.207755 0.818725
O O7 0.500000 0.206873 0.000000
O O8 0.926488 0.559852 0.430296
O O9 0.190345 0.500000 0.850351
O O10 0.632299 0.716338 0.556440
O O11 0.750000 0.750000 0.000000
O O12 0.641447 0.705235 0.074522
O O13 0.750000 0.750000 0.500000
#
# Coordination Sequence:
#
# PCOD8087603 Si02
#       6
#     8   8   4   8   8   8
#     4  11  21  35  53  71  94 128 174 223 256 293
#     4  11  21  32  47  73  98 134 173 220 252 293
#     4  10  23  32  50  64 100 134 184 220 253 284
#     4  11  23  37  50  69  96 134 179 225 260 286
#     4  10  20  30  50  69 100 119 165 215 251 303
#     4  10  19  32  51  73  94 119 164 218 254 309
#
# _framework density 17.876783
#
# number of rings (size 3 to 8) (size 9 to 14) (size 15 to 20)
#    0.000    1.455    5.455    1.909   10.182    0.000 
#    0.000    2.727    0.000    0.000    0.000    0.000 
#    0.000    0.000    0.000    0.000    0.000   63.636 
#
# Total GULP energy -272593.054541 kJ/mol
# GULP energy per Si atom -12390.593388 kJ/mol
# Density = 1.783609 g / cm^3
# Si number density = 17.876783 Si / 1000 Ang^3
#
#
#
# Elastic Constant Matrix: (Units=GPa)
#
#
# Indices 1 2 3 4 5 6 
#
# 1 58.1457 35.7413 24.8783 0.0000 -25.6966 0.0000
# 2 35.7413 97.9715 35.5210 0.0000 -11.2234 0.0000
# 3 24.8783 35.5210 105.0734 0.0000 -37.4832 0.0000
# 4 0.0000 0.0000 0.0000 21.8352 0.0000 -5.8005
# 5 -25.6966 -11.2234 -37.4832 0.0000 28.6574 0.0000
# 6 0.0000 0.0000 0.0000 -5.8005 0.0000 26.2175
#
#
#
# Elastic Compliance Matrix: (Units=1/GPa)
#
#
# Indices 1 2 3 4 5 6 
#
# 1 0.041674 -0.014045 0.011716 0.000000 0.047192 0.000000
# 2 -0.014045 0.016385 -0.008281 0.000000 -0.017008 0.000000
# 3 0.011716 -0.008281 0.022747 0.000000 0.037015 0.000000
# 4 0.000000 0.000000 0.000000 0.048657 0.000000 0.010765
# 5 0.047192 -0.017008 0.037015 0.000000 0.118964 0.000000
# 6 0.000000 0.000000 0.000000 0.010765 0.000000 0.040524
#
#
# Mechanical properties :
#
#
# Convention : Reuss Voigt Hill
#
# Bulk Modulus (GPa) = 16.78246 50.38574 33.58410
# Shear Modulus (GPa) = 15.14993 26.34536 20.74765
#
# Velocity S-wave (km/s) = 2.91428 3.84307 3.41044
# Velocity P-wave (km/s) = 4.55327 6.92376 5.85964
#
# Compressibility (1/GPa) = 0.05958600
#
# Stress axis : x y z
#
# Youngs Moduli (GPa) = 23.99549 61.03233 43.96176
#
# Poissons Ratio (x) = 0.85719 -0.51504
# Poissons Ratio (y) = 0.33701 0.36405
# Poissons Ratio (z) = -0.28112 0.50541
#
# Static dielectric constant tensor:
#      x y z
#    x 3.309230 0.000000 -0.316040 
#    y 0.000000 3.135190 0.000000 
#    z -0.316040 0.000000 2.911760 
# 
# 
# High freq. dielectric constant tensor:
#      x y z
#    x 1.656790 0.000000 -0.038800 
#    y 0.000000 1.661510 0.000000 
#    z -0.038800 0.000000 1.702000 
# 
# From -- ./inp_files/12095.got.cif
#   From: 2010.06.25/outbox.cif.g09.slc.cpg/sg12_7_cif.got.tgz:12095.got - 2010.06.28 00:19:55.
