data_PCOD8087406
_publ_section_title
;
Structure prediction by ZEFSAII (Michael W. Deem and Ramdas Pophale) SiO2 
 PCOD8087406
Probable space group: C 2/M
;
_chemical_formula_sum "Si O2"
_cell_formula_units_Z 48
_cell_length_a 27.470587
_cell_length_b 8.670636
_cell_length_c 23.553160
_cell_angle_alpha 90.000000
_cell_angle_beta 30.188200
_cell_angle_gamma 90.000000
_cell_volume 2820.977157
_symmetry_space_group_name_H-M "C 2/M"
_symmetry_group_IT_number 12
_symmetry_cell_setting 'monoclinic'
loop_
_space_group_symop_operation_xyz
x,y,z
-x,y,-z
-x,-y,-z
x,-y,z
1/2+x,1/2+y,z
1/2-x,1/2+y,-z
1/2-x,1/2-y,-z
1/2+x,1/2-y,z
loop_
_atom_site_type_symbol
_atom_site_label
_atom_site_fract_x
_atom_site_fract_y
_atom_site_fract_z
Si Si1 0.389000 0.319421 0.888026
Si Si2 0.221508 0.817824 0.444039
Si Si3 0.399731 0.180592 0.662015
Si Si4 0.214776 0.821358 0.123624
Si Si5 0.107652 0.182408 0.668491
Si Si6 0.605841 0.682322 0.451348
O O1 0.378713 0.500000 0.911627
O O2 0.356101 0.283360 0.857151
O O3 0.498120 0.257914 0.785254
O O4 0.324023 0.225595 0.997970
O O5 0.151284 0.756407 0.564941
O O6 0.328423 0.746780 0.343923
O O7 0.178653 0.763309 0.427242
O O8 0.229528 0.000000 0.438604
O O9 0.317815 0.220828 0.790027
O O10 0.361791 0.230949 0.638340
O O11 0.497324 0.272484 0.578886
O O12 0.421894 0.000000 0.639748
O O13 0.211315 0.000000 0.143730
O O14 0.108867 0.000000 0.668678
O O15 0.609836 0.500000 0.437563
#
# Coordination Sequence:
#
# PCOD8087406 Si02
#       6
#     8   8   8   8   8   8
#     4   9  18  32  49  71  98 127 160 196 235 280
#     4   9  18  31  48  71  97 126 159 193 230 278
#     4  11  21  32  48  72  99 125 158 197 237 283
#     4  10  19  32  50  71  97 128 160 194 236 283
#     4   9  17  30  48  70  98 128 156 191 234 278
#     4  10  19  33  51  70  96 128 160 195 237 281
#
# _framework density 17.01538
#
# number of rings (size 3 to 8) (size 9 to 14) (size 15 to 20)
#    0.000    2.333    0.000    4.500    0.000    5.333 
#    0.000    3.333    0.000    1.000    0.000    7.000 
#    0.000    0.000    0.000    0.000    0.000    0.000 
#
# Total GULP energy -297652.277592 kJ/mol
# GULP energy per Si atom -12402.178233 kJ/mol
# Density = 1.697665 g / cm^3
# Si number density = 17.015380 Si / 1000 Ang^3
#
#
#
# Elastic Constant Matrix: (Units=GPa)
#
#
# Indices 1 2 3 4 5 6 
#
# 1 122.5966 25.1185 63.2994 -0.0157 -13.3120 0.0131
# 2 25.1185 38.8124 22.3689 -0.0111 3.2304 0.0115
# 3 63.2994 22.3689 105.1296 -0.0089 -5.9032 0.0126
# 4 -0.0157 -0.0111 -0.0089 28.9799 0.0121 -0.8572
# 5 -13.3120 3.2304 -5.9032 0.0121 27.9845 -0.0106
# 6 0.0131 0.0115 0.0126 -0.8572 -0.0106 26.3865
#
#
#
# Elastic Compliance Matrix: (Units=1/GPa)
#
#
# Indices 1 2 3 4 5 6 
#
# 1 0.013195 -0.005240 -0.006521 0.000001 0.005506 0.000001
# 2 -0.005240 0.032088 -0.004069 0.000011 -0.007055 -0.000012
# 3 -0.006521 -0.004069 0.014326 -0.000001 0.000390 -0.000002
# 4 0.000001 0.000011 -0.000001 0.034540 -0.000016 0.001122
# 5 0.005506 -0.007055 0.000390 -0.000016 0.039250 0.000015
# 6 0.000001 -0.000012 -0.000002 0.001122 0.000015 0.037935
#
#
# Mechanical properties :
#
#
# Convention : Reuss Voigt Hill
#
# Bulk Modulus (GPa) = 35.77748 54.23467 45.00608
# Shear Modulus (GPa) = 23.55055 27.05363 25.30209
#
# Velocity S-wave (km/s) = 3.72435 3.99175 3.86036
# Velocity P-wave (km/s) = 6.29020 7.29304 6.81011
#
# Compressibility (1/GPa) = 0.02795054
#
# Stress axis : x y z
#
# Youngs Moduli (GPa) = 75.78564 31.16411 69.80347
#
# Poissons Ratio (x) = 0.16329 0.45518
# Poissons Ratio (y) = 0.39709 0.28402
# Poissons Ratio (z) = 0.49419 0.12680
#
# Static dielectric constant tensor:
#      x y z
#    x 3.223050 -0.000010 -0.036310 
#    y -0.000010 3.122840 0.000020 
#    z -0.036310 0.000020 3.144130 
# 
# 
# High freq. dielectric constant tensor:
#      x y z
#    x 1.647080 0.000000 -0.001090 
#    y 0.000000 1.659750 0.000000 
#    z -0.001090 0.000000 1.645580 
# 
# From -- ./inp_files/327189.got.cif
#   From: 2010.06.25/outbox.cif.g09.slc.cpg/sg12_164_cif.got.tgz:327189.got - 2010.06.28 00:19:55.
