data_PCOD8087667
_publ_section_title
;
Structure prediction by ZEFSAII (Michael W. Deem and Ramdas Pophale) SiO2 
 PCOD8087667
Probable space group: C 2/M
;
_chemical_formula_sum "Si O2"
_cell_formula_units_Z 64
_cell_length_a 31.051835
_cell_length_b 8.749694
_cell_length_c 25.384885
_cell_angle_alpha 90.000000
_cell_angle_beta 27.809991
_cell_angle_gamma 90.000000
_cell_volume 3217.696231
_symmetry_space_group_name_H-M "C 2/M"
_symmetry_group_IT_number 12
_symmetry_cell_setting 'monoclinic'
loop_
_space_group_symop_operation_xyz
x,y,z
-x,y,-z
-x,-y,-z
x,-y,z
1/2+x,1/2+y,z
1/2-x,1/2+y,-z
1/2-x,1/2-y,-z
1/2+x,1/2-y,z
loop_
_atom_site_type_symbol
_atom_site_label
_atom_site_fract_x
_atom_site_fract_y
_atom_site_fract_z
Si Si1 0.760253 0.680692 0.737109
Si Si2 0.437808 0.317529 0.019287
Si Si3 0.649976 0.319776 0.095576
Si Si4 0.569336 0.820192 0.382309
Si Si5 0.686102 0.179522 0.433631
Si Si6 0.816217 0.179451 0.385181
Si Si7 0.983531 0.318435 0.674854
Si Si8 0.019772 0.818175 0.143321
O O1 0.751383 0.500000 0.739296
O O2 0.662633 0.749870 0.859303
O O3 0.827697 0.722632 0.711937
O O4 0.796798 0.752635 0.642572
O O5 0.439275 0.500000 0.015946
O O6 0.500000 0.256299 0.000000
O O7 0.468493 0.253712 0.928814
O O8 0.662793 0.500000 0.082268
O O9 0.575355 0.270693 0.218908
O O10 0.606327 0.266400 0.086396
O O11 0.750000 0.250000 0.000000
O O12 0.500000 0.746093 0.500000
O O13 0.552419 0.757355 0.342474
O O14 0.551254 0.000000 0.400528
O O15 0.773345 0.222897 0.374952
O O16 0.590300 0.235401 0.563755
O O17 0.675159 0.000000 0.438057
O O18 0.750000 0.250000 0.500000
O O19 0.921484 0.243246 0.272865
O O20 0.815488 0.000000 0.395109
O O21 0.970202 0.500000 0.696942
O O22 0.015061 0.000000 0.146654
#
# Coordination Sequence:
#
# PCOD8087667 Si02
#       8
#     8   8   8   8   8   8   8   8
#     4   9  15  23  40  68 101 132 164 203 254 306
#     4   9  16  26  43  69 103 137 166 205 262 318
#     4  11  24  40  56  75 103 141 184 225 267 316
#     4   9  15  25  43  73 106 133 165 210 258 302
#     4   9  16  27  46  76 108 135 165 208 257 309
#     4  10  19  32  51  74 103 134 168 210 257 309
#     4  10  19  32  53  79 108 139 175 219 264 311
#     4   9  19  34  50  73 107 141 172 213 266 317
#
# _framework density 19.890006
#
# number of rings (size 3 to 8) (size 9 to 14) (size 15 to 20)
#    0.000    2.500    1.250    1.875    1.750    3.000 
#    0.000    0.625    0.000    0.375    0.000    0.000 
#    0.000    3.500    0.000    0.000    0.000    0.000 
#
# Total GULP energy -396586.842301 kJ/mol
# GULP energy per Si atom -12393.338822 kJ/mol
# Density = 1.984474 g / cm^3
# Si number density = 19.890006 Si / 1000 Ang^3
#
#
#
# Elastic Constant Matrix: (Units=GPa)
#
#
# Indices 1 2 3 4 5 6 
#
# 1 145.4047 25.6401 76.6372 0.0051 -5.7833 -0.0024
# 2 25.6401 17.8266 15.0669 -0.1126 -2.1786 0.0448
# 3 76.6372 15.0669 159.1075 -0.0610 -10.1632 0.0241
# 4 0.0051 -0.1126 -0.0610 21.1445 0.0239 1.1305
# 5 -5.7833 -2.1786 -10.1632 0.0239 42.4152 -0.0044
# 6 -0.0024 0.0448 0.0241 1.1305 -0.0044 12.6344
#
#
#
# Elastic Compliance Matrix: (Units=1/GPa)
#
#
# Indices 1 2 3 4 5 6 
#
# 1 0.011379 -0.012766 -0.004281 -0.000086 -0.000130 0.000063
# 2 -0.012766 0.075432 -0.000871 0.000417 0.001925 -0.000305
# 3 -0.004281 -0.000871 0.008520 0.000020 0.001413 -0.000015
# 4 -0.000086 0.000417 0.000020 0.047523 -0.000013 -0.004254
# 5 -0.000130 0.001925 0.001413 -0.000013 0.023996 0.000000
# 6 0.000063 -0.000305 -0.000015 -0.004254 0.000000 0.079531
#
#
# Mechanical properties :
#
#
# Convention : Reuss Voigt Hill
#
# Bulk Modulus (GPa) = 16.80778 61.89192 39.34985
# Shear Modulus (GPa) = 16.55364 28.90512 22.72938
#
# Velocity S-wave (km/s) = 2.88802 3.81629 3.38413
# Velocity P-wave (km/s) = 4.42601 7.11360 5.92423
#
# Compressibility (1/GPa) = 0.05949626
#
# Stress axis : x y z
#
# Youngs Moduli (GPa) = 87.87829 13.25696 117.37593
#
# Poissons Ratio (x) = 0.16923 0.50243
# Poissons Ratio (y) = 1.12183 0.10225
# Poissons Ratio (z) = 0.37617 0.01155
#
# Static dielectric constant tensor:
#      x y z
#    x 3.840260 -0.000040 -0.070300 
#    y -0.000040 2.906620 0.000130 
#    z -0.070300 0.000130 3.841940 
# 
# 
# High freq. dielectric constant tensor:
#      x y z
#    x 1.796400 0.000000 -0.003770 
#    y 0.000000 1.694360 0.000010 
#    z -0.003770 0.000010 1.790750 
# 
# From -- ./inp_files/353416.got.cif
#   From: 2010.06.25/outbox.cif.g09.slc.cpg/sg12_177_cif.got.tgz:353416.got - 2010.06.28 00:19:55.
