data_PCOD8087728
_publ_section_title
;
Structure prediction by ZEFSAII (Michael W. Deem and Ramdas Pophale) SiO2 
 PCOD8087728
Probable space group: C 2/M
;
_chemical_formula_sum "Si O2"
_cell_formula_units_Z 56
_cell_length_a 18.121629
_cell_length_b 8.866384
_cell_length_c 18.821979
_cell_angle_alpha 90.000000
_cell_angle_beta 76.007341
_cell_angle_gamma 90.000000
_cell_volume 2934.452232
_symmetry_space_group_name_H-M "C 2/M"
_symmetry_group_IT_number 12
_symmetry_cell_setting 'monoclinic'
loop_
_space_group_symop_operation_xyz
x,y,z
-x,y,-z
-x,-y,-z
x,-y,z
1/2+x,1/2+y,z
1/2-x,1/2+y,-z
1/2-x,1/2-y,-z
1/2+x,1/2-y,z
loop_
_atom_site_type_symbol
_atom_site_label
_atom_site_fract_x
_atom_site_fract_y
_atom_site_fract_z
Si Si1 0.876518 0.321612 0.850881
Si Si2 0.330724 0.677209 0.995155
Si Si3 0.440060 0.679187 0.570881
Si Si4 0.772926 0.821599 0.568472
Si Si5 0.838635 0.823553 0.295159
Si Si6 0.710965 0.676610 0.845420
Si Si7 0.986871 0.824168 0.715211
O O1 0.876737 0.500000 0.857233
O O2 0.890612 0.253320 0.926997
O O3 0.795983 0.258122 0.839232
O O4 0.944040 0.269002 0.785121
O O5 0.328271 0.500000 0.981007
O O6 0.250000 0.750000 0.000000
O O7 0.346726 0.711425 0.075201
O O8 0.500000 0.745857 0.500000
O O9 0.444112 0.500000 0.568880
O O10 0.356482 0.737596 0.570227
O O11 0.461171 0.737579 0.644416
O O12 0.750000 0.750000 0.500000
O O13 0.714735 0.772248 0.641947
O O14 0.772322 0.000000 0.560515
O O15 0.825071 0.759762 0.218639
O O16 0.924395 0.792143 0.297568
O O17 0.818641 0.000000 0.306945
O O18 0.720925 0.500000 0.834703
O O19 0.967653 0.000000 0.729114
#
# Coordination Sequence:
#
# PCOD8087728 Si02
#       7
#     8   8   8   8   8   8   8
#     4  10  19  32  51  75 105 138 174 217 259 303
#     4   9  16  29  50  76 105 135 172 215 259 309
#     4   9  18  34  55  79 105 133 168 209 253 303
#     4  11  22  36  56  80 106 136 170 209 252 300
#     4  10  20  36  56  77 104 136 171 212 258 308
#     4   8  16  31  52  77 102 132 170 213 260 306
#     4  10  20  34  54  77 102 136 173 210 257 309
#
# _framework density 19.083628999999998
#
# number of rings (size 3 to 8) (size 9 to 14) (size 15 to 20)
#    0.000    2.429    0.000    3.857    0.000    2.857 
#    0.000    5.000    0.000    7.286    0.000    0.000 
#    0.000    0.000    0.000    0.000    0.000    0.000 
#
# Total GULP energy -347103.866399 kJ/mol
# GULP energy per Si atom -12396.566657 kJ/mol
# Density = 1.904019 g / cm^3
# Si number density = 19.083629 Si / 1000 Ang^3
#
#
#
# Elastic Constant Matrix: (Units=GPa)
#
#
# Indices 1 2 3 4 5 6 
#
# 1 106.5594 36.2110 69.9953 0.0000 6.7485 0.0000
# 2 36.2110 60.7915 50.7727 0.0000 -1.5470 0.0000
# 3 69.9953 50.7727 187.7175 0.0000 4.0038 0.0000
# 4 0.0000 0.0000 0.0000 31.9524 0.0000 -4.3974
# 5 6.7485 -1.5470 4.0038 0.0000 32.1558 0.0000
# 6 0.0000 0.0000 0.0000 -4.3974 0.0000 20.0663
#
#
#
# Elastic Compliance Matrix: (Units=1/GPa)
#
#
# Indices 1 2 3 4 5 6 
#
# 1 0.013717 -0.005186 -0.003655 0.000000 -0.002673 0.000000
# 2 -0.005186 0.023308 -0.004430 0.000000 0.002761 0.000000
# 3 -0.003655 -0.004430 0.007897 0.000000 -0.000429 0.000000
# 4 0.000000 0.000000 0.000000 0.032270 0.000000 0.007072
# 5 -0.002673 0.002761 -0.000429 0.000000 0.031846 0.000000
# 6 0.000000 0.000000 0.000000 0.007072 0.000000 0.051385
#
#
# Mechanical properties :
#
#
# Convention : Reuss Voigt Hill
#
# Bulk Modulus (GPa) = 54.40210 74.33627 64.36918
# Shear Modulus (GPa) = 25.89453 30.04086 27.96769
#
# Velocity S-wave (km/s) = 3.68760 3.97188 3.83238
# Velocity P-wave (km/s) = 6.83376 7.75061 7.30658
#
# Compressibility (1/GPa) = 0.01838164
#
# Stress axis : x y z
#
# Youngs Moduli (GPa) = 72.90294 42.90281 126.62648
#
# Poissons Ratio (x) = 0.22249 0.46282
# Poissons Ratio (y) = 0.37807 0.56089
# Poissons Ratio (z) = 0.26646 0.19004
#
# Static dielectric constant tensor:
#      x y z
#    x 3.508470 0.000000 0.216660 
#    y 0.000000 3.291640 0.000000 
#    z 0.216660 0.000000 4.122130 
# 
# 
# High freq. dielectric constant tensor:
#      x y z
#    x 1.725600 0.000000 0.002930 
#    y 0.000000 1.717050 0.000000 
#    z 0.002930 0.000000 1.767520 
# 
# From -- ./inp_files/275185.got.cif
#   From: 2010.06.25/outbox.cif.g09.slc.cpg/sg12_138_cif.got.tgz:275185.got - 2010.06.28 00:19:55.
