data_PCOD8087572
_publ_section_title
;
Structure prediction by ZEFSAII (Michael W. Deem and Ramdas Pophale) SiO2 
 PCOD8087572
Probable space group: C 2/M
;
_chemical_formula_sum "Si O2"
_cell_formula_units_Z 48
_cell_length_a 23.571719
_cell_length_b 8.849926
_cell_length_c 13.526672
_cell_angle_alpha 90.000000
_cell_angle_beta 107.149896
_cell_angle_gamma 90.000000
_cell_volume 2696.305978
_symmetry_space_group_name_H-M "C 2/M"
_symmetry_group_IT_number 12
_symmetry_cell_setting 'monoclinic'
loop_
_space_group_symop_operation_xyz
x,y,z
-x,y,-z
-x,-y,-z
x,-y,z
1/2+x,1/2+y,z
1/2-x,1/2+y,-z
1/2-x,1/2-y,-z
1/2+x,1/2-y,z
loop_
_atom_site_type_symbol
_atom_site_label
_atom_site_fract_x
_atom_site_fract_y
_atom_site_fract_z
Si Si1 0.877472 0.326111 0.718756
Si Si2 0.365948 0.176153 0.359221
Si Si3 0.746073 0.326325 0.604834
Si Si4 0.067226 0.171983 0.437538
Si Si5 0.974993 0.178144 0.881000
Si Si6 0.550751 0.328334 0.734415
O O1 0.894385 0.500000 0.704858
O O2 0.807074 0.308672 0.697622
O O3 0.895237 0.218586 0.638223
O O4 0.913045 0.267306 0.833513
O O5 0.304026 0.255031 0.351971
O O6 0.415407 0.216661 0.465693
O O7 0.391713 0.230121 0.266209
O O8 0.354303 0.000000 0.350614
O O9 0.730560 0.500000 0.577703
O O10 0.750000 0.250000 0.500000
O O11 0.997504 0.184554 0.378530
O O12 0.083955 0.000000 0.474684
O O13 0.022583 0.231009 0.822572
O O14 0.962748 0.000000 0.865109
O O15 0.000000 0.223798 0.000000
O O16 0.571942 0.500000 0.758314
#
# Coordination Sequence:
#
# PCOD8087572 Si02
#       6
#     8   8   8   8   8   8
#     4  10  20  33  52  80 108 136 175 220 264 310
#     4  12  23  32  47  73 106 144 180 216 258 308
#     4  11  22  35  52  74 106 146 184 218 257 308
#     4  10  19  32  51  72 102 142 178 215 260 312
#     4   9  19  37  61  84 105 134 171 214 269 326
#     4   9  19  34  51  74 103 136 173 214 264 317
#
# _framework density 17.802133999999999
#
# number of rings (size 3 to 8) (size 9 to 14) (size 15 to 20)
#    0.000    1.833    1.667    4.500    0.000    7.667 
#    0.000    0.000    0.000    1.000    0.000    0.000 
#    0.000    0.000    0.000    0.000    0.000    0.000 
#
# Total GULP energy -297592.199557 kJ/mol
# GULP energy per Si atom -12399.674982 kJ/mol
# Density = 1.776162 g / cm^3
# Si number density = 17.802134 Si / 1000 Ang^3
#
#
#
# Elastic Constant Matrix: (Units=GPa)
#
#
# Indices 1 2 3 4 5 6 
#
# 1 125.6149 59.9153 46.0406 0.0000 1.1741 0.0000
# 2 59.9153 106.0278 30.8049 0.0000 6.4273 0.0000
# 3 46.0406 30.8049 85.6489 0.0000 5.1054 0.0000
# 4 0.0000 0.0000 0.0000 22.3155 0.0000 1.4122
# 5 1.1741 6.4273 5.1054 0.0000 11.8790 0.0000
# 6 0.0000 0.0000 0.0000 1.4122 0.0000 29.0587
#
#
#
# Elastic Compliance Matrix: (Units=1/GPa)
#
#
# Indices 1 2 3 4 5 6 
#
# 1 0.012518 -0.005912 -0.004844 0.000000 0.004043 0.000000
# 2 -0.005912 0.013530 -0.001321 0.000000 -0.006169 0.000000
# 3 -0.004844 -0.001321 0.015069 0.000000 -0.005283 0.000000
# 4 0.000000 0.000000 0.000000 0.044950 0.000000 -0.002184
# 5 0.004043 -0.006169 -0.005283 0.000000 0.089391 0.000000
# 6 0.000000 0.000000 0.000000 -0.002184 0.000000 0.034519
#
#
# Mechanical properties :
#
#
# Convention : Reuss Voigt Hill
#
# Bulk Modulus (GPa) = 58.94572 65.64591 62.29581
# Shear Modulus (GPa) = 20.85201 24.68601 22.76901
#
# Velocity S-wave (km/s) = 3.42617 3.72787 3.58020
# Velocity P-wave (km/s) = 6.98820 7.44880 7.22218
#
# Compressibility (1/GPa) = 0.01696476
#
# Stress axis : x y z
#
# Youngs Moduli (GPa) = 79.88382 73.91122 66.35980
#
# Poissons Ratio (x) = 0.43694 0.32144
# Poissons Ratio (y) = 0.47225 0.08764
# Poissons Ratio (z) = 0.38695 0.09761
#
# Static dielectric constant tensor:
#      x y z
#    x 3.396670 0.000000 0.054390 
#    y 0.000000 3.366280 0.000000 
#    z 0.054390 0.000000 3.183260 
# 
# 
# High freq. dielectric constant tensor:
#      x y z
#    x 1.692130 0.000000 -0.000860 
#    y 0.000000 1.696690 0.000000 
#    z -0.000860 0.000000 1.651190 
# 
# From -- ./inp_files/230406.got.cif
#   From: 2010.06.25/outbox.cif.g09.slc.cpg/sg12_116_cif.got.tgz:230406.got - 2010.06.28 00:19:55.
