data_PCOD8087487
_publ_section_title
;
Structure prediction by ZEFSAII (Michael W. Deem and Ramdas Pophale) SiO2 
 PCOD8087487
Probable space group: C 2/M
;
_chemical_formula_sum "Si O2"
_cell_formula_units_Z 64
_cell_length_a 23.765602
_cell_length_b 9.278550
_cell_length_c 16.816624
_cell_angle_alpha 90.000000
_cell_angle_beta 93.447873
_cell_angle_gamma 90.000000
_cell_volume 3701.527062
_symmetry_space_group_name_H-M "C 2/M"
_symmetry_group_IT_number 12
_symmetry_cell_setting 'monoclinic'
loop_
_space_group_symop_operation_xyz
x,y,z
-x,y,-z
-x,-y,-z
x,-y,z
1/2+x,1/2+y,z
1/2-x,1/2+y,-z
1/2-x,1/2-y,-z
1/2+x,1/2-y,z
loop_
_atom_site_type_symbol
_atom_site_label
_atom_site_fract_x
_atom_site_fract_y
_atom_site_fract_z
Si Si1 0.181131 0.830751 0.272962
Si Si2 0.390793 0.334869 0.220846
Si Si3 0.593971 0.831877 0.367257
Si Si4 0.292155 0.668237 0.335906
Si Si5 0.709942 0.334390 0.100443
Si Si6 0.679418 0.667560 0.927378
Si Si7 0.034114 0.332555 0.661891
Si Si8 0.870461 0.332877 0.452296
O O1 0.124660 0.765375 0.304843
O O2 0.234469 0.749876 0.314000
O O3 0.175980 0.801820 0.177961
O O4 0.185956 0.000000 0.292397
O O5 0.409169 0.500000 0.228683
O O6 0.334794 0.304341 0.267316
O O7 0.376025 0.289379 0.128470
O O8 0.443434 0.243482 0.256322
O O9 0.529011 0.782956 0.362689
O O10 0.620656 0.798922 0.454923
O O11 0.600126 0.000000 0.345970
O O12 0.279453 0.500000 0.348626
O O13 0.318912 0.734618 0.418279
O O14 0.728359 0.500000 0.097702
O O15 0.766871 0.245171 0.104794
O O16 0.671240 0.294451 0.020135
O O17 0.691322 0.500000 0.914990
O O18 0.036703 0.500000 0.679994
O O19 0.072417 0.290787 0.589597
O O20 0.855605 0.500000 0.436369
#
# Coordination Sequence:
#
# PCOD8087487 Si02
#       8
#     8   8   8   8   8   8   8   8
#     4  11  22  34  49  71 102 136 168 202 240 289
#     4   9  17  29  49  76 103 128 156 197 247 294
#     4  10  21  36  53  72  95 130 169 203 247 297
#     4  10  19  32  50  74 102 132 163 197 246 298
#     4   9  18  30  47  72 101 131 163 199 238 286
#     4   9  16  29  49  74 102 129 159 197 243 290
#     4   9  18  33  54  76  97 123 161 208 250 291
#     4   9  18  34  55  76  97 122 159 209 255 294
#
# _framework density 17.290161000000001
#
# number of rings (size 3 to 8) (size 9 to 14) (size 15 to 20)
#    0.000    2.500    1.250    1.125    0.000    4.500 
#    0.000    0.000    0.000    4.500    0.000    5.250 
#    0.000    0.000    0.000    0.000    0.000    0.000 
#
# Total GULP energy -396762.137499 kJ/mol
# GULP energy per Si atom -12398.816797 kJ/mol
# Density = 1.725081 g / cm^3
# Si number density = 17.290161 Si / 1000 Ang^3
#
#
#
# Elastic Constant Matrix: (Units=GPa)
#
#
# Indices 1 2 3 4 5 6 
#
# 1 43.8377 29.6244 31.3882 0.0000 -4.8563 0.0000
# 2 29.6244 60.8103 44.0739 0.0000 -1.1025 0.0000
# 3 31.3882 44.0739 113.6355 0.0000 3.0104 0.0000
# 4 0.0000 0.0000 0.0000 25.7787 0.0000 2.7108
# 5 -4.8563 -1.1025 3.0104 0.0000 18.0489 0.0000
# 6 0.0000 0.0000 0.0000 2.7108 0.0000 28.5171
#
#
#
# Elastic Compliance Matrix: (Units=1/GPa)
#
#
# Indices 1 2 3 4 5 6 
#
# 1 0.037146 -0.014311 -0.004973 0.000000 0.009950 0.000000
# 2 -0.014311 0.028539 -0.007092 0.000000 -0.000924 0.000000
# 3 -0.004973 -0.007092 0.013029 0.000000 -0.003944 0.000000
# 4 0.000000 0.000000 0.000000 0.039183 0.000000 -0.003725
# 5 0.009950 -0.000924 -0.003944 0.000000 0.058683 0.000000
# 6 0.000000 0.000000 0.000000 -0.003725 0.000000 0.035421
#
#
# Mechanical properties :
#
#
# Convention : Reuss Voigt Hill
#
# Bulk Modulus (GPa) = 38.51792 47.60626 43.06209
# Shear Modulus (GPa) = 18.28775 22.01543 20.15159
#
# Velocity S-wave (km/s) = 3.25575 3.57219 3.41764
# Velocity P-wave (km/s) = 6.03813 6.67889 6.36658
#
# Compressibility (1/GPa) = 0.02596194
#
# Stress axis : x y z
#
# Youngs Moduli (GPa) = 26.92114 35.03923 76.75297
#
# Poissons Ratio (x) = 0.50144 0.38172
# Poissons Ratio (y) = 0.38527 0.54431
# Poissons Ratio (z) = 0.13389 0.24849
#
# Static dielectric constant tensor:
#      x y z
#    x 3.035920 0.000000 0.126640 
#    y 0.000000 3.257180 0.000000 
#    z 0.126640 0.000000 3.490870 
# 
# 
# High freq. dielectric constant tensor:
#      x y z
#    x 1.639340 0.000000 0.014220 
#    y 0.000000 1.669630 0.000000 
#    z 0.014220 0.000000 1.675310 
# 
# From -- ./inp_files/287734.got.cif
#   From: 2010.06.25/outbox.cif.g09.slc.cpg/sg12_144_cif.got.tgz:287734.got - 2010.06.28 00:19:55.
