data_PCOD8087259
_publ_section_title
;
Structure prediction by ZEFSAII (Michael W. Deem and Ramdas Pophale) SiO2 
 PCOD8087259
Probable space group: C 2/M
;
_chemical_formula_sum "Si O2"
_cell_formula_units_Z 60
_cell_length_a 22.110223
_cell_length_b 32.233900
_cell_length_c 13.539801
_cell_angle_alpha 90.000000
_cell_angle_beta 159.273481
_cell_angle_gamma 90.000000
_cell_volume 3415.138780
_symmetry_space_group_name_H-M "C 2/M"
_symmetry_group_IT_number 12
_symmetry_cell_setting 'monoclinic'
loop_
_space_group_symop_operation_xyz
x,y,z
-x,y,-z
-x,-y,-z
x,-y,z
1/2+x,1/2+y,z
1/2-x,1/2+y,-z
1/2-x,1/2-y,-z
1/2+x,1/2-y,z
loop_
_atom_site_type_symbol
_atom_site_label
_atom_site_fract_x
_atom_site_fract_y
_atom_site_fract_z
Si Si1 0.812627 0.547676 0.219731
Si Si2 0.354384 0.218830 0.925902
Si Si3 0.500000 0.157234 0.000000
Si Si4 0.168372 0.184166 0.818097
Si Si5 0.578344 0.595393 0.717441
Si Si6 0.016257 0.208997 0.280256
Si Si7 0.020915 0.953108 0.916059
Si Si8 0.142201 0.879060 0.445892
O O1 0.841295 0.500000 0.242329
O O2 0.000000 0.569602 0.500000
O O3 0.692744 0.562823 0.948886
O O4 0.716277 0.555662 0.177376
O O5 0.479531 0.186146 0.064927
O O6 0.321874 0.202952 0.988383
O O7 0.185907 0.224430 0.599391
O O8 0.460160 0.261252 0.104430
O O9 0.343555 0.126210 0.746973
O O10 0.196394 0.134888 0.871672
O O11 0.000000 0.193473 0.500000
O O12 0.144758 0.205143 0.889892
O O13 0.500000 0.574238 0.500000
O O14 0.414623 0.610523 0.529798
O O15 0.051434 0.164756 0.280696
O O16 0.900702 0.917416 0.690096
O O17 0.968614 0.000000 0.800924
O O18 0.000000 0.950095 0.000000
#
# Coordination Sequence:
#
# PCOD8087259 Si02
#       8
#     8   8   4   8   8   8   8   8
#     4   9  18  33  52  77 109 135 162 212 268 313
#     4  10  19  32  48  71  97 140 166 213 252 301
#     4  10  20  34  49  68 108 134 171 212 260 300
#     4   8  15  30  50  68  93 129 167 208 258 300
#     4   9  16  31  53  73  97 133 172 209 257 313
#     4   9  18  33  51  70 100 128 174 209 259 306
#     4   9  18  37  59  77 103 141 177 208 261 324
#     4   9  19  35  51  74 104 137 168 217 262 307
#
# _framework density 17.568832
#
# number of rings (size 3 to 8) (size 9 to 14) (size 15 to 20)
#    0.000    2.933    0.000    2.800    0.000    2.400 
#    8.400    3.000    0.000    0.800    0.000    0.000 
#    0.000    0.000    0.000    0.000    0.000    0.000 
#
# Total GULP energy -371716.721680 kJ/mol
# GULP energy per Si atom -12390.557389 kJ/mol
# Density = 1.752884 g / cm^3
# Si number density = 17.568832 Si / 1000 Ang^3
#
#
#
# Elastic Constant Matrix: (Units=GPa)
#
#
# Indices 1 2 3 4 5 6 
#
# 1 84.8199 53.0037 58.8597 0.0000 7.1435 0.0000
# 2 53.0037 91.5218 55.4490 0.0000 0.8904 0.0000
# 3 58.8597 55.4490 87.8270 0.0001 12.6172 -0.0001
# 4 0.0000 0.0000 0.0001 21.8091 0.0000 -3.8757
# 5 7.1435 0.8904 12.6172 0.0000 26.0537 0.0000
# 6 0.0000 0.0000 -0.0001 -3.8757 0.0000 23.9985
#
#
#
# Elastic Compliance Matrix: (Units=1/GPa)
#
#
# Indices 1 2 3 4 5 6 
#
# 1 0.024442 -0.006940 -0.011898 0.000000 -0.000702 0.000000
# 2 -0.006940 0.020336 -0.008987 0.000000 0.005560 0.000000
# 3 -0.011898 -0.008987 0.026354 0.000000 -0.009193 0.000000
# 4 0.000000 0.000000 0.000000 0.047207 0.000000 0.007624
# 5 -0.000702 0.005560 -0.009193 0.000000 0.042837 0.000000
# 6 0.000000 0.000000 0.000000 0.007624 0.000000 0.042900
#
#
# Mechanical properties :
#
#
# Convention : Reuss Voigt Hill
#
# Bulk Modulus (GPa) = 64.58776 66.53259 65.56017
# Shear Modulus (GPa) = 18.87584 20.82934 19.85259
#
# Velocity S-wave (km/s) = 3.28135 3.44697 3.36518
# Velocity P-wave (km/s) = 7.15534 7.33444 7.24544
#
# Compressibility (1/GPa) = 0.01548281
#
# Stress axis : x y z
#
# Youngs Moduli (GPa) = 40.91282 49.17337 37.94426
#
# Poissons Ratio (x) = 0.34126 0.45147
# Poissons Ratio (y) = 0.28393 0.34100
# Poissons Ratio (z) = 0.48679 0.44191
#
# Static dielectric constant tensor:
#      x y z
#    x 3.488530 0.000000 0.194740 
#    y 0.000000 3.312790 0.000000 
#    z 0.194740 0.000000 3.045440 
# 
# 
# High freq. dielectric constant tensor:
#      x y z
#    x 1.686450 0.000000 0.014230 
#    y 0.000000 1.677460 0.000000 
#    z 0.014230 0.000000 1.649250 
# 
# From -- ./inp_files/242408.got.cif
#   From: 2010.06.25/outbox.cif.g09.slc.cpg/sg12_122_cif.got.tgz:242408.got - 2010.06.28 00:19:55.
