data_PCOD8087621
_publ_section_title
;
Structure prediction by ZEFSAII (Michael W. Deem and Ramdas Pophale) SiO2 
 PCOD8087621
Probable space group: C 2/M
;
_chemical_formula_sum "Si O2"
_cell_formula_units_Z 56
_cell_length_a 20.663680
_cell_length_b 9.368231
_cell_length_c 24.194721
_cell_angle_alpha 90.000000
_cell_angle_beta 138.866075
_cell_angle_gamma 90.000000
_cell_volume 3081.015054
_symmetry_space_group_name_H-M "C 2/M"
_symmetry_group_IT_number 12
_symmetry_cell_setting 'monoclinic'
loop_
_space_group_symop_operation_xyz
x,y,z
-x,y,-z
-x,-y,-z
x,-y,z
1/2+x,1/2+y,z
1/2-x,1/2+y,-z
1/2-x,1/2-y,-z
1/2+x,1/2-y,z
loop_
_atom_site_type_symbol
_atom_site_label
_atom_site_fract_x
_atom_site_fract_y
_atom_site_fract_z
Si Si1 0.005326 0.665461 0.727969
Si Si2 0.281540 0.832043 0.169175
Si Si3 0.677360 0.333625 0.992715
Si Si4 0.966989 0.832012 0.812146
Si Si5 0.729856 0.669867 0.255733
Si Si6 0.339733 0.164931 0.532817
Si Si7 0.607413 0.170046 0.554501
O O1 0.011569 0.500000 0.749469
O O2 0.937410 0.688053 0.631258
O O3 0.112650 0.728373 0.781821
O O4 0.960687 0.753260 0.749799
O O5 0.199946 0.793136 0.070800
O O6 0.248020 0.765430 0.206207
O O7 0.292942 0.000000 0.184215
O O8 0.696048 0.500000 0.994092
O O9 0.750000 0.250000 0.000000
O O10 0.565609 0.289940 0.908416
O O11 0.876177 0.778509 0.790918
O O12 0.960900 0.000000 0.796539
O O13 0.732951 0.500000 0.256019
O O14 0.814596 0.728734 0.350766
O O15 0.250000 0.250000 0.500000
O O16 0.361255 0.225163 0.485645
O O17 0.309131 0.000000 0.511076
O O18 0.500000 0.231989 0.500000
O O19 0.604371 0.000000 0.553127
#
# Coordination Sequence:
#
# PCOD8087621 Si02
#       7
#     8   8   8   8   8   8   8
#     4  10  19  32  51  73  98 132 170 204 242 292
#     4   9  17  30  49  72  98 129 165 203 241 290
#     4  10  19  32  51  75 101 130 164 201 245 295
#     4  10  20  32  50  76 103 131 162 204 255 296
#     4   9  17  29  46  71 101 128 160 205 251 290
#     4  10  20  32  49  74 101 130 165 205 249 295
#     4   9  16  28  47  70  97 129 165 205 245 289
#
# _framework density 18.175827999999999
#
# number of rings (size 3 to 8) (size 9 to 14) (size 15 to 20)
#    0.000    2.429    1.429    1.714    0.000    5.714 
#    0.000    2.857    0.000    2.143    0.000    2.000 
#    0.000    0.000    0.000    0.000    0.000    0.000 
#
# Total GULP energy -347216.765371 kJ/mol
# GULP energy per Si atom -12400.598763 kJ/mol
# Density = 1.813446 g / cm^3
# Si number density = 18.175828 Si / 1000 Ang^3
#
#
#
# Elastic Constant Matrix: (Units=GPa)
#
#
# Indices 1 2 3 4 5 6 
#
# 1 165.1781 28.2626 71.9391 0.0000 -6.2776 0.0000
# 2 28.2626 21.5274 24.0798 0.0000 -1.9584 -0.0001
# 3 71.9391 24.0798 131.5625 0.0000 -5.0859 0.0000
# 4 0.0000 0.0000 0.0000 19.2050 0.0000 -0.6265
# 5 -6.2776 -1.9584 -5.0859 0.0000 40.4862 0.0000
# 6 0.0000 -0.0001 0.0000 -0.6265 0.0000 23.4304
#
#
#
# Elastic Compliance Matrix: (Units=1/GPa)
#
#
# Indices 1 2 3 4 5 6 
#
# 1 0.008900 -0.007813 -0.003414 0.000000 0.000573 0.000000
# 2 -0.007813 0.065359 -0.007652 0.000000 0.000989 0.000000
# 3 -0.003414 -0.007652 0.010887 0.000000 0.000468 0.000000
# 4 0.000000 0.000000 0.000000 0.052115 0.000000 0.001393
# 5 0.000573 0.000989 0.000468 0.000000 0.024895 0.000000
# 6 0.000000 0.000000 0.000000 0.001393 0.000000 0.042717
#
#
# Mechanical properties :
#
#
# Convention : Reuss Voigt Hill
#
# Bulk Modulus (GPa) = 21.10295 62.98121 42.04208
# Shear Modulus (GPa) = 19.34779 29.55676 24.45227
#
# Velocity S-wave (km/s) = 3.26617 4.03694 3.67184
# Velocity P-wave (km/s) = 5.08523 7.51369 6.41541
#
# Compressibility (1/GPa) = 0.04738674
#
# Stress axis : x y z
#
# Youngs Moduli (GPa) = 112.36409 15.30000 91.85627
#
# Poissons Ratio (x) = 0.11954 0.31362
# Poissons Ratio (y) = 0.87789 0.70292
# Poissons Ratio (z) = 0.38364 0.11708
#
# Static dielectric constant tensor:
#      x y z
#    x 3.658870 0.000000 0.060590 
#    y 0.000000 2.894900 0.000000 
#    z 0.060590 0.000000 3.754350 
# 
# 
# High freq. dielectric constant tensor:
#      x y z
#    x 1.715030 0.000000 0.000220 
#    y 0.000000 1.646870 0.000000 
#    z 0.000220 0.000000 1.723950 
# 
# From -- ./inp_files/231804.got.cif
#   From: 2010.06.25/outbox.cif.g09.slc.cpg/sg12_116_cif.got.tgz:231804.got - 2010.06.28 00:19:55.
