data_PCOD8087193
_publ_section_title
;
Structure prediction by ZEFSAII (Michael W. Deem and Ramdas Pophale) SiO2 
 PCOD8087193
Probable space group: C 2/M
;
_chemical_formula_sum "Si O2"
_cell_formula_units_Z 44
_cell_length_a 5.118293
_cell_length_b 30.821080
_cell_length_c 17.086356
_cell_angle_alpha 90.000000
_cell_angle_beta 88.549038
_cell_angle_gamma 90.000000
_cell_volume 2694.530936
_symmetry_space_group_name_H-M "C 2/M"
_symmetry_group_IT_number 12
_symmetry_cell_setting 'monoclinic'
loop_
_space_group_symop_operation_xyz
x,y,z
-x,y,-z
-x,-y,-z
x,-y,z
1/2+x,1/2+y,z
1/2-x,1/2+y,-z
1/2-x,1/2-y,-z
1/2+x,1/2-y,z
loop_
_atom_site_type_symbol
_atom_site_label
_atom_site_fract_x
_atom_site_fract_y
_atom_site_fract_z
Si Si1 0.417651 0.628865 0.912419
Si Si2 0.040136 0.448580 0.317750
Si Si3 0.901744 0.415584 0.852468
Si Si4 0.044901 0.771182 0.089875
Si Si5 0.970458 0.948629 0.587112
Si Si6 0.759026 0.500000 0.945786
O O1 0.662225 0.618266 0.854302
O O2 0.361936 0.679508 0.901182
O O3 0.154563 0.601948 0.896854
O O4 0.500000 0.617286 0.000000
O O5 0.039853 0.500000 0.303166
O O6 0.803304 0.433892 0.374799
O O7 0.007317 0.424444 0.236073
O O8 0.300960 0.431868 0.358079
O O9 0.773895 0.458231 0.890916
O O10 0.264137 0.740778 0.129926
O O11 0.000000 0.758277 0.000000
O O12 0.000000 0.928441 0.500000
O O13 0.989604 0.000000 0.580782
O O14 0.500000 0.500000 0.000000
O O15 0.000000 0.500000 0.000000
#
# Coordination Sequence:
#
# PCOD8087193 Si02
#       6
#     8   8   8   8   8   4
#     4  11  22  34  50  68  92 120 162 208 241 282
#     4  10  19  32  46  64  90 121 156 194 236 276
#     4  12  22  35  47  66  92 127 165 204 243 270
#     4   9  17  31  50  70  88 110 143 191 247 297
#     4   9  17  29  48  68  86 109 148 196 237 280
#     4  12  24  36  48  60  83 126 175 214 238 258
#
# _framework density 16.329370999999998
#
# number of rings (size 3 to 8) (size 9 to 14) (size 15 to 20)
#    0.000    1.636    0.909    6.000    0.000    5.091 
#    0.000    0.000    0.000    0.000    0.000    0.000 
#    0.000    0.000    0.000    0.000    0.000  229.091 
#
# Total GULP energy -272758.600480 kJ/mol
# GULP energy per Si atom -12398.118204 kJ/mol
# Density = 1.629220 g / cm^3
# Si number density = 16.329371 Si / 1000 Ang^3
#
#
#
# Elastic Constant Matrix: (Units=GPa)
#
#
# Indices 1 2 3 4 5 6 
#
# 1 122.1464 33.1575 24.6522 0.0000 4.8836 0.0000
# 2 33.1575 51.6530 24.7329 0.0000 3.8795 0.0000
# 3 24.6522 24.7329 73.7724 0.0000 -4.5001 0.0000
# 4 0.0000 0.0000 0.0000 5.8380 0.0000 -1.2278
# 5 4.8836 3.8795 -4.5001 0.0000 24.9237 0.0000
# 6 0.0000 0.0000 0.0000 -1.2278 0.0000 21.5461
#
#
#
# Elastic Compliance Matrix: (Units=1/GPa)
#
#
# Indices 1 2 3 4 5 6 
#
# 1 0.010084 -0.005617 -0.001571 0.000000 -0.001385 0.000000
# 2 -0.005617 0.026835 -0.007389 0.000000 -0.004410 0.000000
# 3 -0.001571 -0.007389 0.016832 0.000000 0.004497 0.000000
# 4 0.000000 0.000000 0.000000 0.173371 0.000000 0.009880
# 5 -0.001385 -0.004410 0.004497 0.000000 0.041892 0.000000
# 6 0.000000 0.000000 0.000000 0.009880 0.000000 0.046975
#
#
# Mechanical properties :
#
#
# Convention : Reuss Voigt Hill
#
# Bulk Modulus (GPa) = 40.65518 45.85075 43.25296
# Shear Modulus (GPa) = 14.15061 21.46349 17.80705
#
# Velocity S-wave (km/s) = 2.94696 3.62941 3.30584
# Velocity P-wave (km/s) = 6.04404 6.76041 6.41224
#
# Compressibility (1/GPa) = 0.02459711
#
# Stress axis : x y z
#
# Youngs Moduli (GPa) = 99.16566 37.26504 59.41180
#
# Poissons Ratio (x) = 0.20932 0.09334
# Poissons Ratio (y) = 0.55701 0.43897
# Poissons Ratio (z) = 0.15580 0.27534
#
# Static dielectric constant tensor:
#      x y z
#    x 3.397960 0.000000 0.004340 
#    y 0.000000 2.718710 0.000000 
#    z 0.004340 0.000000 2.960760 
# 
# 
# High freq. dielectric constant tensor:
#      x y z
#    x 1.658630 0.000000 0.002200 
#    y 0.000000 1.590780 0.000000 
#    z 0.002200 0.000000 1.599040 
# 
# From -- ./inp_files/191946.got.cif
#   From: 2010.06.25/outbox.cif.g09.slc.cpg/sg12_96_cif.got.tgz:191946.got - 2010.06.28 00:19:55.
