data_PCOD8087891
_publ_section_title
;
Structure prediction by ZEFSAII (Michael W. Deem and Ramdas Pophale) SiO2 
 PCOD8087891
Probable space group: C 2/M
;
_chemical_formula_sum "Si O2"
_cell_formula_units_Z 48
_cell_length_a 5.160490
_cell_length_b 14.425588
_cell_length_c 30.812802
_cell_angle_alpha 90.000000
_cell_angle_beta 94.128307
_cell_angle_gamma 90.000000
_cell_volume 2287.848944
_symmetry_space_group_name_H-M "C 2/M"
_symmetry_group_IT_number 12
_symmetry_cell_setting 'monoclinic'
loop_
_space_group_symop_operation_xyz
x,y,z
-x,y,-z
-x,-y,-z
x,-y,z
1/2+x,1/2+y,z
1/2-x,1/2+y,-z
1/2-x,1/2-y,-z
1/2+x,1/2-y,z
loop_
_atom_site_type_symbol
_atom_site_label
_atom_site_fract_x
_atom_site_fract_y
_atom_site_fract_z
Si Si1 0.000000 0.312684 0.500000
Si Si2 0.915530 0.107062 0.271277
Si Si3 0.791556 0.187534 0.084640
Si Si4 0.793291 0.806595 0.183182
Si Si5 0.934802 0.392534 0.316074
Si Si6 0.087073 0.311296 0.592922
Si Si7 0.737295 0.500000 0.970390
O O1 0.750000 0.250000 0.500000
O O2 0.970989 0.367242 0.453518
O O3 0.873343 0.116630 0.219212
O O4 0.684819 0.154690 0.296388
O O5 0.182198 0.154707 0.290837
O O6 0.929230 0.000000 0.283397
O O7 0.542048 0.252719 0.073539
O O8 0.812569 0.153823 0.134761
O O9 0.774055 0.093117 0.057892
O O10 0.497624 0.777654 0.189682
O O11 0.937262 0.500000 0.304392
O O12 0.938831 0.382039 0.367887
O O13 0.378560 0.271114 0.596027
O O14 0.500000 0.500000 0.000000
O O15 0.000000 0.500000 0.000000
#
# Coordination Sequence:
#
# PCOD8087891 Si02
#       7
#     4   8   8   8   8   8   4
#     4   8  16  30  47  70  95 120 164 214 260 314
#     4  10  21  35  53  75 106 145 177 216 269 322
#     4  10  23  43  64  93 130 163 203 260 307 352
#     4  10  21  37  58  84 112 146 188 233 280 328
#     4  10  21  35  48  74 108 137 172 216 270 323
#     4  10  19  32  52  73  95 130 170 214 263 315
#     4  12  26  42  68 100 124 168 216 246 308 375
#
# _framework density 20.980405000000001
#
# number of rings (size 3 to 8) (size 9 to 14) (size 15 to 20)
#    0.000    2.000    0.000    3.000    1.167    6.000 
#    0.000    0.417    0.000    0.000    0.000   10.500 
#    0.000    0.000    0.000    0.000    0.000    0.000 
#
# Total GULP energy -297421.500208 kJ/mol
# GULP energy per Si atom -12392.562509 kJ/mol
# Density = 2.093265 g / cm^3
# Si number density = 20.980405 Si / 1000 Ang^3
#
#
#
# Elastic Constant Matrix: (Units=GPa)
#
#
# Indices 1 2 3 4 5 6 
#
# 1 164.9965 28.2624 56.8918 0.0000 3.3710 0.0000
# 2 28.2624 55.3794 45.9802 0.0000 3.1596 0.0000
# 3 56.8918 45.9802 156.9983 0.0000 7.8707 0.0000
# 4 0.0000 0.0000 0.0000 31.1839 0.0000 1.3396
# 5 3.3710 3.1596 7.8707 0.0000 33.7675 0.0000
# 6 0.0000 0.0000 0.0000 1.3396 0.0000 10.3809
#
#
#
# Elastic Compliance Matrix: (Units=1/GPa)
#
#
# Indices 1 2 3 4 5 6 
#
# 1 0.007084 -0.001959 -0.001990 0.000000 -0.000060 0.000000
# 2 -0.001959 0.024413 -0.006410 0.000000 -0.000595 0.000000
# 3 -0.001990 -0.006410 0.009034 0.000000 -0.001307 0.000000
# 4 0.000000 0.000000 0.000000 0.032247 0.000000 -0.004161
# 5 -0.000060 -0.000595 -0.001307 0.000000 0.029981 0.000000
# 6 0.000000 0.000000 0.000000 -0.004161 0.000000 0.096868
#
#
# Mechanical properties :
#
#
# Convention : Reuss Voigt Hill
#
# Bulk Modulus (GPa) = 50.47598 71.07144 60.77371
# Shear Modulus (GPa) = 22.03145 31.48245 26.75695
#
# Velocity S-wave (km/s) = 3.24403 3.87791 3.57505
# Velocity P-wave (km/s) = 6.17596 7.34845 6.78757
#
# Compressibility (1/GPa) = 0.01981140
#
# Stress axis : x y z
#
# Youngs Moduli (GPa) = 141.16742 40.96127 110.69886
#
# Poissons Ratio (x) = 0.08026 0.22030
# Poissons Ratio (y) = 0.27660 0.70959
# Poissons Ratio (z) = 0.28094 0.26257
#
# Static dielectric constant tensor:
#      x y z
#    x 4.373880 0.000000 0.018050 
#    y 0.000000 3.206810 0.000000 
#    z 0.018050 0.000000 4.196910 
# 
# 
# High freq. dielectric constant tensor:
#      x y z
#    x 1.851800 0.000000 0.001260 
#    y 0.000000 1.775200 0.000000 
#    z 0.001260 0.000000 1.843300 
# 
# From -- ./inp_files/354826.got.cif
#   From: 2010.06.25/outbox.cif.g09.slc.cpg/sg12_178_cif.got.tgz:354826.got - 2010.06.28 00:19:55.
