data_PCOD8087324
_publ_section_title
;
Structure prediction by ZEFSAII (Michael W. Deem and Ramdas Pophale) SiO2 
 PCOD8087324
Probable space group: C 2/M
;
_chemical_formula_sum "Si O2"
_cell_formula_units_Z 64
_cell_length_a 23.377570
_cell_length_b 8.772717
_cell_length_c 18.149641
_cell_angle_alpha 90.000000
_cell_angle_beta 88.365970
_cell_angle_gamma 90.000000
_cell_volume 3720.701979
_symmetry_space_group_name_H-M "C 2/M"
_symmetry_group_IT_number 12
_symmetry_cell_setting 'monoclinic'
loop_
_space_group_symop_operation_xyz
x,y,z
-x,y,-z
-x,-y,-z
x,-y,z
1/2+x,1/2+y,z
1/2-x,1/2+y,-z
1/2-x,1/2-y,-z
1/2+x,1/2-y,z
loop_
_atom_site_type_symbol
_atom_site_label
_atom_site_fract_x
_atom_site_fract_y
_atom_site_fract_z
Si Si1 0.688512 0.178306 0.008054
Si Si2 0.117923 0.318549 0.870684
Si Si3 0.318279 0.173316 0.577801
Si Si4 0.300515 0.824316 0.422583
Si Si5 0.889049 0.320780 0.854757
Si Si6 0.001463 0.819715 0.915839
Si Si7 0.804079 0.323807 0.261988
Si Si8 0.826427 0.178836 0.723907
O O1 0.660392 0.226239 0.086123
O O2 0.696278 0.000000 0.000382
O O3 0.750000 0.250000 0.000000
O O4 0.648510 0.238585 0.943883
O O5 0.111892 0.500000 0.867456
O O6 0.154679 0.249785 0.800857
O O7 0.055358 0.246893 0.870198
O O8 0.342031 0.201303 0.492632
O O9 0.250861 0.204257 0.572326
O O10 0.345533 0.282665 0.638927
O O11 0.328974 0.000000 0.602313
O O12 0.331682 0.796805 0.342500
O O13 0.277185 0.000000 0.424273
O O14 0.901180 0.500000 0.855905
O O15 0.946318 0.233849 0.873658
O O16 0.868974 0.269013 0.775271
O O17 0.004756 0.000000 0.915177
O O18 0.000000 0.757350 0.000000
O O19 0.799807 0.500000 0.242429
O O20 0.738730 0.260874 0.261317
O O21 0.832559 0.000000 0.737609
#
# Coordination Sequence:
#
# PCOD8087324 Si02
#       8
#     8   8   8   8   8   8   8   8
#     4  10  21  33  49  73 101 131 162 196 238 291
#     4  10  19  34  53  72  96 128 165 204 245 288
#     4   9  15  24  41  66  98 133 169 203 237 285
#     4   8  14  25  41  65  98 135 169 199 237 288
#     4  11  22  36  53  73  97 127 166 207 247 291
#     4  11  23  38  55  73  93 123 164 210 254 295
#     4   8  15  28  48  72 100 134 166 197 240 291
#     4  10  19  32  49  71 103 135 166 203 247 298
#
# _framework density 17.201053999999999
#
# number of rings (size 3 to 8) (size 9 to 14) (size 15 to 20)
#    0.000    2.375    1.250    3.000    0.000    3.500 
#    0.000    3.125    0.000    0.000    0.000    0.875 
#    0.000    7.000    0.000    0.000    0.000    0.000 
#
# Total GULP energy -396595.960833 kJ/mol
# GULP energy per Si atom -12393.623776 kJ/mol
# Density = 1.716190 g / cm^3
# Si number density = 17.201054 Si / 1000 Ang^3
#
#
#
# Elastic Constant Matrix: (Units=GPa)
#
#
# Indices 1 2 3 4 5 6 
#
# 1 71.3733 14.0419 27.4789 0.0000 9.6933 0.0000
# 2 14.0419 31.0563 17.2773 0.0000 -1.6509 0.0000
# 3 27.4789 17.2773 118.0636 0.0000 15.3591 0.0000
# 4 0.0000 0.0000 0.0000 22.6483 0.0000 2.5776
# 5 9.6933 -1.6509 15.3591 0.0000 12.3613 0.0000
# 6 0.0000 0.0000 0.0000 2.5776 0.0000 23.9714
#
#
#
# Elastic Compliance Matrix: (Units=1/GPa)
#
#
# Indices 1 2 3 4 5 6 
#
# 1 0.017936 -0.008167 -0.001202 0.000000 -0.013662 0.000000
# 2 -0.008167 0.040672 -0.006669 0.000000 0.020122 0.000000
# 3 -0.001202 -0.006669 0.011593 0.000000 -0.014352 0.000000
# 4 0.000000 0.000000 0.000000 0.044700 0.000000 -0.004807
# 5 -0.013662 0.020122 -0.014352 0.000000 0.112131 0.000000
# 6 0.000000 0.000000 0.000000 -0.004807 0.000000 0.042233
#
#
# Mechanical properties :
#
#
# Convention : Reuss Voigt Hill
#
# Bulk Modulus (GPa) = 26.22970 37.56550 31.89760
# Shear Modulus (GPa) = 15.92106 22.57589 19.24847
#
# Velocity S-wave (km/s) = 3.04565 3.62673 3.34882
# Velocity P-wave (km/s) = 5.25832 6.27886 5.79111
#
# Compressibility (1/GPa) = 0.03812472
#
# Stress axis : x y z
#
# Youngs Moduli (GPa) = 55.75419 24.58696 86.26052
#
# Poissons Ratio (x) = 0.20081 0.10369
# Poissons Ratio (y) = 0.45535 0.57525
# Poissons Ratio (z) = 0.06702 0.16396
#
# Static dielectric constant tensor:
#      x y z
#    x 2.877230 0.000000 -0.045180 
#    y 0.000000 3.099130 0.000000 
#    z -0.045180 0.000000 3.692680 
# 
# 
# High freq. dielectric constant tensor:
#      x y z
#    x 1.616760 0.000000 0.006540 
#    y 0.000000 1.658030 0.000000 
#    z 0.006540 0.000000 1.682370 
# 
# From -- ./inp_files/281360.got.cif
#   From: 2010.06.25/outbox.cif.g09.slc.cpg/sg12_141_cif.got.tgz:281360.got - 2010.06.28 00:19:55.
