data_PCOD8087455
_publ_section_title
;
Structure prediction by ZEFSAII (Michael W. Deem and Ramdas Pophale) SiO2 
 PCOD8087455
Probable space group: C 2/M
;
_chemical_formula_sum "Si O2"
_cell_formula_units_Z 64
_cell_length_a 10.287247
_cell_length_b 18.328250
_cell_length_c 17.844249
_cell_angle_alpha 90.000000
_cell_angle_beta 86.218975
_cell_angle_gamma 90.000000
_cell_volume 3357.160543
_symmetry_space_group_name_H-M "C 2/M"
_symmetry_group_IT_number 12
_symmetry_cell_setting 'monoclinic'
loop_
_space_group_symop_operation_xyz
x,y,z
-x,y,-z
-x,-y,-z
x,-y,z
1/2+x,1/2+y,z
1/2-x,1/2+y,-z
1/2-x,1/2-y,-z
1/2+x,1/2-y,z
loop_
_atom_site_type_symbol
_atom_site_label
_atom_site_fract_x
_atom_site_fract_y
_atom_site_fract_z
Si Si1 0.605450 0.920511 0.356194
Si Si2 0.313337 0.181140 0.215805
Si Si3 0.883338 0.232846 0.453944
Si Si4 0.198274 0.082902 0.522321
Si Si5 0.378806 0.816104 0.781391
Si Si6 0.140829 0.581114 0.085298
Si Si7 0.668375 0.131911 0.628240
Si Si8 0.666436 0.081018 0.918883
O O1 0.671606 0.907784 0.434108
O O2 0.642900 0.859730 0.294676
O O3 0.451984 0.922168 0.377485
O O4 0.646003 0.000000 0.322743
O O5 0.467787 0.203220 0.211294
O O6 0.213309 0.247101 0.222102
O O7 0.280465 0.129282 0.288409
O O8 0.273595 0.137036 0.142783
O O9 0.750000 0.250000 0.500000
O O10 0.899817 0.144856 0.439774
O O11 0.880415 0.283239 0.380113
O O12 0.000000 0.262479 0.500000
O O13 0.223283 0.104626 0.434657
O O14 0.141101 0.000000 0.529594
O O15 0.318491 0.862774 0.851895
O O16 0.194608 0.500000 0.101887
O O17 0.986511 0.577017 0.087556
O O18 0.197656 0.607483 0.002637
O O19 0.725356 0.000000 0.903989
#
# Coordination Sequence:
#
# PCOD8087455 Si02
#       8
#     8   8   8   8   8   8   8   8
#     4  10  19  32  52  76 100 126 165 214 251 286
#     4  10  21  32  50  74 102 133 163 204 245 292
#     4  10  20  34  52  71  95 129 167 206 247 294
#     4  10  20  32  48  72 100 129 162 205 256 302
#     4  10  20  34  50  76 104 131 166 201 247 297
#     4   8  14  28  52  76  99 127 163 207 248 287
#     4  10  19  32  50  72  98 130 168 206 248 290
#     4   8  15  29  49  75 101 127 163 206 248 286
#
# _framework density 19.06373
#
# number of rings (size 3 to 8) (size 9 to 14) (size 15 to 20)
#    0.000    2.500    0.000    4.125    0.000    8.250 
#    0.000    0.000    0.000    1.500    0.000    1.750 
#    0.000    0.000    0.000    0.000    0.000    0.000 
#
# Total GULP energy -396459.079385 kJ/mol
# GULP energy per Si atom -12389.346231 kJ/mol
# Density = 1.902034 g / cm^3
# Si number density = 19.063730 Si / 1000 Ang^3
#
#
#
# Elastic Constant Matrix: (Units=GPa)
#
#
# Indices 1 2 3 4 5 6 
#
# 1 47.9959 17.0242 16.1012 0.0000 1.7767 0.0000
# 2 17.0242 89.8078 24.8436 0.0000 -9.9252 0.0000
# 3 16.1012 24.8436 92.8450 0.0000 -6.4824 0.0000
# 4 0.0000 0.0000 0.0000 33.0099 0.0000 -4.5673
# 5 1.7767 -9.9252 -6.4824 0.0000 13.0617 0.0000
# 6 0.0000 0.0000 0.0000 -4.5673 0.0000 21.3394
#
#
#
# Elastic Compliance Matrix: (Units=1/GPa)
#
#
# Indices 1 2 3 4 5 6 
#
# 1 0.023925 -0.004488 -0.003536 0.000000 -0.008419 0.000000
# 2 -0.004488 0.013689 -0.002192 0.000000 0.009924 0.000000
# 3 -0.003536 -0.002192 0.012314 0.000000 0.004927 0.000000
# 4 0.000000 0.000000 0.000000 0.031218 0.000000 0.006682
# 5 -0.008419 0.009924 0.004927 0.000000 0.087691 0.000000
# 6 0.000000 0.000000 0.000000 0.006682 0.000000 0.048292
#
#
# Mechanical properties :
#
#
# Convention : Reuss Voigt Hill
#
# Bulk Modulus (GPa) = 33.90158 38.50964 36.20561
# Shear Modulus (GPa) = 20.21082 24.99419 22.60250
#
# Velocity S-wave (km/s) = 3.25956 3.62482 3.44703
# Velocity P-wave (km/s) = 5.65581 6.14520 5.90557
#
# Compressibility (1/GPa) = 0.02949715
#
# Stress axis : x y z
#
# Youngs Moduli (GPa) = 41.79767 73.05321 81.20621
#
# Poissons Ratio (x) = 0.32783 0.28715
# Poissons Ratio (y) = 0.18757 0.17798
# Poissons Ratio (z) = 0.14780 0.16011
#
# Static dielectric constant tensor:
#      x y z
#    x 3.073910 0.000000 0.015370 
#    y 0.000000 3.964200 0.000000 
#    z 0.015370 0.000000 3.767630 
# 
# 
# High freq. dielectric constant tensor:
#      x y z
#    x 1.692750 0.000000 0.005910 
#    y 0.000000 1.747670 0.000000 
#    z 0.005910 0.000000 1.745400 
# 
# From -- ./inp_files/263888.got.cif
#   From: 2010.06.25/outbox.cif.g09.slc.cpg/sg12_132_cif.got.tgz:263888.got - 2010.06.28 00:19:55.
