data_PCOD8087500
_publ_section_title
;
Structure prediction by ZEFSAII (Michael W. Deem and Ramdas Pophale) SiO2 
 PCOD8087500
Probable space group: C 2/M
;
_chemical_formula_sum "Si O2"
_cell_formula_units_Z 56
_cell_length_a 30.221001
_cell_length_b 8.759247
_cell_length_c 18.958614
_cell_angle_alpha 90.000000
_cell_angle_beta 37.479784
_cell_angle_gamma 90.000000
_cell_volume 3053.722425
_symmetry_space_group_name_H-M "C 2/M"
_symmetry_group_IT_number 12
_symmetry_cell_setting 'monoclinic'
loop_
_space_group_symop_operation_xyz
x,y,z
-x,y,-z
-x,-y,-z
x,-y,z
1/2+x,1/2+y,z
1/2-x,1/2+y,-z
1/2-x,1/2-y,-z
1/2+x,1/2-y,z
loop_
_atom_site_type_symbol
_atom_site_label
_atom_site_fract_x
_atom_site_fract_y
_atom_site_fract_z
Si Si1 0.738520 0.331292 0.230381
Si Si2 0.415944 0.818225 0.330930
Si Si3 0.093998 0.671848 0.940571
Si Si4 0.936737 0.819094 0.877894
Si Si5 0.295277 0.178670 0.591033
Si Si6 0.286850 0.182017 0.021743
Si Si7 0.134336 0.181391 0.751449
O O1 0.704763 0.500000 0.275680
O O2 0.821732 0.333556 0.147903
O O3 0.692471 0.230403 0.343386
O O4 0.737057 0.267904 0.151945
O O5 0.492590 0.740206 0.253296
O O6 0.358663 0.755738 0.461175
O O7 0.389161 0.765035 0.289008
O O8 0.423654 0.000000 0.322594
O O9 0.062149 0.500000 0.976564
O O10 0.083023 0.758242 0.880011
O O11 0.053641 0.764734 0.053298
O O12 0.931112 0.000000 0.882818
O O13 0.867385 0.748526 0.926925
O O14 0.217381 0.232828 0.660381
O O15 0.299130 0.000000 0.585574
O O16 0.292533 0.000000 0.010651
O O17 0.250000 0.250000 0.000000
O O18 0.125673 0.000000 0.755271
#
# Coordination Sequence:
#
# PCOD8087500 Si02
#       7
#     8   8   8   8   8   8   8
#     4   8  16  30  51  77 104 131 164 203 249 299
#     4  11  22  35  49  70 102 141 178 216 259 305
#     4   9  17  32  51  72 100 135 170 212 261 309
#     4  11  22  36  53  76 104 136 171 211 258 310
#     4   9  19  33  51  73 101 137 178 217 255 298
#     4  10  20  36  59  87 111 134 162 201 251 307
#     4  10  19  32  50  75 101 132 178 225 261 301
#
# _framework density 18.338273999999998
#
# number of rings (size 3 to 8) (size 9 to 14) (size 15 to 20)
#    0.000    2.286    0.000    4.286    0.000    6.286 
#    0.000    2.857    0.000    0.857    0.000    6.000 
#    0.000    0.000    0.000    0.000    0.000    0.000 
#
# Total GULP energy -347153.673601 kJ/mol
# GULP energy per Si atom -12398.345486 kJ/mol
# Density = 1.829654 g / cm^3
# Si number density = 18.338274 Si / 1000 Ang^3
#
#
#
# Elastic Constant Matrix: (Units=GPa)
#
#
# Indices 1 2 3 4 5 6 
#
# 1 92.8560 30.6476 47.2667 -0.0005 16.8871 0.0015
# 2 30.6476 79.3036 33.7921 0.0016 -1.4445 -0.0011
# 3 47.2667 33.7921 95.0715 0.0030 3.9420 0.0009
# 4 -0.0005 0.0016 0.0030 29.1594 -0.0007 4.1050
# 5 16.8871 -1.4445 3.9420 -0.0007 21.8092 -0.0003
# 6 0.0015 -0.0011 0.0009 4.1050 -0.0003 29.3190
#
#
#
# Elastic Compliance Matrix: (Units=1/GPa)
#
#
# Indices 1 2 3 4 5 6 
#
# 1 0.018074 -0.004270 -0.006928 0.000001 -0.013026 -0.000001
# 2 -0.004270 0.015952 -0.003756 -0.000001 0.005042 0.000001
# 3 -0.006928 -0.003756 0.015200 -0.000001 0.002368 0.000000
# 4 0.000001 -0.000001 -0.000001 0.034984 0.000000 -0.004898
# 5 -0.013026 0.005042 0.002368 0.000000 0.055844 0.000001
# 6 -0.000001 0.000001 0.000000 -0.004898 0.000001 0.034793
#
#
# Mechanical properties :
#
#
# Convention : Reuss Voigt Hill
#
# Bulk Modulus (GPa) = 51.76634 54.51599 53.14117
# Shear Modulus (GPa) = 23.67477 26.42584 25.05031
#
# Velocity S-wave (km/s) = 3.59695 3.80020 3.69997
# Velocity P-wave (km/s) = 6.74838 7.00342 6.87708
#
# Compressibility (1/GPa) = 0.01931757
#
# Stress axis : x y z
#
# Youngs Moduli (GPa) = 55.32743 62.68669 65.79048
#
# Poissons Ratio (x) = 0.26767 0.45581
# Poissons Ratio (y) = 0.23625 0.24712
# Poissons Ratio (z) = 0.38332 0.23546
#
# Static dielectric constant tensor:
#      x y z
#    x 3.213980 -0.000010 0.115250 
#    y -0.000010 3.464900 0.000020 
#    z 0.115250 0.000020 3.875390 
# 
# 
# High freq. dielectric constant tensor:
#      x y z
#    x 1.683240 0.000000 0.011330 
#    y 0.000000 1.719150 0.000000 
#    z 0.011330 0.000000 1.713160 
# 
# From -- ./inp_files/280966.got.cif
#   From: 2010.06.25/outbox.cif.g09.slc.cpg/sg12_141_cif.got.tgz:280966.got - 2010.06.28 00:19:55.
