data_PCOD8087497
_publ_section_title
;
Structure prediction by ZEFSAII (Michael W. Deem and Ramdas Pophale) SiO2 
 PCOD8087497
Probable space group: C 2/M
;
_chemical_formula_sum "Si O2"
_cell_formula_units_Z 64
_cell_length_a 30.208266
_cell_length_b 8.741090
_cell_length_c 11.928457
_cell_angle_alpha 90.000000
_cell_angle_beta 92.910004
_cell_angle_gamma 90.000000
_cell_volume 3145.685334
_symmetry_space_group_name_H-M "C 2/M"
_symmetry_group_IT_number 12
_symmetry_cell_setting 'monoclinic'
loop_
_space_group_symop_operation_xyz
x,y,z
-x,y,-z
-x,-y,-z
x,-y,z
1/2+x,1/2+y,z
1/2-x,1/2+y,-z
1/2-x,1/2-y,-z
1/2+x,1/2-y,z
loop_
_atom_site_type_symbol
_atom_site_label
_atom_site_fract_x
_atom_site_fract_y
_atom_site_fract_z
Si Si1 0.590520 0.682352 0.260446
Si Si2 0.240049 0.176685 0.263861
Si Si3 0.419628 0.680094 0.220982
Si Si4 0.114116 0.819542 0.017241
Si Si5 0.831520 0.176727 0.575748
Si Si6 0.706478 0.179967 0.049788
Si Si7 0.002282 0.817436 0.371741
Si Si8 0.168994 0.182375 0.673218
O O1 0.590896 0.500000 0.257881
O O2 0.593879 0.742227 0.132118
O O3 0.631776 0.749547 0.336819
O O4 0.546216 0.743666 0.315079
O O5 0.218277 0.198245 0.383558
O O6 0.207075 0.269084 0.178965
O O7 0.288921 0.244235 0.260879
O O8 0.241049 0.000000 0.227579
O O9 0.421127 0.500000 0.238165
O O10 0.461293 0.750155 0.293727
O O11 0.374357 0.742440 0.269175
O O12 0.420086 0.721508 0.088327
O O13 0.161033 0.743344 0.991470
O O14 0.122518 0.000000 0.023909
O O15 0.833542 0.250050 0.453024
O O16 0.844016 0.000000 0.565096
O O17 0.707619 0.000000 0.035562
O O18 0.750000 0.250000 0.000000
O O19 0.000000 0.756837 0.500000
O O20 0.001714 0.000000 0.372697
O O21 0.174367 0.000000 0.677185
#
# Coordination Sequence:
#
# PCOD8087497 Si02
#       8
#     8   8   8   8   8   8   8   8
#     4   9  16  28  49  74 106 147 183 226 284 335
#     4  11  21  35  53  77 109 142 183 229 278 333
#     4   9  18  30  47  74 107 142 179 224 273 325
#     4  10  19  34  53  76 112 148 181 225 279 331
#     4   9  17  30  49  73 105 144 181 226 280 330
#     4  12  24  38  57  80 108 145 188 230 273 328
#     4   9  16  27  46  77 112 143 180 225 276 332
#     4  10  19  32  50  74 107 145 187 232 280 328
#
# _framework density 20.345327999999999
#
# number of rings (size 3 to 8) (size 9 to 14) (size 15 to 20)
#    0.000    2.125    1.250    3.375    0.000    4.500 
#    0.000    3.125    0.000    0.000    0.000    2.625 
#    0.000    3.500    0.000    0.000    0.000    0.000 
#
# Total GULP energy -396694.959336 kJ/mol
# GULP energy per Si atom -12396.717479 kJ/mol
# Density = 2.029902 g / cm^3
# Si number density = 20.345328 Si / 1000 Ang^3
#
#
#
# Elastic Constant Matrix: (Units=GPa)
#
#
# Indices 1 2 3 4 5 6 
#
# 1 132.3350 18.7088 41.1947 0.0000 2.5334 0.0000
# 2 18.7088 40.9312 17.7438 0.0000 1.0564 0.0000
# 3 41.1947 17.7438 109.6798 0.0000 2.5899 0.0000
# 4 0.0000 0.0000 0.0000 13.0828 0.0000 0.2508
# 5 2.5334 1.0564 2.5899 0.0000 40.1195 0.0000
# 6 0.0000 0.0000 0.0000 0.2508 0.0000 17.2365
#
#
#
# Elastic Compliance Matrix: (Units=1/GPa)
#
#
# Indices 1 2 3 4 5 6 
#
# 1 0.008849 -0.002795 -0.002864 0.000000 -0.000300 0.000000
# 2 -0.002795 0.027164 -0.003337 0.000000 -0.000323 0.000000
# 3 -0.002864 -0.003337 0.010743 0.000000 -0.000425 0.000000
# 4 0.000000 0.000000 0.000000 0.076458 0.000000 -0.001113
# 5 -0.000300 -0.000323 -0.000425 0.000000 0.024980 0.000000
# 6 0.000000 0.000000 0.000000 -0.001113 0.000000 0.058033
#
#
# Mechanical properties :
#
#
# Convention : Reuss Voigt Hill
#
# Bulk Modulus (GPa) = 34.76705 48.69339 41.73022
# Shear Modulus (GPa) = 21.38508 27.77433 24.57971
#
# Velocity S-wave (km/s) = 3.24559 3.69880 3.47958
# Velocity P-wave (km/s) = 5.58307 6.49822 6.05795
#
# Compressibility (1/GPa) = 0.02876287
#
# Stress axis : x y z
#
# Youngs Moduli (GPa) = 113.00510 36.81361 93.08247
#
# Poissons Ratio (x) = 0.10291 0.26662
# Poissons Ratio (y) = 0.31588 0.31062
# Poissons Ratio (z) = 0.32369 0.12285
#
# Static dielectric constant tensor:
#      x y z
#    x 3.820780 0.000000 0.069250 
#    y 0.000000 3.079170 0.000000 
#    z 0.069250 0.000000 4.075900 
# 
# 
# High freq. dielectric constant tensor:
#      x y z
#    x 1.797880 0.000000 -0.000480 
#    y 0.000000 1.727700 0.000000 
#    z -0.000480 0.000000 1.815210 
# 
# From -- ./inp_files/187536.got.cif
#   From: 2010.06.25/outbox.cif.g09.slc.cpg/sg12_94_cif.got.tgz:187536.got - 2010.06.28 00:19:55.
