data_PCOD8087583
_publ_section_title
;
Structure prediction by ZEFSAII (Michael W. Deem and Ramdas Pophale) SiO2 
 PCOD8087583
Probable space group: C 2/M
;
_chemical_formula_sum "Si O2"
_cell_formula_units_Z 56
_cell_length_a 8.629801
_cell_length_b 18.315714
_cell_length_c 22.320239
_cell_angle_alpha 90.000000
_cell_angle_beta 125.446878
_cell_angle_gamma 90.000000
_cell_volume 2874.064033
_symmetry_space_group_name_H-M "C 2/M"
_symmetry_group_IT_number 12
_symmetry_cell_setting 'monoclinic'
loop_
_space_group_symop_operation_xyz
x,y,z
-x,y,-z
-x,-y,-z
x,-y,z
1/2+x,1/2+y,z
1/2-x,1/2+y,-z
1/2-x,1/2-y,-z
1/2+x,1/2-y,z
loop_
_atom_site_type_symbol
_atom_site_label
_atom_site_fract_x
_atom_site_fract_y
_atom_site_fract_z
Si Si1 0.818668 0.670556 0.423232
Si Si2 0.896952 0.169487 0.141901
Si Si3 0.891840 0.081797 0.717359
Si Si4 0.971270 0.669480 0.858099
Si Si5 0.815641 0.582276 0.999998
Si Si6 0.048962 0.170566 0.576767
Si Si7 0.760240 0.418202 0.717354
O O1 0.779380 0.616926 0.358970
O O2 0.858656 0.749993 0.405761
O O3 0.642099 0.675434 0.428063
O O4 0.000000 0.639896 0.500000
O O5 0.957492 0.250005 0.138341
O O6 0.713420 0.173472 0.142287
O O7 0.853509 0.124308 0.071884
O O8 0.070146 0.129444 0.214795
O O9 0.080556 0.079686 0.720367
O O10 0.832520 0.000000 0.722942
O O11 0.925778 0.629435 0.785205
O O12 0.137866 0.624298 0.928115
O O13 0.748843 0.500000 0.999991
O O14 0.000000 0.579746 0.000000
O O15 0.202472 0.116938 0.641029
O O16 0.000000 0.139909 0.500000
O O17 0.836288 0.500000 0.722923
#
# Coordination Sequence:
#
# PCOD8087583 Si02
#       7
#     8   8   8   8   8   8   8
#     4  10  19  32  51  72  96 126 160 199 241 288
#     4  10  19  32  52  75 100 129 162 201 240 284
#     4   9  18  32  50  72  97 127 163 201 241 284
#     4  10  19  32  52  75 100 129 162 201 240 284
#     4   9  17  30  51  77 100 127 166 204 236 277
#     4  10  19  32  51  72  96 126 160 199 241 288
#     4   9  18  32  50  72  97 127 163 201 241 284
#
# _framework density 19.484604999999998
#
# number of rings (size 3 to 8) (size 9 to 14) (size 15 to 20)
#    0.000    2.429    0.000    3.857    0.000    4.000 
#    0.000    1.429    0.000   10.286    0.000    0.000 
#    0.000    0.000    0.000    0.000    0.000    0.000 
#
# Total GULP energy -347215.778751 kJ/mol
# GULP energy per Si atom -12400.563527 kJ/mol
# Density = 1.944026 g / cm^3
# Si number density = 19.484605 Si / 1000 Ang^3
#
#
#
# Elastic Constant Matrix: (Units=GPa)
#
#
# Indices 1 2 3 4 5 6 
#
# 1 32.6949 20.3152 27.8827 0.0000 -1.5074 0.0000
# 2 20.3152 190.6235 122.0953 0.0000 -5.2528 0.0000
# 3 27.8827 122.0953 205.0718 0.0000 -7.3939 0.0000
# 4 0.0000 0.0000 0.0000 41.9004 0.0000 -0.9347
# 5 -1.5074 -5.2528 -7.3939 0.0000 17.3217 0.0000
# 6 0.0000 0.0000 0.0000 -0.9347 0.0000 23.8297
#
#
#
# Elastic Compliance Matrix: (Units=1/GPa)
#
#
# Indices 1 2 3 4 5 6 
#
# 1 0.034754 -0.001088 -0.004043 0.000000 0.000969 0.000000
# 2 -0.001088 0.008517 -0.004909 0.000000 0.000393 0.000000
# 3 -0.004043 -0.004909 0.008412 0.000000 0.001750 0.000000
# 4 0.000000 0.000000 0.000000 0.023887 0.000000 0.000937
# 5 0.000969 0.000393 0.001750 0.000000 0.058682 0.000000
# 6 0.000000 0.000000 0.000000 0.000937 0.000000 0.042001
#
#
# Mechanical properties :
#
#
# Convention : Reuss Voigt Hill
#
# Bulk Modulus (GPa) = 31.64140 85.44186 58.54163
# Shear Modulus (GPa) = 24.17034 33.81683 28.99359
#
# Velocity S-wave (km/s) = 3.52587 4.17053 3.86168
# Velocity P-wave (km/s) = 5.73150 8.19373 7.07062
#
# Compressibility (1/GPa) = 0.03160417
#
# Stress axis : x y z
#
# Youngs Moduli (GPa) = 28.77356 117.41701 118.88337
#
# Poissons Ratio (x) = 0.12771 0.48063
# Poissons Ratio (y) = 0.03130 0.58355
# Poissons Ratio (z) = 0.11633 0.57635
#
# Static dielectric constant tensor:
#      x y z
#    x 3.114670 0.000000 -0.043190 
#    y 0.000000 3.687340 0.000000 
#    z -0.043190 0.000000 3.949940 
# 
# 
# High freq. dielectric constant tensor:
#      x y z
#    x 1.713660 0.000000 -0.003430 
#    y 0.000000 1.767860 0.000000 
#    z -0.003430 0.000000 1.779940 
# 
# From -- ./inp_files/300662.got.cif
#   From: 2010.06.25/outbox.cif.g09.slc.cpg/sg12_151_cif.got.tgz:300662.got - 2010.06.28 00:19:55.
