data_PCOD8087114
_publ_section_title
;
Structure prediction by ZEFSAII (Michael W. Deem and Ramdas Pophale) SiO2 
 PCOD8087114
Probable space group: C 2/M
;
_chemical_formula_sum "Si O2"
_cell_formula_units_Z 56
_cell_length_a 14.819158
_cell_length_b 17.828859
_cell_length_c 20.586207
_cell_angle_alpha 90.000000
_cell_angle_beta 30.919193
_cell_angle_gamma 90.000000
_cell_volume 2794.742102
_symmetry_space_group_name_H-M "C 2/M"
_symmetry_group_IT_number 12
_symmetry_cell_setting 'monoclinic'
loop_
_space_group_symop_operation_xyz
x,y,z
-x,y,-z
-x,-y,-z
x,-y,z
1/2+x,1/2+y,z
1/2-x,1/2+y,-z
1/2-x,1/2-y,-z
1/2+x,1/2-y,z
loop_
_atom_site_type_symbol
_atom_site_label
_atom_site_fract_x
_atom_site_fract_y
_atom_site_fract_z
Si Si1 0.471606 0.084031 0.647849
Si Si2 0.573925 0.084449 0.724127
Si Si3 0.165736 0.261697 0.283153
Si Si4 0.523215 0.808428 0.112334
Si Si5 0.568208 0.362269 0.523575
Si Si6 0.376734 0.295477 0.830995
Si Si7 0.880345 0.083624 0.372098
O O1 0.441370 0.084896 0.744751
O O2 0.346734 0.148573 0.693579
O O3 0.673783 0.102995 0.504728
O O4 0.421664 0.000000 0.652718
O O5 0.496314 0.110405 0.841070
O O6 0.723453 0.145277 0.613864
O O7 0.649485 0.000000 0.685402
O O8 0.353503 0.224336 0.180558
O O9 0.114064 0.253599 0.239649
O O10 0.019689 0.219734 0.416715
O O11 0.570888 0.751079 0.139048
O O12 0.675562 0.821651 0.965382
O O13 0.500000 0.403034 0.500000
O O14 0.528409 0.409969 0.612991
O O15 0.515609 0.363437 0.741734
O O16 0.906156 0.000000 0.330162
#
# Coordination Sequence:
#
# PCOD8087114 Si02
#       7
#     8   8   8   8   8   8   8
#     4   9  19  36  60  88 117 147 188 244 300 350
#     4  10  20  35  56  84 117 148 190 241 294 344
#     4  11  21  36  62  85 119 150 196 241 297 350
#     4  11  22  39  57  85 111 159 200 242 292 338
#     4  10  19  31  53  87 115 149 185 237 287 353
#     4  10  23  39  58  79 117 154 203 245 279 351
#     4   9  20  36  57  83 116 156 189 238 302 353
#
# _framework density 20.037628000000002
#
# number of rings (size 3 to 8) (size 9 to 14) (size 15 to 20)
#    0.000    2.000    2.857    1.714    2.000    3.429 
#    0.000    0.714    0.000    7.286    0.000    0.000 
#    0.000    0.000    0.000    0.000    0.000    0.000 
#
# Total GULP energy -346926.608755 kJ/mol
# GULP energy per Si atom -12390.236027 kJ/mol
# Density = 1.999202 g / cm^3
# Si number density = 20.037628 Si / 1000 Ang^3
#
#
#
# Elastic Constant Matrix: (Units=GPa)
#
#
# Indices 1 2 3 4 5 6 
#
# 1 35.7967 9.9951 5.8666 0.0086 4.0982 -0.0022
# 2 9.9951 91.8475 38.9039 0.0219 -5.5781 -0.0108
# 3 5.8666 38.9039 76.4317 0.0393 7.5416 -0.0149
# 4 0.0086 0.0219 0.0393 24.5225 -0.0140 0.3997
# 5 4.0982 -5.5781 7.5416 -0.0140 19.8912 0.0049
# 6 -0.0022 -0.0108 -0.0149 0.3997 0.0049 22.1357
#
#
#
# Elastic Compliance Matrix: (Units=1/GPa)
#
#
# Indices 1 2 3 4 5 6 
#
# 1 0.029792 -0.003862 0.000407 -0.000012 -0.007376 0.000003
# 2 -0.003862 0.015334 -0.008323 0.000006 0.008252 0.000000
# 3 0.000407 -0.008323 0.018209 -0.000027 -0.009322 0.000011
# 4 -0.000012 0.000006 -0.000027 0.040791 0.000043 -0.000737
# 5 -0.007376 0.008252 -0.009322 0.000043 0.057641 -0.000016
# 6 0.000003 0.000000 0.000011 -0.000737 -0.000016 0.045189
#
#
# Mechanical properties :
#
#
# Convention : Reuss Voigt Hill
#
# Bulk Modulus (GPa) = 25.13951 34.84522 29.99236
# Shear Modulus (GPa) = 20.51095 23.26390 21.88743
#
# Velocity S-wave (km/s) = 3.20288 3.41106 3.30861
# Velocity P-wave (km/s) = 5.12360 5.73946 5.44025
#
# Compressibility (1/GPa) = 0.03977802
#
# Stress axis : x y z
#
# Youngs Moduli (GPa) = 33.56640 65.21273 54.91928
#
# Poissons Ratio (x) = 0.25187 -0.02235
# Poissons Ratio (y) = 0.12964 0.45709
# Poissons Ratio (z) = -0.01366 0.54277
#
# Static dielectric constant tensor:
#      x y z
#    x 3.535510 0.000000 0.117780 
#    y 0.000000 3.615180 0.000020 
#    z 0.117780 0.000020 3.753570 
# 
# 
# High freq. dielectric constant tensor:
#      x y z
#    x 1.769590 0.000000 0.010620 
#    y 0.000000 1.775780 0.000000 
#    z 0.010620 0.000000 1.768210 
# 
# From -- ./inp_files/177177.got.cif
#   From: 2010.06.25/outbox.cif.g09.slc.cpg/sg12_89_cif.got.tgz:177177.got - 2010.06.28 00:19:55.
