data_PCOD8087945
_publ_section_title
;
Structure prediction by ZEFSAII (Michael W. Deem and Ramdas Pophale) SiO2 
 PCOD8087945
Probable space group: C 2/M
;
_chemical_formula_sum "Si O2"
_cell_formula_units_Z 56
_cell_length_a 18.746654
_cell_length_b 8.987733
_cell_length_c 29.481648
_cell_angle_alpha 90.000000
_cell_angle_beta 38.344959
_cell_angle_gamma 90.000000
_cell_volume 3081.723858
_symmetry_space_group_name_H-M "C 2/M"
_symmetry_group_IT_number 12
_symmetry_cell_setting 'monoclinic'
loop_
_space_group_symop_operation_xyz
x,y,z
-x,y,-z
-x,-y,-z
x,-y,z
1/2+x,1/2+y,z
1/2-x,1/2+y,-z
1/2-x,1/2-y,-z
1/2+x,1/2-y,z
loop_
_atom_site_type_symbol
_atom_site_label
_atom_site_fract_x
_atom_site_fract_y
_atom_site_fract_z
Si Si1 0.187304 0.674696 0.212343
Si Si2 0.984668 0.675032 0.371797
Si Si3 0.778895 0.830475 0.939801
Si Si4 0.593217 0.825284 0.491899
Si Si5 0.629353 0.824190 0.929989
Si Si6 0.165353 0.676926 0.638344
Si Si7 0.026876 0.172929 0.220241
O O1 0.207431 0.500000 0.198479
O O2 0.311195 0.754690 0.144968
O O3 0.104612 0.729047 0.214092
O O4 0.117920 0.716410 0.293260
O O5 0.971646 0.500000 0.379289
O O6 0.954320 0.738110 0.436460
O O7 0.894958 0.733872 0.378348
O O8 0.698885 0.768168 0.939294
O O9 0.914239 0.812502 0.858937
O O10 0.746139 0.000000 0.964107
O O11 0.750000 0.750000 0.000000
O O12 0.500000 0.792398 0.500000
O O13 0.704967 0.731371 0.424260
O O14 0.623259 0.000000 0.479364
O O15 0.634249 0.000000 0.921714
O O16 0.500000 0.765338 0.000000
O O17 0.159251 0.500000 0.646837
O O18 0.100316 0.755822 0.713491
O O19 0.025552 0.000000 0.235915
#
# Coordination Sequence:
#
# PCOD8087945 Si02
#       7
#     8   8   8   8   8   8   8
#     4   9  16  28  48  73  98 122 156 204 248 282
#     4   8  16  31  50  73  96 121 159 202 241 283
#     4   9  18  31  49  72  97 127 160 197 239 284
#     4  10  20  34  51  70  98 134 162 189 236 295
#     4   9  18  33  50  69  97 131 166 200 236 285
#     4  10  19  32  52  75  97 122 159 207 245 276
#     4   9  17  31  50  72  97 126 162 198 237 286
#
# _framework density 18.171647
#
# number of rings (size 3 to 8) (size 9 to 14) (size 15 to 20)
#    0.000    2.857    0.000    3.429    0.000    3.429 
#    0.000    5.000    0.000    5.143    0.000    0.000 
#    0.000    0.000    0.000    0.000    0.000    0.000 
#
# Total GULP energy -346942.161272 kJ/mol
# GULP energy per Si atom -12390.791474 kJ/mol
# Density = 1.813029 g / cm^3
# Si number density = 18.171647 Si / 1000 Ang^3
#
#
#
# Elastic Constant Matrix: (Units=GPa)
#
#
# Indices 1 2 3 4 5 6 
#
# 1 59.3631 24.0387 55.7041 -0.0001 -2.5033 -0.0022
# 2 24.0387 39.8831 51.0364 -0.0003 -1.3525 -0.0031
# 3 55.7041 51.0364 180.9808 0.0000 -12.0749 -0.0005
# 4 -0.0001 -0.0003 0.0000 35.6672 0.0001 -4.0260
# 5 -2.5033 -1.3525 -12.0749 0.0001 25.7934 0.0002
# 6 -0.0022 -0.0031 -0.0005 -4.0260 0.0002 17.3545
#
#
#
# Elastic Compliance Matrix: (Units=1/GPa)
#
#
# Indices 1 2 3 4 5 6 
#
# 1 0.025327 -0.008232 -0.005511 0.000000 -0.000553 0.000002
# 2 -0.008232 0.042167 -0.009562 0.000001 -0.003064 0.000006
# 3 -0.005511 -0.009562 0.010166 0.000000 0.003723 -0.000002
# 4 0.000000 0.000001 0.000000 0.028791 0.000000 0.006679
# 5 -0.000553 -0.003064 0.003723 0.000000 0.040298 -0.000001
# 6 0.000002 0.000006 -0.000002 0.006679 -0.000001 0.059171
#
#
# Mechanical properties :
#
#
# Convention : Reuss Voigt Hill
#
# Bulk Modulus (GPa) = 32.20525 60.19839 46.20182
# Shear Modulus (GPa) = 19.02010 25.72621 22.37316
#
# Velocity S-wave (km/s) = 3.23877 3.76671 3.51267
# Velocity P-wave (km/s) = 5.63449 7.21921 6.47551
#
# Compressibility (1/GPa) = 0.03105084
#
# Stress axis : x y z
#
# Youngs Moduli (GPa) = 39.48376 23.71538 98.36309
#
# Poissons Ratio (x) = 0.19523 0.54206
# Poissons Ratio (y) = 0.32503 0.94051
# Poissons Ratio (z) = 0.21759 0.22676
#
# Static dielectric constant tensor:
#      x y z
#    x 3.096010 0.000000 0.034860 
#    y 0.000000 3.299140 0.000000 
#    z 0.034860 0.000000 4.097130 
# 
# 
# High freq. dielectric constant tensor:
#      x y z
#    x 1.654600 0.000000 -0.003560 
#    y 0.000000 1.695210 0.000000 
#    z -0.003560 0.000000 1.730870 
# 
# From -- ./inp_files/377644.got.cif
#   From: 2010.06.25/outbox.cif.g09.slc.cpg/sg12_189_cif.got.tgz:377644.got - 2010.06.28 00:19:55.
