data_PCOD8087803
_publ_section_title
;
Structure prediction by ZEFSAII (Michael W. Deem and Ramdas Pophale) SiO2 
 PCOD8087803
Probable space group: C 2/M
;
_chemical_formula_sum "Si O2"
_cell_formula_units_Z 64
_cell_length_a 16.116142
_cell_length_b 9.403635
_cell_length_c 21.934285
_cell_angle_alpha 90.000000
_cell_angle_beta 92.230105
_cell_angle_gamma 90.000000
_cell_volume 3321.630162
_symmetry_space_group_name_H-M "C 2/M"
_symmetry_group_IT_number 12
_symmetry_cell_setting 'monoclinic'
loop_
_space_group_symop_operation_xyz
x,y,z
-x,y,-z
-x,-y,-z
x,-y,z
1/2+x,1/2+y,z
1/2-x,1/2+y,-z
1/2-x,1/2-y,-z
1/2+x,1/2-y,z
loop_
_atom_site_type_symbol
_atom_site_label
_atom_site_fract_x
_atom_site_fract_y
_atom_site_fract_z
Si Si1 0.467201 0.831058 0.687654
Si Si2 0.953940 0.842141 0.934331
Si Si3 0.722871 0.834690 0.558300
Si Si4 0.698454 0.332925 0.312145
Si Si5 0.861307 0.335395 0.248211
Si Si6 0.036838 0.668012 0.562814
Si Si7 0.328637 0.842259 0.992030
Si Si8 0.921296 0.656877 0.121853
O O1 0.384900 0.751140 0.709964
O O2 0.550042 0.775888 0.725192
O O3 0.479968 0.785193 0.617765
O O4 0.454505 0.000000 0.695554
O O5 0.878555 0.733296 0.939330
O O6 0.009492 0.779279 0.881172
O O7 0.923858 0.000000 0.914314
O O8 0.000000 0.851158 0.000000
O O9 0.750000 0.750000 0.500000
O O10 0.784663 0.804513 0.616006
O O11 0.631390 0.781967 0.575703
O O12 0.721893 0.000000 0.540789
O O13 0.685185 0.500000 0.298338
O O14 0.777747 0.270587 0.276102
O O15 0.859510 0.500000 0.266374
O O16 0.858476 0.306649 0.175243
O O17 0.035126 0.500000 0.557514
O O18 0.000000 0.737456 0.500000
O O19 0.305226 0.000000 0.968838
O O20 0.250000 0.750000 0.000000
O O21 0.375920 0.849693 0.056619
O O22 0.961009 0.500000 0.135647
#
# Coordination Sequence:
#
# PCOD8087803 Si02
#       8
#     8   8   8   8   8   8   8   8
#     4  10  19  35  58  80 103 140 186 226 267 325
#     4   9  17  31  52  76 103 134 170 214 261 310
#     4  10  19  32  51  77 106 139 177 223 276 331
#     4  10  20  36  56  79 110 145 179 224 281 332
#     4   9  18  37  60  78 107 148 187 222 267 331
#     4   9  16  28  49  75 101 132 175 218 260 317
#     4  10  19  32  52  79 111 144 178 219 269 321
#     4   9  18  34  56  78 103 141 181 215 262 326
#
# _framework density 19.267648999999999
#
# number of rings (size 3 to 8) (size 9 to 14) (size 15 to 20)
#    0.000    2.500    1.250    1.500    0.000    3.500 
#    2.250    2.500    0.000    2.250    0.000    0.000 
#    0.000    0.000    0.000    0.000    0.000    0.000 
#
# Total GULP energy -396586.714087 kJ/mol
# GULP energy per Si atom -12393.334815 kJ/mol
# Density = 1.922380 g / cm^3
# Si number density = 19.267649 Si / 1000 Ang^3
#
#
#
# Elastic Constant Matrix: (Units=GPa)
#
#
# Indices 1 2 3 4 5 6 
#
# 1 129.6542 49.8377 22.3706 0.0000 -25.8486 0.0000
# 2 49.8377 97.6393 24.2280 0.0000 -20.2842 0.0000
# 3 22.3706 24.2280 61.2928 0.0000 -29.1402 0.0000
# 4 0.0000 0.0000 0.0000 17.5607 0.0000 -5.1407
# 5 -25.8486 -20.2842 -29.1402 0.0000 28.7361 0.0000
# 6 0.0000 0.0000 0.0000 -5.1407 0.0000 34.3380
#
#
#
# Elastic Compliance Matrix: (Units=1/GPa)
#
#
# Indices 1 2 3 4 5 6 
#
# 1 0.010688 -0.004130 0.001770 0.000000 0.008493 0.000000
# 2 -0.004130 0.013659 -0.002074 0.000000 0.003823 0.000000
# 3 0.001770 -0.002074 0.031956 0.000000 0.032533 0.000000
# 4 0.000000 0.000000 0.000000 0.059555 0.000000 0.008916
# 5 0.008493 0.003823 0.032533 0.000000 0.078129 0.000000
# 6 0.000000 0.000000 0.000000 0.008916 0.000000 0.030457
#
#
# Mechanical properties :
#
#
# Convention : Reuss Voigt Hill
#
# Bulk Modulus (GPa) = 21.08200 53.49544 37.28872
# Shear Modulus (GPa) = 20.07021 28.93697 24.50359
#
# Velocity S-wave (km/s) = 3.23097 3.87957 3.57003
# Velocity P-wave (km/s) = 4.98841 6.92045 6.03229
#
# Compressibility (1/GPa) = 0.04743384
#
# Stress axis : x y z
#
# Youngs Moduli (GPa) = 93.55910 73.21262 31.29271
#
# Poissons Ratio (x) = 0.30239 -0.05537
# Poissons Ratio (y) = 0.38643 0.06491
# Poissons Ratio (z) = -0.16556 0.15185
#
# Static dielectric constant tensor:
#      x y z
#    x 3.335820 0.000000 -0.222340 
#    y 0.000000 3.388560 0.000000 
#    z -0.222340 0.000000 3.435360 
# 
# 
# High freq. dielectric constant tensor:
#      x y z
#    x 1.749200 0.000000 -0.014290 
#    y 0.000000 1.720450 0.000000 
#    z -0.014290 0.000000 1.742700 
# 
# From -- ./inp_files/314010.got.cif
#   From: 2010.06.25/outbox.cif.g09.slc.cpg/sg12_158_cif.got.tgz:314010.got - 2010.06.28 00:19:55.
