data_PCOD8087582
_publ_section_title
;
Structure prediction by ZEFSAII (Michael W. Deem and Ramdas Pophale) SiO2 
 PCOD8087582
Probable space group: C 2/M
;
_chemical_formula_sum "Si O2"
_cell_formula_units_Z 56
_cell_length_a 30.221880
_cell_length_b 13.655904
_cell_length_c 9.274563
_cell_angle_alpha 90.000000
_cell_angle_beta 52.241365
_cell_angle_gamma 90.000000
_cell_volume 3026.151825
_symmetry_space_group_name_H-M "C 2/M"
_symmetry_group_IT_number 12
_symmetry_cell_setting 'monoclinic'
loop_
_space_group_symop_operation_xyz
x,y,z
-x,y,-z
-x,-y,-z
x,-y,z
1/2+x,1/2+y,z
1/2-x,1/2+y,-z
1/2-x,1/2-y,-z
1/2+x,1/2-y,z
loop_
_atom_site_type_symbol
_atom_site_label
_atom_site_fract_x
_atom_site_fract_y
_atom_site_fract_z
Si Si1 0.176263 0.889696 0.481437
Si Si2 0.500217 0.111185 0.170796
Si Si3 0.615117 0.798982 0.936251
Si Si4 0.283519 0.115642 0.771379
Si Si5 0.614686 0.201051 0.603249
Si Si6 0.783073 0.384362 0.095337
Si Si7 0.323321 0.389696 0.188539
O O1 0.122997 0.818202 0.565965
O O2 0.226968 0.845055 0.285632
O O3 0.196651 0.888619 0.606023
O O4 0.158932 0.000000 0.469426
O O5 0.445867 0.169427 0.336690
O O6 0.500289 0.000000 0.230911
O O7 0.500000 0.110028 0.000000
O O8 0.554720 0.169403 0.118568
O O9 0.620651 0.828967 0.758220
O O10 0.661641 0.857416 0.929420
O O11 0.623481 0.681840 0.940227
O O12 0.339047 0.142712 0.576150
O O13 0.227614 0.154909 0.803641
O O14 0.279127 0.000000 0.782963
O O15 0.285466 0.159018 0.929057
O O16 0.778596 0.500000 0.101439
O O17 0.340549 0.500000 0.107277
#
# Coordination Sequence:
#
# PCOD8087582 Si02
#       7
#     8   8   8   8   8   8   8
#     4   9  18  32  49  71  99 128 159 197 240 286
#     4   9  18  32  50  72  96 123 159 201 240 281
#     4  10  19  32  51  72  95 128 166 199 236 284
#     4  10  20  32  48  73 102 129 158 196 243 290
#     4  10  19  32  51  72  95 128 166 199 236 284
#     4  10  20  32  48  73 102 129 158 196 243 290
#     4   9  18  32  49  71  99 128 159 197 240 286
#
# _framework density 18.505351000000001
#
# number of rings (size 3 to 8) (size 9 to 14) (size 15 to 20)
#    0.000    2.429    0.000    2.571    0.000    7.429 
#    0.000    1.429    0.000    6.857    0.000    0.000 
#    0.000    6.857    0.000    0.000    0.000    0.000 
#
# Total GULP energy -347159.794179 kJ/mol
# GULP energy per Si atom -12398.564078 kJ/mol
# Density = 1.846323 g / cm^3
# Si number density = 18.505351 Si / 1000 Ang^3
#
#
#
# Elastic Constant Matrix: (Units=GPa)
#
#
# Indices 1 2 3 4 5 6 
#
# 1 91.1371 58.9329 75.7303 0.0000 -30.1159 0.0000
# 2 58.9329 75.8110 48.2861 0.0000 -22.0717 0.0000
# 3 75.7303 48.2861 71.3756 0.0000 -14.7872 0.0000
# 4 0.0000 0.0000 0.0000 22.8007 0.0000 -8.0263
# 5 -30.1159 -22.0717 -14.7872 0.0000 31.2345 0.0000
# 6 0.0000 0.0000 0.0000 -8.0263 0.0000 26.7433
#
#
#
# Elastic Compliance Matrix: (Units=1/GPa)
#
#
# Indices 1 2 3 4 5 6 
#
# 1 0.299621 -0.011998 -0.279062 0.000000 0.148298 0.000000
# 2 -0.011998 0.026813 -0.004303 0.000000 0.005342 0.000000
# 3 -0.279062 -0.004303 0.284544 0.000000 -0.137398 0.000000
# 4 0.000000 0.000000 0.000000 0.049039 0.000000 0.014718
# 5 0.148298 0.005342 -0.137398 0.000000 0.113730 0.000000
# 6 0.000000 0.000000 0.000000 0.014718 0.000000 0.041810
#
#
# Mechanical properties :
#
#
# Convention : Reuss Voigt Hill
#
# Bulk Modulus (GPa) = 49.37349 67.13581 58.25465
# Shear Modulus (GPa) = 3.53849 19.84733 11.69291
#
# Velocity S-wave (km/s) = 1.38430 3.27849 2.51642
# Velocity P-wave (km/s) = 5.41236 7.11963 6.32388
#
# Compressibility (1/GPa) = 0.02025378
#
# Stress axis : x y z
#
# Youngs Moduli (GPa) = 3.33755 37.29486 3.51440
#
# Poissons Ratio (x) = 0.44745 0.98073
# Poissons Ratio (y) = 0.04004 0.01512
# Poissons Ratio (z) = 0.93138 0.16048
#
# Static dielectric constant tensor:
#      x y z
#    x 3.399310 0.000000 0.022710 
#    y 0.000000 3.622590 0.000000 
#    z 0.022710 0.000000 3.416420 
# 
# 
# High freq. dielectric constant tensor:
#      x y z
#    x 1.698640 0.000000 0.000510 
#    y 0.000000 1.733310 0.000000 
#    z 0.000510 0.000000 1.699320 
# 
# From -- ./inp_files/96752.got.cif
#   From: 2010.06.25/outbox.cif.g09.slc.cpg/sg12_49_cif.got.tgz:96752.got - 2010.06.28 00:19:55.
