data_PCOD8087179
_publ_section_title
;
Structure prediction by ZEFSAII (Michael W. Deem and Ramdas Pophale) SiO2 
 PCOD8087179
Probable space group: C 2/M
;
_chemical_formula_sum "Si O2"
_cell_formula_units_Z 48
_cell_length_a 20.211444
_cell_length_b 9.279384
_cell_length_c 14.414138
_cell_angle_alpha 90.000000
_cell_angle_beta 107.903173
_cell_angle_gamma 90.000000
_cell_volume 2572.463822
_symmetry_space_group_name_H-M "C 2/M"
_symmetry_group_IT_number 12
_symmetry_cell_setting 'monoclinic'
loop_
_space_group_symop_operation_xyz
x,y,z
-x,y,-z
-x,-y,-z
x,-y,z
1/2+x,1/2+y,z
1/2-x,1/2+y,-z
1/2-x,1/2-y,-z
1/2+x,1/2-y,z
loop_
_atom_site_type_symbol
_atom_site_label
_atom_site_fract_x
_atom_site_fract_y
_atom_site_fract_z
Si Si1 0.869874 0.832912 0.413295
Si Si2 0.214066 0.332399 0.303305
Si Si3 0.783046 0.167089 0.875801
Si Si4 0.157943 0.835580 0.905078
Si Si5 0.036650 0.164203 0.724050
Si Si6 0.907340 0.668406 0.609931
O O1 0.790877 0.780514 0.365051
O O2 0.912092 0.801346 0.338626
O O3 0.905912 0.743009 0.509715
O O4 0.872240 0.000000 0.442455
O O5 0.213611 0.500000 0.276991
O O6 0.187362 0.245420 0.202261
O O7 0.163655 0.297225 0.366824
O O8 0.708501 0.230490 0.871238
O O9 0.773135 0.000000 0.849043
O O10 0.837830 0.192792 0.982923
O O11 0.079211 0.808308 0.837522
O O12 0.180403 0.000000 0.891155
O O13 0.971352 0.269977 0.696753
O O14 0.009852 0.000000 0.706771
O O15 0.918680 0.500000 0.600407
#
# Coordination Sequence:
#
# PCOD8087179 Si02
#       6
#     8   8   8   8   8   8
#     4  10  20  37  60  79 101 145 192 222 264 326
#     4  10  21  39  57  77 111 150 181 218 274 329
#     4  10  19  31  56  88 110 135 179 230 270 311
#     4   9  18  35  56  81 112 144 177 218 271 325
#     4  10  20  37  59  79 107 148 184 216 265 330
#     4  11  24  37  53  80 114 145 178 229 279 316
#
# _framework density 18.659154999999998
#
# number of rings (size 3 to 8) (size 9 to 14) (size 15 to 20)
#    0.000    2.000    1.667    2.000    0.000    6.000 
#    0.000    0.833    0.000    5.000    0.000    0.000 
#    0.000    0.000    0.000    0.000    0.000    0.000 
#
# Total GULP energy -297696.426283 kJ/mol
# GULP energy per Si atom -12404.017762 kJ/mol
# Density = 1.861669 g / cm^3
# Si number density = 18.659155 Si / 1000 Ang^3
#
#
#
# Elastic Constant Matrix: (Units=GPa)
#
#
# Indices 1 2 3 4 5 6 
#
# 1 62.7887 25.4748 13.1670 0.0000 19.5927 0.0000
# 2 25.4748 70.7991 39.6182 0.0000 6.2429 0.0000
# 3 13.1670 39.6182 91.8019 0.0000 17.8626 0.0000
# 4 0.0000 0.0000 0.0000 33.0016 0.0000 -0.4081
# 5 19.5927 6.2429 17.8626 0.0000 23.4709 0.0000
# 6 0.0000 0.0000 0.0000 -0.4081 0.0000 29.9975
#
#
#
# Elastic Compliance Matrix: (Units=1/GPa)
#
#
# Indices 1 2 3 4 5 6 
#
# 1 0.026223 -0.010295 0.005175 0.000000 -0.023090 0.000000
# 2 -0.010295 0.022701 -0.010350 0.000000 0.010433 0.000000
# 3 0.005175 -0.010350 0.017516 0.000000 -0.014898 0.000000
# 4 0.000000 0.000000 0.000000 0.030307 0.000000 0.000412
# 5 -0.023090 0.010433 -0.014898 0.000000 0.070444 0.000000
# 6 0.000000 0.000000 0.000000 0.000412 0.000000 0.033342
#
#
# Mechanical properties :
#
#
# Convention : Reuss Voigt Hill
#
# Bulk Modulus (GPa) = 28.16989 42.43441 35.30215
# Shear Modulus (GPa) = 20.55015 27.10264 23.82640
#
# Velocity S-wave (km/s) = 3.32225 3.81532 3.57729
# Velocity P-wave (km/s) = 5.46318 6.49616 6.00193
#
# Compressibility (1/GPa) = 0.03549889
#
# Stress axis : x y z
#
# Youngs Moduli (GPa) = 38.13379 44.05133 57.08973
#
# Poissons Ratio (x) = 0.45352 -0.29542
# Poissons Ratio (y) = 0.39260 0.59089
# Poissons Ratio (z) = -0.19733 0.45594
#
# Static dielectric constant tensor:
#      x y z
#    x 3.268320 0.000000 0.118620 
#    y 0.000000 3.438720 0.000000 
#    z 0.118620 0.000000 3.589190 
# 
# 
# High freq. dielectric constant tensor:
#      x y z
#    x 1.705170 0.000000 0.007520 
#    y 0.000000 1.725000 0.000000 
#    z 0.007520 0.000000 1.735020 
# 
# From -- ./inp_files/229849.got.cif
#   From: 2010.06.25/outbox.cif.g09.slc.cpg/sg12_115_cif.got.tgz:229849.got - 2010.06.28 00:19:55.
