data_PCOD8087348
_publ_section_title
;
Structure prediction by ZEFSAII (Michael W. Deem and Ramdas Pophale) SiO2 
 PCOD8087348
Probable space group: C 2/M
;
_chemical_formula_sum "Si O2"
_cell_formula_units_Z 64
_cell_length_a 29.843509
_cell_length_b 25.272397
_cell_length_c 9.824750
_cell_angle_alpha 90.000000
_cell_angle_beta 28.171253
_cell_angle_gamma 90.000000
_cell_volume 3498.321153
_symmetry_space_group_name_H-M "C 2/M"
_symmetry_group_IT_number 12
_symmetry_cell_setting 'monoclinic'
loop_
_space_group_symop_operation_xyz
x,y,z
-x,y,-z
-x,-y,-z
x,-y,z
1/2+x,1/2+y,z
1/2-x,1/2+y,-z
1/2-x,1/2-y,-z
1/2+x,1/2-y,z
loop_
_atom_site_type_symbol
_atom_site_label
_atom_site_fract_x
_atom_site_fract_y
_atom_site_fract_z
Si Si1 0.793147 0.646834 0.575466
Si Si2 0.791590 0.638627 0.898462
Si Si3 0.048009 0.559166 0.515632
Si Si4 0.604752 0.684767 0.443677
Si Si5 0.421352 0.940475 0.097609
Si Si6 0.890986 0.245744 0.294494
Si Si7 0.106362 0.270204 0.214750
Si Si8 0.111325 0.808608 0.970225
O O1 0.813448 0.647845 0.681435
O O2 0.838091 0.597559 0.374115
O O3 0.832500 0.702122 0.414751
O O4 0.680999 0.646108 0.841159
O O5 0.849305 0.585933 0.776642
O O6 0.826023 0.684616 0.908755
O O7 0.678022 0.634919 0.233002
O O8 0.069560 0.500000 0.508700
O O9 0.000000 0.560687 0.500000
O O10 0.973454 0.584221 0.824013
O O11 0.634241 0.720336 0.493385
O O12 0.621445 0.718849 0.265372
O O13 0.495165 0.666995 0.736614
O O14 0.380464 0.000000 0.178212
O O15 0.500000 0.944122 0.000000
O O16 0.866943 0.202043 0.245623
O O17 0.000000 0.263167 0.000000
O O18 0.000000 0.293523 0.500000
O O19 0.125987 0.247759 0.010300
#
# Coordination Sequence:
#
# PCOD8087348 Si02
#       8
#     8   8   8   8   8   8   8   8
#     4  12  21  32  56  80 106 142 189 219 262 327
#     4  12  21  32  57  80 101 146 186 218 265 327
#     4  10  23  41  58  83 113 136 171 227 283 328
#     4  10  20  36  51  72 110 144 181 218 263 314
#     4  10  21  38  58  80 107 136 172 221 275 328
#     4  10  21  34  50  75 111 145 178 226 270 314
#     4  10  19  32  49  73 106 138 179 218 259 315
#     4  10  22  35  50  77 110 148 180 226 265 309
#
# _framework density 18.29449
#
# number of rings (size 3 to 8) (size 9 to 14) (size 15 to 20)
#    0.000    1.500    3.750    2.250    0.000    2.000 
#    0.000    0.000    0.000    0.750    0.000    1.750 
#    0.000    6.000    0.000    0.000    0.000    0.000 
#
# Total GULP energy -396581.960121 kJ/mol
# GULP energy per Si atom -12393.186254 kJ/mol
# Density = 1.825285 g / cm^3
# Si number density = 18.294490 Si / 1000 Ang^3
#
#
#
# Elastic Constant Matrix: (Units=GPa)
#
#
# Indices 1 2 3 4 5 6 
#
# 1 80.2751 25.1254 36.4046 0.0000 -9.6041 0.0000
# 2 25.1254 63.1431 51.5540 0.0000 -19.1029 0.0000
# 3 36.4046 51.5540 100.6786 0.0000 -12.3176 0.0000
# 4 0.0000 0.0000 0.0000 13.0475 0.0000 -23.8388
# 5 -9.6041 -19.1029 -12.3176 0.0000 30.6674 0.0000
# 6 0.0000 0.0000 0.0000 -23.8388 0.0000 13.2024
#
#
#
# Elastic Compliance Matrix: (Units=1/GPa)
#
#
# Indices 1 2 3 4 5 6 
#
# 1 0.015237 -0.002068 -0.004233 0.000000 0.001784 0.000000
# 2 -0.002068 0.032404 -0.014151 0.000000 0.013854 0.000000
# 3 -0.004233 -0.014151 0.018371 0.000000 -0.002761 0.000000
# 4 0.000000 0.000000 0.000000 -0.033337 0.000000 -0.060194
# 5 0.001784 0.013854 -0.002761 0.000000 0.040687 0.000000
# 6 0.000000 0.000000 0.000000 -0.060194 0.000000 -0.032946
#
#
# Mechanical properties :
#
#
# Convention : Reuss Voigt Hill
#
# Bulk Modulus (GPa) = 39.82277 52.25166 46.03722
# Shear Modulus (GPa) = 55.74772 20.11763 37.93267
#
# Velocity S-wave (km/s) = 5.52617 3.31970 4.55845
# Velocity P-wave (km/s) = 7.90778 6.58159 7.27497
#
# Compressibility (1/GPa) = 0.02511126
#
# Stress axis : x y z
#
# Youngs Moduli (GPa) = 65.62869 30.85997 54.43260
#
# Poissons Ratio (x) = 0.06380 0.23040
# Poissons Ratio (y) = 0.13569 0.77026
# Poissons Ratio (z) = 0.27779 0.43669
#
# Static dielectric constant tensor:
#      x y z
#    x 3.697080 0.000000 0.006490 
#    y 0.000000 3.157590 0.000000 
#    z 0.006490 0.000000 3.341220 
# 
# 
# High freq. dielectric constant tensor:
#      x y z
#    x 1.729120 0.000000 0.007310 
#    y 0.000000 1.656810 0.000000 
#    z 0.007310 0.000000 1.716470 
# 
# From -- ./inp_files/90675.got.cif
#   From: 2010.06.25/outbox.cif.g09.slc.cpg/sg12_46_cif.got.tgz:90675.got - 2010.06.28 00:19:55.
