data_PCOD8087451
_publ_section_title
;
Structure prediction by ZEFSAII (Michael W. Deem and Ramdas Pophale) SiO2 
 PCOD8087451
Probable space group: C 2/M
;
_chemical_formula_sum "Si O2"
_cell_formula_units_Z 48
_cell_length_a 32.939049
_cell_length_b 9.019189
_cell_length_c 9.119912
_cell_angle_alpha 90.000000
_cell_angle_beta 86.636564
_cell_angle_gamma 90.000000
_cell_volume 2704.708478
_symmetry_space_group_name_H-M "C 2/M"
_symmetry_group_IT_number 12
_symmetry_cell_setting 'monoclinic'
loop_
_space_group_symop_operation_xyz
x,y,z
-x,y,-z
-x,-y,-z
x,-y,z
1/2+x,1/2+y,z
1/2-x,1/2+y,-z
1/2-x,1/2-y,-z
1/2+x,1/2-y,z
loop_
_atom_site_type_symbol
_atom_site_label
_atom_site_fract_x
_atom_site_fract_y
_atom_site_fract_z
Si Si1 0.335719 0.836491 0.157349
Si Si2 0.631580 0.676737 0.418337
Si Si3 0.042755 0.825191 0.924058
Si Si4 0.620679 0.673390 0.088421
Si Si5 0.416160 0.833227 0.333705
Si Si6 0.292073 0.822934 0.448441
O O1 0.376255 0.836392 0.244186
O O2 0.300002 0.783249 0.274971
O O3 0.326023 0.000000 0.099800
O O4 0.341167 0.733758 0.014269
O O5 0.634585 0.500000 0.435723
O O6 0.623543 0.728209 0.253935
O O7 0.593313 0.737239 0.519457
O O8 0.673488 0.751636 0.457479
O O9 0.077780 0.773590 0.029808
O O10 0.044448 0.000000 0.895319
O O11 0.047946 0.744346 0.766447
O O12 0.000000 0.774782 0.000000
O O13 0.624537 0.500000 0.079670
O O14 0.429293 0.000000 0.374965
O O15 0.250000 0.750000 0.500000
O O16 0.291896 0.000000 0.471841
#
# Coordination Sequence:
#
# PCOD8087451 Si02
#       6
#     8   8   8   8   8   8
#     4   8  16  30  48  69  93 122 157 195 234 281
#     4  10  19  32  50  72  98 127 160 199 240 285
#     4   9  17  31  51  73  97 127 163 203 246 289
#     4   9  18  31  49  73  97 124 161 200 240 287
#     4   9  17  30  48  70  95 126 164 200 237 287
#     4  10  20  34  52  75  99 126 161 198 239 286
#
# _framework density 17.746829000000002
#
# number of rings (size 3 to 8) (size 9 to 14) (size 15 to 20)
#    0.000    2.833    0.000    2.500    0.000    6.333 
#    0.000    1.667    0.000    5.000    0.000    0.000 
#    0.000    0.000    0.000    0.000    0.000    0.000 
#
# Total GULP energy -297505.915172 kJ/mol
# GULP energy per Si atom -12396.079799 kJ/mol
# Density = 1.770644 g / cm^3
# Si number density = 17.746829 Si / 1000 Ang^3
#
#
#
# Elastic Constant Matrix: (Units=GPa)
#
#
# Indices 1 2 3 4 5 6 
#
# 1 90.6698 40.0583 63.8895 0.0000 -31.7687 0.0000
# 2 40.0583 71.7276 62.4549 0.0000 -13.1065 0.0000
# 3 63.8895 62.4549 156.8299 0.0000 -28.8051 0.0000
# 4 0.0000 0.0000 0.0000 29.9164 0.0000 -8.0062
# 5 -31.7687 -13.1065 -28.8051 0.0000 31.1930 0.0000
# 6 0.0000 0.0000 0.0000 -8.0062 0.0000 23.1799
#
#
#
# Elastic Compliance Matrix: (Units=1/GPa)
#
#
# Indices 1 2 3 4 5 6 
#
# 1 0.022058 -0.006299 -0.003417 0.000000 0.016663 0.000000
# 2 -0.006299 0.023188 -0.007294 0.000000 -0.003408 0.000000
# 3 -0.003417 -0.007294 0.011406 0.000000 0.003987 0.000000
# 4 0.000000 0.000000 0.000000 0.036831 0.000000 0.012721
# 5 0.016663 -0.003408 0.003987 0.000000 0.051279 0.000000
# 6 0.000000 0.000000 0.000000 0.012721 0.000000 0.047535
#
#
# Mechanical properties :
#
#
# Convention : Reuss Voigt Hill
#
# Bulk Modulus (GPa) = 44.18639 72.44807 58.31723
# Shear Modulus (GPa) = 21.38030 27.04616 24.21323
#
# Velocity S-wave (km/s) = 3.47470 3.90808 3.69774
# Velocity P-wave (km/s) = 6.40705 7.82789 7.15284
#
# Compressibility (1/GPa) = 0.02263140
#
# Stress axis : x y z
#
# Youngs Moduli (GPa) = 45.33490 43.12615 87.67693
#
# Poissons Ratio (x) = 0.27164 0.29960
# Poissons Ratio (y) = 0.28556 0.63952
# Poissons Ratio (z) = 0.15492 0.31456
#
# Static dielectric constant tensor:
#      x y z
#    x 3.181420 0.000000 -0.279920 
#    y 0.000000 3.389230 0.000000 
#    z -0.279920 0.000000 3.539220 
# 
# 
# High freq. dielectric constant tensor:
#      x y z
#    x 1.659460 0.000000 -0.027740 
#    y 0.000000 1.692220 0.000000 
#    z -0.027740 0.000000 1.687610 
# 
# From -- ./inp_files/108595.got.cif
#   From: 2010.06.25/outbox.cif.g09.slc.cpg/sg12_55_cif.got.tgz:108595.got - 2010.06.28 00:19:55.
