data_PCOD8087327
_publ_section_title
;
Structure prediction by ZEFSAII (Michael W. Deem and Ramdas Pophale) SiO2 
 PCOD8087327
Probable space group: C 2/M
;
_chemical_formula_sum "Si O2"
_cell_formula_units_Z 56
_cell_length_a 24.699336
_cell_length_b 8.885376
_cell_length_c 17.195940
_cell_angle_alpha 90.000000
_cell_angle_beta 123.767055
_cell_angle_gamma 90.000000
_cell_volume 3137.234520
_symmetry_space_group_name_H-M "C 2/M"
_symmetry_group_IT_number 12
_symmetry_cell_setting 'monoclinic'
loop_
_space_group_symop_operation_xyz
x,y,z
-x,y,-z
-x,-y,-z
x,-y,z
1/2+x,1/2+y,z
1/2-x,1/2+y,-z
1/2-x,1/2-y,-z
1/2+x,1/2-y,z
loop_
_atom_site_type_symbol
_atom_site_label
_atom_site_fract_x
_atom_site_fract_y
_atom_site_fract_z
Si Si1 0.774423 0.672334 0.095117
Si Si2 0.261492 0.666179 0.626301
Si Si3 0.092885 0.322289 0.857033
Si Si4 0.374578 0.821758 0.799171
Si Si5 0.855788 0.177961 0.943311
Si Si6 0.542247 0.679431 0.267737
Si Si7 0.343780 0.665656 0.536380
O O1 0.766856 0.500000 0.069370
O O2 0.851502 0.710047 0.165342
O O3 0.723143 0.712445 0.122961
O O4 0.750000 0.750000 0.000000
O O5 0.257016 0.500000 0.660828
O O6 0.301959 0.774765 0.715047
O O7 0.296205 0.655100 0.571599
O O8 0.187992 0.728063 0.554811
O O9 0.082002 0.500000 0.861109
O O10 0.028640 0.244876 0.772105
O O11 0.111981 0.246489 0.953853
O O12 0.388299 0.760015 0.896230
O O13 0.429410 0.750001 0.788340
O O14 0.381062 0.000000 0.802296
O O15 0.870289 0.000000 0.951650
O O16 0.541678 0.500000 0.257633
O O17 0.586778 0.727375 0.377345
O O18 0.352267 0.500000 0.506421
#
# Coordination Sequence:
#
# PCOD8087327 Si02
#       7
#     8   8   8   8   8   8   8
#     4   8  16  30  49  69  89 114 148 191 232 269
#     4   9  16  27  44  65  89 118 151 186 226 271
#     4  10  19  32  49  71  95 120 153 191 230 271
#     4  11  21  32  46  67  95 125 156 191 229 271
#     4  10  19  33  50  68  92 123 156 190 229 272
#     4  10  20  33  47  67  95 127 158 187 225 274
#     4   8  15  27  43  63  88 117 151 188 223 263
#
# _framework density 17.850116
#
# number of rings (size 3 to 8) (size 9 to 14) (size 15 to 20)
#    0.000    2.571    0.000    3.857    0.000    5.714 
#    0.000    2.857    0.000    0.000    0.000    1.000 
#    0.000    8.000    0.000    0.000    0.000    0.000 
#
# Total GULP energy -346901.671562 kJ/mol
# GULP energy per Si atom -12389.345413 kJ/mol
# Density = 1.780949 g / cm^3
# Si number density = 17.850116 Si / 1000 Ang^3
#
#
#
# Elastic Constant Matrix: (Units=GPa)
#
#
# Indices 1 2 3 4 5 6 
#
# 1 53.0063 22.9016 16.6671 0.0000 27.7785 0.0000
# 2 22.9016 90.0641 15.8807 0.0000 15.1819 0.0000
# 3 16.6671 15.8807 43.7969 0.0000 28.6276 0.0000
# 4 0.0000 0.0000 0.0000 28.0435 0.0000 6.6296
# 5 27.7785 15.1819 28.6276 0.0000 28.1564 0.0000
# 6 0.0000 0.0000 0.0000 6.6296 0.0000 21.1160
#
#
#
# Elastic Compliance Matrix: (Units=1/GPa)
#
#
# Indices 1 2 3 4 5 6 
#
# 1 0.063930 -0.006461 0.050574 0.000000 -0.111009 0.000000
# 2 -0.006461 0.012868 -0.005481 0.000000 0.005009 0.000000
# 3 0.050574 -0.005481 0.108091 0.000000 -0.156840 0.000000
# 4 0.000000 0.000000 0.000000 0.038518 0.000000 -0.012093
# 5 -0.111009 0.005009 -0.156840 0.000000 0.301798 0.000000
# 6 0.000000 0.000000 0.000000 -0.012093 0.000000 0.051154
#
#
# Mechanical properties :
#
#
# Convention : Reuss Voigt Hill
#
# Bulk Modulus (GPa) = 3.81457 33.08512 18.44984
# Shear Modulus (GPa) = 8.52542 24.22437 16.37490
#
# Velocity S-wave (km/s) = 2.18780 3.68788 3.03207
# Velocity P-wave (km/s) = 2.91952 6.05881 4.75567
#
# Compressibility (1/GPa) = 0.26215288
#
# Stress axis : x y z
#
# Youngs Moduli (GPa) = 15.64202 77.71010 9.25144
#
# Poissons Ratio (x) = 0.50211 -0.46788
# Poissons Ratio (y) = 0.10107 0.05071
# Poissons Ratio (z) = -0.79108 0.42595
#
# Static dielectric constant tensor:
#      x y z
#    x 3.858750 0.000000 0.367230 
#    y 0.000000 3.497470 0.000000 
#    z 0.367230 0.000000 3.219030 
# 
# 
# High freq. dielectric constant tensor:
#      x y z
#    x 1.661930 0.000000 0.026610 
#    y 0.000000 1.705600 0.000000 
#    z 0.026610 0.000000 1.668730 
# 
# From -- ./inp_files/287844.got.cif
#   From: 2010.06.25/outbox.cif.g09.slc.cpg/sg12_144_cif.got.tgz:287844.got - 2010.06.28 00:19:55.
