data_PCOD8087379
_publ_section_title
;
Structure prediction by ZEFSAII (Michael W. Deem and Ramdas Pophale) SiO2 
 PCOD8087379
Probable space group: C 2/M
;
_chemical_formula_sum "Si O2"
_cell_formula_units_Z 48
_cell_length_a 23.014400
_cell_length_b 8.927250
_cell_length_c 29.712754
_cell_angle_alpha 90.000000
_cell_angle_beta 27.193947
_cell_angle_gamma 90.000000
_cell_volume 2789.845975
_symmetry_space_group_name_H-M "C 2/M"
_symmetry_group_IT_number 12
_symmetry_cell_setting 'monoclinic'
loop_
_space_group_symop_operation_xyz
x,y,z
-x,y,-z
-x,-y,-z
x,-y,z
1/2+x,1/2+y,z
1/2-x,1/2+y,-z
1/2-x,1/2-y,-z
1/2+x,1/2-y,z
loop_
_atom_site_type_symbol
_atom_site_label
_atom_site_fract_x
_atom_site_fract_y
_atom_site_fract_z
Si Si1 0.947662 0.826430 0.850442
Si Si2 0.292339 0.823775 0.311020
Si Si3 0.359135 0.321974 0.089085
Si Si4 0.298285 0.822434 0.717339
Si Si5 0.562619 0.165167 0.505447
Si Si6 0.735727 0.325636 0.941799
O O1 0.856750 0.770429 0.873244
O O2 0.076024 0.732308 0.759183
O O3 0.978952 0.000000 0.821485
O O4 0.882085 0.798057 0.943715
O O5 0.271615 0.752764 0.276475
O O6 0.181049 0.778282 0.422943
O O7 0.293880 0.000000 0.304954
O O8 0.364998 0.500000 0.084651
O O9 0.267182 0.264226 0.192035
O O10 0.305674 0.264572 0.078395
O O11 0.500000 0.255894 0.000000
O O12 0.448447 0.778888 0.616872
O O13 0.282737 0.000000 0.721567
O O14 0.500000 0.154647 0.500000
O O15 0.611282 0.000000 0.486536
O O16 0.774073 0.500000 0.914654
#
# Coordination Sequence:
#
# PCOD8087379 Si02
#       6
#     8   8   8   8   8   8
#     4  10  19  32  50  69  94 126 157 193 235 278
#     4  11  20  29  46  71  96 122 157 199 237 274
#     4   9  16  28  49  74  98 125 155 185 222 275
#     4   9  17  30  48  70  97 128 157 187 230 282
#     4   8  15  28  45  66  93 123 155 191 233 280
#     4   9  18  32  50  72  96 123 157 193 228 271
#
# _framework density 17.205251000000001
#
# number of rings (size 3 to 8) (size 9 to 14) (size 15 to 20)
#    0.000    2.667    0.000    4.000    0.000    6.333 
#    0.000    0.833    0.000    3.000    0.000    0.000 
#    0.000    0.000    0.000    0.000    0.000    0.000 
#
# Total GULP energy -297555.176348 kJ/mol
# GULP energy per Si atom -12398.132348 kJ/mol
# Density = 1.716609 g / cm^3
# Si number density = 17.205251 Si / 1000 Ang^3
#
#
#
# Elastic Constant Matrix: (Units=GPa)
#
#
# Indices 1 2 3 4 5 6 
#
# 1 98.3392 29.3415 65.2305 -0.0067 1.5793 0.0104
# 2 29.3415 60.8300 42.2390 -0.0070 -6.9176 0.0102
# 3 65.2305 42.2390 143.2971 -0.0067 -0.4787 0.0057
# 4 -0.0067 -0.0070 -0.0067 20.0982 0.0008 -7.6775
# 5 1.5793 -6.9176 -0.4787 0.0008 23.0312 -0.0040
# 6 0.0104 0.0102 0.0057 -7.6775 -0.0040 21.0490
#
#
#
# Elastic Compliance Matrix: (Units=1/GPa)
#
#
# Indices 1 2 3 4 5 6 
#
# 1 0.015137 -0.003473 -0.005874 0.000000 -0.002203 -0.000005
# 2 -0.003473 0.022355 -0.004986 0.000003 0.006849 -0.000005
# 3 -0.005874 -0.004986 0.011119 0.000001 -0.000864 0.000003
# 4 0.000000 0.000003 0.000001 0.057810 0.000003 0.021086
# 5 -0.002203 0.006849 -0.000864 0.000003 0.045610 0.000008
# 6 -0.000005 -0.000005 0.000003 0.021086 0.000008 0.055199
#
#
# Mechanical properties :
#
#
# Convention : Reuss Voigt Hill
#
# Bulk Modulus (GPa) = 50.13610 64.00981 57.07296
# Shear Modulus (GPa) = 20.61472 23.87938 22.24705
#
# Velocity S-wave (km/s) = 3.46521 3.72951 3.59979
# Velocity P-wave (km/s) = 6.72410 7.47195 7.10787
#
# Compressibility (1/GPa) = 0.01994571
#
# Stress axis : x y z
#
# Youngs Moduli (GPa) = 66.06345 44.73207 89.93426
#
# Poissons Ratio (x) = 0.15535 0.52829
# Poissons Ratio (y) = 0.22944 0.44839
# Poissons Ratio (z) = 0.38807 0.22302
#
# Static dielectric constant tensor:
#      x y z
#    x 3.032060 -0.000030 0.079160 
#    y -0.000030 3.024830 0.000020 
#    z 0.079160 0.000020 3.623080 
# 
# 
# High freq. dielectric constant tensor:
#      x y z
#    x 1.634090 0.000000 -0.006610 
#    y 0.000000 1.646140 0.000000 
#    z -0.006610 0.000000 1.675450 
# 
# From -- ./inp_files/236859.got.cif
#   From: 2010.06.25/outbox.cif.g09.slc.cpg/sg12_119_cif.got.tgz:236859.got - 2010.06.28 00:19:55.
