data_PCOD8087843
_publ_section_title
;
Structure prediction by ZEFSAII (Michael W. Deem and Ramdas Pophale) SiO2 
 PCOD8087843
Probable space group: C 2/M
;
_chemical_formula_sum "Si O2"
_cell_formula_units_Z 48
_cell_length_a 29.343579
_cell_length_b 13.964594
_cell_length_c 12.604322
_cell_angle_alpha 90.000000
_cell_angle_beta 152.683426
_cell_angle_gamma 90.000000
_cell_volume 2370.201001
_symmetry_space_group_name_H-M "C 2/M"
_symmetry_group_IT_number 12
_symmetry_cell_setting 'monoclinic'
loop_
_space_group_symop_operation_xyz
x,y,z
-x,y,-z
-x,-y,-z
x,-y,z
1/2+x,1/2+y,z
1/2-x,1/2+y,-z
1/2-x,1/2-y,-z
1/2+x,1/2-y,z
loop_
_atom_site_type_symbol
_atom_site_label
_atom_site_fract_x
_atom_site_fract_y
_atom_site_fract_z
Si Si1 0.846141 0.276638 0.133125
Si Si2 0.612187 0.200118 0.200537
Si Si3 0.390587 0.889211 0.029891
Si Si4 0.699368 0.391662 0.329469
Si Si5 0.185398 0.105607 0.057456
Si Si6 0.905268 0.390981 0.441728
O O1 0.825093 0.352572 0.994384
O O2 0.922672 0.322995 0.375052
O O3 0.750000 0.250000 0.000000
O O4 0.883339 0.178992 0.152171
O O5 0.635242 0.313740 0.263182
O O6 0.684302 0.137487 0.424599
O O7 0.500000 0.175999 0.000000
O O8 0.636708 0.170733 0.130538
O O9 0.506742 0.870798 0.294072
O O10 0.366431 0.000000 0.959497
O O11 0.684816 0.500000 0.344464
O O12 0.660045 0.388013 0.128323
O O13 0.301662 0.131312 0.284975
O O14 0.162352 0.000000 0.965447
O O15 0.908777 0.500000 0.407779
#
# Coordination Sequence:
#
# PCOD8087843 Si02
#       6
#     8   8   8   8   8   8
#     4  10  19  32  51  78 109 145 183 228 276 341
#     4  11  23  38  61  93 121 153 196 246 295 348
#     4  11  21  35  56  84 114 143 183 236 292 344
#     4  10  21  39  61  85 119 158 196 239 294 354
#     4   9  17  33  55  77 105 146 188 224 276 343
#     4   9  18  31  53  82 109 140 177 227 289 343
#
# _framework density 20.251448
#
# number of rings (size 3 to 8) (size 9 to 14) (size 15 to 20)
#    0.000    2.000    1.667    2.500    0.000    5.000 
#    0.000    0.000    0.000    3.000    0.000    0.000 
#    0.000    0.000    0.000    0.000    0.000    0.000 
#
# Total GULP energy -297450.450837 kJ/mol
# GULP energy per Si atom -12393.768785 kJ/mol
# Density = 2.020535 g / cm^3
# Si number density = 20.251448 Si / 1000 Ang^3
#
#
#
# Elastic Constant Matrix: (Units=GPa)
#
#
# Indices 1 2 3 4 5 6 
#
# 1 47.6799 5.5409 -6.3974 0.0000 -1.5090 0.0000
# 2 5.5409 126.1672 20.0647 0.0000 -10.5538 0.0000
# 3 -6.3974 20.0647 34.4399 0.0000 -6.5440 0.0000
# 4 0.0000 0.0000 0.0000 30.7172 0.0000 -7.7388
# 5 -1.5090 -10.5538 -6.5440 0.0000 28.4058 0.0000
# 6 0.0000 0.0000 0.0000 -7.7388 0.0000 26.9320
#
#
#
# Elastic Compliance Matrix: (Units=1/GPa)
#
#
# Indices 1 2 3 4 5 6 
#
# 1 0.021947 -0.001672 0.005390 0.000000 0.001787 0.000000
# 2 -0.001672 0.008992 -0.005157 0.000000 0.002064 0.000000
# 3 0.005390 -0.005157 0.034231 0.000000 0.006256 0.000000
# 4 0.000000 0.000000 0.000000 0.035096 0.000000 0.010085
# 5 0.001787 0.002064 0.006256 0.000000 0.037507 0.000000
# 6 0.000000 0.000000 0.000000 0.010085 0.000000 0.040028
#
#
# Mechanical properties :
#
#
# Convention : Reuss Voigt Hill
#
# Bulk Modulus (GPa) = 16.05318 27.41147 21.73233
# Shear Modulus (GPa) = 24.82093 29.81626 27.31859
#
# Velocity S-wave (km/s) = 3.50471 3.84122 3.67682
# Velocity P-wave (km/s) = 4.93168 5.76526 5.36469
#
# Compressibility (1/GPa) = 0.06229295
#
# Stress axis : x y z
#
# Youngs Moduli (GPa) = 45.56386 111.20724 29.21352
#
# Poissons Ratio (x) = 0.18590 -0.15747
# Poissons Ratio (y) = 0.07617 0.15066
# Poissons Ratio (z) = -0.24560 0.57352
#
# Static dielectric constant tensor:
#      x y z
#    x 3.497430 0.000000 -0.220000 
#    y 0.000000 4.108500 0.000000 
#    z -0.220000 0.000000 3.585100 
# 
# 
# High freq. dielectric constant tensor:
#      x y z
#    x 1.779190 0.000000 -0.017470 
#    y 0.000000 1.805490 0.000000 
#    z -0.017470 0.000000 1.767610 
# 
# From -- ./inp_files/189541.got.cif
#   From: 2010.06.25/outbox.cif.g09.slc.cpg/sg12_95_cif.got.tgz:189541.got - 2010.06.28 00:19:55.
