data_PCOD8087458
_publ_section_title
;
Structure prediction by ZEFSAII (Michael W. Deem and Ramdas Pophale) SiO2 
 PCOD8087458
Probable space group: C 2/M
;
_chemical_formula_sum "Si O2"
_cell_formula_units_Z 56
_cell_length_a 30.874612
_cell_length_b 9.537400
_cell_length_c 18.265497
_cell_angle_alpha 90.000000
_cell_angle_beta 144.389926
_cell_angle_gamma 90.000000
_cell_volume 3131.730446
_symmetry_space_group_name_H-M "C 2/M"
_symmetry_group_IT_number 12
_symmetry_cell_setting 'monoclinic'
loop_
_space_group_symop_operation_xyz
x,y,z
-x,y,-z
-x,-y,-z
x,-y,z
1/2+x,1/2+y,z
1/2-x,1/2+y,-z
1/2-x,1/2-y,-z
1/2+x,1/2-y,z
loop_
_atom_site_type_symbol
_atom_site_label
_atom_site_fract_x
_atom_site_fract_y
_atom_site_fract_z
Si Si1 0.355482 0.661822 0.171979
Si Si2 0.014069 0.164296 0.438307
Si Si3 0.673591 0.336207 0.399019
Si Si4 0.743028 0.662269 0.098029
Si Si5 0.348483 0.662652 0.466562
Si Si6 0.783652 0.160848 0.774661
Si Si7 0.421574 0.662370 0.867473
O O1 0.341307 0.500000 0.171432
O O2 0.442620 0.696877 0.289987
O O3 0.317063 0.749877 0.183621
O O4 0.322291 0.704063 0.047902
O O5 0.000000 0.230265 0.500000
O O6 0.085245 0.226911 0.492950
O O7 0.027427 0.000000 0.465793
O O8 0.692524 0.500000 0.409774
O O9 0.750000 0.250000 0.500000
O O10 0.633793 0.317360 0.423067
O O11 0.615343 0.277200 0.258104
O O12 0.764180 0.500000 0.120349
O O13 0.713669 0.703166 0.137032
O O14 0.336033 0.500000 0.431079
O O15 0.273192 0.743776 0.347145
O O16 0.865768 0.188104 0.857690
O O17 0.759287 0.000000 0.730048
O O18 0.437105 0.500000 0.873871
O O19 0.500000 0.734134 0.000000
#
# Coordination Sequence:
#
# PCOD8087458 Si02
#       7
#     8   8   8   8   8   8   8
#     4   9  17  31  49  68  95 131 163 200 248 294
#     4   9  17  29  46  70  99 127 160 203 247 289
#     4  10  19  33  54  77 102 133 170 212 255 305
#     4   9  18  30  47  71  96 126 164 203 245 298
#     4  10  20  32  51  77  99 129 172 210 247 299
#     4  10  19  32  50  72  99 129 164 205 252 303
#     4   9  18  32  51  75 102 132 166 208 257 305
#
# _framework density 17.881488000000001
#
# number of rings (size 3 to 8) (size 9 to 14) (size 15 to 20)
#    0.000    2.571    1.429    0.857    0.000    2.857 
#    0.000    6.429    0.000    4.286    0.000    4.000 
#    0.000    0.000    0.000    0.000    0.000    0.000 
#
# Total GULP energy -347112.863354 kJ/mol
# GULP energy per Si atom -12396.887977 kJ/mol
# Density = 1.784079 g / cm^3
# Si number density = 17.881488 Si / 1000 Ang^3
#
#
#
# Elastic Constant Matrix: (Units=GPa)
#
#
# Indices 1 2 3 4 5 6 
#
# 1 116.4100 25.0617 55.7855 0.0000 -8.9700 0.0000
# 2 25.0617 29.9538 29.1747 0.0000 -0.5873 0.0000
# 3 55.7855 29.1747 122.6269 0.0000 2.0181 0.0000
# 4 0.0000 0.0000 0.0000 20.1164 0.0000 -0.0355
# 5 -8.9700 -0.5873 2.0181 0.0000 29.3110 0.0000
# 6 0.0000 0.0000 0.0000 -0.0355 0.0000 16.0075
#
#
#
# Elastic Compliance Matrix: (Units=1/GPa)
#
#
# Indices 1 2 3 4 5 6 
#
# 1 0.012194 -0.006066 -0.004168 0.000000 0.003897 0.000000
# 2 -0.006066 0.046546 -0.008308 0.000000 -0.000352 0.000000
# 3 -0.004168 -0.008308 0.012065 0.000000 -0.002273 0.000000
# 4 0.000000 0.000000 0.000000 0.049711 0.000000 0.000110
# 5 0.003897 -0.000352 -0.002273 0.000000 0.035459 0.000000
# 6 0.000000 0.000000 0.000000 0.000110 0.000000 0.062471
#
#
# Mechanical properties :
#
#
# Convention : Reuss Voigt Hill
#
# Bulk Modulus (GPa) = 29.65685 54.33718 41.99702
# Shear Modulus (GPa) = 18.74264 23.68490 21.21377
#
# Velocity S-wave (km/s) = 3.24104 3.64338 3.44809
# Velocity P-wave (km/s) = 5.53417 6.93919 6.27612
#
# Compressibility (1/GPa) = 0.03371902
#
# Stress axis : x y z
#
# Youngs Moduli (GPa) = 82.00679 21.48424 82.88360
#
# Poissons Ratio (x) = 0.13033 0.34548
# Poissons Ratio (y) = 0.49748 0.68863
# Poissons Ratio (z) = 0.34182 0.17850
#
# Static dielectric constant tensor:
#      x y z
#    x 3.525360 0.000000 -0.109690 
#    y 0.000000 3.040530 0.000000 
#    z -0.109690 0.000000 3.490730 
# 
# 
# High freq. dielectric constant tensor:
#      x y z
#    x 1.701180 0.000000 -0.008900 
#    y 0.000000 1.653330 0.000000 
#    z -0.008900 0.000000 1.697290 
# 
# From -- ./inp_files/292576.got.cif
#   From: 2010.06.25/outbox.cif.g09.slc.cpg/sg12_147_cif.got.tgz:292576.got - 2010.06.28 00:19:55.
