data_PCOD8087499
_publ_section_title
;
Structure prediction by ZEFSAII (Michael W. Deem and Ramdas Pophale) SiO2 
 PCOD8087499
Probable space group: C 2/M
;
_chemical_formula_sum "Si O2"
_cell_formula_units_Z 64
_cell_length_a 24.783362
_cell_length_b 9.224360
_cell_length_c 23.646758
_cell_angle_alpha 90.000000
_cell_angle_beta 47.010929
_cell_angle_gamma 90.000000
_cell_volume 3954.328731
_symmetry_space_group_name_H-M "C 2/M"
_symmetry_group_IT_number 12
_symmetry_cell_setting 'monoclinic'
loop_
_space_group_symop_operation_xyz
x,y,z
-x,y,-z
-x,-y,-z
x,-y,z
1/2+x,1/2+y,z
1/2-x,1/2+y,-z
1/2-x,1/2-y,-z
1/2+x,1/2-y,z
loop_
_atom_site_type_symbol
_atom_site_label
_atom_site_fract_x
_atom_site_fract_y
_atom_site_fract_z
Si Si1 0.284576 0.330846 0.922259
Si Si2 0.933091 0.667834 0.816669
Si Si3 0.662931 0.833324 0.917369
Si Si4 0.083263 0.332084 0.660102
Si Si5 0.371848 0.671446 0.167357
Si Si6 0.980808 0.331995 0.908850
Si Si7 0.312308 0.330717 0.328199
Si Si8 0.801240 0.667087 0.505764
O O1 0.289492 0.500000 0.933652
O O2 0.364814 0.269210 0.850561
O O3 0.234887 0.303073 0.903100
O O4 0.250000 0.250000 0.000000
O O5 0.908053 0.500000 0.832448
O O6 0.965625 0.705962 0.854720
O O7 0.996454 0.704677 0.725204
O O8 0.669204 0.733835 0.857882
O O9 0.658543 0.000000 0.901547
O O10 0.591375 0.790143 0.004427
O O11 0.094392 0.500000 0.667556
O O12 0.127486 0.245550 0.675830
O O13 0.114067 0.297316 0.573882
O O14 0.378440 0.500000 0.156942
O O15 0.453421 0.735842 0.114182
O O16 0.322065 0.719504 0.256651
O O17 0.001828 0.500000 0.901460
O O18 0.329088 0.500000 0.320967
O O19 0.227591 0.294038 0.410029
O O20 0.785810 0.500000 0.506007
O O21 0.750000 0.750000 0.500000
#
# Coordination Sequence:
#
# PCOD8087499 Si02
#       8
#     8   8   8   8   8   8   8   8
#     4  11  22  37  55  73  93 122 160 201 245 287
#     4  10  19  32  50  74  99 126 160 197 236 283
#     4  10  22  38  51  65  89 126 164 196 237 283
#     4   9  16  27  46  69  94 125 161 190 225 280
#     4  11  22  32  46  72  99 126 161 199 236 276
#     4  10  19  34  51  67  95 130 159 192 234 283
#     4   9  17  28  42  65  99 128 154 190 236 278
#     4   8  14  25  41  63  92 126 155 186 226 276
#
# _framework density 16.184795000000001
#
# number of rings (size 3 to 8) (size 9 to 14) (size 15 to 20)
#    0.000    2.250    2.500    1.125    0.000    4.500 
#    0.000    0.000    0.000    0.000    0.000    0.875 
#    0.000    7.000    0.000    0.000    0.000    0.000 
#
# Total GULP energy -396567.146399 kJ/mol
# GULP energy per Si atom -12392.723325 kJ/mol
# Density = 1.614796 g / cm^3
# Si number density = 16.184795 Si / 1000 Ang^3
#
#
#
# Elastic Constant Matrix: (Units=GPa)
#
#
# Indices 1 2 3 4 5 6 
#
# 1 70.8365 38.3920 43.9932 0.0003 -8.0273 -0.0009
# 2 38.3920 55.2151 39.9058 -0.0010 -3.4060 -0.0025
# 3 43.9932 39.9058 127.6544 0.0004 -14.5834 0.0000
# 4 0.0003 -0.0010 0.0004 18.7218 0.0004 -1.3202
# 5 -8.0273 -3.4060 -14.5834 0.0004 13.9139 -0.0002
# 6 -0.0009 -0.0025 0.0000 -1.3202 -0.0002 26.2090
#
#
#
# Elastic Compliance Matrix: (Units=1/GPa)
#
#
# Indices 1 2 3 4 5 6 
#
# 1 0.024770 -0.014480 -0.003161 -0.000001 0.007433 -0.000001
# 2 -0.014480 0.031922 -0.005737 0.000002 -0.006553 0.000003
# 3 -0.003161 -0.005737 0.011755 -0.000001 0.009093 -0.000001
# 4 -0.000001 0.000002 -0.000001 0.053604 -0.000002 0.002700
# 5 0.007433 -0.006553 0.009093 -0.000002 0.084085 0.000000
# 6 -0.000001 0.000003 -0.000001 0.002700 0.000000 0.038291
#
#
# Mechanical properties :
#
#
# Convention : Reuss Voigt Hill
#
# Bulk Modulus (GPa) = 46.10302 55.36535 50.73418
# Shear Modulus (GPa) = 16.75521 20.52993 18.64257
#
# Velocity S-wave (km/s) = 3.22101 3.56542 3.39758
# Velocity P-wave (km/s) = 6.51003 7.15766 6.84151
#
# Compressibility (1/GPa) = 0.02169055
#
# Stress axis : x y z
#
# Youngs Moduli (GPa) = 40.37077 31.32661 85.06861
#
# Poissons Ratio (x) = 0.45362 0.26887
# Poissons Ratio (y) = 0.58459 0.48807
# Poissons Ratio (z) = 0.12760 0.17973
#
# Static dielectric constant tensor:
#      x y z
#    x 2.764820 0.000000 -0.064790 
#    y 0.000000 3.085630 0.000000 
#    z -0.064790 0.000000 3.743950 
# 
# 
# High freq. dielectric constant tensor:
#      x y z
#    x 1.578820 0.000000 -0.004980 
#    y 0.000000 1.627460 0.000000 
#    z -0.004980 0.000000 1.640790 
# 
# From -- ./inp_files/323787.got.cif
#   From: 2010.06.25/outbox.cif.g09.slc.cpg/sg12_162_cif.got.tgz:323787.got - 2010.06.28 00:19:55.
