data_PCOD8087490
_publ_section_title
;
Structure prediction by ZEFSAII (Michael W. Deem and Ramdas Pophale) SiO2 
 PCOD8087490
Probable space group: C 2/M
;
_chemical_formula_sum "Si O2"
_cell_formula_units_Z 56
_cell_length_a 28.163244
_cell_length_b 13.616758
_cell_length_c 11.941422
_cell_angle_alpha 90.000000
_cell_angle_beta 42.596466
_cell_angle_gamma 90.000000
_cell_volume 3099.505466
_symmetry_space_group_name_H-M "C 2/M"
_symmetry_group_IT_number 12
_symmetry_cell_setting 'monoclinic'
loop_
_space_group_symop_operation_xyz
x,y,z
-x,y,-z
-x,-y,-z
x,-y,z
1/2+x,1/2+y,z
1/2-x,1/2+y,-z
1/2-x,1/2-y,-z
1/2+x,1/2-y,z
loop_
_atom_site_type_symbol
_atom_site_label
_atom_site_fract_x
_atom_site_fract_y
_atom_site_fract_z
Si Si1 0.425604 0.742384 0.680366
Si Si2 0.820299 0.809379 0.688593
Si Si3 0.729354 0.109991 0.242017
Si Si4 0.301803 0.888480 0.951330
Si Si5 0.854626 0.887185 0.177243
Si Si6 0.620900 0.386878 0.624006
Si Si7 0.973217 0.114311 0.803032
O O1 0.500000 0.779789 0.500000
O O2 0.385233 0.672535 0.660364
O O3 0.376284 0.834028 0.802197
O O4 0.438750 0.674646 0.763720
O O5 0.828462 0.694391 0.637035
O O6 0.822414 0.874952 0.573070
O O7 0.745520 0.831410 0.876160
O O8 0.744190 0.108977 0.082890
O O9 0.795905 0.152411 0.194255
O O10 0.705035 0.000000 0.322230
O O11 0.317378 0.000000 0.964354
O O12 0.854138 0.836771 0.302074
O O13 0.835981 0.000000 0.225339
O O14 0.929964 0.870797 0.991895
O O15 0.606177 0.500000 0.675870
O O16 0.549035 0.340653 0.701460
O O17 0.975740 0.000000 0.762708
#
# Coordination Sequence:
#
# PCOD8087490 Si02
#       7
#     8   8   8   8   8   8   8
#     4  11  21  35  53  78 106 137 178 217 256 309
#     4  11  20  34  52  78 108 135 169 217 262 313
#     4   9  18  33  52  73  97 132 172 206 250 304
#     4  10  21  36  55  76 105 142 173 211 262 311
#     4   9  17  31  50  72 100 134 171 208 253 312
#     4  10  20  31  47  74 106 136 168 212 261 308
#     4  10  19  32  50  74 105 138 168 208 263 313
#
# _framework density 18.067398000000001
#
# number of rings (size 3 to 8) (size 9 to 14) (size 15 to 20)
#    0.000    2.000    1.429    4.286    0.000    5.143 
#    0.000    0.000    0.000    0.000    0.000    0.000 
#    0.000    3.714    0.000    0.000    0.000    0.000 
#
# Total GULP energy -346913.843142 kJ/mol
# GULP energy per Si atom -12389.780112 kJ/mol
# Density = 1.802628 g / cm^3
# Si number density = 18.067398 Si / 1000 Ang^3
#
#
#
# Elastic Constant Matrix: (Units=GPa)
#
#
# Indices 1 2 3 4 5 6 
#
# 1 113.3170 40.9664 55.9809 0.0000 10.1325 0.0000
# 2 40.9664 62.3969 22.7081 0.0000 3.1803 0.0000
# 3 55.9809 22.7081 100.7921 0.0000 2.1408 0.0000
# 4 0.0000 0.0000 0.0000 19.0114 0.0000 -1.4427
# 5 10.1325 3.1803 2.1408 0.0000 26.3200 0.0000
# 6 0.0000 0.0000 0.0000 -1.4427 0.0000 19.6297
#
#
#
# Elastic Compliance Matrix: (Units=1/GPa)
#
#
# Indices 1 2 3 4 5 6 
#
# 1 0.015157 -0.007295 -0.006681 0.000000 -0.004410 0.000000
# 2 -0.007295 0.021054 -0.000698 0.000000 0.000321 0.000000
# 3 -0.006681 -0.000698 0.013757 0.000000 0.001538 0.000000
# 4 0.000000 0.000000 0.000000 0.052895 0.000000 0.003888
# 5 -0.004410 0.000321 0.001538 0.000000 0.039528 0.000000
# 6 0.000000 0.000000 0.000000 0.003888 0.000000 0.051229
#
#
# Mechanical properties :
#
#
# Convention : Reuss Voigt Hill
#
# Bulk Modulus (GPa) = 48.50025 57.31297 52.90661
# Shear Modulus (GPa) = 21.75412 23.44894 22.60153
#
# Velocity S-wave (km/s) = 3.47371 3.60649 3.54072
# Velocity P-wave (km/s) = 6.55677 7.00949 6.78691
#
# Compressibility (1/GPa) = 0.02061845
#
# Stress axis : x y z
#
# Youngs Moduli (GPa) = 65.97578 47.49747 72.69087
#
# Poissons Ratio (x) = 0.34650 0.48566
# Poissons Ratio (y) = 0.48130 0.05077
# Poissons Ratio (z) = 0.44079 0.03317
#
# Static dielectric constant tensor:
#      x y z
#    x 3.687860 0.000000 0.082020 
#    y 0.000000 3.235290 0.000000 
#    z 0.082020 0.000000 3.196900 
# 
# 
# High freq. dielectric constant tensor:
#      x y z
#    x 1.707690 0.000000 0.006910 
#    y 0.000000 1.673120 0.000000 
#    z 0.006910 0.000000 1.687380 
# 
# From -- ./inp_files/155976.got.cif
#   From: 2010.06.25/outbox.cif.g09.slc.cpg/sg12_78_cif.got.tgz:155976.got - 2010.06.28 00:19:55.
