data_PCOD8087999
_publ_section_title
;
Structure prediction by ZEFSAII (Michael W. Deem and Ramdas Pophale) SiO2 
 PCOD8087999
Probable space group: C 2/M
;
_chemical_formula_sum "Si O2"
_cell_formula_units_Z 64
_cell_length_a 19.012097
_cell_length_b 17.063896
_cell_length_c 19.375616
_cell_angle_alpha 90.000000
_cell_angle_beta 32.082473
_cell_angle_gamma 90.000000
_cell_volume 3338.660570
_symmetry_space_group_name_H-M "C 2/M"
_symmetry_group_IT_number 12
_symmetry_cell_setting 'monoclinic'
loop_
_space_group_symop_operation_xyz
x,y,z
-x,y,-z
-x,-y,-z
x,-y,z
1/2+x,1/2+y,z
1/2-x,1/2+y,-z
1/2-x,1/2-y,-z
1/2+x,1/2-y,z
loop_
_atom_site_type_symbol
_atom_site_label
_atom_site_fract_x
_atom_site_fract_y
_atom_site_fract_z
Si Si1 0.151391 0.180282 0.363155
Si Si2 0.762926 0.411698 0.987668
Si Si3 0.480005 0.410569 0.155116
Si Si4 0.144794 0.088724 0.230041
Si Si5 0.426082 0.735641 0.129863
Si Si6 0.903266 0.841014 0.353152
Si Si7 0.754842 0.591419 0.403648
Si Si8 0.003493 0.311474 0.791421
O O1 0.177502 0.143295 0.267075
O O2 0.268927 0.245026 0.269466
O O3 0.169374 0.115184 0.407638
O O4 0.000000 0.213987 0.500000
O O5 0.809744 0.500000 0.930946
O O6 0.627139 0.393776 0.061181
O O7 0.751237 0.402008 0.080204
O O8 0.865865 0.345850 0.876945
O O9 0.457360 0.500000 0.153125
O O10 0.443953 0.358830 0.118023
O O11 0.380990 0.384626 0.298900
O O12 0.004328 0.110391 0.315881
O O13 0.140263 0.000000 0.260898
O O14 0.510923 0.766920 0.124017
O O15 0.500000 0.767842 0.000000
O O16 0.772815 0.851529 0.507661
O O17 0.943377 0.750063 0.310082
O O18 0.734514 0.500000 0.436051
O O19 0.907902 0.612225 0.265057
#
# Coordination Sequence:
#
# PCOD8087999 Si02
#       8
#     8   8   8   8   8   8   8   8
#     4  11  22  35  53  80 111 143 179 222 261 315
#     4   9  18  34  56  81 107 136 174 219 268 319
#     4   9  19  36  58  80 102 134 180 225 264 316
#     4  10  19  32  54  80 105 139 178 216 257 312
#     4  10  22  37  55  79 108 142 178 219 274 321
#     4  10  19  32  52  76 104 139 179 215 260 313
#     4  11  21  34  52  75 108 146 181 216 259 314
#     4  10  21  34  51  79 111 139 173 219 271 317
#
# _framework density 19.169364999999999
#
# number of rings (size 3 to 8) (size 9 to 14) (size 15 to 20)
#    0.000    2.000    1.250    3.750    0.000    6.250 
#    0.000    0.000    0.000    6.375    0.000    0.000 
#    0.000    0.000    0.000    0.000    0.000    0.000 
#
# Total GULP energy -396535.884855 kJ/mol
# GULP energy per Si atom -12391.746402 kJ/mol
# Density = 1.912573 g / cm^3
# Si number density = 19.169365 Si / 1000 Ang^3
#
#
#
# Elastic Constant Matrix: (Units=GPa)
#
#
# Indices 1 2 3 4 5 6 
#
# 1 39.6026 31.8655 20.9199 -0.0017 2.2824 0.0008
# 2 31.8655 114.9626 46.4585 -0.0023 -2.9883 0.0013
# 3 20.9199 46.4585 71.0226 -0.0024 0.6017 0.0011
# 4 -0.0017 -0.0023 -0.0024 24.9962 0.0021 -4.4729
# 5 2.2824 -2.9883 0.6017 0.0021 27.2387 -0.0011
# 6 0.0008 0.0013 0.0011 -4.4729 -0.0011 25.5368
#
#
#
# Elastic Compliance Matrix: (Units=1/GPa)
#
#
# Indices 1 2 3 4 5 6 
#
# 1 0.034204 -0.007496 -0.005141 0.000001 -0.003575 0.000000
# 2 -0.007496 0.013526 -0.006659 0.000000 0.002259 0.000000
# 3 -0.005141 -0.006659 0.019957 0.000001 -0.000741 0.000000
# 4 0.000001 0.000000 0.000001 0.041301 -0.000003 0.007234
# 5 -0.003575 0.002259 -0.000741 -0.000003 0.037276 0.000001
# 6 0.000000 0.000000 0.000000 0.007234 0.000001 0.040426
#
#
# Mechanical properties :
#
#
# Convention : Reuss Voigt Hill
#
# Bulk Modulus (GPa) = 34.37104 47.11949 40.74527
# Shear Modulus (GPa) = 21.27837 23.97727 22.62782
#
# Velocity S-wave (km/s) = 3.33531 3.54052 3.43944
# Velocity P-wave (km/s) = 5.72726 6.43022 6.08889
#
# Compressibility (1/GPa) = 0.02909426
#
# Stress axis : x y z
#
# Youngs Moduli (GPa) = 29.23615 73.93168 50.10883
#
# Poissons Ratio (x) = 0.55420 0.25762
# Poissons Ratio (y) = 0.21916 0.33368
# Poissons Ratio (z) = 0.15031 0.49231
#
# Static dielectric constant tensor:
#      x y z
#    x 3.353290 0.000000 0.120280 
#    y 0.000000 3.467100 0.000000 
#    z 0.120280 0.000000 3.658330 
# 
# 
# High freq. dielectric constant tensor:
#      x y z
#    x 1.727570 0.000000 0.003510 
#    y 0.000000 1.743440 0.000000 
#    z 0.003510 0.000000 1.743790 
# 
# From -- ./inp_files/278160.got.cif
#   From: 2010.06.25/outbox.cif.g09.slc.cpg/sg12_140_cif.got.tgz:278160.got - 2010.06.28 00:19:55.
