data_PCOD8087306
_publ_section_title
;
Structure prediction by ZEFSAII (Michael W. Deem and Ramdas Pophale) SiO2 
 PCOD8087306
Probable space group: C 2/M
;
_chemical_formula_sum "Si O2"
_cell_formula_units_Z 64
_cell_length_a 24.581235
_cell_length_b 8.914376
_cell_length_c 17.271295
_cell_angle_alpha 90.000000
_cell_angle_beta 100.251593
_cell_angle_gamma 90.000000
_cell_volume 3724.177961
_symmetry_space_group_name_H-M "C 2/M"
_symmetry_group_IT_number 12
_symmetry_cell_setting 'monoclinic'
loop_
_space_group_symop_operation_xyz
x,y,z
-x,y,-z
-x,-y,-z
x,-y,z
1/2+x,1/2+y,z
1/2-x,1/2+y,-z
1/2-x,1/2-y,-z
1/2+x,1/2-y,z
loop_
_atom_site_type_symbol
_atom_site_label
_atom_site_fract_x
_atom_site_fract_y
_atom_site_fract_z
Si Si1 0.050707 0.165277 0.672358
Si Si2 0.883475 0.677269 0.045217
Si Si3 0.579214 0.333136 0.382706
Si Si4 0.525848 0.679053 0.833728
Si Si5 0.227838 0.328563 0.920284
Si Si6 0.065504 0.667412 0.528464
Si Si7 0.909984 0.678150 0.771457
Si Si8 0.663190 0.677430 0.122567
O O1 0.056826 0.226073 0.761599
O O2 0.081019 0.270931 0.617762
O O3 0.986314 0.156745 0.637403
O O4 0.077026 0.000000 0.671547
O O5 0.892162 0.500000 0.033696
O O6 0.940487 0.752389 0.086403
O O7 0.837704 0.709293 0.102335
O O8 0.865668 0.755083 0.961018
O O9 0.604849 0.500000 0.381766
O O10 0.596102 0.263821 0.469970
O O11 0.601432 0.228419 0.319512
O O12 0.520953 0.500000 0.839109
O O13 0.464870 0.747776 0.820739
O O14 0.234427 0.500000 0.942403
O O15 0.269830 0.290271 0.860351
O O16 0.250000 0.250000 0.000000
O O17 0.088785 0.500000 0.528937
O O18 0.000000 0.670487 0.500000
O O19 0.915327 0.500000 0.776321
O O20 0.858530 0.736041 0.808170
O O21 0.650270 0.500000 0.124157
#
# Coordination Sequence:
#
# PCOD8087306 Si02
#       8
#     8   8   8   8   8   8   8   8
#     4   8  15  26  39  55  79 111 146 179 212 254
#     4  10  19  32  49  70  91 113 145 186 226 261
#     4   9  16  27  41  57  81 114 147 178 215 260
#     4  10  20  33  46  63  89 123 155 182 218 266
#     4   8  16  30  49  69  88 109 138 179 225 267
#     4   9  15  22  36  58  81 107 142 180 216 253
#     4  11  21  32  45  64  90 119 151 188 224 259
#     4  10  19  33  50  67  88 117 149 181 221 269
#
# _framework density 17.185001
#
# number of rings (size 3 to 8) (size 9 to 14) (size 15 to 20)
#    0.000    2.625    0.000    3.750    0.000    6.500 
#    0.000    2.500    0.000    0.000    0.000    0.000 
#    0.000    1.000    0.000    3.000    0.000    5.375 
#
# Total GULP energy -396479.870472 kJ/mol
# GULP energy per Si atom -12389.995952 kJ/mol
# Density = 1.714589 g / cm^3
# Si number density = 17.185001 Si / 1000 Ang^3
#
#
#
# Elastic Constant Matrix: (Units=GPa)
#
#
# Indices 1 2 3 4 5 6 
#
# 1 48.5514 24.3092 13.7906 0.0000 -21.1070 0.0000
# 2 24.3092 100.2965 23.6092 0.0000 -16.0230 0.0000
# 3 13.7906 23.6092 47.8360 0.0000 -24.0038 0.0000
# 4 0.0000 0.0000 0.0000 27.6816 0.0000 -7.0177
# 5 -21.1070 -16.0230 -24.0038 0.0000 19.0108 0.0000
# 6 0.0000 0.0000 0.0000 -7.0177 0.0000 17.9561
#
#
#
# Elastic Compliance Matrix: (Units=1/GPa)
#
#
# Indices 1 2 3 4 5 6 
#
# 1 0.067833 -0.007085 0.051133 0.000000 0.133903 0.000000
# 2 -0.007085 0.012349 -0.007578 0.000000 -0.007027 0.000000
# 3 0.051133 -0.007578 0.096027 0.000000 0.171631 0.000000
# 4 0.000000 0.000000 0.000000 0.040098 0.000000 0.015671
# 5 0.133903 -0.007027 0.171631 0.000000 0.412055 0.000000
# 6 0.000000 0.000000 0.000000 0.015671 0.000000 0.061816
#
#
# Mechanical properties :
#
#
# Convention : Reuss Voigt Hill
#
# Bulk Modulus (GPa) = 4.01368 35.56687 19.79027
# Shear Modulus (GPa) = 7.13992 21.92804 14.53398
#
# Velocity S-wave (km/s) = 2.04053 3.57599 2.91131
# Velocity P-wave (km/s) = 2.80933 6.14749 4.77933
#
# Compressibility (1/GPa) = 0.24914800
#
# Stress axis : x y z
#
# Youngs Moduli (GPa) = 14.74211 80.97819 10.41372
#
# Poissons Ratio (x) = 0.57376 -0.53248
# Poissons Ratio (y) = 0.10445 0.07892
# Poissons Ratio (z) = -0.75381 0.61367
#
# Static dielectric constant tensor:
#      x y z
#    x 3.655570 0.000000 -0.256680 
#    y 0.000000 3.367290 0.000000 
#    z -0.256680 0.000000 3.161050 
# 
# 
# High freq. dielectric constant tensor:
#      x y z
#    x 1.617970 0.000000 -0.029370 
#    y 0.000000 1.681030 0.000000 
#    z -0.029370 0.000000 1.645850 
# 
# From -- ./inp_files/287728.got.cif
#   From: 2010.06.25/outbox.cif.g09.slc.cpg/sg12_144_cif.got.tgz:287728.got - 2010.06.28 00:19:55.
