data_PCOD8087374
_publ_section_title
;
Structure prediction by ZEFSAII (Michael W. Deem and Ramdas Pophale) SiO2 
 PCOD8087374
Probable space group: C 2/M
;
_chemical_formula_sum "Si O2"
_cell_formula_units_Z 64
_cell_length_a 25.628276
_cell_length_b 24.621625
_cell_length_c 6.630488
_cell_angle_alpha 90.000000
_cell_angle_beta 73.689566
_cell_angle_gamma 90.000000
_cell_volume 4015.518245
_symmetry_space_group_name_H-M "C 2/M"
_symmetry_group_IT_number 12
_symmetry_cell_setting 'monoclinic'
loop_
_space_group_symop_operation_xyz
x,y,z
-x,y,-z
-x,-y,-z
x,-y,z
1/2+x,1/2+y,z
1/2-x,1/2+y,-z
1/2-x,1/2-y,-z
1/2+x,1/2-y,z
loop_
_atom_site_type_symbol
_atom_site_label
_atom_site_fract_x
_atom_site_fract_y
_atom_site_fract_z
Si Si1 0.942577 0.233465 0.588600
Si Si2 0.746772 0.659858 0.021508
Si Si3 0.661452 0.245538 0.045932
Si Si4 0.218343 0.060334 0.805205
Si Si5 0.951620 0.857065 0.897479
Si Si6 0.618740 0.560121 0.208370
Si Si7 0.691395 0.617213 0.443167
Si Si8 0.123250 0.796940 0.724231
O O1 0.892771 0.262426 0.758795
O O2 0.963662 0.182478 0.697370
O O3 0.922134 0.219018 0.387339
O O4 0.000000 0.267521 0.500000
O O5 0.692991 0.697524 0.053503
O O6 0.742332 0.631529 0.244966
O O7 0.801106 0.694657 0.942851
O O8 0.753281 0.610882 0.853232
O O9 0.645558 0.244568 0.824891
O O10 0.209437 0.070601 0.577813
O O11 0.245801 0.000000 0.799421
O O12 0.161453 0.059549 0.981085
O O13 0.937034 0.915073 0.816572
O O14 0.900117 0.835756 0.077169
O O15 0.000000 0.864241 0.000000
O O16 0.606239 0.500000 0.301645
O O17 0.640194 0.595978 0.370502
O O18 0.674217 0.672975 0.569541
#
# Coordination Sequence:
#
# PCOD8087374 Si02
#       8
#     8   8   8   8   8   8   8   8
#     4  11  20  33  51  68  91 126 161 198 239 291
#     4  10  20  33  48  73 105 125 158 203 243 288
#     4  10  21  32  48  76 100 127 159 198 247 296
#     4  10  19  32  50  68  93 130 165 198 238 284
#     4  11  20  30  46  63  86 118 164 210 248 285
#     4  10  20  31  43  63  89 119 164 216 248 277
#     4  11  17  31  50  66  89 126 163 197 241 289
#     4  11  18  31  48  68  90 123 163 198 240 289
#
# _framework density 15.938167
#
# number of rings (size 3 to 8) (size 9 to 14) (size 15 to 20)
#    0.000    1.500    6.250    1.875    0.000    2.250 
#    0.000    0.000    0.000    1.125    0.000    0.000 
#    0.000    0.500    0.000    2.500    0.000    0.125 
#
# Total GULP energy -396562.429141 kJ/mol
# GULP energy per Si atom -12392.575911 kJ/mol
# Density = 1.590189 g / cm^3
# Si number density = 15.938167 Si / 1000 Ang^3
#
#
#
# Elastic Constant Matrix: (Units=GPa)
#
#
# Indices 1 2 3 4 5 6 
#
# 1 87.6285 48.7016 37.5646 0.0000 1.3161 0.0000
# 2 48.7016 74.1075 25.3083 0.0000 13.5197 0.0000
# 3 37.5646 25.3083 87.7268 0.0000 15.2776 0.0000
# 4 0.0000 0.0000 0.0000 10.2540 0.0000 1.3646
# 5 1.3161 13.5197 15.2776 0.0000 21.4186 0.0000
# 6 0.0000 0.0000 0.0000 1.3646 0.0000 20.0829
#
#
#
# Elastic Compliance Matrix: (Units=1/GPa)
#
#
# Indices 1 2 3 4 5 6 
#
# 1 0.022769 -0.014748 -0.007848 0.000000 0.013507 0.000000
# 2 -0.014748 0.025583 0.001814 0.000000 -0.016536 0.000000
# 3 -0.007848 0.001814 0.016387 0.000000 -0.012352 0.000000
# 4 0.000000 0.000000 0.000000 0.098413 0.000000 -0.006687
# 5 0.013507 -0.016536 -0.012352 0.000000 0.065106 0.000000
# 6 0.000000 0.000000 0.000000 -0.006687 0.000000 0.050248
#
#
# Mechanical properties :
#
#
# Convention : Reuss Voigt Hill
#
# Bulk Modulus (GPa) = 43.14561 52.51241 47.82901
# Shear Modulus (GPa) = 15.25347 19.54365 17.39856
#
# Velocity S-wave (km/s) = 3.09696 3.50554 3.30756
# Velocity P-wave (km/s) = 6.31804 7.02881 6.68288
#
# Compressibility (1/GPa) = 0.02317733
#
# Stress axis : x y z
#
# Youngs Moduli (GPa) = 43.91859 39.08870 61.02404
#
# Poissons Ratio (x) = 0.57647 0.47889
# Poissons Ratio (y) = 0.64770 -0.11072
# Poissons Ratio (z) = 0.34466 -0.07092
#
# Static dielectric constant tensor:
#      x y z
#    x 2.892350 0.000000 0.162120 
#    y 0.000000 2.911490 0.000000 
#    z 0.162120 0.000000 3.267980 
# 
# 
# High freq. dielectric constant tensor:
#      x y z
#    x 1.586920 0.000000 0.015530 
#    y 0.000000 1.575210 0.000000 
#    z 0.015530 0.000000 1.632580 
# 
# From -- ./inp_files/26058.got.cif
#   From: 2010.06.25/outbox.cif.g09.slc.cpg/sg12_14_cif.got.tgz:26058.got - 2010.06.28 00:19:55.
