data_PCOD8087722
_publ_section_title
;
Structure prediction by ZEFSAII (Michael W. Deem and Ramdas Pophale) SiO2 
 PCOD8087722
Probable space group: C 2/M
;
_chemical_formula_sum "Si O2"
_cell_formula_units_Z 56
_cell_length_a 18.183431
_cell_length_b 8.869180
_cell_length_c 29.167143
_cell_angle_alpha 90.000000
_cell_angle_beta 38.453283
_cell_angle_gamma 90.000000
_cell_volume 2925.211091
_symmetry_space_group_name_H-M "C 2/M"
_symmetry_group_IT_number 12
_symmetry_cell_setting 'monoclinic'
loop_
_space_group_symop_operation_xyz
x,y,z
-x,y,-z
-x,-y,-z
x,-y,z
1/2+x,1/2+y,z
1/2-x,1/2+y,-z
1/2-x,1/2-y,-z
1/2+x,1/2-y,z
loop_
_atom_site_type_symbol
_atom_site_label
_atom_site_fract_x
_atom_site_fract_y
_atom_site_fract_z
Si Si1 0.050834 0.674275 0.427515
Si Si2 0.670622 0.178072 0.999738
Si Si3 0.579453 0.326250 0.867344
Si Si4 0.735872 0.330800 0.280623
Si Si5 0.374412 0.825350 0.430528
Si Si6 0.058840 0.170058 0.282399
Si Si7 0.254301 0.825759 0.866416
O O1 0.085478 0.500000 0.415160
O O2 0.171195 0.762746 0.356738
O O3 0.000000 0.738066 0.500000
O O4 0.952137 0.700547 0.437546
O O5 0.535996 0.226065 0.072021
O O6 0.680151 0.000000 0.998405
O O7 0.750000 0.250000 0.000000
O O8 0.715855 0.230172 0.928516
O O9 0.544308 0.500000 0.877618
O O10 0.651700 0.271094 0.787507
O O11 0.655723 0.303300 0.875780
O O12 0.778640 0.500000 0.270734
O O13 0.644847 0.329577 0.283516
O O14 0.250000 0.750000 0.500000
O O15 0.435798 0.748093 0.356562
O O16 0.357224 0.000000 0.427661
O O17 0.118760 0.264994 0.212395
O O18 0.033873 0.000000 0.277751
O O19 0.267445 0.000000 0.873669
#
# Coordination Sequence:
#
# PCOD8087722 Si02
#       7
#     8   8   8   8   8   8   8
#     4   9  18  33  52  74 102 137 175 215 261 313
#     4  12  25  40  57  79 111 146 179 217 266 321
#     4  10  20  36  59  84 109 139 178 222 266 315
#     4   9  17  30  51  79 107 135 172 219 266 310
#     4  10  19  32  51  75 104 137 174 217 265 317
#     4   9  17  31  52  78 106 136 174 219 265 311
#     4  10  20  36  59  85 110 138 177 222 266 315
#
# _framework density 19.143917999999999
#
# number of rings (size 3 to 8) (size 9 to 14) (size 15 to 20)
#    0.000    2.143    0.000    3.857    0.000    7.714 
#    0.000    1.429    0.000    1.714    0.000    0.000 
#    0.000    0.000    0.000    0.000    0.000    0.000 
#
# Total GULP energy -347262.681014 kJ/mol
# GULP energy per Si atom -12402.238608 kJ/mol
# Density = 1.910035 g / cm^3
# Si number density = 19.143918 Si / 1000 Ang^3
#
#
#
# Elastic Constant Matrix: (Units=GPa)
#
#
# Indices 1 2 3 4 5 6 
#
# 1 33.0346 43.3241 41.9765 0.0003 -1.8425 0.0028
# 2 43.3241 161.2050 83.8783 0.0001 -4.7018 0.0032
# 3 41.9765 83.8783 182.0031 0.0000 -3.3967 0.0000
# 4 0.0003 0.0001 0.0000 44.0317 0.0000 -3.4829
# 5 -1.8425 -4.7018 -3.3967 0.0000 27.1387 0.0000
# 6 0.0028 0.0032 0.0000 -3.4829 0.0000 23.6880
#
#
#
# Elastic Compliance Matrix: (Units=1/GPa)
#
#
# Indices 1 2 3 4 5 6 
#
# 1 0.053608 -0.010467 -0.007524 -0.000001 0.000885 -0.000005
# 2 -0.010467 0.010228 -0.002285 0.000000 0.000775 0.000000
# 3 -0.007524 -0.002285 0.008285 0.000000 0.000130 0.000001
# 4 -0.000001 0.000000 0.000000 0.022978 0.000000 0.003379
# 5 0.000885 0.000775 0.000130 0.000000 0.037058 0.000000
# 6 -0.000005 0.000000 0.000001 0.003379 0.000000 0.042712
#
#
# Mechanical properties :
#
#
# Convention : Reuss Voigt Hill
#
# Bulk Modulus (GPa) = 31.67591 79.40004 55.53797
# Shear Modulus (GPa) = 22.12941 32.77593 27.45267
#
# Velocity S-wave (km/s) = 3.40361 4.14222 3.79095
# Velocity P-wave (km/s) = 5.65935 8.02762 6.94518
#
# Compressibility (1/GPa) = 0.03156974
#
# Stress axis : x y z
#
# Youngs Moduli (GPa) = 18.65408 97.77250 120.69674
#
# Poissons Ratio (x) = 1.02334 0.90809
# Poissons Ratio (y) = 0.19524 0.27581
# Poissons Ratio (z) = 0.14035 0.22343
#
# Static dielectric constant tensor:
#      x y z
#    x 3.238620 -0.000010 0.061940 
#    y -0.000010 3.743530 0.000000 
#    z 0.061940 0.000000 3.739630 
# 
# 
# High freq. dielectric constant tensor:
#      x y z
#    x 1.703600 0.000000 -0.002630 
#    y 0.000000 1.760060 0.000000 
#    z -0.002630 0.000000 1.765500 
# 
# From -- ./inp_files/362945.got.cif
#   From: 2010.06.25/outbox.cif.g09.slc.cpg/sg12_182_cif.got.tgz:362945.got - 2010.06.28 00:19:55.
