data_PCOD8087873
_publ_section_title
;
Structure prediction by ZEFSAII (Michael W. Deem and Ramdas Pophale) SiO2 
 PCOD8087873
Probable space group: C 2/M
;
_chemical_formula_sum "Si O2"
_cell_formula_units_Z 56
_cell_length_a 22.222687
_cell_length_b 12.544302
_cell_length_c 12.081697
_cell_angle_alpha 90.000000
_cell_angle_beta 119.427965
_cell_angle_gamma 90.000000
_cell_volume 2933.433545
_symmetry_space_group_name_H-M "C 2/M"
_symmetry_group_IT_number 12
_symmetry_cell_setting 'monoclinic'
loop_
_space_group_symop_operation_xyz
x,y,z
-x,y,-z
-x,-y,-z
x,-y,z
1/2+x,1/2+y,z
1/2-x,1/2+y,-z
1/2-x,1/2-y,-z
1/2+x,1/2-y,z
loop_
_atom_site_type_symbol
_atom_site_label
_atom_site_fract_x
_atom_site_fract_y
_atom_site_fract_z
Si Si1 0.471493 0.621439 0.351278
Si Si2 0.649805 0.120809 0.234014
Si Si3 0.177045 0.374111 0.600465
Si Si4 0.223759 0.120543 0.502426
Si Si5 0.811756 0.624866 0.972893
Si Si6 0.090698 0.254042 0.372453
Si Si7 0.830202 0.763394 0.192236
O O1 0.500000 0.628204 0.500000
O O2 0.474016 0.500000 0.309233
O O3 0.516365 0.698700 0.313031
O O4 0.393668 0.662300 0.281932
O O5 0.729364 0.130253 0.345507
O O6 0.647353 0.152061 0.103065
O O7 0.598982 0.198290 0.256569
O O8 0.623743 0.000000 0.229065
O O9 0.182632 0.500000 0.623493
O O10 0.234308 0.327824 0.564008
O O11 0.102540 0.346445 0.476681
O O12 0.189802 0.316538 0.727289
O O13 0.148336 0.166410 0.453257
O O14 0.211449 0.000000 0.457417
O O15 0.815221 0.500000 0.002956
O O16 0.732109 0.658102 0.892286
O O17 0.849149 0.690655 0.103593
#
# Coordination Sequence:
#
# PCOD8087873 Si02
#       7
#     8   8   8   8   8   8   8
#     4  11  24  39  57  84 116 148 184 221 273 348
#     4   9  18  32  53  81 108 141 188 233 275 320
#     4  10  19  32  51  81 114 144 183 233 283 327
#     4   9  17  28  50  81 110 140 180 230 281 327
#     4  10  21  37  61  85 109 146 193 238 275 320
#     4  11  18  33  54  78 113 147 181 224 279 332
#     4  11  21  38  57  82 116 150 186 228 279 326
#
# _framework density 19.090256
#
# number of rings (size 3 to 8) (size 9 to 14) (size 15 to 20)
#    0.000    1.857    1.429    6.000    0.000    0.000 
#    0.000    4.286    0.000    5.143    0.000    0.000 
#    0.000    0.000    0.000    0.000    0.000    0.000 
#
# Total GULP energy -347187.337455 kJ/mol
# GULP energy per Si atom -12399.547766 kJ/mol
# Density = 1.904681 g / cm^3
# Si number density = 19.090256 Si / 1000 Ang^3
#
#
#
# Elastic Constant Matrix: (Units=GPa)
#
#
# Indices 1 2 3 4 5 6 
#
# 1 55.5440 19.1739 17.0950 0.0000 -4.2481 0.0000
# 2 19.1739 60.9146 25.9123 0.0000 -5.9778 0.0000
# 3 17.0950 25.9123 81.3749 0.0000 -18.7223 0.0000
# 4 0.0000 0.0000 0.0000 21.6673 0.0000 -7.0650
# 5 -4.2481 -5.9778 -18.7223 0.0000 31.2658 0.0000
# 6 0.0000 0.0000 0.0000 -7.0650 0.0000 26.7746
#
#
#
# Elastic Compliance Matrix: (Units=1/GPa)
#
#
# Indices 1 2 3 4 5 6 
#
# 1 0.020674 -0.005390 -0.002572 0.000000 0.000238 0.000000
# 2 -0.005390 0.020394 -0.005373 0.000000 -0.000051 0.000000
# 3 -0.002572 -0.005373 0.016496 0.000000 0.008501 0.000000
# 4 0.000000 0.000000 0.000000 0.050497 0.000000 0.013325
# 5 0.000238 -0.000051 0.008501 0.000000 0.037097 0.000000
# 6 0.000000 0.000000 0.000000 0.013325 0.000000 0.040865
#
#
# Mechanical properties :
#
#
# Convention : Reuss Voigt Hill
#
# Bulk Modulus (GPa) = 32.36956 35.79955 34.08455
# Shear Modulus (GPa) = 22.42233 24.98503 23.70368
#
# Velocity S-wave (km/s) = 3.43088 3.62164 3.52755
# Velocity P-wave (km/s) = 5.71729 6.02344 5.87236
#
# Compressibility (1/GPa) = 0.03089322
#
# Stress axis : x y z
#
# Youngs Moduli (GPa) = 48.36942 49.03439 60.62049
#
# Poissons Ratio (x) = 0.26430 0.15591
# Poissons Ratio (y) = 0.26072 0.32574
# Poissons Ratio (z) = 0.12440 0.26348
#
# Static dielectric constant tensor:
#      x y z
#    x 3.308930 0.000000 -0.215640 
#    y 0.000000 3.745860 0.000000 
#    z -0.215640 0.000000 3.403590 
# 
# 
# High freq. dielectric constant tensor:
#      x y z
#    x 1.722250 0.000000 -0.020000 
#    y 0.000000 1.764230 0.000000 
#    z -0.020000 0.000000 1.722480 
# 
# From -- ./inp_files/174790.got.cif
#   From: 2010.06.25/outbox.cif.g09.slc.cpg/sg12_88_cif.got.tgz:174790.got - 2010.06.28 00:19:55.
