data_PCOD8087442
_publ_section_title
;
Structure prediction by ZEFSAII (Michael W. Deem and Ramdas Pophale) SiO2 
 PCOD8087442
Probable space group: C 2/M
;
_chemical_formula_sum "Si O2"
_cell_formula_units_Z 64
_cell_length_a 19.155448
_cell_length_b 9.413688
_cell_length_c 19.674172
_cell_angle_alpha 90.000000
_cell_angle_beta 97.824594
_cell_angle_gamma 90.000000
_cell_volume 3514.682792
_symmetry_space_group_name_H-M "C 2/M"
_symmetry_group_IT_number 12
_symmetry_cell_setting 'monoclinic'
loop_
_space_group_symop_operation_xyz
x,y,z
-x,y,-z
-x,-y,-z
x,-y,z
1/2+x,1/2+y,z
1/2-x,1/2+y,-z
1/2-x,1/2-y,-z
1/2+x,1/2-y,z
loop_
_atom_site_type_symbol
_atom_site_label
_atom_site_fract_x
_atom_site_fract_y
_atom_site_fract_z
Si Si1 0.926231 0.836090 0.970256
Si Si2 0.553880 0.333631 0.300798
Si Si3 0.302559 0.661471 0.051121
Si Si4 0.222337 0.831761 0.799406
Si Si5 0.863620 0.832896 0.821532
Si Si6 0.323371 0.333605 0.586534
Si Si7 0.900877 0.166510 0.314022
Si Si8 0.815387 0.164067 0.430617
O O1 0.890625 0.770741 0.897646
O O2 0.939991 0.000000 0.954094
O O3 0.879830 0.816155 0.031114
O O4 0.000000 0.761309 0.000000
O O5 0.549213 0.500000 0.314259
O O6 0.576048 0.301997 0.226203
O O7 0.612203 0.271483 0.360488
O O8 0.477049 0.264373 0.306072
O O9 0.277670 0.500000 0.041802
O O10 0.302316 0.711550 0.128527
O O11 0.250000 0.750000 0.000000
O O12 0.293902 0.750787 0.790085
O O13 0.160765 0.773357 0.742447
O O14 0.234771 0.000000 0.792787
O O15 0.845370 0.000000 0.823058
O O16 0.311744 0.500000 0.598455
O O17 0.252237 0.255370 0.599729
O O18 0.340715 0.301039 0.510103
O O19 0.880375 0.200924 0.389307
O O20 0.906086 0.000000 0.301001
O O21 0.793353 0.000000 0.420103
#
# Coordination Sequence:
#
# PCOD8087442 Si02
#       8
#     8   8   8   8   8   8   8   8
#     4   9  18  30  47  71  94 118 153 194 233 276
#     4   9  18  30  47  72  98 122 156 200 238 273
#     4  10  19  32  50  72  95 121 155 195 236 278
#     4  10  20  32  50  71  95 125 156 194 235 279
#     4  10  19  32  51  71  93 124 158 195 237 279
#     4   9  17  30  49  73  97 124 158 196 233 274
#     4   9  18  31  47  72  99 124 157 196 237 278
#     4   9  17  30  50  72  96 127 159 191 232 280
#
# _framework density 18.209325
#
# number of rings (size 3 to 8) (size 9 to 14) (size 15 to 20)
#    0.000    2.625    1.250    0.750    1.750    0.500 
#    0.000    2.500    0.000    4.500    0.000    3.500 
#    0.000    0.000    0.000    0.000    0.000    0.000 
#
# Total GULP energy -396728.407492 kJ/mol
# GULP energy per Si atom -12397.762734 kJ/mol
# Density = 1.816788 g / cm^3
# Si number density = 18.209325 Si / 1000 Ang^3
#
#
#
# Elastic Constant Matrix: (Units=GPa)
#
#
# Indices 1 2 3 4 5 6 
#
# 1 124.8019 25.8115 43.6685 0.0000 -2.2704 0.0000
# 2 25.8115 24.1214 15.3902 0.0000 -2.3003 0.0000
# 3 43.6685 15.3902 86.6968 0.0000 -6.0600 0.0000
# 4 0.0000 0.0000 0.0000 17.0415 0.0000 1.3962
# 5 -2.2704 -2.3003 -6.0600 0.0000 33.7100 0.0000
# 6 0.0000 0.0000 0.0000 1.3962 0.0000 19.6188
#
#
#
# Elastic Compliance Matrix: (Units=1/GPa)
#
#
# Indices 1 2 3 4 5 6 
#
# 1 0.011434 -0.009690 -0.004083 0.000000 -0.000625 0.000000
# 2 -0.009690 0.055063 -0.004736 0.000000 0.002253 0.000000
# 3 -0.004083 -0.004736 0.014573 0.000000 0.002022 0.000000
# 4 0.000000 0.000000 0.000000 0.059024 0.000000 -0.004201
# 5 -0.000625 0.002253 0.002022 0.000000 0.030140 0.000000
# 6 0.000000 0.000000 0.000000 -0.004201 0.000000 0.051271
#
#
# Mechanical properties :
#
#
# Convention : Reuss Voigt Hill
#
# Bulk Modulus (GPa) = 22.70065 45.04004 33.87035
# Shear Modulus (GPa) = 18.30121 24.12404 21.21263
#
# Velocity S-wave (km/s) = 3.17369 3.64375 3.41681
# Velocity P-wave (km/s) = 5.09149 6.51850 5.84868
#
# Compressibility (1/GPa) = 0.04405160
#
# Stress axis : x y z
#
# Youngs Moduli (GPa) = 87.45897 18.16118 68.61992
#
# Poissons Ratio (x) = 0.17598 0.28016
# Poissons Ratio (y) = 0.84745 0.32501
# Poissons Ratio (z) = 0.35708 0.08602
#
# Static dielectric constant tensor:
#      x y z
#    x 2.647170 0.000000 -0.276130 
#    y 0.000000 2.900830 0.000000 
#    z -0.276130 0.000000 3.359090 
# 
# 
# High freq. dielectric constant tensor:
#      x y z
#    x 1.708990 0.000000 -0.003670 
#    y 0.000000 1.654260 0.000000 
#    z -0.003670 0.000000 1.722680 
# 
# From -- ./inp_files/315090.got.cif
#   From: 2010.06.25/outbox.cif.g09.slc.cpg/sg12_158_cif.got.tgz:315090.got - 2010.06.28 00:19:55.
