data_PCOD8087663
_publ_section_title
;
Structure prediction by ZEFSAII (Michael W. Deem and Ramdas Pophale) SiO2 
 PCOD8087663
Probable space group: C 2/M
;
_chemical_formula_sum "Si O2"
_cell_formula_units_Z 56
_cell_length_a 28.458222
_cell_length_b 9.009910
_cell_length_c 18.919770
_cell_angle_alpha 90.000000
_cell_angle_beta 42.109403
_cell_angle_gamma 90.000000
_cell_volume 3252.926007
_symmetry_space_group_name_H-M "C 2/M"
_symmetry_group_IT_number 12
_symmetry_cell_setting 'monoclinic'
loop_
_space_group_symop_operation_xyz
x,y,z
-x,y,-z
-x,-y,-z
x,-y,z
1/2+x,1/2+y,z
1/2-x,1/2+y,-z
1/2-x,1/2-y,-z
1/2+x,1/2-y,z
loop_
_atom_site_type_symbol
_atom_site_label
_atom_site_fract_x
_atom_site_fract_y
_atom_site_fract_z
Si Si1 0.293689 0.176069 0.195098
Si Si2 0.450640 0.824168 0.992884
Si Si3 0.737405 0.173060 0.124899
Si Si4 0.255810 0.671741 0.381464
Si Si5 0.508092 0.328632 0.195395
Si Si6 0.648146 0.329441 0.594987
Si Si7 0.353153 0.671058 0.881847
O O1 0.372225 0.235448 0.093292
O O2 0.242239 0.241948 0.193447
O O3 0.268369 0.230545 0.298945
O O4 0.289769 0.000000 0.196967
O O5 0.451423 0.000000 0.991162
O O6 0.500000 0.761663 0.000000
O O7 0.480666 0.769337 0.885717
O O8 0.668400 0.228798 0.160683
O O9 0.729978 0.000000 0.148501
O O10 0.806067 0.211689 0.002343
O O11 0.249571 0.500000 0.367327
O O12 0.320081 0.700797 0.362989
O O13 0.183474 0.723073 0.498125
O O14 0.512225 0.500000 0.167532
O O15 0.433654 0.289440 0.312736
O O16 0.566646 0.292528 0.188828
O O17 0.661270 0.500000 0.558462
O O18 0.341945 0.500000 0.873506
#
# Coordination Sequence:
#
# PCOD8087663 Si02
#       7
#     8   8   8   8   8   8   8
#     4  11  21  33  51  74 104 138 171 210 256 303
#     4  10  21  33  46  71 106 139 168 203 251 303
#     4  10  19  32  51  74 102 134 171 210 250 303
#     4  10  20  34  53  76 102 135 176 216 252 297
#     4  10  19  33  53  76 102 134 170 209 251 302
#     4   9  19  35  54  76 102 135 174 213 254 299
#     4   9  18  32  50  74 103 133 168 208 252 303
#
# _framework density 17.21527
#
# number of rings (size 3 to 8) (size 9 to 14) (size 15 to 20)
#    0.000    2.143    1.429    2.143    0.000    3.143 
#    0.000    0.000    0.000    0.857    0.000    6.000 
#    0.000    0.000    0.000    0.000    0.000    0.000 
#
# Total GULP energy -347314.676679 kJ/mol
# GULP energy per Si atom -12404.095596 kJ/mol
# Density = 1.717609 g / cm^3
# Si number density = 17.215270 Si / 1000 Ang^3
#
#
#
# Elastic Constant Matrix: (Units=GPa)
#
#
# Indices 1 2 3 4 5 6 
#
# 1 113.5428 40.2921 52.7230 -0.0155 -7.5725 0.0218
# 2 40.2921 56.6294 27.2172 -0.0175 4.1392 0.0197
# 3 52.7230 27.2172 65.2234 -0.0213 -10.2950 0.0200
# 4 -0.0155 -0.0175 -0.0213 29.4749 -0.0004 6.6578
# 5 -7.5725 4.1392 -10.2950 -0.0004 21.1725 -0.0152
# 6 0.0218 0.0197 0.0200 6.6578 -0.0152 26.2542
#
#
#
# Elastic Compliance Matrix: (Units=1/GPa)
#
#
# Indices 1 2 3 4 5 6 
#
# 1 0.015838 -0.006835 -0.009580 -0.000003 0.002342 0.000001
# 2 -0.006835 0.026970 -0.007525 0.000011 -0.011376 -0.000018
# 3 -0.009580 -0.007525 0.028061 0.000012 0.011689 -0.000004
# 4 -0.000003 0.000011 0.000012 0.035989 -0.000003 -0.009126
# 5 0.002342 -0.011376 0.011689 -0.000003 0.055977 0.000031
# 6 0.000001 -0.000018 -0.000004 -0.009126 0.000031 0.040404
#
#
# Mechanical properties :
#
#
# Convention : Reuss Voigt Hill
#
# Bulk Modulus (GPa) = 43.50042 52.87337 48.18689
# Shear Modulus (GPa) = 19.32134 23.05786 21.18960
#
# Velocity S-wave (km/s) = 3.35377 3.66373 3.51217
# Velocity P-wave (km/s) = 6.34983 6.97689 6.67073
#
# Compressibility (1/GPa) = 0.02298829
#
# Stress axis : x y z
#
# Youngs Moduli (GPa) = 63.14100 37.07813 35.63653
#
# Poissons Ratio (x) = 0.25344 0.34140
# Poissons Ratio (y) = 0.43159 0.26816
# Poissons Ratio (z) = 0.60490 0.27900
#
# Static dielectric constant tensor:
#      x y z
#    x 3.303000 -0.000040 -0.123530 
#    y -0.000040 3.197900 0.000030 
#    z -0.123530 0.000030 3.032450 
# 
# 
# High freq. dielectric constant tensor:
#      x y z
#    x 1.667160 0.000000 -0.001890 
#    y 0.000000 1.669460 0.000000 
#    z -0.001890 0.000000 1.644760 
# 
# From -- ./inp_files/287388.got.cif
#   From: 2010.06.25/outbox.cif.g09.slc.cpg/sg12_144_cif.got.tgz:287388.got - 2010.06.28 00:19:55.
