data_PCOD8087137
_publ_section_title
;
Structure prediction by ZEFSAII (Michael W. Deem and Ramdas Pophale) SiO2 
 PCOD8087137
Probable space group: C 2/M
;
_chemical_formula_sum "Si O2"
_cell_formula_units_Z 56
_cell_length_a 20.354666
_cell_length_b 9.047765
_cell_length_c 29.846029
_cell_angle_alpha 90.000000
_cell_angle_beta 146.441707
_cell_angle_gamma 90.000000
_cell_volume 3038.422592
_symmetry_space_group_name_H-M "C 2/M"
_symmetry_group_IT_number 12
_symmetry_cell_setting 'monoclinic'
loop_
_space_group_symop_operation_xyz
x,y,z
-x,y,-z
-x,-y,-z
x,-y,z
1/2+x,1/2+y,z
1/2-x,1/2+y,-z
1/2-x,1/2-y,-z
1/2+x,1/2-y,z
loop_
_atom_site_type_symbol
_atom_site_label
_atom_site_fract_x
_atom_site_fract_y
_atom_site_fract_z
Si Si1 0.572325 0.174540 0.497247
Si Si2 0.785592 0.828847 0.085279
Si Si3 0.911516 0.829537 0.336059
Si Si4 0.817120 0.674736 0.654577
Si Si5 0.423529 0.327303 0.074406
Si Si6 0.463929 0.329710 0.263050
Si Si7 0.156553 0.672773 0.228260
O O1 0.500000 0.225695 0.500000
O O2 0.503302 0.226263 0.414045
O O3 0.699636 0.250481 0.568756
O O4 0.589662 0.000000 0.505806
O O5 0.873027 0.784624 0.094480
O O6 0.850865 0.787363 0.168399
O O7 0.751168 0.000000 0.063050
O O8 0.663888 0.736543 0.013354
O O9 0.926292 0.800200 0.292190
O O10 0.778822 0.783538 0.273954
O O11 0.935908 0.000000 0.362738
O O12 0.801865 0.500000 0.642661
O O13 0.838529 0.726853 0.717606
O O14 0.925952 0.725757 0.685860
O O15 0.435251 0.500000 0.073727
O O16 0.553044 0.256515 0.142931
O O17 0.500350 0.500000 0.275230
O O18 0.130116 0.500000 0.210375
#
# Coordination Sequence:
#
# PCOD8087137 Si02
#       7
#     8   8   8   8   8   8   8
#     4  11  23  38  59  86 115 147 187 235 282 329
#     4   9  18  33  53  80 113 145 182 230 278 330
#     4  10  22  40  61  83 113 151 188 230 282 338
#     4  11  22  36  60  86 113 148 187 233 280 332
#     4  10  19  31  54  84 111 144 186 233 278 323
#     4  10  21  39  60  84 115 150 187 231 283 335
#     4  10  20  35  56  84 112 145 187 230 277 332
#
# _framework density 18.430617000000002
#
# number of rings (size 3 to 8) (size 9 to 14) (size 15 to 20)
#    0.000    1.857    2.857    1.286    0.000    4.000 
#    0.000    0.714    0.000    4.286    0.000    0.000 
#    0.000    0.000    0.000    0.000    0.000    0.000 
#
# Total GULP energy -347354.612857 kJ/mol
# GULP energy per Si atom -12405.521888 kJ/mol
# Density = 1.838867 g / cm^3
# Si number density = 18.430617 Si / 1000 Ang^3
#
#
#
# Elastic Constant Matrix: (Units=GPa)
#
#
# Indices 1 2 3 4 5 6 
#
# 1 84.5698 35.6288 62.0515 -0.0001 5.7315 0.0002
# 2 35.6288 69.3218 63.9107 -0.0002 7.2333 0.0006
# 3 62.0515 63.9107 157.7035 0.0000 8.0399 0.0001
# 4 -0.0001 -0.0002 0.0000 30.7214 0.0000 0.3989
# 5 5.7315 7.2333 8.0399 0.0000 30.1444 -0.0001
# 6 0.0002 0.0006 0.0001 0.3989 -0.0001 22.6823
#
#
#
# Elastic Compliance Matrix: (Units=1/GPa)
#
#
# Indices 1 2 3 4 5 6 
#
# 1 0.017380 -0.004108 -0.005125 0.000000 -0.000952 0.000000
# 2 -0.004108 0.024287 -0.008078 0.000000 -0.002892 -0.000001
# 3 -0.005125 -0.008078 0.011641 0.000000 -0.000192 0.000000
# 4 0.000000 0.000000 0.000000 0.032558 0.000000 -0.000573
# 5 -0.000952 -0.002892 -0.000192 0.000000 0.034100 0.000000
# 6 0.000000 -0.000001 0.000000 -0.000573 0.000000 0.044097
#
#
# Mechanical properties :
#
#
# Convention : Reuss Voigt Hill
#
# Bulk Modulus (GPa) = 53.52093 70.53079 62.02586
# Shear Modulus (GPa) = 24.40030 26.70988 25.55509
#
# Velocity S-wave (km/s) = 3.64249 3.81098 3.72769
# Velocity P-wave (km/s) = 6.84051 7.59711 7.22872
#
# Compressibility (1/GPa) = 0.01868428
#
# Stress axis : x y z
#
# Youngs Moduli (GPa) = 57.53602 41.17485 85.90164
#
# Poissons Ratio (x) = 0.16917 0.44026
# Poissons Ratio (y) = 0.23639 0.69395
# Poissons Ratio (z) = 0.29488 0.33263
#
# Static dielectric constant tensor:
#      x y z
#    x 3.251110 0.000000 0.024590 
#    y 0.000000 3.347890 0.000000 
#    z 0.024590 0.000000 3.485940 
# 
# 
# High freq. dielectric constant tensor:
#      x y z
#    x 1.697850 0.000000 0.005490 
#    y 0.000000 1.715880 0.000000 
#    z 0.005490 0.000000 1.727870 
# 
# From -- ./inp_files/275511.got.cif
#   From: 2010.06.25/outbox.cif.g09.slc.cpg/sg12_138_cif.got.tgz:275511.got - 2010.06.28 00:19:55.
