data_PCOD8087474
_publ_section_title
;
Structure prediction by ZEFSAII (Michael W. Deem and Ramdas Pophale) SiO2 
 PCOD8087474
Probable space group: C 2/M
;
_chemical_formula_sum "Si O2"
_cell_formula_units_Z 64
_cell_length_a 28.558017
_cell_length_b 8.859310
_cell_length_c 15.789243
_cell_angle_alpha 90.000000
_cell_angle_beta 116.868693
_cell_angle_gamma 90.000000
_cell_volume 3563.492336
_symmetry_space_group_name_H-M "C 2/M"
_symmetry_group_IT_number 12
_symmetry_cell_setting 'monoclinic'
loop_
_space_group_symop_operation_xyz
x,y,z
-x,y,-z
-x,-y,-z
x,-y,z
1/2+x,1/2+y,z
1/2-x,1/2+y,-z
1/2-x,1/2-y,-z
1/2+x,1/2-y,z
loop_
_atom_site_type_symbol
_atom_site_label
_atom_site_fract_x
_atom_site_fract_y
_atom_site_fract_z
Si Si1 0.195340 0.325350 0.056780
Si Si2 0.277924 0.823758 0.404094
Si Si3 0.793714 0.677727 0.223979
Si Si4 0.357419 0.322420 0.141546
Si Si5 0.169648 0.823984 0.399338
Si Si6 0.585552 0.173689 0.052479
Si Si7 0.535114 0.676546 0.855960
Si Si8 0.071566 0.321854 0.232424
O O1 0.211833 0.500000 0.062350
O O2 0.241609 0.229384 0.134149
O O3 0.145809 0.303357 0.077227
O O4 0.182841 0.261078 0.954002
O O5 0.290152 0.774312 0.318717
O O6 0.217488 0.783322 0.375400
O O7 0.316600 0.728665 0.494837
O O8 0.288252 0.000000 0.428526
O O9 0.800531 0.500000 0.219575
O O10 0.844230 0.761618 0.224640
O O11 0.348035 0.500000 0.126849
O O12 0.417171 0.279812 0.167603
O O13 0.118058 0.738159 0.328129
O O14 0.157468 0.000000 0.389904
O O15 0.579218 0.234136 0.142373
O O16 0.568224 0.000000 0.029578
O O17 0.547598 0.269363 0.961260
O O18 0.524859 0.500000 0.849440
O O19 0.483524 0.758244 0.777934
O O20 0.071312 0.500000 0.238143
#
# Coordination Sequence:
#
# PCOD8087474 Si02
#       8
#     8   8   8   8   8   8   8   8
#     4  10  19  32  50  73 104 138 172 208 248 297
#     4   9  20  37  55  78 107 135 163 201 250 302
#     4  11  21  33  52  76 102 133 170 209 251 300
#     4  10  21  36  51  70 100 136 174 214 254 296
#     4  10  20  35  56  80 106 134 165 202 246 299
#     4   9  19  33  49  73 104 138 172 206 248 299
#     4  10  21  35  51  72 100 135 174 215 254 294
#     4  11  21  33  52  76 104 136 170 208 251 301
#
# _framework density 17.959910000000001
#
# number of rings (size 3 to 8) (size 9 to 14) (size 15 to 20)
#    0.000    2.000    0.000    3.750    0.000    6.000 
#    0.000    0.000    0.000    0.750    0.000    5.250 
#    0.000    0.000    0.000    0.000    0.000    0.000 
#
# Total GULP energy -396939.522687 kJ/mol
# GULP energy per Si atom -12404.360084 kJ/mol
# Density = 1.791903 g / cm^3
# Si number density = 17.959910 Si / 1000 Ang^3
#
#
#
# Elastic Constant Matrix: (Units=GPa)
#
#
# Indices 1 2 3 4 5 6 
#
# 1 100.8277 43.4852 72.0262 0.0000 1.0789 0.0000
# 2 43.4852 55.2476 38.2154 0.0000 4.4373 0.0000
# 3 72.0262 38.2154 91.6305 0.0000 1.3714 0.0000
# 4 0.0000 0.0000 0.0000 30.6893 0.0000 3.5893
# 5 1.0789 4.4373 1.3714 0.0000 31.7241 0.0000
# 6 0.0000 0.0000 0.0000 3.5893 0.0000 29.8874
#
#
#
# Elastic Compliance Matrix: (Units=1/GPa)
#
#
# Indices 1 2 3 4 5 6 
#
# 1 0.025280 -0.008752 -0.016237 0.000000 0.001066 0.000000
# 2 -0.008752 0.028778 -0.005070 0.000000 -0.003508 0.000000
# 3 -0.016237 -0.005070 0.025789 0.000000 0.000147 0.000000
# 4 0.000000 0.000000 0.000000 0.033049 0.000000 -0.003969
# 5 0.001066 -0.003508 0.000147 0.000000 0.031970 0.000000
# 6 0.000000 0.000000 0.000000 -0.003969 0.000000 0.033936
#
#
# Mechanical properties :
#
#
# Convention : Reuss Voigt Hill
#
# Bulk Modulus (GPa) = 50.68863 61.68437 56.18650
# Shear Modulus (GPa) = 20.36686 24.72541 22.54614
#
# Velocity S-wave (km/s) = 3.37117 3.71442 3.54695
# Velocity P-wave (km/s) = 6.59072 7.26746 6.93735
#
# Compressibility (1/GPa) = 0.01972829
#
# Stress axis : x y z
#
# Youngs Moduli (GPa) = 39.55643 34.74895 38.77603
#
# Poissons Ratio (x) = 0.30413 0.62962
# Poissons Ratio (y) = 0.34620 0.19659
# Poissons Ratio (z) = 0.64229 0.17618
#
# Static dielectric constant tensor:
#      x y z
#    x 3.507310 0.000000 -0.105240 
#    y 0.000000 3.364590 0.000000 
#    z -0.105240 0.000000 3.186090 
# 
# 
# High freq. dielectric constant tensor:
#      x y z
#    x 1.700640 0.000000 -0.000990 
#    y 0.000000 1.706820 0.000000 
#    z -0.000990 0.000000 1.674060 
# 
# From -- ./inp_files/249179.got.cif
#   From: 2010.06.25/outbox.cif.g09.slc.cpg/sg12_125_cif.got.tgz:249179.got - 2010.06.28 00:19:55.
