data_PCOD8087904
_publ_section_title
;
Structure prediction by ZEFSAII (Michael W. Deem and Ramdas Pophale) SiO2 
 PCOD8087904
Probable space group: C 2/M
;
_chemical_formula_sum "Si O2"
_cell_formula_units_Z 64
_cell_length_a 18.335426
_cell_length_b 9.116979
_cell_length_c 20.678482
_cell_angle_alpha 90.000000
_cell_angle_beta 93.591047
_cell_angle_gamma 90.000000
_cell_volume 3449.904316
_symmetry_space_group_name_H-M "C 2/M"
_symmetry_group_IT_number 12
_symmetry_cell_setting 'monoclinic'
loop_
_space_group_symop_operation_xyz
x,y,z
-x,y,-z
-x,-y,-z
x,-y,z
1/2+x,1/2+y,z
1/2-x,1/2+y,-z
1/2-x,1/2-y,-z
1/2+x,1/2-y,z
loop_
_atom_site_type_symbol
_atom_site_label
_atom_site_fract_x
_atom_site_fract_y
_atom_site_fract_z
Si Si1 0.569151 0.175203 0.147383
Si Si2 0.097790 0.172260 0.383972
Si Si3 0.428942 0.328911 0.363770
Si Si4 0.595418 0.824843 0.871820
Si Si5 0.667662 0.329935 0.761539
Si Si6 0.668351 0.828303 0.269945
Si Si7 0.913690 0.339820 0.989380
Si Si8 0.913439 0.334629 0.489133
O O1 0.485819 0.227324 0.153887
O O2 0.618289 0.232839 0.208861
O O3 0.571933 0.000000 0.142513
O O4 0.601290 0.240678 0.080618
O O5 0.149929 0.239493 0.332996
O O6 0.120713 0.244303 0.453361
O O7 0.014184 0.209876 0.361426
O O8 0.111030 0.000000 0.389910
O O9 0.416889 0.500000 0.377080
O O10 0.389393 0.278156 0.296189
O O11 0.391465 0.241843 0.420676
O O12 0.654119 0.759573 0.826091
O O13 0.613895 0.762493 0.945585
O O14 0.600090 0.000000 0.871860
O O15 0.657340 0.500000 0.776923
O O16 0.748392 0.294849 0.741939
O O17 0.653971 0.000000 0.281277
O O18 0.876494 0.500000 0.984719
O O19 0.000000 0.359463 0.000000
O O20 0.882592 0.500000 0.488443
O O21 0.000000 0.332940 0.500000
#
# Coordination Sequence:
#
# PCOD8087904 Si02
#       8
#     8   8   8   8   8   8   8   8
#     4   8  14  27  49  73  93 118 157 201 239 275
#     4  10  19  32  52  74  96 123 154 192 236 279
#     4   9  18  33  51  71  96 126 157 188 230 282
#     4   9  16  28  50  74  92 117 158 203 238 275
#     4  10  21  34  46  65  98 133 158 188 234 283
#     4  10  20  33  48  67  94 128 163 196 231 276
#     4   7  11  22  43  71  95 114 147 197 243 277
#     4   9  17  30  51  78 101 119 148 193 236 275
#
# _framework density 18.551238999999999
#
# number of rings (size 3 to 8) (size 9 to 14) (size 15 to 20)
#    0.000    3.000    0.000    3.000    0.000    3.000 
#    0.000    1.250    0.000    4.125    0.000    0.000 
#    0.000    0.000    0.000    0.000    0.000    0.000 
#
# Total GULP energy -396602.136166 kJ/mol
# GULP energy per Si atom -12393.816755 kJ/mol
# Density = 1.850902 g / cm^3
# Si number density = 18.551239 Si / 1000 Ang^3
#
#
#
# Elastic Constant Matrix: (Units=GPa)
#
#
# Indices 1 2 3 4 5 6 
#
# 1 47.4047 25.7232 35.3444 0.0000 -16.9520 0.0000
# 2 25.7232 56.0180 48.5828 0.0000 -16.8696 0.0000
# 3 35.3444 48.5828 140.7406 0.0000 -37.3854 0.0000
# 4 0.0000 0.0000 0.0000 20.6504 0.0000 -3.8660
# 5 -16.9520 -16.8696 -37.3854 0.0000 18.1042 0.0000
# 6 0.0000 0.0000 0.0000 -3.8660 0.0000 14.5195
#
#
#
# Elastic Compliance Matrix: (Units=1/GPa)
#
#
# Indices 1 2 3 4 5 6 
#
# 1 0.034568 -0.009126 0.001790 0.000000 0.027561 0.000000
# 2 -0.009126 0.029201 -0.006269 0.000000 0.005718 0.000000
# 3 0.001790 -0.006269 0.017085 0.000000 0.031115 0.000000
# 4 0.000000 0.000000 0.000000 0.050966 0.000000 0.013570
# 5 0.027561 0.005718 0.031115 0.000000 0.150625 0.000000
# 6 0.000000 0.000000 0.000000 0.013570 0.000000 0.072486
#
#
# Mechanical properties :
#
#
# Convention : Reuss Voigt Hill
#
# Bulk Modulus (GPa) = 18.64133 51.49600 35.06867
# Shear Modulus (GPa) = 12.49929 19.62237 16.06083
#
# Velocity S-wave (km/s) = 2.59853 3.25582 2.94556
# Velocity P-wave (km/s) = 4.36732 6.47710 5.52387
#
# Compressibility (1/GPa) = 0.05364424
#
# Stress axis : x y z
#
# Youngs Moduli (GPa) = 28.92835 34.24499 58.53075
#
# Poissons Ratio (x) = 0.31253 -0.10479
# Poissons Ratio (y) = 0.26401 0.36694
# Poissons Ratio (z) = -0.05179 0.21469
#
# Static dielectric constant tensor:
#      x y z
#    x 3.100020 0.000000 0.021650 
#    y 0.000000 3.105900 0.000000 
#    z 0.021650 0.000000 3.793010 
# 
# 
# High freq. dielectric constant tensor:
#      x y z
#    x 1.684570 0.000000 -0.006460 
#    y 0.000000 1.687210 0.000000 
#    z -0.006460 0.000000 1.742640 
# 
# From -- ./inp_files/319167.got.cif
#   From: 2010.06.25/outbox.cif.g09.slc.cpg/sg12_160_cif.got.tgz:319167.got - 2010.06.28 00:19:55.
