data_PCOD8087805
_publ_section_title
;
Structure prediction by ZEFSAII (Michael W. Deem and Ramdas Pophale) SiO2 
 PCOD8087805
Probable space group: C 2/M
;
_chemical_formula_sum "Si O2"
_cell_formula_units_Z 48
_cell_length_a 5.076826
_cell_length_b 24.279322
_cell_length_c 22.344076
_cell_angle_alpha 90.000000
_cell_angle_beta 68.435813
_cell_angle_gamma 90.000000
_cell_volume 2561.398625
_symmetry_space_group_name_H-M "C 2/M"
_symmetry_group_IT_number 12
_symmetry_cell_setting 'monoclinic'
loop_
_space_group_symop_operation_xyz
x,y,z
-x,y,-z
-x,-y,-z
x,-y,z
1/2+x,1/2+y,z
1/2-x,1/2+y,-z
1/2-x,1/2-y,-z
1/2+x,1/2-y,z
loop_
_atom_site_type_symbol
_atom_site_label
_atom_site_fract_x
_atom_site_fract_y
_atom_site_fract_z
Si Si1 0.346405 0.786404 0.073653
Si Si2 0.119234 0.129398 0.185986
Si Si3 0.202322 0.562300 0.030403
Si Si4 0.802499 0.213151 0.295965
Si Si5 0.323946 0.785640 0.566056
Si Si6 0.389498 0.937860 0.824392
O O1 0.539851 0.740098 0.088618
O O2 0.304989 0.838255 0.120979
O O3 0.500000 0.806309 0.000000
O O4 0.333449 0.098659 0.214792
O O5 0.927393 0.169322 0.240690
O O6 0.908707 0.086275 0.171978
O O7 0.250114 0.500000 0.002648
O O8 0.082406 0.562357 0.106484
O O9 0.500000 0.594619 0.000000
O O10 0.000000 0.592958 0.000000
O O11 0.521136 0.237150 0.288913
O O12 0.725594 0.183499 0.366260
O O13 0.500000 0.820000 0.500000
O O14 0.521394 0.732309 0.564657
O O15 0.415478 0.000000 0.796956
#
# Coordination Sequence:
#
# PCOD8087805 Si02
#       6
#     8   8   8   8   8   8
#     4  10  21  37  54  73  98 126 160 202 244 292
#     4  12  22  35  55  74  97 132 171 205 252 302
#     4   9  17  31  49  65  83 109 142 188 248 302
#     4  10  19  32  51  77 107 134 166 204 239 290
#     4   8  14  25  43  69 103 138 161 185 232 289
#     4  11  24  38  51  71  99 128 164 213 258 303
#
# _framework density 18.739764000000001
#
# number of rings (size 3 to 8) (size 9 to 14) (size 15 to 20)
#    0.000    2.000    0.000    4.500    0.000    4.667 
#    0.000    0.000    0.000    0.500    0.000    0.000 
#    0.000    4.000    0.000    0.000    0.000    0.000 
#
# Total GULP energy -297406.531218 kJ/mol
# GULP energy per Si atom -12391.938801 kJ/mol
# Density = 1.869711 g / cm^3
# Si number density = 18.739764 Si / 1000 Ang^3
#
#
#
# Elastic Constant Matrix: (Units=GPa)
#
#
# Indices 1 2 3 4 5 6 
#
# 1 95.6074 11.4569 8.2653 0.0000 -6.0520 0.0000
# 2 11.4569 68.6613 30.3225 0.0000 -2.5257 0.0000
# 3 8.2653 30.3225 89.7001 0.0000 -6.5716 0.0000
# 4 0.0000 0.0000 0.0000 0.5384 0.0000 0.8059
# 5 -6.0520 -2.5257 -6.5716 0.0000 22.7927 0.0000
# 6 0.0000 0.0000 0.0000 0.8059 0.0000 19.4546
#
#
#
# Elastic Compliance Matrix: (Units=1/GPa)
#
#
# Indices 1 2 3 4 5 6 
#
# 1 0.010840 -0.001594 -0.000268 0.000000 0.002624 0.000000
# 2 -0.001594 0.017356 -0.005731 0.000000 -0.000152 0.000000
# 3 -0.000268 -0.005731 0.013340 0.000000 0.003140 0.000000
# 4 0.000000 0.000000 0.000000 1.980115 0.000000 -0.082023
# 5 0.002624 -0.000152 0.003140 0.000000 0.045459 0.000000
# 6 0.000000 0.000000 0.000000 -0.082023 0.000000 0.054799
#
#
# Mechanical properties :
#
#
# Convention : Reuss Voigt Hill
#
# Bulk Modulus (GPa) = 37.95077 39.33978 38.64527
# Shear Modulus (GPa) = 2.33005 22.15208 12.24106
#
# Velocity S-wave (km/s) = 1.11628 3.44188 2.55858
# Velocity P-wave (km/s) = 4.68581 6.06907 5.42174
#
# Compressibility (1/GPa) = 0.02634993
#
# Stress axis : x y z
#
# Youngs Moduli (GPa) = 92.25329 57.61805 74.96026
#
# Poissons Ratio (x) = 0.09184 0.02007
# Poissons Ratio (y) = 0.14705 0.42962
# Poissons Ratio (z) = 0.02470 0.33022
#
# Static dielectric constant tensor:
#      x y z
#    x -3.859450 0.000000 0.112410 
#    y 0.000000 3.187730 0.000000 
#    z 0.112410 0.000000 3.618630 
# 
# 
# High freq. dielectric constant tensor:
#      x y z
#    x 1.761440 0.000000 -0.007350 
#    y 0.000000 1.682610 0.000000 
#    z -0.007350 0.000000 1.709070 
# 
# From -- ./inp_files/331154.got.cif
#   From: 2010.06.25/outbox.cif.g09.slc.cpg/sg12_166_cif.got.tgz:331154.got - 2010.06.28 00:19:55.
