data_PCOD8087205
_publ_section_title
;
Structure prediction by ZEFSAII (Michael W. Deem and Ramdas Pophale) SiO2 
 PCOD8087205
Probable space group: C 2/M
;
_chemical_formula_sum "Si O2"
_cell_formula_units_Z 56
_cell_length_a 27.783734
_cell_length_b 8.951685
_cell_length_c 13.927815
_cell_angle_alpha 90.000000
_cell_angle_beta 97.432955
_cell_angle_gamma 90.000000
_cell_volume 3434.895760
_symmetry_space_group_name_H-M "C 2/M"
_symmetry_group_IT_number 12
_symmetry_cell_setting 'monoclinic'
loop_
_space_group_symop_operation_xyz
x,y,z
-x,y,-z
-x,-y,-z
x,-y,z
1/2+x,1/2+y,z
1/2-x,1/2+y,-z
1/2-x,1/2-y,-z
1/2+x,1/2-y,z
loop_
_atom_site_type_symbol
_atom_site_label
_atom_site_fract_x
_atom_site_fract_y
_atom_site_fract_z
Si Si1 0.105895 0.173523 0.465749
Si Si2 0.919380 0.175973 0.325856
Si Si3 0.269280 0.821879 0.779312
Si Si4 0.211808 0.822963 0.419106
Si Si5 0.013441 0.668678 0.392460
Si Si6 0.296787 0.324632 0.967051
Si Si7 0.165190 0.826245 0.826915
O O1 0.101755 0.220729 0.575795
O O2 0.158781 0.218939 0.443659
O O3 0.065986 0.257119 0.390160
O O4 0.095470 0.000000 0.450349
O O5 0.881682 0.243774 0.237871
O O6 0.971876 0.248822 0.320377
O O7 0.926091 0.000000 0.317227
O O8 0.282906 0.749475 0.682900
O O9 0.307485 0.758407 0.868971
O O10 0.215495 0.764380 0.795028
O O11 0.273389 0.000000 0.775186
O O12 0.250000 0.750000 0.500000
O O13 0.220064 0.000000 0.416788
O O14 0.016290 0.500000 0.356935
O O15 0.000000 0.682046 0.500000
O O16 0.288306 0.500000 0.947170
O O17 0.250000 0.250000 0.000000
O O18 0.338627 0.298675 0.058737
O O19 0.165434 0.000000 0.802837
#
# Coordination Sequence:
#
# PCOD8087205 Si02
#       7
#     8   8   8   8   8   8   8
#     4   9  18  31  46  63  87 122 157 183 213 264
#     4   9  15  27  46  65  87 117 149 181 221 267
#     4  10  19  32  47  65  92 125 159 191 225 267
#     4  11  22  34  48  68  93 122 157 191 223 263
#     4   9  17  28  42  63  89 114 144 185 227 264
#     4   9  16  28  45  66  91 120 154 190 230 273
#     4   8  15  27  45  67  91 119 150 185 223 268
#
# _framework density 16.303260000000002
#
# number of rings (size 3 to 8) (size 9 to 14) (size 15 to 20)
#    0.000    2.714    0.000    3.429    0.000    5.143 
#    0.000    7.143    0.000    0.000    0.000    1.000 
#    0.000    8.000    0.000    0.000    0.000    0.000 
#
# Total GULP energy -347039.542858 kJ/mol
# GULP energy per Si atom -12394.269388 kJ/mol
# Density = 1.626615 g / cm^3
# Si number density = 16.303260 Si / 1000 Ang^3
#
#
#
# Elastic Constant Matrix: (Units=GPa)
#
#
# Indices 1 2 3 4 5 6 
#
# 1 106.7729 52.2846 62.8857 0.0000 22.0417 0.0000
# 2 52.2846 74.2333 51.3403 0.0000 8.3576 0.0000
# 3 62.8857 51.3403 123.6753 0.0000 16.8130 0.0000
# 4 0.0000 0.0000 0.0000 25.9480 0.0000 1.2441
# 5 22.0417 8.3576 16.8130 0.0000 24.7779 0.0000
# 6 0.0000 0.0000 0.0000 1.2441 0.0000 22.6002
#
#
#
# Elastic Compliance Matrix: (Units=1/GPa)
#
#
# Indices 1 2 3 4 5 6 
#
# 1 0.018336 -0.008798 -0.004249 0.000000 -0.010460 0.000000
# 2 -0.008798 0.023148 -0.005660 0.000000 0.003860 0.000000
# 3 -0.004249 -0.005660 0.013024 0.000000 -0.003148 0.000000
# 4 0.000000 0.000000 0.000000 0.038641 0.000000 -0.002127
# 5 -0.010460 0.003860 -0.003148 0.000000 0.050498 0.000000
# 6 0.000000 0.000000 0.000000 -0.002127 0.000000 0.044365
#
#
# Mechanical properties :
#
#
# Convention : Reuss Voigt Hill
#
# Bulk Modulus (GPa) = 58.50381 70.85584 64.67982
# Shear Modulus (GPa) = 21.63346 23.87660 22.75503
#
# Velocity S-wave (km/s) = 3.64667 3.83107 3.74001
# Velocity P-wave (km/s) = 7.32759 7.94512 7.64260
#
# Compressibility (1/GPa) = 0.01709290
#
# Stress axis : x y z
#
# Youngs Moduli (GPa) = 54.53809 43.20036 76.78195
#
# Poissons Ratio (x) = 0.38008 0.32625
# Poissons Ratio (y) = 0.47983 0.43461
# Poissons Ratio (z) = 0.23173 0.24453
#
# Static dielectric constant tensor:
#      x y z
#    x 3.073760 0.000000 0.296730 
#    y 0.000000 3.133140 0.000000 
#    z 0.296730 0.000000 3.325300 
# 
# 
# High freq. dielectric constant tensor:
#      x y z
#    x 1.602970 0.000000 0.022970 
#    y 0.000000 1.627040 0.000000 
#    z 0.022970 0.000000 1.617580 
# 
# From -- ./inp_files/247880.got.cif
#   From: 2010.06.25/outbox.cif.g09.slc.cpg/sg12_124_cif.got.tgz:247880.got - 2010.06.28 00:19:55.
