data_PCOD8087787
_publ_section_title
;
Structure prediction by ZEFSAII (Michael W. Deem and Ramdas Pophale) SiO2 
 PCOD8087787
Probable space group: C 2/M
;
_chemical_formula_sum "Si O2"
_cell_formula_units_Z 56
_cell_length_a 30.718918
_cell_length_b 9.398442
_cell_length_c 11.671831
_cell_angle_alpha 90.000000
_cell_angle_beta 63.411948
_cell_angle_gamma 90.000000
_cell_volume 3013.412248
_symmetry_space_group_name_H-M "C 2/M"
_symmetry_group_IT_number 12
_symmetry_cell_setting 'monoclinic'
loop_
_space_group_symop_operation_xyz
x,y,z
-x,y,-z
-x,-y,-z
x,-y,z
1/2+x,1/2+y,z
1/2-x,1/2+y,-z
1/2-x,1/2-y,-z
1/2+x,1/2-y,z
loop_
_atom_site_type_symbol
_atom_site_label
_atom_site_fract_x
_atom_site_fract_y
_atom_site_fract_z
Si Si1 0.188049 0.165841 0.970792
Si Si2 0.018887 0.337701 0.202103
Si Si3 0.368405 0.665680 0.548667
Si Si4 0.606259 0.162202 0.943810
Si Si5 0.050119 0.161022 0.374797
Si Si6 0.909328 0.667815 0.296331
Si Si7 0.780715 0.837236 0.812902
O O1 0.189860 0.194623 0.104769
O O2 0.187847 0.000000 0.941617
O O3 0.139245 0.234887 0.980413
O O4 0.234617 0.235142 0.854082
O O5 0.015301 0.500000 0.247413
O O6 0.048201 0.252810 0.263340
O O7 0.964718 0.276285 0.246628
O O8 0.049956 0.324141 0.048996
O O9 0.377583 0.500000 0.511325
O O10 0.408161 0.722844 0.592062
O O11 0.373281 0.753443 0.426059
O O12 0.315197 0.692314 0.663891
O O13 0.609047 0.207874 0.808349
O O14 0.624293 0.000000 0.939045
O O15 0.000000 0.170434 0.500000
O O16 0.062967 0.000000 0.323618
O O17 0.906553 0.500000 0.320607
O O18 0.762395 0.000000 0.835318
#
# Coordination Sequence:
#
# PCOD8087787 Si02
#       7
#     8   8   8   8   8   8   8
#     4  10  20  36  59  85 108 132 173 222 265 316
#     4  10  20  34  54  78 105 141 184 224 261 309
#     4  10  20  35  54  78 109 145 178 211 262 320
#     4  10  21  37  55  76 106 144 180 219 270 314
#     4  10  19  32  51  76 110 143 170 211 266 315
#     4  10  21  36  53  75 107 144 183 223 259 306
#     4   9  19  36  58  82 110 139 168 212 270 322
#
# _framework density 18.583584999999999
#
# number of rings (size 3 to 8) (size 9 to 14) (size 15 to 20)
#    0.000    2.143    1.429    1.714    0.000    6.000 
#    0.000    0.714    0.000    2.571    0.000    0.000 
#    0.000    0.000    0.000    0.000    0.000    0.000 
#
# Total GULP energy -347288.180042 kJ/mol
# GULP energy per Si atom -12403.149287 kJ/mol
# Density = 1.854129 g / cm^3
# Si number density = 18.583585 Si / 1000 Ang^3
#
#
#
# Elastic Constant Matrix: (Units=GPa)
#
#
# Indices 1 2 3 4 5 6 
#
# 1 56.9048 30.9187 29.8085 0.0000 -3.0283 0.0000
# 2 30.9187 66.7986 44.8695 0.0000 1.4654 0.0000
# 3 29.8085 44.8695 111.4673 0.0000 0.2116 0.0000
# 4 0.0000 0.0000 0.0000 27.1543 0.0000 1.7145
# 5 -3.0283 1.4654 0.2116 0.0000 23.6462 0.0000
# 6 0.0000 0.0000 0.0000 1.7145 0.0000 29.8051
#
#
#
# Elastic Compliance Matrix: (Units=1/GPa)
#
#
# Indices 1 2 3 4 5 6 
#
# 1 0.024370 -0.009566 -0.002673 0.000000 0.003738 0.000000
# 2 -0.009566 0.024308 -0.007221 0.000000 -0.002667 0.000000
# 3 -0.002673 -0.007221 0.012593 0.000000 -0.000008 0.000000
# 4 0.000000 0.000000 0.000000 0.036961 0.000000 -0.002126
# 5 0.003738 -0.002667 -0.000008 0.000000 0.042934 0.000000
# 6 0.000000 0.000000 0.000000 -0.002126 0.000000 0.033674
#
#
# Mechanical properties :
#
#
# Convention : Reuss Voigt Hill
#
# Bulk Modulus (GPa) = 44.74549 49.59601 47.17075
# Shear Modulus (GPa) = 22.60283 24.75939 23.68111
#
# Velocity S-wave (km/s) = 3.49130 3.65406 3.57361
# Velocity P-wave (km/s) = 6.35472 6.67450 6.51657
#
# Compressibility (1/GPa) = 0.02234862
#
# Stress axis : x y z
#
# Youngs Moduli (GPa) = 41.03350 41.13951 79.40920
#
# Poissons Ratio (x) = 0.39356 0.21229
# Poissons Ratio (y) = 0.39254 0.57344
# Poissons Ratio (z) = 0.10970 0.29708
#
# Static dielectric constant tensor:
#      x y z
#    x 3.268770 0.000000 -0.047420 
#    y 0.000000 3.362830 0.000000 
#    z -0.047420 0.000000 3.399270 
# 
# 
# High freq. dielectric constant tensor:
#      x y z
#    x 1.710830 0.000000 -0.006580 
#    y 0.000000 1.715180 0.000000 
#    z -0.006580 0.000000 1.724230 
# 
# From -- ./inp_files/181118.got.cif
#   From: 2010.06.25/outbox.cif.g09.slc.cpg/sg12_91_cif.got.tgz:181118.got - 2010.06.28 00:19:55.
