data_PCOD8087705
_publ_section_title
;
Structure prediction by ZEFSAII (Michael W. Deem and Ramdas Pophale) SiO2 
 PCOD8087705
Probable space group: C 2/M
;
_chemical_formula_sum "Si O2"
_cell_formula_units_Z 64
_cell_length_a 24.964030
_cell_length_b 9.273256
_cell_length_c 19.253306
_cell_angle_alpha 90.000000
_cell_angle_beta 129.555659
_cell_angle_gamma 90.000000
_cell_volume 3436.451286
_symmetry_space_group_name_H-M "C 2/M"
_symmetry_group_IT_number 12
_symmetry_cell_setting 'monoclinic'
loop_
_space_group_symop_operation_xyz
x,y,z
-x,y,-z
-x,-y,-z
x,-y,z
1/2+x,1/2+y,z
1/2-x,1/2+y,-z
1/2-x,1/2-y,-z
1/2+x,1/2-y,z
loop_
_atom_site_type_symbol
_atom_site_label
_atom_site_fract_x
_atom_site_fract_y
_atom_site_fract_z
Si Si1 0.826733 0.836210 0.985503
Si Si2 0.787719 0.169303 0.195341
Si Si3 0.685485 0.327995 0.482931
Si Si4 0.554156 0.329473 0.284476
Si Si5 0.100035 0.168155 0.818649
Si Si6 0.921699 0.838107 0.939098
Si Si7 0.120638 0.662636 0.218212
Si Si8 0.777669 0.837711 0.340677
O O1 0.767400 0.742267 0.901000
O O2 0.896173 0.832417 0.996722
O O3 0.798746 0.000000 0.970032
O O4 0.850682 0.767910 0.079192
O O5 0.864174 0.197931 0.226187
O O6 0.786856 0.239436 0.272762
O O7 0.769311 0.000000 0.182350
O O8 0.697998 0.500000 0.489161
O O9 0.750000 0.250000 0.500000
O O10 0.612922 0.282151 0.387948
O O11 0.678043 0.275574 0.557785
O O12 0.554386 0.500000 0.274123
O O13 0.478765 0.270674 0.247444
O O14 0.570739 0.257676 0.224622
O O15 0.094753 0.000000 0.830751
O O16 0.876826 0.727598 0.856905
O O17 0.914562 0.000000 0.902763
O O18 0.000000 0.783513 0.000000
O O19 0.092180 0.500000 0.193896
O O20 0.200088 0.668583 0.307901
O O21 0.801935 0.000000 0.346378
#
# Coordination Sequence:
#
# PCOD8087705 Si02
#       8
#     8   8   8   8   8   8   8   8
#     4  10  19  32  51  75 103 133 174 221 253 295
#     4  10  19  35  56  74 102 141 174 211 258 308
#     4  10  19  33  54  78 105 134 169 212 258 314
#     4  10  20  35  55  78 104 137 177 215 258 316
#     4   9  19  35  54  76 102 136 176 215 258 303
#     4  10  20  33  49  71 105 144 177 213 258 308
#     4  11  20  32  51  75 108 139 167 212 264 314
#     4   9  18  32  50  76 106 130 161 210 261 302
#
# _framework density 18.623863
#
# number of rings (size 3 to 8) (size 9 to 14) (size 15 to 20)
#    0.000    2.125    2.500    1.500    0.000    2.250 
#    0.000    3.750    0.000    3.750    0.000    0.000 
#    0.000    3.000    0.000    0.000    0.000    0.000 
#
# Total GULP energy -396610.985613 kJ/mol
# GULP energy per Si atom -12394.093300 kJ/mol
# Density = 1.858147 g / cm^3
# Si number density = 18.623863 Si / 1000 Ang^3
#
#
#
# Elastic Constant Matrix: (Units=GPa)
#
#
# Indices 1 2 3 4 5 6 
#
# 1 109.4523 19.5192 48.2280 0.0000 -8.7976 0.0000
# 2 19.5192 37.9135 24.5723 0.0000 -1.1888 0.0000
# 3 48.2280 24.5723 110.9143 0.0000 -11.7859 0.0000
# 4 0.0000 0.0000 0.0000 20.7636 0.0000 0.1062
# 5 -8.7976 -1.1888 -11.7859 0.0000 23.4101 0.0000
# 6 0.0000 0.0000 0.0000 0.1062 0.0000 18.7101
#
#
#
# Elastic Compliance Matrix: (Units=1/GPa)
#
#
# Indices 1 2 3 4 5 6 
#
# 1 0.011719 -0.003283 -0.004140 0.000000 0.002153 0.000000
# 2 -0.003283 0.031804 -0.005893 0.000000 -0.002586 0.000000
# 3 -0.004140 -0.005893 0.012598 0.000000 0.004488 0.000000
# 4 0.000000 0.000000 0.000000 0.048163 0.000000 -0.000273
# 5 0.002153 -0.002586 0.004488 0.000000 0.045654 0.000000
# 6 0.000000 0.000000 0.000000 -0.000273 0.000000 0.053449
#
#
# Mechanical properties :
#
#
# Convention : Reuss Voigt Hill
#
# Bulk Modulus (GPa) = 33.90947 49.21324 41.56136
# Shear Modulus (GPa) = 20.84649 23.64080 22.24365
#
# Velocity S-wave (km/s) = 3.34929 3.56670 3.45970
# Velocity P-wave (km/s) = 5.76229 6.59121 6.19064
#
# Compressibility (1/GPa) = 0.02949028
#
# Stress axis : x y z
#
# Youngs Moduli (GPa) = 85.33193 31.44212 79.37490
#
# Poissons Ratio (x) = 0.10322 0.32858
# Poissons Ratio (y) = 0.28014 0.46778
# Poissons Ratio (z) = 0.35324 0.18530
#
# Static dielectric constant tensor:
#      x y z
#    x 3.514440 0.000000 -0.087150 
#    y 0.000000 3.168840 0.000000 
#    z -0.087150 0.000000 3.614100 
# 
# 
# High freq. dielectric constant tensor:
#      x y z
#    x 1.722950 0.000000 -0.008960 
#    y 0.000000 1.688910 0.000000 
#    z -0.008960 0.000000 1.724890 
# 
# From -- ./inp_files/289155.got.cif
#   From: 2010.06.25/outbox.cif.g09.slc.cpg/sg12_145_cif.got.tgz:289155.got - 2010.06.28 00:19:55.
