data_PCOD8087033
_publ_section_title
;
Structure prediction by ZEFSAII (Michael W. Deem and Ramdas Pophale) SiO2 
 PCOD8087033
Probable space group: C 2/M
;
_chemical_formula_sum "Si O2"
_cell_formula_units_Z 64
_cell_length_a 20.179027
_cell_length_b 16.135837
_cell_length_c 12.799220
_cell_angle_alpha 90.000000
_cell_angle_beta 122.999913
_cell_angle_gamma 90.000000
_cell_volume 3495.159940
_symmetry_space_group_name_H-M "C 2/M"
_symmetry_group_IT_number 12
_symmetry_cell_setting 'monoclinic'
loop_
_space_group_symop_operation_xyz
x,y,z
-x,y,-z
-x,-y,-z
x,-y,z
1/2+x,1/2+y,z
1/2-x,1/2+y,-z
1/2-x,1/2-y,-z
1/2+x,1/2-y,z
loop_
_atom_site_type_symbol
_atom_site_label
_atom_site_fract_x
_atom_site_fract_y
_atom_site_fract_z
Si Si1 0.913528 0.172256 0.974873
Si Si2 0.577485 0.857003 0.997108
Si Si3 0.521466 0.095270 0.270840
Si Si4 0.969624 0.092419 0.215412
Si Si5 0.024493 0.238642 0.402303
Si Si6 0.800477 0.180356 0.492814
Si Si7 0.673059 0.907455 0.263686
Si Si8 0.141154 0.090370 0.265772
O O1 0.850932 0.149315 0.829522
O O2 0.895049 0.263568 0.001056
O O3 0.000000 0.167120 0.000000
O O4 0.905801 0.112272 0.069300
O O5 0.555975 0.902695 0.870478
O O6 0.500000 0.859067 0.000000
O O7 0.648279 0.901517 0.120625
O O8 0.510896 0.167985 0.347012
O O9 0.600118 0.120847 0.274417
O O10 0.527380 0.000000 0.320847
O O11 0.971060 0.167124 0.301177
O O12 0.052379 0.090694 0.228947
O O13 0.951740 0.000000 0.248395
O O14 0.115659 0.213134 0.473592
O O15 0.000000 0.241397 0.500000
O O16 0.750000 0.250000 0.500000
O O17 0.751909 0.145189 0.352604
O O18 0.804967 0.114259 0.590301
O O19 0.696632 0.000000 0.310979
O O20 0.167521 0.000000 0.250413
#
# Coordination Sequence:
#
# PCOD8087033 Si02
#       8
#     8   8   8   8   8   8   8   8
#     4   9  14  23  44  70 103 136 171 213 268 315
#     4   9  16  27  49  80 110 136 170 221 276 327
#     4  10  19  34  55  81 110 142 181 229 278 323
#     4   9  17  30  48  72 102 138 179 222 266 315
#     4  11  23  38  55  78 110 145 187 228 271 325
#     4  11  20  34  53  75 109 146 177 220 274 326
#     4  10  19  31  52  83 113 142 178 224 275 328
#     4   9  17  26  42  72 105 136 169 212 265 320
#
# _framework density 18.311036000000001
#
# number of rings (size 3 to 8) (size 9 to 14) (size 15 to 20)
#    0.000    2.250    2.500    1.875    3.500    4.000 
#    0.000    0.000    0.000    0.750    0.000    0.000 
#    0.000    0.000    0.000    0.000    0.000    0.000 
#
# Total GULP energy -396434.249193 kJ/mol
# GULP energy per Si atom -12388.570287 kJ/mol
# Density = 1.826936 g / cm^3
# Si number density = 18.311036 Si / 1000 Ang^3
#
#
#
# Elastic Constant Matrix: (Units=GPa)
#
#
# Indices 1 2 3 4 5 6 
#
# 1 32.3161 22.1824 34.5527 0.0000 -7.7831 0.0000
# 2 22.1824 119.0943 49.9535 0.0000 -11.2154 0.0000
# 3 34.5527 49.9535 127.6083 0.0000 2.7124 0.0000
# 4 0.0000 0.0000 0.0000 28.4356 0.0000 0.0150
# 5 -7.7831 -11.2154 2.7124 0.0000 21.2007 0.0000
# 6 0.0000 0.0000 0.0000 0.0150 0.0000 10.0879
#
#
#
# Elastic Compliance Matrix: (Units=1/GPa)
#
#
# Indices 1 2 3 4 5 6 
#
# 1 0.051600 -0.002072 -0.013577 0.000000 0.019584 0.000000
# 2 -0.002072 0.010904 -0.003824 0.000000 0.005497 0.000000
# 3 -0.013577 -0.003824 0.013195 0.000000 -0.008696 0.000000
# 4 0.000000 0.000000 0.000000 0.035167 0.000000 -0.000052
# 5 0.019584 0.005497 -0.008696 0.000000 0.058379 0.000000
# 6 0.000000 0.000000 0.000000 -0.000052 0.000000 0.099129
#
#
# Mechanical properties :
#
#
# Convention : Reuss Voigt Hill
#
# Bulk Modulus (GPa) = 27.20915 54.71064 40.95990
# Shear Modulus (GPa) = 15.64596 23.43350 19.53973
#
# Velocity S-wave (km/s) = 2.92628 3.58124 3.27020
# Velocity P-wave (km/s) = 5.12925 6.85884 6.05611
#
# Compressibility (1/GPa) = 0.03675234
#
# Stress axis : x y z
#
# Youngs Moduli (GPa) = 19.37989 91.70546 75.78799
#
# Poissons Ratio (x) = 0.19000 1.02897
# Poissons Ratio (y) = 0.04015 0.28985
# Poissons Ratio (z) = 0.26312 0.35073
#
# Static dielectric constant tensor:
#      x y z
#    x 2.583250 0.000000 -0.048140 
#    y 0.000000 3.524670 0.000000 
#    z -0.048140 0.000000 3.279210 
# 
# 
# High freq. dielectric constant tensor:
#      x y z
#    x 1.621600 0.000000 0.007200 
#    y 0.000000 1.729680 0.000000 
#    z 0.007200 0.000000 1.723420 
# 
# From -- ./inp_files/177158.got.cif
#   From: 2010.06.25/outbox.cif.g09.slc.cpg/sg12_89_cif.got.tgz:177158.got - 2010.06.28 00:19:55.
