data_PCOD8087090
_publ_section_title
;
Structure prediction by ZEFSAII (Michael W. Deem and Ramdas Pophale) SiO2 
 PCOD8087090
Probable space group: C 2/M
;
_chemical_formula_sum "Si O2"
_cell_formula_units_Z 64
_cell_length_a 15.481925
_cell_length_b 9.313411
_cell_length_c 24.923951
_cell_angle_alpha 90.000000
_cell_angle_beta 72.599075
_cell_angle_gamma 90.000000
_cell_volume 3429.305582
_symmetry_space_group_name_H-M "C 2/M"
_symmetry_group_IT_number 12
_symmetry_cell_setting 'monoclinic'
loop_
_space_group_symop_operation_xyz
x,y,z
-x,y,-z
-x,-y,-z
x,-y,z
1/2+x,1/2+y,z
1/2-x,1/2+y,-z
1/2-x,1/2-y,-z
1/2+x,1/2-y,z
loop_
_atom_site_type_symbol
_atom_site_label
_atom_site_fract_x
_atom_site_fract_y
_atom_site_fract_z
Si Si1 0.019791 0.831143 0.936208
Si Si2 0.288219 0.664509 0.749119
Si Si3 0.595900 0.831665 0.632138
Si Si4 0.960804 0.664804 0.745791
Si Si5 0.287120 0.665148 0.626077
Si Si6 0.533932 0.829695 0.435568
Si Si7 0.405481 0.835522 0.872209
Si Si8 0.285103 0.668619 0.142470
O O1 0.122411 0.784227 0.903684
O O2 0.945057 0.760072 0.912138
O O3 0.007377 0.000000 0.932128
O O4 0.000000 0.779503 0.000000
O O5 0.290604 0.500000 0.767683
O O6 0.387406 0.730392 0.734540
O O7 0.258320 0.678770 0.693383
O O8 0.218534 0.749288 0.800187
O O9 0.553917 0.796222 0.698527
O O10 0.699054 0.776498 0.610238
O O11 0.536141 0.765049 0.595164
O O12 0.598057 0.000000 0.623034
O O13 0.931383 0.500000 0.739653
O O14 0.968978 0.688149 0.808125
O O15 0.310908 0.500000 0.607965
O O16 0.368534 0.764851 0.593662
O O17 0.500000 0.780882 0.500000
O O18 0.543055 0.000000 0.429391
O O19 0.301925 0.789054 0.877881
O O20 0.407762 0.000000 0.890719
O O21 0.282569 0.500000 0.155165
#
# Coordination Sequence:
#
# PCOD8087090 Si02
#       8
#     8   8   8   8   8   8   8   8
#     4  10  22  39  57  79 110 147 185 224 271 324
#     4  10  19  31  53  83 112 136 177 228 268 317
#     4   9  18  34  55  78 109 147 179 214 272 331
#     4   9  17  33  57  78 108 150 180 211 273 338
#     4  10  21  35  54  81 110 144 180 220 274 328
#     4  10  21  38  59  80 106 145 191 230 265 319
#     4   9  19  34  55  81 107 140 184 222 264 327
#     4   9  20  38  56  77 109 148 180 214 274 334
#
# _framework density 18.662669999999999
#
# number of rings (size 3 to 8) (size 9 to 14) (size 15 to 20)
#    0.000    2.500    1.250    1.125    1.750    4.500 
#    0.000    1.250    0.000    0.000    0.000    0.000 
#    0.000    0.000    0.000    0.000    0.000    0.000 
#
# Total GULP energy -396720.614342 kJ/mol
# GULP energy per Si atom -12397.519198 kJ/mol
# Density = 1.862019 g / cm^3
# Si number density = 18.662670 Si / 1000 Ang^3
#
#
#
# Elastic Constant Matrix: (Units=GPa)
#
#
# Indices 1 2 3 4 5 6 
#
# 1 123.7937 32.9488 63.5126 0.0000 -6.3892 0.0000
# 2 32.9488 44.2092 35.8343 0.0000 -1.0792 0.0000
# 3 63.5126 35.8343 113.7100 0.0000 -4.4175 0.0000
# 4 0.0000 0.0000 0.0000 24.1273 0.0000 1.9058
# 5 -6.3892 -1.0792 -4.4175 0.0000 19.6346 0.0000
# 6 0.0000 0.0000 0.0000 1.9058 0.0000 21.7545
#
#
#
# Elastic Compliance Matrix: (Units=1/GPa)
#
#
# Indices 1 2 3 4 5 6 
#
# 1 0.012136 -0.004793 -0.005170 0.000000 0.002523 0.000000
# 2 -0.004793 0.032277 -0.007553 0.000000 -0.001485 0.000000
# 3 -0.005170 -0.007553 0.014104 0.000000 0.001076 0.000000
# 4 0.000000 0.000000 0.000000 0.041736 0.000000 -0.003656
# 5 0.002523 -0.001485 0.001076 0.000000 0.051912 0.000000
# 6 0.000000 0.000000 0.000000 -0.003656 0.000000 0.046288
#
#
# Mechanical properties :
#
#
# Convention : Reuss Voigt Hill
#
# Bulk Modulus (GPa) = 42.57758 60.70047 51.63902
# Shear Modulus (GPa) = 20.71996 23.06442 21.89219
#
# Velocity S-wave (km/s) = 3.33563 3.51929 3.42869
# Velocity P-wave (km/s) = 6.13996 7.00782 6.58820
#
# Compressibility (1/GPa) = 0.02348654
#
# Stress axis : x y z
#
# Youngs Moduli (GPa) = 82.39621 30.98160 70.90117
#
# Poissons Ratio (x) = 0.14848 0.36659
# Poissons Ratio (y) = 0.39490 0.53548
# Poissons Ratio (z) = 0.42603 0.23399
#
# Static dielectric constant tensor:
#      x y z
#    x 3.539210 0.000000 0.004910 
#    y 0.000000 3.251530 0.000000 
#    z 0.004910 0.000000 3.538830 
# 
# 
# High freq. dielectric constant tensor:
#      x y z
#    x 1.727340 0.000000 -0.002930 
#    y 0.000000 1.705440 0.000000 
#    z -0.002930 0.000000 1.724340 
# 
# From -- ./inp_files/359748.got.cif
#   From: 2010.06.25/outbox.cif.g09.slc.cpg/sg12_180_cif.got.tgz:359748.got - 2010.06.28 00:19:55.
