data_PCOD8087676
_publ_section_title
;
Structure prediction by ZEFSAII (Michael W. Deem and Ramdas Pophale) SiO2 
 PCOD8087676
Probable space group: C 2/M
;
_chemical_formula_sum "Si O2"
_cell_formula_units_Z 40
_cell_length_a 5.165953
_cell_length_b 14.085098
_cell_length_c 26.726579
_cell_angle_alpha 90.000000
_cell_angle_beta 73.273646
_cell_angle_gamma 90.000000
_cell_volume 1862.424807
_symmetry_space_group_name_H-M "C 2/M"
_symmetry_group_IT_number 12
_symmetry_cell_setting 'monoclinic'
loop_
_space_group_symop_operation_xyz
x,y,z
-x,y,-z
-x,-y,-z
x,-y,z
1/2+x,1/2+y,z
1/2-x,1/2+y,-z
1/2-x,1/2-y,-z
1/2+x,1/2-y,z
loop_
_atom_site_type_symbol
_atom_site_label
_atom_site_fract_x
_atom_site_fract_y
_atom_site_fract_z
Si Si1 0.781717 0.687837 0.611231
Si Si2 0.670724 0.391047 0.721793
Si Si3 0.583746 0.886228 0.780360
Si Si4 0.000000 0.685761 0.500000
Si Si5 0.898974 0.311404 0.896474
Si Si6 0.197025 0.500000 0.035565
O O1 0.484973 0.726931 0.614209
O O2 0.755489 0.618237 0.659387
O O3 0.906404 0.629711 0.555810
O O4 0.647818 0.500000 0.736370
O O5 0.379711 0.345940 0.750083
O O6 0.895183 0.347254 0.746012
O O7 0.489156 0.837284 0.835984
O O8 0.575348 0.000000 0.786232
O O9 0.250000 0.750000 0.500000
O O10 0.622803 0.252209 0.911364
O O11 0.856827 0.407513 0.928790
O O12 0.500000 0.500000 0.000000
O O13 0.000000 0.500000 0.000000
#
# Coordination Sequence:
#
# PCOD8087676 Si02
#       6
#     8   8   8   4   8   4
#     4  10  19  32  51  74 104 141 191 244 292 356
#     4  10  21  34  55  82 117 155 191 241 305 365
#     4  10  21  40  59  84 125 164 195 245 312 370
#     4   8  16  30  47  68  97 140 184 236 300 350
#     4  12  26  44  72 103 132 172 222 263 312 382
#     4  12  28  50  74 100 140 178 212 267 322 363
#
# _framework density 21.477376
#
# number of rings (size 3 to 8) (size 9 to 14) (size 15 to 20)
#    0.000    1.600    1.000    3.600    0.000    7.200 
#    0.000    0.500    0.000    0.000    0.000   12.600 
#    0.000    0.000    0.000    0.000    0.000    0.000 
#
# Total GULP energy -247888.828878 kJ/mol
# GULP energy per Si atom -12394.441444 kJ/mol
# Density = 2.142849 g / cm^3
# Si number density = 21.477376 Si / 1000 Ang^3
#
#
#
# Elastic Constant Matrix: (Units=GPa)
#
#
# Indices 1 2 3 4 5 6 
#
# 1 167.2005 23.7834 56.8251 0.0000 29.6199 0.0000
# 2 23.7834 69.6185 48.0404 0.0000 26.4788 0.0000
# 3 56.8251 48.0404 168.3973 0.0000 8.2808 0.0000
# 4 0.0000 0.0000 0.0000 43.4386 0.0000 0.1224
# 5 29.6199 26.4788 8.2808 0.0000 -15.1730 0.0000
# 6 0.0000 0.0000 0.0000 0.1224 0.0000 4.6253
#
#
#
# Elastic Compliance Matrix: (Units=1/GPa)
#
#
# Indices 1 2 3 4 5 6 
#
# 1 0.005940 -0.003127 -0.001377 0.000000 0.005386 0.000000
# 2 -0.003127 0.012371 -0.003151 0.000000 0.013765 0.000000
# 3 -0.001377 -0.003151 0.007503 0.000000 -0.004092 0.000000
# 4 0.000000 0.000000 0.000000 0.023023 0.000000 -0.000609
# 5 0.005386 0.013765 -0.004092 0.000000 -0.033605 0.000000
# 6 0.000000 0.000000 0.000000 -0.000609 0.000000 0.216217
#
#
# Mechanical properties :
#
#
# Convention : Reuss Voigt Hill
#
# Bulk Modulus (GPa) = 95.20527 73.61268 84.40898
# Shear Modulus (GPa) = 19.97919 25.01601 22.49760
#
# Velocity S-wave (km/s) = 3.05330 3.41656 3.24003
# Velocity P-wave (km/s) = 7.54020 7.06490 7.30641
#
# Compressibility (1/GPa) = 0.01050362
#
# Stress axis : x y z
#
# Youngs Moduli (GPa) = 168.36240 80.83229 133.27886
#
# Poissons Ratio (x) = 0.25279 0.18352
# Poissons Ratio (y) = 0.52653 0.41994
# Poissons Ratio (z) = 0.23183 0.25469
#
# Static dielectric constant tensor:
#      x y z
#    x 2.996170 0.000000 0.491390 
#    y 0.000000 3.318260 0.000000 
#    z 0.491390 0.000000 4.134880 
# 
# 
# High freq. dielectric constant tensor:
#      x y z
#    x 1.867930 0.000000 0.000380 
#    y 0.000000 1.815260 0.000000 
#    z 0.000380 0.000000 1.865690 
# 
# From -- ./inp_files/330860.got.cif
#   From: 2010.06.25/outbox.cif.g09.slc.cpg/sg12_166_cif.got.tgz:330860.got - 2010.06.28 00:19:55.
