data_PCOD8087710
_publ_section_title
;
Structure prediction by ZEFSAII (Michael W. Deem and Ramdas Pophale) SiO2 
 PCOD8087710
Probable space group: C 2/M
;
_chemical_formula_sum "Si O2"
_cell_formula_units_Z 64
_cell_length_a 18.242222
_cell_length_b 8.971982
_cell_length_c 20.827604
_cell_angle_alpha 90.000000
_cell_angle_beta 89.888073
_cell_angle_gamma 90.000000
_cell_volume 3408.824270
_symmetry_space_group_name_H-M "C 2/M"
_symmetry_group_IT_number 12
_symmetry_cell_setting 'monoclinic'
loop_
_space_group_symop_operation_xyz
x,y,z
-x,y,-z
-x,-y,-z
x,-y,z
1/2+x,1/2+y,z
1/2-x,1/2+y,-z
1/2-x,1/2-y,-z
1/2+x,1/2-y,z
loop_
_atom_site_type_symbol
_atom_site_label
_atom_site_fract_x
_atom_site_fract_y
_atom_site_fract_z
Si Si1 0.713224 0.673584 0.939660
Si Si2 0.457032 0.323203 0.561206
Si Si3 0.212523 0.824792 0.681115
Si Si4 0.285957 0.169309 0.189137
Si Si5 0.458782 0.672187 0.062160
Si Si6 0.458445 0.326190 0.315423
Si Si7 0.288715 0.677359 0.560550
Si Si8 0.039710 0.333343 0.811681
O O1 0.733462 0.500000 0.937579
O O2 0.743958 0.750110 0.874780
O O3 0.626974 0.699756 0.946314
O O4 0.750000 0.750000 0.000000
O O5 0.500000 0.256064 0.500000
O O6 0.464009 0.500000 0.560920
O O7 0.495526 0.260463 0.625221
O O8 0.373157 0.272490 0.558682
O O9 0.241654 0.760446 0.748756
O O10 0.254247 0.738634 0.625474
O O11 0.126689 0.791447 0.672233
O O12 0.229364 0.000000 0.677768
O O13 0.373081 0.171665 0.187813
O O14 0.256093 0.000000 0.191864
O O15 0.477678 0.500000 0.071388
O O16 0.490716 0.754346 0.124581
O O17 0.500000 0.737864 0.000000
O O18 0.471620 0.500000 0.305969
O O19 0.489449 0.248768 0.251545
O O20 0.279987 0.500000 0.557541
O O21 0.250000 0.750000 0.500000
O O22 0.009073 0.500000 0.810797
#
# Coordination Sequence:
#
# PCOD8087710 Si02
#       8
#     8   8   8   8   8   8   8   8
#     4  10  19  32  51  75 103 135 173 215 258 304
#     4   9  18  34  55  77 100 131 172 210 244 290
#     4  10  19  33  55  80 104 131 166 209 255 303
#     4   9  17  31  51  75 103 134 170 210 253 304
#     4   9  18  33  52  73  98 132 173 211 248 299
#     4   9  17  32  55  77  98 130 170 208 246 296
#     4  11  22  36  55  78 105 136 170 209 252 299
#     4   9  17  29  48  75 104 131 162 206 256 302
#
# _framework density 18.774802000000001
#
# number of rings (size 3 to 8) (size 9 to 14) (size 15 to 20)
#    0.000    2.500    0.000    2.625    0.000    6.250 
#    0.000    2.500    0.000    5.625    0.000    0.000 
#    0.000    0.000    0.000    0.000    0.000    0.000 
#
# Total GULP energy -396823.411676 kJ/mol
# GULP energy per Si atom -12400.731615 kJ/mol
# Density = 1.873207 g / cm^3
# Si number density = 18.774802 Si / 1000 Ang^3
#
#
#
# Elastic Constant Matrix: (Units=GPa)
#
#
# Indices 1 2 3 4 5 6 
#
# 1 63.4580 45.4322 68.0230 0.0000 1.3445 0.0000
# 2 45.4322 99.8686 78.3513 0.0000 0.9236 0.0000
# 3 68.0230 78.3513 215.6919 0.0000 2.7637 0.0000
# 4 0.0000 0.0000 0.0000 35.4276 0.0000 -0.9206
# 5 1.3445 0.9236 2.7637 0.0000 33.3125 0.0000
# 6 0.0000 0.0000 0.0000 -0.9206 0.0000 20.0020
#
#
#
# Elastic Compliance Matrix: (Units=1/GPa)
#
#
# Indices 1 2 3 4 5 6 
#
# 1 0.027790 -0.008065 -0.005829 0.000000 -0.000414 0.000000
# 2 -0.008065 0.016345 -0.003396 0.000000 0.000154 0.000000
# 3 -0.005829 -0.003396 0.007712 0.000000 -0.000310 0.000000
# 4 0.000000 0.000000 0.000000 0.028260 0.000000 0.001301
# 5 -0.000414 0.000154 -0.000310 0.000000 0.030057 0.000000
# 6 0.000000 0.000000 0.000000 0.001301 0.000000 0.050055
#
#
# Mechanical properties :
#
#
# Convention : Reuss Voigt Hill
#
# Bulk Modulus (GPa) = 57.91496 84.73683 71.32589
# Shear Modulus (GPa) = 24.93084 30.22922 27.58003
#
# Velocity S-wave (km/s) = 3.64797 4.01695 3.83690
# Velocity P-wave (km/s) = 6.97551 8.16981 7.59617
#
# Compressibility (1/GPa) = 0.01726670
#
# Stress axis : x y z
#
# Youngs Moduli (GPa) = 35.98437 61.18115 129.66630
#
# Poissons Ratio (x) = 0.49343 0.75584
# Poissons Ratio (y) = 0.29022 0.44033
# Poissons Ratio (z) = 0.20976 0.20776
#
# Static dielectric constant tensor:
#      x y z
#    x 3.233590 0.000000 0.003610 
#    y 0.000000 3.448640 0.000000 
#    z 0.003610 0.000000 3.690360 
# 
# 
# High freq. dielectric constant tensor:
#      x y z
#    x 1.696160 0.000000 0.000100 
#    y 0.000000 1.725270 0.000000 
#    z 0.000100 0.000000 1.751360 
# 
# From -- ./inp_files/314058.got.cif
#   From: 2010.06.25/outbox.cif.g09.slc.cpg/sg12_158_cif.got.tgz:314058.got - 2010.06.28 00:19:55.
