data_PCOD8087045
_publ_section_title
;
Structure prediction by ZEFSAII (Michael W. Deem and Ramdas Pophale) SiO2 
 PCOD8087045
Probable space group: C 2/M
;
_chemical_formula_sum "Si O2"
_cell_formula_units_Z 56
_cell_length_a 20.739364
_cell_length_b 8.678495
_cell_length_c 17.624093
_cell_angle_alpha 90.000000
_cell_angle_beta 109.460505
_cell_angle_gamma 90.000000
_cell_volume 2990.880591
_symmetry_space_group_name_H-M "C 2/M"
_symmetry_group_IT_number 12
_symmetry_cell_setting 'monoclinic'
loop_
_space_group_symop_operation_xyz
x,y,z
-x,y,-z
-x,-y,-z
x,-y,z
1/2+x,1/2+y,z
1/2-x,1/2+y,-z
1/2-x,1/2-y,-z
1/2+x,1/2-y,z
loop_
_atom_site_type_symbol
_atom_site_label
_atom_site_fract_x
_atom_site_fract_y
_atom_site_fract_z
Si Si1 0.676825 0.681690 0.991578
Si Si2 0.065265 0.819073 0.241764
Si Si3 0.179555 0.680847 0.735626
Si Si4 0.173277 0.818087 0.161747
Si Si5 0.297897 0.178391 0.421299
Si Si6 0.344405 0.822238 0.601057
Si Si7 0.082948 0.317792 0.828308
O O1 0.681663 0.500000 0.984274
O O2 0.656345 0.728943 0.069070
O O3 0.750000 0.750000 0.000000
O O4 0.617423 0.746921 0.915904
O O5 0.114793 0.754424 0.194852
O O6 0.098608 0.781760 0.336333
O O7 0.994992 0.730264 0.205914
O O8 0.051885 0.000000 0.229570
O O9 0.183105 0.500000 0.751118
O O10 0.253290 0.753301 0.786000
O O11 0.161915 0.718328 0.640780
O O12 0.121306 0.748278 0.768210
O O13 0.176417 0.000000 0.173385
O O14 0.347591 0.212207 0.511839
O O15 0.230757 0.282771 0.398050
O O16 0.273910 0.000000 0.412390
O O17 0.360106 0.000000 0.624568
O O18 0.088741 0.500000 0.835864
#
# Coordination Sequence:
#
# PCOD8087045 Si02
#       7
#     8   8   8   8   8   8   8
#     4  11  21  37  59  85 112 143 185 229 275 323
#     4  11  22  39  59  79 110 151 188 222 271 334
#     4   9  16  33  58  82 106 144 188 223 263 325
#     4   9  18  34  59  82 105 144 190 224 260 326
#     4   9  17  32  56  82 109 145 188 224 264 325
#     4  10  19  31  52  85 116 141 177 231 281 317
#     4  11  23  39  58  82 114 145 181 231 280 327
#
# _framework density 18.723583000000001
#
# number of rings (size 3 to 8) (size 9 to 14) (size 15 to 20)
#    0.000    2.000    2.857    1.714    0.000    1.143 
#    0.000    9.286    0.000    4.286    0.000    0.000 
#    0.000    0.000    0.000    0.000    0.000    0.000 
#
# Total GULP energy -347180.478250 kJ/mol
# GULP energy per Si atom -12399.302795 kJ/mol
# Density = 1.868097 g / cm^3
# Si number density = 18.723583 Si / 1000 Ang^3
#
#
#
# Elastic Constant Matrix: (Units=GPa)
#
#
# Indices 1 2 3 4 5 6 
#
# 1 122.9610 15.0396 74.9003 0.0000 -11.7638 0.0000
# 2 15.0396 39.8213 33.5489 0.0000 -9.4120 0.0000
# 3 74.9003 33.5489 159.3284 0.0000 -11.4538 0.0000
# 4 0.0000 0.0000 0.0000 30.9648 0.0000 4.5762
# 5 -11.7638 -9.4120 -11.4538 0.0000 27.1221 0.0000
# 6 0.0000 0.0000 0.0000 4.5762 0.0000 27.2013
#
#
#
# Elastic Compliance Matrix: (Units=1/GPa)
#
#
# Indices 1 2 3 4 5 6 
#
# 1 0.011626 0.000914 -0.005438 0.000000 0.003064 0.000000
# 2 0.000914 0.032441 -0.006624 0.000000 0.008857 0.000000
# 3 -0.005438 -0.006624 0.010202 0.000000 -0.000349 0.000000
# 4 0.000000 0.000000 0.000000 0.033118 0.000000 -0.005572
# 5 0.003064 0.008857 -0.000349 0.000000 0.041125 0.000000
# 6 0.000000 0.000000 0.000000 -0.005572 0.000000 0.037700
#
#
# Mechanical properties :
#
#
# Convention : Reuss Voigt Hill
#
# Bulk Modulus (GPa) = 31.27480 63.23205 47.25342
# Shear Modulus (GPa) = 25.10462 30.29911 27.70187
#
# Velocity S-wave (km/s) = 3.66567 4.02709 3.85062
# Velocity P-wave (km/s) = 5.88692 7.44768 6.71282
#
# Compressibility (1/GPa) = 0.03197463
#
# Stress axis : x y z
#
# Youngs Moduli (GPa) = 86.01176 30.82529 98.01627
#
# Poissons Ratio (x) = -0.02819 0.53300
# Poissons Ratio (y) = -0.07865 0.64927
# Poissons Ratio (z) = 0.46772 0.20419
#
# Static dielectric constant tensor:
#      x y z
#    x 3.415390 0.000000 -0.237330 
#    y 0.000000 3.617340 0.000000 
#    z -0.237330 0.000000 3.847380 
# 
# 
# High freq. dielectric constant tensor:
#      x y z
#    x 1.711360 0.000000 -0.010300 
#    y 0.000000 1.708280 0.000000 
#    z -0.010300 0.000000 1.743560 
# 
# From -- ./inp_files/275594.got.cif
#   From: 2010.06.25/outbox.cif.g09.slc.cpg/sg12_138_cif.got.tgz:275594.got - 2010.06.28 00:19:55.
