data_PCOD8087154
_publ_section_title
;
Structure prediction by ZEFSAII (Michael W. Deem and Ramdas Pophale) SiO2 
 PCOD8087154
Probable space group: C 2/M
;
_chemical_formula_sum "Si O2"
_cell_formula_units_Z 56
_cell_length_a 22.726578
_cell_length_b 22.987219
_cell_length_c 11.318392
_cell_angle_alpha 90.000000
_cell_angle_beta 151.477075
_cell_angle_gamma 90.000000
_cell_volume 2823.501371
_symmetry_space_group_name_H-M "C 2/M"
_symmetry_group_IT_number 12
_symmetry_cell_setting 'monoclinic'
loop_
_space_group_symop_operation_xyz
x,y,z
-x,y,-z
-x,-y,-z
x,-y,z
1/2+x,1/2+y,z
1/2-x,1/2+y,-z
1/2-x,1/2-y,-z
1/2+x,1/2-y,z
loop_
_atom_site_type_symbol
_atom_site_label
_atom_site_fract_x
_atom_site_fract_y
_atom_site_fract_z
Si Si1 0.859559 0.761049 0.290523
Si Si2 0.191414 0.126701 0.655759
Si Si3 0.689417 0.436006 0.888899
Si Si4 0.975423 0.935131 0.189561
Si Si5 0.769882 0.567278 0.371312
Si Si6 0.139028 0.432666 0.214272
Si Si7 0.382623 0.867981 0.368991
O O1 0.809175 0.807568 0.296970
O O2 0.880019 0.700389 0.392966
O O3 0.000000 0.781301 0.500000
O O4 0.750000 0.750000 0.000000
O O5 0.165196 0.080511 0.712208
O O6 0.320009 0.110956 0.818295
O O7 0.084465 0.112291 0.370956
O O8 0.752700 0.500000 0.006931
O O9 0.564356 0.437557 0.743266
O O10 0.769800 0.385099 0.087136
O O11 0.019496 0.000000 0.227360
O O12 0.865034 0.913174 0.910510
O O13 0.790722 0.500000 0.378720
O O14 0.779635 0.580447 0.526439
O O15 0.876201 0.600148 0.484178
O O16 0.152622 0.500000 0.198325
O O17 0.000000 0.417504 0.000000
O O18 0.500000 0.886749 0.500000
#
# Coordination Sequence:
#
# PCOD8087154 Si02
#       7
#     8   8   8   8   8   8   8
#     4  11  24  41  63  93 127 165 207 261 317 370
#     4  12  22  36  60  87 120 164 207 249 307 370
#     4  10  19  31  54  90 123 149 192 251 312 374
#     4   9  18  33  56  88 121 151 192 253 310 366
#     4   9  20  38  59  87 125 159 199 255 311 369
#     4  10  23  40  60  89 127 169 207 251 307 372
#     4  10  21  36  57  86 119 159 205 245 310 373
#
# _framework density 19.83353
#
# number of rings (size 3 to 8) (size 9 to 14) (size 15 to 20)
#    0.000    1.857    1.429    3.857    4.000    2.857 
#    0.000    2.857    0.000    0.000    0.000    0.000 
#    0.000    0.000    0.000    0.000    0.000    0.000 
#
# Total GULP energy -346973.199126 kJ/mol
# GULP energy per Si atom -12391.899969 kJ/mol
# Density = 1.978839 g / cm^3
# Si number density = 19.833530 Si / 1000 Ang^3
#
#
#
# Elastic Constant Matrix: (Units=GPa)
#
#
# Indices 1 2 3 4 5 6 
#
# 1 62.1631 39.0146 37.0527 0.0000 8.5467 0.0000
# 2 39.0146 98.8929 25.0747 0.0000 8.2574 0.0000
# 3 37.0527 25.0747 84.0123 0.0000 6.5783 0.0000
# 4 0.0000 0.0000 0.0000 18.4177 0.0000 10.2837
# 5 8.5467 8.2574 6.5783 0.0000 25.5312 0.0000
# 6 0.0000 0.0000 0.0000 10.2837 0.0000 24.4307
#
#
#
# Elastic Compliance Matrix: (Units=1/GPa)
#
#
# Indices 1 2 3 4 5 6 
#
# 1 0.027242 -0.008047 -0.009290 0.000000 -0.004123 0.000000
# 2 -0.008047 0.013510 -0.000359 0.000000 -0.001583 0.000000
# 3 -0.009290 -0.000359 0.016181 0.000000 -0.000943 0.000000
# 4 0.000000 0.000000 0.000000 0.070977 0.000000 -0.029877
# 5 -0.004123 -0.001583 -0.000943 0.000000 0.041303 0.000000
# 6 0.000000 0.000000 0.000000 -0.029877 0.000000 0.053508
#
#
# Mechanical properties :
#
#
# Convention : Reuss Voigt Hill
#
# Bulk Modulus (GPa) = 46.42520 49.70582 48.06551
# Shear Modulus (GPa) = 18.84702 23.27102 21.05902
#
# Velocity S-wave (km/s) = 3.08597 3.42909 3.26204
# Velocity P-wave (km/s) = 6.01298 6.38703 6.20282
#
# Compressibility (1/GPa) = 0.02154003
#
# Stress axis : x y z
#
# Youngs Moduli (GPa) = 36.70865 74.01933 61.79996
#
# Poissons Ratio (x) = 0.59566 0.57411
# Poissons Ratio (y) = 0.29541 0.02219
# Poissons Ratio (z) = 0.34102 0.02658
#
# Static dielectric constant tensor:
#      x y z
#    x 3.531790 0.000000 0.034680 
#    y 0.000000 3.515210 0.000000 
#    z 0.034680 0.000000 3.725670 
# 
# 
# High freq. dielectric constant tensor:
#      x y z
#    x 1.757830 0.000000 0.005060 
#    y 0.000000 1.756390 0.000000 
#    z 0.005060 0.000000 1.779870 
# 
# From -- ./inp_files/177951.got.cif
#   From: 2010.06.25/outbox.cif.g09.slc.cpg/sg12_89_cif.got.tgz:177951.got - 2010.06.28 00:19:55.
