data_PCOD8087113
_publ_section_title
;
Structure prediction by ZEFSAII (Michael W. Deem and Ramdas Pophale) SiO2 
 PCOD8087113
Probable space group: C 2/M
;
_chemical_formula_sum "Si O2"
_cell_formula_units_Z 56
_cell_length_a 26.246323
_cell_length_b 8.960986
_cell_length_c 13.086100
_cell_angle_alpha 90.000000
_cell_angle_beta 113.696132
_cell_angle_gamma 90.000000
_cell_volume 2818.271601
_symmetry_space_group_name_H-M "C 2/M"
_symmetry_group_IT_number 12
_symmetry_cell_setting 'monoclinic'
loop_
_space_group_symop_operation_xyz
x,y,z
-x,y,-z
-x,-y,-z
x,-y,z
1/2+x,1/2+y,z
1/2-x,1/2+y,-z
1/2-x,1/2-y,-z
1/2+x,1/2-y,z
loop_
_atom_site_type_symbol
_atom_site_label
_atom_site_fract_x
_atom_site_fract_y
_atom_site_fract_z
Si Si1 0.444749 0.671912 0.817707
Si Si2 0.222510 0.173062 0.259093
Si Si3 0.873820 0.830045 0.961465
Si Si4 0.051318 0.174482 0.613093
Si Si5 0.347717 0.171455 0.633545
Si Si6 0.448592 0.175901 0.169056
Si Si7 0.654800 0.830964 0.604632
O O1 0.456902 0.500000 0.802106
O O2 0.418299 0.692557 0.907228
O O3 0.403618 0.735469 0.698518
O O4 0.502218 0.760909 0.861631
O O5 0.187072 0.217489 0.129659
O O6 0.203463 0.269584 0.340548
O O7 0.287513 0.201196 0.288892
O O8 0.210349 0.000000 0.276166
O O9 0.873638 0.000000 0.999812
O O10 0.890343 0.726885 0.070698
O O11 0.045431 0.263820 0.712460
O O12 0.108761 0.215566 0.604250
O O13 0.000000 0.220883 0.500000
O O14 0.050817 0.000000 0.636937
O O15 0.331549 0.191446 0.503044
O O16 0.359243 0.000000 0.671135
O O17 0.451180 0.000000 0.174691
O O18 0.634252 0.000000 0.609836
#
# Coordination Sequence:
#
# PCOD8087113 Si02
#       7
#     8   8   8   8   8   8   8
#     4  10  20  35  56  82 115 152 187 226 275 331
#     4   9  19  36  57  82 115 152 186 225 274 328
#     4   9  19  36  57  81 112 149 186 225 270 325
#     4  11  25  43  62  83 108 143 186 228 272 329
#     4  10  19  31  53  86 120 150 183 228 277 327
#     4  12  24  37  57  83 112 145 183 231 281 330
#     4  10  21  37  57  83 114 148 187 231 279 325
#
# _framework density 19.870332999999999
#
# number of rings (size 3 to 8) (size 9 to 14) (size 15 to 20)
#    0.000    1.857    0.000    5.143    0.000    9.714 
#    0.000    0.714    0.000    0.000    0.000    0.000 
#    0.000    0.000    0.000    0.000    0.000    0.000 
#
# Total GULP energy -347296.096473 kJ/mol
# GULP energy per Si atom -12403.432017 kJ/mol
# Density = 1.982511 g / cm^3
# Si number density = 19.870333 Si / 1000 Ang^3
#
#
#
# Elastic Constant Matrix: (Units=GPa)
#
#
# Indices 1 2 3 4 5 6 
#
# 1 87.1641 41.6151 44.4651 0.0000 23.3914 0.0000
# 2 41.6151 121.5279 66.0086 0.0000 10.5151 0.0000
# 3 44.4651 66.0086 113.3355 0.0000 24.9761 0.0000
# 4 0.0000 0.0000 0.0000 31.1253 0.0000 -2.6476
# 5 23.3914 10.5151 24.9761 0.0000 25.4437 0.0000
# 6 0.0000 0.0000 0.0000 -2.6476 0.0000 17.0527
#
#
#
# Elastic Compliance Matrix: (Units=1/GPa)
#
#
# Indices 1 2 3 4 5 6 
#
# 1 0.017759 -0.003986 -0.001800 0.000000 -0.012912 0.000000
# 2 -0.003986 0.013050 -0.007217 0.000000 0.005356 0.000000
# 3 -0.001800 -0.007217 0.016220 0.000000 -0.011284 0.000000
# 4 0.000000 0.000000 0.000000 0.032558 0.000000 0.005055
# 5 -0.012912 0.005356 -0.011284 0.000000 0.060036 0.000000
# 6 0.000000 0.000000 0.000000 0.005055 0.000000 0.059427
#
#
# Mechanical properties :
#
#
# Convention : Reuss Voigt Hill
#
# Bulk Modulus (GPa) = 47.56944 69.57833 58.57389
# Shear Modulus (GPa) = 21.54570 26.05358 23.79964
#
# Velocity S-wave (km/s) = 3.29647 3.62495 3.46460
# Velocity P-wave (km/s) = 6.20329 7.25345 6.74883
#
# Compressibility (1/GPa) = 0.02102190
#
# Stress axis : x y z
#
# Youngs Moduli (GPa) = 56.30831 76.62752 61.65354
#
# Poissons Ratio (x) = 0.30546 0.11100
# Poissons Ratio (y) = 0.22446 0.44495
# Poissons Ratio (z) = 0.10137 0.55302
#
# Static dielectric constant tensor:
#      x y z
#    x 3.538600 0.000000 0.280630 
#    y 0.000000 3.672410 0.000000 
#    z 0.280630 0.000000 3.672130 
# 
# 
# High freq. dielectric constant tensor:
#      x y z
#    x 1.762300 0.000000 0.020440 
#    y 0.000000 1.777500 0.000000 
#    z 0.020440 0.000000 1.778570 
# 
# From -- ./inp_files/181010.got.cif
#   From: 2010.06.25/outbox.cif.g09.slc.cpg/sg12_91_cif.got.tgz:181010.got - 2010.06.28 00:19:55.
