data_PCOD8087564
_publ_section_title
;
Structure prediction by ZEFSAII (Michael W. Deem and Ramdas Pophale) SiO2 
 PCOD8087564
Probable space group: C 2/M
;
_chemical_formula_sum "Si O2"
_cell_formula_units_Z 56
_cell_length_a 20.436647
_cell_length_b 8.980536
_cell_length_c 17.976929
_cell_angle_alpha 90.000000
_cell_angle_beta 109.631464
_cell_angle_gamma 90.000000
_cell_volume 3107.561964
_symmetry_space_group_name_H-M "C 2/M"
_symmetry_group_IT_number 12
_symmetry_cell_setting 'monoclinic'
loop_
_space_group_symop_operation_xyz
x,y,z
-x,y,-z
-x,-y,-z
x,-y,z
1/2+x,1/2+y,z
1/2-x,1/2+y,-z
1/2-x,1/2-y,-z
1/2+x,1/2-y,z
loop_
_atom_site_type_symbol
_atom_site_label
_atom_site_fract_x
_atom_site_fract_y
_atom_site_fract_z
Si Si1 0.143575 0.176283 0.090395
Si Si2 0.080678 0.664244 0.510485
Si Si3 0.199603 0.323006 0.845589
Si Si4 0.437984 0.826166 0.813543
Si Si5 0.610296 0.821582 0.677610
Si Si6 0.958559 0.677538 0.657490
Si Si7 0.408125 0.825792 0.073185
O O1 0.222505 0.235522 0.112496
O O2 0.114226 0.229689 0.157763
O O3 0.140454 0.000000 0.085686
O O4 0.097105 0.242644 0.007086
O O5 0.112951 0.500000 0.514669
O O6 0.119443 0.742853 0.596005
O O7 0.000000 0.652860 0.500000
O O8 0.085691 0.743175 0.430525
O O9 0.196261 0.500000 0.843910
O O10 0.171462 0.263518 0.755037
O O11 0.150963 0.263387 0.893658
O O12 0.424853 0.775789 0.723092
O O13 0.517265 0.789997 0.864092
O O14 0.422196 0.000000 0.819628
O O15 0.537729 0.763890 0.684489
O O16 0.609471 0.000000 0.673293
O O17 0.960392 0.500000 0.651484
O O18 0.398468 0.000000 0.054719
#
# Coordination Sequence:
#
# PCOD8087564 Si02
#       7
#     8   8   8   8   8   8   8
#     4  11  23  34  45  66  96 125 152 187 232 276
#     4   7  10  15  31  62  95 115 132 175 233 269
#     4   9  17  30  47  66  90 121 154 187 226 274
#     4  10  19  32  51  70  91 121 155 189 226 271
#     4   8  11  20  39  64  91 116 144 182 226 267
#     4   8  12  21  39  66  93 115 143 183 228 265
#     4  10  19  34  54  70  85 114 159 199 230 267
#
# _framework density 18.020558000000001
#
# number of rings (size 3 to 8) (size 9 to 14) (size 15 to 20)
#    0.000    3.000    1.429    3.000    0.000    2.286 
#    0.000    0.714    0.000    0.857    0.000    0.000 
#    0.000    7.429    0.000    0.000    0.000    0.143 
#
# Total GULP energy -346879.424595 kJ/mol
# GULP energy per Si atom -12388.550878 kJ/mol
# Density = 1.797954 g / cm^3
# Si number density = 18.020558 Si / 1000 Ang^3
#
#
#
# Elastic Constant Matrix: (Units=GPa)
#
#
# Indices 1 2 3 4 5 6 
#
# 1 60.7524 14.9462 20.6474 0.0000 -18.8282 0.0000
# 2 14.9462 16.2319 14.4569 0.0000 -3.1461 0.0000
# 3 20.6474 14.4569 139.3220 0.0000 -21.3137 0.0000
# 4 0.0000 0.0000 0.0000 6.7010 0.0000 -2.4665
# 5 -18.8282 -3.1461 -21.3137 0.0000 21.0953 0.0000
# 6 0.0000 0.0000 0.0000 -2.4665 0.0000 16.5844
#
#
#
# Elastic Compliance Matrix: (Units=1/GPa)
#
#
# Indices 1 2 3 4 5 6 
#
# 1 0.029286 -0.023900 0.001885 0.000000 0.024478 0.000000
# 2 -0.023900 0.087612 -0.008059 0.000000 -0.016408 0.000000
# 3 0.001885 -0.008059 0.009236 0.000000 0.009811 0.000000
# 4 0.000000 0.000000 0.000000 0.157873 0.000000 0.023479
# 5 0.024478 -0.016408 0.009811 0.000000 0.076717 0.000000
# 6 0.000000 0.000000 0.000000 0.023479 0.000000 0.063789
#
#
# Mechanical properties :
#
#
# Convention : Reuss Voigt Hill
#
# Bulk Modulus (GPa) = 15.15530 35.15636 25.15583
# Shear Modulus (GPa) = 9.86861 19.95987 14.91424
#
# Velocity S-wave (km/s) = 2.34269 3.33170 2.87997
# Velocity P-wave (km/s) = 3.96810 5.86103 5.00487
#
# Compressibility (1/GPa) = 0.06598353
#
# Stress axis : x y z
#
# Youngs Moduli (GPa) = 34.14621 11.41398 108.27746
#
# Poissons Ratio (x) = 0.27280 -0.20406
# Poissons Ratio (y) = 0.81610 0.87263
# Poissons Ratio (z) = -0.06435 0.09199
#
# Static dielectric constant tensor:
#      x y z
#    x 3.159350 0.000000 -0.024190 
#    y 0.000000 2.698660 0.000000 
#    z -0.024190 0.000000 3.951360 
# 
# 
# High freq. dielectric constant tensor:
#      x y z
#    x 1.664100 0.000000 -0.004920 
#    y 0.000000 1.629940 0.000000 
#    z -0.004920 0.000000 1.728830 
# 
# From -- ./inp_files/280143.got.cif
#   From: 2010.06.25/outbox.cif.g09.slc.cpg/sg12_141_cif.got.tgz:280143.got - 2010.06.28 00:19:55.
