data_PCOD8087607
_publ_section_title
;
Structure prediction by ZEFSAII (Michael W. Deem and Ramdas Pophale) SiO2 
 PCOD8087607
Probable space group: C 2/M
;
_chemical_formula_sum "Si O2"
_cell_formula_units_Z 56
_cell_length_a 16.899514
_cell_length_b 13.443731
_cell_length_c 27.312816
_cell_angle_alpha 90.000000
_cell_angle_beta 149.319514
_cell_angle_gamma 90.000000
_cell_volume 3166.237971
_symmetry_space_group_name_H-M "C 2/M"
_symmetry_group_IT_number 12
_symmetry_cell_setting 'monoclinic'
loop_
_space_group_symop_operation_xyz
x,y,z
-x,y,-z
-x,-y,-z
x,-y,z
1/2+x,1/2+y,z
1/2-x,1/2+y,-z
1/2-x,1/2-y,-z
1/2+x,1/2-y,z
loop_
_atom_site_type_symbol
_atom_site_label
_atom_site_fract_x
_atom_site_fract_y
_atom_site_fract_z
Si Si1 0.273200 0.301866 0.194254
Si Si2 0.457504 0.886893 0.854908
Si Si3 0.134097 0.611003 0.438783
Si Si4 0.872993 0.791725 0.632000
Si Si5 0.255502 0.116161 0.924088
Si Si6 0.429733 0.703739 0.773872
Si Si7 0.780943 0.612503 0.257148
O O1 0.192026 0.373819 0.190127
O O2 0.455613 0.326429 0.292619
O O3 0.206862 0.321691 0.104916
O O4 0.239369 0.186525 0.190159
O O5 0.448513 0.816017 0.803207
O O6 0.463700 0.000000 0.839257
O O7 0.611018 0.858391 0.966542
O O8 0.159313 0.500000 0.432220
O O9 0.167238 0.683064 0.410720
O O10 0.250824 0.629903 0.545700
O O11 0.960703 0.625311 0.367149
O O12 0.855656 0.788990 0.680934
O O13 0.093941 0.148631 0.861678
O O14 0.251438 0.000000 0.908405
O O15 0.316342 0.638966 0.746757
O O16 0.743220 0.500000 0.220104
#
# Coordination Sequence:
#
# PCOD8087607 Si02
#       7
#     8   8   8   8   8   8   8
#     4   9  18  32  51  72  97 127 161 204 239 276
#     4  10  20  33  50  72  98 129 162 197 241 288
#     4   9  18  33  52  71  94 124 159 198 237 282
#     4   9  19  33  49  73  97 123 159 197 239 284
#     4  10  19  32  51  73  96 126 165 203 238 280
#     4  10  20  33  50  72 101 129 157 198 242 287
#     4   9  18  33  51  72  99 130 161 195 239 287
#
# _framework density 17.686603999999999
#
# number of rings (size 3 to 8) (size 9 to 14) (size 15 to 20)
#    0.000    2.571    0.000    1.714    0.000    5.714 
#    0.000    3.571    0.000    7.714    0.000    8.000 
#    0.000    0.000    0.000    0.000    0.000    0.000 
#
# Total GULP energy -347238.718185 kJ/mol
# GULP energy per Si atom -12401.382792 kJ/mol
# Density = 1.764635 g / cm^3
# Si number density = 17.686604 Si / 1000 Ang^3
#
#
#
# Elastic Constant Matrix: (Units=GPa)
#
#
# Indices 1 2 3 4 5 6 
#
# 1 80.3211 30.1761 17.2745 0.0000 6.5707 0.0000
# 2 30.1761 92.5793 31.4746 0.0001 1.2865 0.0000
# 3 17.2745 31.4746 48.9110 0.0007 1.7074 0.0000
# 4 0.0000 0.0001 0.0007 27.1937 0.0000 0.8840
# 5 6.5707 1.2865 1.7074 0.0000 17.5386 0.0000
# 6 0.0000 0.0000 0.0000 0.8840 0.0000 19.3328
#
#
#
# Elastic Compliance Matrix: (Units=1/GPa)
#
#
# Indices 1 2 3 4 5 6 
#
# 1 0.014882 -0.003909 -0.002565 0.000000 -0.005039 0.000000
# 2 -0.003909 0.014854 -0.008219 0.000000 0.001175 0.000000
# 3 -0.002565 -0.008219 0.026676 -0.000001 -0.001033 0.000000
# 4 0.000000 0.000000 -0.000001 0.036828 0.000000 -0.001684
# 5 -0.005039 0.001175 -0.001033 0.000000 0.058919 0.000000
# 6 0.000000 0.000000 0.000000 -0.001684 0.000000 0.051802
#
#
# Mechanical properties :
#
#
# Convention : Reuss Voigt Hill
#
# Bulk Modulus (GPa) = 37.00026 42.18466 39.59246
# Shear Modulus (GPa) = 20.63080 22.33877 21.48479
#
# Velocity S-wave (km/s) = 3.41906 3.55777 3.48911
# Velocity P-wave (km/s) = 6.04582 6.38592 6.21820
#
# Compressibility (1/GPa) = 0.02702684
#
# Stress axis : x y z
#
# Youngs Moduli (GPa) = 67.19335 67.32410 37.48670
#
# Poissons Ratio (x) = 0.26316 0.09615
# Poissons Ratio (y) = 0.26265 0.30810
# Poissons Ratio (z) = 0.17234 0.55333
#
# Static dielectric constant tensor:
#      x y z
#    x 3.194720 0.000000 0.105850 
#    y 0.000000 3.396160 0.000000 
#    z 0.105850 0.000000 3.343920 
# 
# 
# High freq. dielectric constant tensor:
#      x y z
#    x 1.677030 0.000000 0.011180 
#    y 0.000000 1.690110 0.000000 
#    z 0.011180 0.000000 1.685600 
# 
# From -- ./inp_files/276927.got.cif
#   From: 2010.06.25/outbox.cif.g09.slc.cpg/sg12_139_cif.got.tgz:276927.got - 2010.06.28 00:19:55.
