data_PCOD8087975
_publ_section_title
;
Structure prediction by ZEFSAII (Michael W. Deem and Ramdas Pophale) SiO2 
 PCOD8087975
Probable space group: C 2/M
;
_chemical_formula_sum "Si O2"
_cell_formula_units_Z 64
_cell_length_a 19.042533
_cell_length_b 19.002868
_cell_length_c 11.643201
_cell_angle_alpha 90.000000
_cell_angle_beta 121.124875
_cell_angle_gamma 90.000000
_cell_volume 3606.714096
_symmetry_space_group_name_H-M "C 2/M"
_symmetry_group_IT_number 12
_symmetry_cell_setting 'monoclinic'
loop_
_space_group_symop_operation_xyz
x,y,z
-x,y,-z
-x,-y,-z
x,-y,z
1/2+x,1/2+y,z
1/2-x,1/2+y,-z
1/2-x,1/2-y,-z
1/2+x,1/2-y,z
loop_
_atom_site_type_symbol
_atom_site_label
_atom_site_fract_x
_atom_site_fract_y
_atom_site_fract_z
Si Si1 0.562634 0.207556 0.949908
Si Si2 0.937156 0.920175 0.247267
Si Si3 0.050961 0.794056 0.297989
Si Si4 0.330200 0.079582 0.986229
Si Si5 0.823124 0.202623 0.805407
Si Si6 0.197970 0.221188 0.560480
Si Si7 0.304922 0.420528 0.947078
Si Si8 0.200604 0.079768 0.682943
O O1 0.521237 0.241582 0.801826
O O2 0.500000 0.201047 0.000000
O O3 0.591119 0.129551 0.941627
O O4 0.639222 0.254347 0.055845
O O5 0.877279 0.902007 0.302609
O O6 0.014341 0.868220 0.309255
O O7 0.969882 0.000000 0.288717
O O8 0.889936 0.912120 0.087173
O O9 0.114329 0.804463 0.247097
O O10 0.102301 0.762487 0.449920
O O11 0.284282 0.085586 0.825842
O O12 0.360952 0.000000 0.031451
O O13 0.269155 0.103648 0.034698
O O14 0.735164 0.238782 0.702222
O O15 0.804981 0.124301 0.831629
O O16 0.250000 0.250000 0.500000
O O17 0.206390 0.136525 0.585041
O O18 0.292495 0.500000 0.896265
O O19 0.192456 0.000000 0.626990
#
# Coordination Sequence:
#
# PCOD8087975 Si02
#       8
#     8   8   8   8   8   8   8   8
#     4  10  19  32  52  76 102 128 169 217 262 304
#     4   9  18  32  51  79 109 134 167 210 257 310
#     4  10  21  33  48  76 110 136 167 211 257 302
#     4   9  18  33  54  79 102 129 171 221 263 302
#     4  10  19  34  53  74 102 141 175 209 253 303
#     4  10  21  36  52  72 104 140 173 210 252 306
#     4   9  18  32  52  78 105 134 174 213 249 307
#     4   9  18  34  55  77 103 136 172 210 256 312
#
# _framework density 17.744683999999999
#
# number of rings (size 3 to 8) (size 9 to 14) (size 15 to 20)
#    0.000    2.500    2.500    1.500    0.000    3.250 
#    0.000    4.375    0.000    0.750    0.000    1.750 
#    0.000    0.000    0.000    0.000    0.000    0.000 
#
# Total GULP energy -396643.771639 kJ/mol
# GULP energy per Si atom -12395.117864 kJ/mol
# Density = 1.770430 g / cm^3
# Si number density = 17.744684 Si / 1000 Ang^3
#
#
#
# Elastic Constant Matrix: (Units=GPa)
#
#
# Indices 1 2 3 4 5 6 
#
# 1 37.9422 48.7778 36.1885 0.0000 9.6853 0.0000
# 2 48.7778 103.2947 53.5339 0.0000 8.2729 0.0000
# 3 36.1885 53.5339 102.6742 0.0000 22.4611 0.0000
# 4 0.0000 0.0000 0.0000 26.7160 0.0000 -1.2768
# 5 9.6853 8.2729 22.4611 0.0000 23.2141 0.0000
# 6 0.0000 0.0000 0.0000 -1.2768 0.0000 38.4942
#
#
#
# Elastic Compliance Matrix: (Units=1/GPa)
#
#
# Indices 1 2 3 4 5 6 
#
# 1 0.078252 -0.031664 -0.008115 0.000000 -0.013511 0.000000
# 2 -0.031664 0.026193 -0.004243 0.000000 0.007981 0.000000
# 3 -0.008115 -0.004243 0.017430 0.000000 -0.011967 0.000000
# 4 0.000000 0.000000 0.000000 0.037490 0.000000 0.001243
# 5 -0.013511 0.007981 -0.011967 0.000000 0.057449 0.000000
# 6 0.000000 0.000000 0.000000 0.001243 0.000000 0.026019
#
#
# Mechanical properties :
#
#
# Convention : Reuss Voigt Hill
#
# Bulk Modulus (GPa) = 29.55900 57.87906 43.71903
# Shear Modulus (GPa) = 14.61334 24.71225 19.66279
#
# Velocity S-wave (km/s) = 2.87284 3.73588 3.33242
# Velocity P-wave (km/s) = 5.26293 7.16223 6.28474
#
# Compressibility (1/GPa) = 0.03383065
#
# Stress axis : x y z
#
# Youngs Moduli (GPa) = 12.77928 38.17814 57.37305
#
# Poissons Ratio (x) = 1.20887 0.46560
# Poissons Ratio (y) = 0.40464 0.24341
# Poissons Ratio (z) = 0.10371 0.16198
#
# Static dielectric constant tensor:
#      x y z
#    x 3.084530 0.000000 0.178480 
#    y 0.000000 3.321530 0.000000 
#    z 0.178480 0.000000 3.488490 
# 
# 
# High freq. dielectric constant tensor:
#      x y z
#    x 1.666800 0.000000 0.008570 
#    y 0.000000 1.687460 0.000000 
#    z 0.008570 0.000000 1.678090 
# 
# From -- ./inp_files/168799.got.cif
#   From: 2010.06.25/outbox.cif.g09.slc.cpg/sg12_85_cif.got.tgz:168799.got - 2010.06.28 00:19:55.
