data_PCOD8087436
_publ_section_title
;
Structure prediction by ZEFSAII (Michael W. Deem and Ramdas Pophale) SiO2 
 PCOD8087436
Probable space group: C 2/M
;
_chemical_formula_sum "Si O2"
_cell_formula_units_Z 64
_cell_length_a 25.520164
_cell_length_b 23.145275
_cell_length_c 8.526393
_cell_angle_alpha 90.000000
_cell_angle_beta 48.071048
_cell_angle_gamma 90.000000
_cell_volume 3746.872415
_symmetry_space_group_name_H-M "C 2/M"
_symmetry_group_IT_number 12
_symmetry_cell_setting 'monoclinic'
loop_
_space_group_symop_operation_xyz
x,y,z
-x,y,-z
-x,-y,-z
x,-y,z
1/2+x,1/2+y,z
1/2-x,1/2+y,-z
1/2-x,1/2-y,-z
1/2+x,1/2-y,z
loop_
_atom_site_type_symbol
_atom_site_label
_atom_site_fract_x
_atom_site_fract_y
_atom_site_fract_z
Si Si1 0.353096 0.274581 0.977348
Si Si2 0.000000 0.752484 0.183347
Si Si3 0.276782 0.167400 0.628656
Si Si4 0.146904 0.774581 0.389732
Si Si5 0.144605 0.434266 0.394212
Si Si6 0.500000 0.127333 0.318210
Si Si7 0.355395 0.065734 0.972630
Si Si8 0.223218 0.332600 0.735786
O O1 0.432552 0.283164 0.875192
O O2 0.347510 0.285927 0.804979
O O3 0.304163 0.320880 0.164241
O O4 0.328048 0.209447 0.063925
O O5 0.932553 0.783165 0.394598
O O6 0.000000 0.684167 0.213025
O O7 0.000000 0.764266 0.000000
O O8 0.328049 0.209447 0.623881
O O9 0.296461 0.101809 0.630502
O O10 0.288319 0.180231 0.423363
O O11 0.195837 0.820880 0.380893
O O12 0.149945 0.500000 0.441509
O O13 0.160166 0.429127 0.179668
O O14 0.067217 0.411142 0.589832
O O15 0.500000 0.146547 0.500000
O O16 0.567217 0.088858 0.141299
O O17 0.350055 0.000000 0.041289
O O18 0.296461 0.101809 0.183654
#
# Coordination Sequence:
#
# PCOD8087436 Si02
#       8
#     8   8   8   8   8   8   8   8
#     4  11  21  35  54  74 100 136 174 212 258 316
#     4  12  22  33  51  79 108 136 168 213 264 312
#     4  11  21  34  51  75 104 134 171 220 266 304
#     4  11  21  35  54  74 100 136 174 212 258 316
#     4  10  20  34  52  74 103 142 184 219 254 304
#     4  10  19  32  50  72 103 142 181 215 250 299
#     4  10  20  34  52  74 103 142 184 219 254 304
#     4  11  21  34  51  75 104 134 171 220 266 304
#
# _framework density 17.080912000000001
#
# number of rings (size 3 to 8) (size 9 to 14) (size 15 to 20)
#    0.000    1.250    2.500    7.500    0.000    2.000 
#    0.000    0.000    0.000    2.250    0.000    0.875 
#    0.000    7.000    0.000    0.000    0.000    0.000 
#
# Total GULP energy -396975.619832 kJ/mol
# GULP energy per Si atom -12405.488120 kJ/mol
# Density = 1.704204 g / cm^3
# Si number density = 17.080912 Si / 1000 Ang^3
#
#
#
# Elastic Constant Matrix: (Units=GPa)
#
#
# Indices 1 2 3 4 5 6 
#
# 1 86.3191 34.0086 35.9532 0.0000 -12.4878 0.0000
# 2 34.0086 83.3388 32.9369 0.0000 -13.1237 0.0000
# 3 35.9532 32.9369 84.3636 0.0000 -11.4512 0.0000
# 4 0.0000 0.0000 0.0000 18.7162 0.0000 -4.8426
# 5 -12.4878 -13.1237 -11.4512 0.0000 37.3665 0.0000
# 6 0.0000 0.0000 0.0000 -4.8426 0.0000 19.1117
#
#
#
# Elastic Compliance Matrix: (Units=1/GPa)
#
#
# Indices 1 2 3 4 5 6 
#
# 1 0.015486 -0.004106 -0.004685 0.000000 0.002298 0.000000
# 2 -0.004106 0.015711 -0.003987 0.000000 0.002924 0.000000
# 3 -0.004685 -0.003987 0.015655 0.000000 0.001832 0.000000
# 4 0.000000 0.000000 0.000000 0.057178 0.000000 0.014488
# 5 0.002298 0.002924 0.001832 0.000000 0.029118 0.000000
# 6 0.000000 0.000000 0.000000 0.014488 0.000000 0.055995
#
#
# Mechanical properties :
#
#
# Convention : Reuss Voigt Hill
#
# Bulk Modulus (GPa) = 46.95616 51.09097 49.02357
# Shear Modulus (GPa) = 22.54292 25.11374 23.82833
#
# Velocity S-wave (km/s) = 3.63681 3.83858 3.73906
# Velocity P-wave (km/s) = 6.72200 7.04432 6.88504
#
# Compressibility (1/GPa) = 0.02129646
#
# Stress axis : x y z
#
# Youngs Moduli (GPa) = 64.57257 63.64946 63.87658
#
# Poissons Ratio (x) = 0.26137 0.29925
# Poissons Ratio (y) = 0.26516 0.25467
# Poissons Ratio (z) = 0.30251 0.25377
#
# Static dielectric constant tensor:
#      x y z
#    x 3.274620 0.000000 -0.071930 
#    y 0.000000 3.027810 0.000000 
#    z -0.071930 0.000000 3.268740 
# 
# 
# High freq. dielectric constant tensor:
#      x y z
#    x 1.664700 0.000000 0.004810 
#    y 0.000000 1.626720 0.000000 
#    z 0.004810 0.000000 1.665100 
# 
# From -- ./inp_files/99666.got.cif
#   From: 2010.06.25/outbox.cif.g09.slc.cpg/sg12_50_cif.got.tgz:99666.got - 2010.06.28 00:19:55.
