data_PCOD8087409
_publ_section_title
;
Structure prediction by ZEFSAII (Michael W. Deem and Ramdas Pophale) SiO2 
 PCOD8087409
Probable space group: C 2/M
;
_chemical_formula_sum "Si O2"
_cell_formula_units_Z 64
_cell_length_a 20.931150
_cell_length_b 23.185532
_cell_length_c 8.825802
_cell_angle_alpha 90.000000
_cell_angle_beta 65.060680
_cell_angle_gamma 90.000000
_cell_volume 3883.776478
_symmetry_space_group_name_H-M "C 2/M"
_symmetry_group_IT_number 12
_symmetry_cell_setting 'monoclinic'
loop_
_space_group_symop_operation_xyz
x,y,z
-x,y,-z
-x,-y,-z
x,-y,z
1/2+x,1/2+y,z
1/2-x,1/2+y,-z
1/2-x,1/2-y,-z
1/2+x,1/2-y,z
loop_
_atom_site_type_symbol
_atom_site_label
_atom_site_fract_x
_atom_site_fract_y
_atom_site_fract_z
Si Si1 0.646123 0.066758 0.031205
Si Si2 0.356719 0.726344 0.465485
Si Si3 0.500000 0.248310 0.820402
Si Si4 0.356719 0.726344 0.821077
Si Si5 0.766731 0.663121 0.555650
Si Si6 0.766731 0.336879 0.910888
Si Si7 0.146123 0.566758 0.676550
Si Si8 1.000000 0.382406 0.820357
O O1 0.652488 0.081168 0.847512
O O2 0.658844 0.000000 0.052331
O O3 0.705521 0.101506 0.061902
O O4 0.569079 0.084538 0.170671
O O5 0.431552 0.719061 0.309753
O O6 0.366917 0.719534 0.633083
O O7 0.306329 0.675710 0.456197
O O8 0.323985 0.788337 0.454047
O O9 0.431553 0.280939 0.827142
O O10 0.500000 0.182764 0.758175
O O11 0.500000 0.250216 0.000000
O O12 0.323985 0.788337 0.897984
O O13 0.306329 0.675711 0.931145
O O14 0.751958 0.662388 0.748042
O O15 0.794479 0.601506 0.472945
O O16 0.158843 0.500000 0.629982
O O17 0.069079 0.584538 0.691170
O O18 0.000000 0.383075 0.000000
#
# Coordination Sequence:
#
# PCOD8087409 Si02
#       8
#     8   8   8   8   8   8   8   8
#     4  10  19  32  50  71  98 135 175 209 245 291
#     4  10  20  33  50  71  98 129 165 206 252 301
#     4  11  19  30  51  75 101 133 166 202 249 298
#     4  10  20  33  50  71  98 129 165 206 252 301
#     4  10  20  33  49  70  97 129 167 210 253 294
#     4  10  20  33  49  70  97 129 167 210 253 294
#     4  10  19  32  50  71  98 135 175 209 245 291
#     4   9  17  29  46  69  99 134 172 206 235 284
#
# _framework density 16.478805999999999
#
# number of rings (size 3 to 8) (size 9 to 14) (size 15 to 20)
#    0.000    2.000    2.500    2.250    0.000    4.000 
#    0.000    0.625    0.000    1.500    0.000    0.875 
#    0.000    7.000    0.000    0.000    0.000    0.000 
#
# Total GULP energy -396937.317788 kJ/mol
# GULP energy per Si atom -12404.291181 kJ/mol
# Density = 1.644130 g / cm^3
# Si number density = 16.478806 Si / 1000 Ang^3
#
#
#
# Elastic Constant Matrix: (Units=GPa)
#
#
# Indices 1 2 3 4 5 6 
#
# 1 118.2783 45.9724 45.1059 0.0000 -11.1147 0.0000
# 2 45.9724 75.6054 33.1574 0.0000 -9.2965 0.0000
# 3 45.1059 33.1574 81.5286 0.0000 -15.5452 0.0000
# 4 0.0000 0.0000 0.0000 24.3153 0.0000 0.0784
# 5 -11.1147 -9.2965 -15.5452 0.0000 25.7117 0.0000
# 6 0.0000 0.0000 0.0000 0.0784 0.0000 24.2072
#
#
#
# Elastic Compliance Matrix: (Units=1/GPa)
#
#
# Indices 1 2 3 4 5 6 
#
# 1 0.012350 -0.005461 -0.004487 0.000000 0.000651 0.000000
# 2 -0.005461 0.018614 -0.004200 0.000000 0.001830 0.000000
# 3 -0.004487 -0.004200 0.017855 0.000000 0.007337 0.000000
# 4 0.000000 0.000000 0.000000 0.041127 0.000000 -0.000133
# 5 0.000651 0.001830 0.007337 0.000000 0.044272 0.000000
# 6 0.000000 0.000000 0.000000 -0.000133 0.000000 0.041310
#
#
# Mechanical properties :
#
#
# Convention : Reuss Voigt Hill
#
# Bulk Modulus (GPa) = 48.72764 58.20927 53.46845
# Shear Modulus (GPa) = 23.73422 24.92529 24.32975
#
# Velocity S-wave (km/s) = 3.79923 3.89339 3.84660
# Velocity P-wave (km/s) = 6.99139 7.45733 7.22812
#
# Compressibility (1/GPa) = 0.02052223
#
# Stress axis : x y z
#
# Youngs Moduli (GPa) = 80.97303 53.72199 56.00586
#
# Poissons Ratio (x) = 0.29340 0.25132
# Poissons Ratio (y) = 0.44223 0.23522
# Poissons Ratio (z) = 0.36335 0.22563
#
# Static dielectric constant tensor:
#      x y z
#    x 3.073750 0.000000 -0.043950 
#    y 0.000000 2.890950 0.000000 
#    z -0.043950 0.000000 3.013160 
# 
# 
# High freq. dielectric constant tensor:
#      x y z
#    x 1.632900 0.000000 0.000540 
#    y 0.000000 1.605810 0.000000 
#    z 0.000540 0.000000 1.633640 
# 
# From -- ./inp_files/89570.got.cif
#   From: 2010.06.25/outbox.cif.g09.slc.cpg/sg12_45_cif.got.tgz:89570.got - 2010.06.28 00:19:55.
