data_PCOD8087523
_publ_section_title
;
Structure prediction by ZEFSAII (Michael W. Deem and Ramdas Pophale) SiO2 
 PCOD8087523
Probable space group: C 2/M
;
_chemical_formula_sum "Si O2"
_cell_formula_units_Z 56
_cell_length_a 19.309154
_cell_length_b 28.533530
_cell_length_c 9.752947
_cell_angle_alpha 90.000000
_cell_angle_beta 38.833261
_cell_angle_gamma 90.000000
_cell_volume 3369.465595
_symmetry_space_group_name_H-M "C 2/M"
_symmetry_group_IT_number 12
_symmetry_cell_setting 'monoclinic'
loop_
_space_group_symop_operation_xyz
x,y,z
-x,y,-z
-x,-y,-z
x,-y,z
1/2+x,1/2+y,z
1/2-x,1/2+y,-z
1/2-x,1/2-y,-z
1/2+x,1/2-y,z
loop_
_atom_site_type_symbol
_atom_site_label
_atom_site_fract_x
_atom_site_fract_y
_atom_site_fract_z
Si Si1 0.243674 0.310088 0.121551
Si Si2 0.624122 0.276634 0.842462
Si Si3 0.889407 0.602531 0.579220
Si Si4 0.626927 0.284290 0.333943
Si Si5 0.754140 0.687007 0.392795
Si Si6 0.601583 0.000000 0.745632
Si Si7 0.111588 0.398964 0.740259
Si Si8 0.601583 0.000000 0.440581
O O1 0.350363 0.295668 0.045956
O O2 0.200189 0.361343 0.225589
O O3 0.146653 0.271800 0.295422
O O4 0.287825 0.310442 0.898649
O O5 0.710366 0.302052 0.610882
O O6 0.643061 0.220752 0.804396
O O7 0.500000 0.289860 0.000000
O O8 0.913896 0.613432 0.380411
O O9 0.835227 0.549872 0.679527
O O10 0.000000 0.607236 0.500000
O O11 0.500000 0.295566 0.500000
O O12 0.653987 0.305214 0.441516
O O13 0.798564 0.634369 0.328097
O O14 0.667190 0.048855 0.666723
O O15 0.552088 0.000000 0.669299
O O16 0.500000 0.000000 0.000000
O O17 0.000000 0.395746 0.000000
O O18 0.500000 0.000000 0.500000
#
# Coordination Sequence:
#
# PCOD8087523 Si02
#       8
#     8   8   8   8   8   4   8   4
#     4  10  20  34  51  72  98 131 167 197 242 295
#     4  10  19  33  49  69  96 129 162 204 238 280
#     4  10  19  32  51  75 103 131 161 199 245 294
#     4  10  21  35  49  71 100 131 165 203 240 285
#     4  10  20  32  49  72  98 125 166 196 240 294
#     4   8  16  30  48  70 101 128 156 194 247 298
#     4  10  19  32  50  76 103 131 160 200 245 295
#     4   8  16  30  48  72  99 126 158 198 243 294
#
# _framework density 16.619845999999999
#
# number of rings (size 3 to 8) (size 9 to 14) (size 15 to 20)
#    0.000    2.286    1.429    1.714    2.000    0.000 
#    5.143    0.000    0.000    0.000    0.000    6.000 
#    0.000    0.000    0.000    0.000    0.000    0.000 
#
# Total GULP energy -346964.605886 kJ/mol
# GULP energy per Si atom -12391.593067 kJ/mol
# Density = 1.658202 g / cm^3
# Si number density = 16.619846 Si / 1000 Ang^3
#
#
#
# Elastic Constant Matrix: (Units=GPa)
#
#
# Indices 1 2 3 4 5 6 
#
# 1 53.1253 27.3603 16.5900 0.0000 -2.6986 0.0000
# 2 27.3603 137.8908 35.8615 0.0000 -2.8161 0.0000
# 3 16.5900 35.8615 36.2405 0.0000 2.4821 0.0000
# 4 0.0000 0.0000 0.0000 19.4543 0.0000 1.4157
# 5 -2.6986 -2.8161 2.4821 0.0000 27.5642 0.0000
# 6 0.0000 0.0000 0.0000 1.4157 0.0000 18.0143
#
#
#
# Elastic Compliance Matrix: (Units=1/GPa)
#
#
# Indices 1 2 3 4 5 6 
#
# 1 0.022745 -0.002289 -0.008334 0.000000 0.002743 0.000000
# 2 -0.002289 0.010093 -0.009051 0.000000 0.001622 0.000000
# 3 -0.008334 -0.009051 0.040735 0.000000 -0.005409 0.000000
# 4 0.000000 0.000000 0.000000 0.051698 0.000000 -0.004063
# 5 0.002743 0.001622 -0.005409 0.000000 0.037200 0.000000
# 6 0.000000 0.000000 0.000000 -0.004063 0.000000 0.055831
#
#
# Mechanical properties :
#
#
# Convention : Reuss Voigt Hill
#
# Bulk Modulus (GPa) = 29.21920 42.98670 36.10295
# Shear Modulus (GPa) = 18.58323 22.83621 20.70972
#
# Velocity S-wave (km/s) = 3.34748 3.71082 3.53382
# Velocity P-wave (km/s) = 5.70613 6.65440 6.19842
#
# Compressibility (1/GPa) = 0.03422407
#
# Stress axis : x y z
#
# Youngs Moduli (GPa) = 43.96661 99.07466 24.54866
#
# Poissons Ratio (x) = 0.22682 0.20460
# Poissons Ratio (y) = 0.10066 0.22219
# Poissons Ratio (z) = 0.36643 0.89672
#
# Static dielectric constant tensor:
#      x y z
#    x 3.115630 0.000000 0.313110 
#    y 0.000000 3.570020 0.000000 
#    z 0.313110 0.000000 2.952350 
# 
# 
# High freq. dielectric constant tensor:
#      x y z
#    x 1.639440 0.000000 0.031510 
#    y 0.000000 1.641320 0.000000 
#    z 0.031510 0.000000 1.620910 
# 
# From -- ./inp_files/80457.got.cif
#   From: 2010.06.25/outbox.cif.g09.slc.cpg/sg12_41_cif.got.tgz:80457.got - 2010.06.28 00:19:55.
