data_PCOD8087110
_publ_section_title
;
Structure prediction by ZEFSAII (Michael W. Deem and Ramdas Pophale) SiO2 
 PCOD8087110
Probable space group: C 2/M
;
_chemical_formula_sum "Si O2"
_cell_formula_units_Z 64
_cell_length_a 29.175063
_cell_length_b 8.882360
_cell_length_c 14.510124
_cell_angle_alpha 90.000000
_cell_angle_beta 121.602015
_cell_angle_gamma 90.000000
_cell_volume 3202.596922
_symmetry_space_group_name_H-M "C 2/M"
_symmetry_group_IT_number 12
_symmetry_cell_setting 'monoclinic'
loop_
_space_group_symop_operation_xyz
x,y,z
-x,y,-z
-x,-y,-z
x,-y,z
1/2+x,1/2+y,z
1/2-x,1/2+y,-z
1/2-x,1/2-y,-z
1/2+x,1/2-y,z
loop_
_atom_site_type_symbol
_atom_site_label
_atom_site_fract_x
_atom_site_fract_y
_atom_site_fract_z
Si Si1 0.610192 0.331216 0.276715
Si Si2 0.801653 0.678264 0.508392
Si Si3 0.669639 0.178704 0.664508
Si Si4 0.946939 0.675623 0.487211
Si Si5 0.597438 0.676535 0.883059
Si Si6 0.300331 0.178390 0.103441
Si Si7 0.982544 0.833737 0.691183
Si Si8 0.559387 0.321134 0.040807
O O1 0.635099 0.500000 0.307288
O O2 0.646437 0.223285 0.377221
O O3 0.547848 0.334708 0.243340
O O4 0.603914 0.274327 0.164919
O O5 0.796475 0.500000 0.504387
O O6 0.750000 0.750000 0.500000
O O7 0.805170 0.737847 0.405593
O O8 0.608703 0.243094 0.610619
O O9 0.701247 0.229886 0.790030
O O10 0.667055 0.000000 0.655608
O O11 0.948104 0.500000 0.468933
O O12 0.950535 0.709868 0.598923
O O13 0.000000 0.754700 0.500000
O O14 0.612222 0.500000 0.900116
O O15 0.645662 0.769231 0.889546
O O16 0.544776 0.709603 0.766732
O O17 0.584343 0.738550 0.971388
O O18 0.296587 0.000000 0.092725
O O19 0.250000 0.250000 0.000000
O O20 0.977807 0.000000 0.640946
O O21 0.553844 0.500000 0.030075
O O22 0.500000 0.251997 0.000000
#
# Coordination Sequence:
#
# PCOD8087110 Si02
#       8
#     8   8   8   8   8   8   8   8
#     4  10  19  34  57  86 116 152 194 236 283 335
#     4  11  23  41  62  85 115 152 195 240 287 343
#     4   9  20  39  61  83 111 151 193 231 280 349
#     4  10  19  33  55  82 112 151 194 229 274 342
#     4  10  20  36  59  89 121 156 198 240 286 342
#     4  11  24  44  65  85 112 150 198 247 293 343
#     4  10  19  31  53  85 120 149 184 236 287 333
#     4   9  16  31  57  85 118 161 201 233 275 345
#
# _framework density 19.983781
#
# number of rings (size 3 to 8) (size 9 to 14) (size 15 to 20)
#    0.000    2.000    2.500    1.500    0.000    2.750 
#    0.000    9.375    0.000    0.750    0.000    0.000 
#    0.000    0.000    0.000    0.000    0.000    0.000 
#
# Total GULP energy -396579.630369 kJ/mol
# GULP energy per Si atom -12393.113449 kJ/mol
# Density = 1.993830 g / cm^3
# Si number density = 19.983781 Si / 1000 Ang^3
#
#
#
# Elastic Constant Matrix: (Units=GPa)
#
#
# Indices 1 2 3 4 5 6 
#
# 1 125.0121 31.5722 66.8150 0.0000 2.7780 0.0000
# 2 31.5722 42.9836 33.2397 0.0000 3.1053 0.0000
# 3 66.8150 33.2397 150.4672 0.0000 -2.6537 0.0000
# 4 0.0000 0.0000 0.0000 27.5316 0.0000 1.5008
# 5 2.7780 3.1053 -2.6537 0.0000 33.1112 0.0000
# 6 0.0000 0.0000 0.0000 1.5008 0.0000 28.5252
#
#
#
# Elastic Compliance Matrix: (Units=1/GPa)
#
#
# Indices 1 2 3 4 5 6 
#
# 1 0.011460 -0.005325 -0.003926 0.000000 -0.000777 0.000000
# 2 -0.005325 0.030861 -0.004502 0.000000 -0.002808 0.000000
# 3 -0.003926 -0.004502 0.009410 0.000000 0.001506 0.000000
# 4 0.000000 0.000000 0.000000 0.036426 0.000000 -0.001916
# 5 -0.000777 -0.002808 0.001506 0.000000 0.030651 0.000000
# 6 0.000000 0.000000 0.000000 -0.001916 0.000000 0.035157
#
#
# Mechanical properties :
#
#
# Convention : Reuss Voigt Hill
#
# Bulk Modulus (GPa) = 41.28163 64.63518 52.95841
# Shear Modulus (GPa) = 26.37871 30.28935 28.33403
#
# Velocity S-wave (km/s) = 3.63713 3.89742 3.76952
# Velocity P-wave (km/s) = 6.19199 7.25722 6.74566
#
# Compressibility (1/GPa) = 0.02422385
#
# Stress axis : x y z
#
# Youngs Moduli (GPa) = 87.26231 32.40369 106.26472
#
# Poissons Ratio (x) = 0.17256 0.41719
# Poissons Ratio (y) = 0.46469 0.47843
# Poissons Ratio (z) = 0.34259 0.14589
#
# Static dielectric constant tensor:
#      x y z
#    x 3.823080 0.000000 -0.122120 
#    y 0.000000 3.278700 0.000000 
#    z -0.122120 0.000000 3.834240 
# 
# 
# High freq. dielectric constant tensor:
#      x y z
#    x 1.784170 0.000000 -0.005110 
#    y 0.000000 1.742190 0.000000 
#    z -0.005110 0.000000 1.790330 
# 
# From -- ./inp_files/249217.got.cif
#   From: 2010.06.25/outbox.cif.g09.slc.cpg/sg12_125_cif.got.tgz:249217.got - 2010.06.28 00:19:55.
