data_PCOD8087466
_publ_section_title
;
Structure prediction by ZEFSAII (Michael W. Deem and Ramdas Pophale) SiO2 
 PCOD8087466
Probable space group: C 2/M
;
_chemical_formula_sum "Si O2"
_cell_formula_units_Z 64
_cell_length_a 23.224769
_cell_length_b 21.572640
_cell_length_c 9.591195
_cell_angle_alpha 90.000000
_cell_angle_beta 53.422544
_cell_angle_gamma 90.000000
_cell_volume 3858.967245
_symmetry_space_group_name_H-M "C 2/M"
_symmetry_group_IT_number 12
_symmetry_cell_setting 'monoclinic'
loop_
_space_group_symop_operation_xyz
x,y,z
-x,y,-z
-x,-y,-z
x,-y,z
1/2+x,1/2+y,z
1/2-x,1/2+y,-z
1/2-x,1/2-y,-z
1/2+x,1/2-y,z
loop_
_atom_site_type_symbol
_atom_site_label
_atom_site_fract_x
_atom_site_fract_y
_atom_site_fract_z
Si Si1 0.164067 0.818286 0.055446
Si Si2 0.289679 0.738263 0.741687
Si Si3 0.447520 0.749003 0.955188
Si Si4 0.339416 0.144651 0.521705
Si Si5 0.746823 0.929047 0.133592
Si Si6 0.003100 0.656959 0.653231
Si Si7 0.374767 0.070606 0.919675
Si Si8 0.173151 0.341400 0.777423
O O1 0.155849 0.794584 0.227086
O O2 0.091972 0.806333 0.070838
O O3 0.231356 0.780357 0.901515
O O4 0.182382 0.891181 0.016553
O O5 0.334600 0.783295 0.576200
O O6 0.250240 0.684669 0.712211
O O7 0.492478 0.787661 0.777738
O O8 0.500000 0.722359 0.000000
O O9 0.388479 0.790365 0.117451
O O10 0.285644 0.098857 0.678289
O O11 0.421190 0.123642 0.427194
O O12 0.318211 0.137595 0.392585
O O13 0.688819 0.921927 0.097127
O O14 0.769456 0.000000 0.125822
O O15 0.942834 0.605258 0.758893
O O16 0.000000 0.682937 0.500000
O O17 0.396509 0.000000 0.914657
O O18 0.348342 0.098687 0.102969
#
# Coordination Sequence:
#
# PCOD8087466 Si02
#       8
#     8   8   8   8   8   8   8   8
#     4   9  17  31  53  73  94 127 163 207 245 285
#     4   9  17  30  50  75  96 126 164 201 251 296
#     4  10  19  32  50  73 102 129 156 198 252 304
#     4  11  20  30  48  75 102 131 158 204 250 287
#     4  10  20  35  52  72  95 129 175 208 237 281
#     4  11  20  32  47  70 102 134 166 198 240 294
#     4  10  21  34  50  67  94 138 178 205 230 278
#     4  10  19  33  49  70 102 130 165 204 249 290
#
# _framework density 16.584748000000001
#
# number of rings (size 3 to 8) (size 9 to 14) (size 15 to 20)
#    0.000    2.000    3.750    1.125    3.500    1.250 
#    0.000    0.625    0.000    0.375    0.000    0.000 
#    0.000    1.750    0.000    0.000    0.000    0.000 
#
# Total GULP energy -396783.671873 kJ/mol
# GULP energy per Si atom -12399.489746 kJ/mol
# Density = 1.654700 g / cm^3
# Si number density = 16.584748 Si / 1000 Ang^3
#
#
#
# Elastic Constant Matrix: (Units=GPa)
#
#
# Indices 1 2 3 4 5 6 
#
# 1 99.3423 42.4963 31.5862 0.0000 20.8344 0.0000
# 2 42.4963 87.1639 38.9641 0.0000 4.0665 0.0000
# 3 31.5862 38.9641 83.6208 0.0000 23.7592 0.0000
# 4 0.0000 0.0000 0.0000 10.2214 0.0000 0.3254
# 5 20.8344 4.0665 23.7592 0.0000 27.0436 0.0000
# 6 0.0000 0.0000 0.0000 0.3254 0.0000 18.8586
#
#
#
# Elastic Compliance Matrix: (Units=1/GPa)
#
#
# Indices 1 2 3 4 5 6 
#
# 1 0.015331 -0.007338 0.000894 0.000000 -0.011493 0.000000
# 2 -0.007338 0.018529 -0.008898 0.000000 0.010684 0.000000
# 3 0.000894 -0.008898 0.020767 0.000000 -0.017595 0.000000
# 4 0.000000 0.000000 0.000000 0.097888 0.000000 -0.001689
# 5 -0.011493 0.010684 -0.017595 0.000000 0.059683 0.000000
# 6 0.000000 0.000000 0.000000 -0.001689 0.000000 0.053055
#
#
# Mechanical properties :
#
#
# Convention : Reuss Voigt Hill
#
# Bulk Modulus (GPa) = 41.76639 55.13557 48.45098
# Shear Modulus (GPa) = 16.45174 21.69675 19.07425
#
# Velocity S-wave (km/s) = 3.15299 3.62088 3.39500
# Velocity P-wave (km/s) = 6.20431 7.12727 6.68174
#
# Compressibility (1/GPa) = 0.02394270
#
# Stress axis : x y z
#
# Youngs Moduli (GPa) = 65.22532 53.96846 48.15437
#
# Poissons Ratio (x) = 0.39602 -0.04303
# Poissons Ratio (y) = 0.47863 0.42847
# Poissons Ratio (z) = -0.05828 0.48020
#
# Static dielectric constant tensor:
#      x y z
#    x 3.141930 0.000000 0.108990 
#    y 0.000000 3.072010 0.000000 
#    z 0.108990 0.000000 3.121320 
# 
# 
# High freq. dielectric constant tensor:
#      x y z
#    x 1.636110 0.000000 0.017290 
#    y 0.000000 1.609880 0.000000 
#    z 0.017290 0.000000 1.637260 
# 
# From -- ./inp_files/77518.got.cif
#   From: 2010.06.25/outbox.cif.g09.slc.cpg/sg12_39_cif.got.tgz:77518.got - 2010.06.28 00:19:55.
