data_PCOD8087509
_publ_section_title
;
Structure prediction by ZEFSAII (Michael W. Deem and Ramdas Pophale) SiO2 
 PCOD8087509
Probable space group: C 2/M
;
_chemical_formula_sum "Si O2"
_cell_formula_units_Z 48
_cell_length_a 14.136578
_cell_length_b 18.811843
_cell_length_c 15.143667
_cell_angle_alpha 90.000000
_cell_angle_beta 140.709601
_cell_angle_gamma 90.000000
_cell_volume 2550.249708
_symmetry_space_group_name_H-M "C 2/M"
_symmetry_group_IT_number 12
_symmetry_cell_setting 'monoclinic'
loop_
_space_group_symop_operation_xyz
x,y,z
-x,y,-z
-x,-y,-z
x,-y,z
1/2+x,1/2+y,z
1/2-x,1/2+y,-z
1/2-x,1/2-y,-z
1/2+x,1/2-y,z
loop_
_atom_site_type_symbol
_atom_site_label
_atom_site_fract_x
_atom_site_fract_y
_atom_site_fract_z
Si Si1 0.286968 0.581010 0.353373
Si Si2 0.510823 0.362644 0.646605
Si Si3 0.565801 0.774835 0.773986
Si Si4 0.471822 0.921051 0.197561
Si Si5 0.138643 0.079176 0.916987
Si Si6 0.408533 0.717475 0.021204
O O1 0.333459 0.500000 0.366494
O O2 0.354702 0.630868 0.326577
O O3 0.357697 0.604687 0.498338
O O4 0.108578 0.588764 0.228522
O O5 0.480303 0.279196 0.646858
O O6 0.556109 0.404990 0.766431
O O7 0.523557 0.857764 0.725216
O O8 0.739431 0.757579 0.883752
O O9 0.523548 0.759727 0.846042
O O10 0.481530 0.000000 0.249364
O O11 0.317734 0.913188 0.031612
O O12 0.097140 0.000000 0.918572
O O13 0.084927 0.132989 0.954116
O O14 0.500000 0.735790 0.000000
#
# Coordination Sequence:
#
# PCOD8087509 Si02
#       6
#     8   8   8   8   8   8
#     4  10  20  33  51  77 105 137 168 207 265 305
#     4  10  19  32  50  75 105 136 167 213 255 305
#     4   9  19  33  49  76 101 135 175 203 258 306
#     4   9  19  34  51  74 102 132 169 213 254 301
#     4   9  17  32  51  74 103 134 172 209 248 303
#     4   9  18  31  49  74 106 135 163 216 259 295
#
# _framework density 18.821686
#
# number of rings (size 3 to 8) (size 9 to 14) (size 15 to 20)
#    0.000    2.667    0.000    3.000    2.333    1.667 
#    0.000    2.500    0.000    0.000    0.000    2.333 
#    0.000    1.500    0.000    0.000    0.000    0.000 
#
# Total GULP energy -297444.421950 kJ/mol
# GULP energy per Si atom -12393.517581 kJ/mol
# Density = 1.877885 g / cm^3
# Si number density = 18.821686 Si / 1000 Ang^3
#
#
#
# Elastic Constant Matrix: (Units=GPa)
#
#
# Indices 1 2 3 4 5 6 
#
# 1 87.2386 20.9125 20.0215 0.0002 -6.3542 0.0002
# 2 20.9125 130.9128 13.1642 -0.0002 -5.6280 -0.0003
# 3 20.0215 13.1642 35.7023 0.0003 -8.4731 0.0003
# 4 0.0002 -0.0002 0.0003 18.8219 0.0006 3.1433
# 5 -6.3542 -5.6280 -8.4731 0.0006 18.2545 0.0006
# 6 0.0002 -0.0003 0.0003 3.1433 0.0006 19.6528
#
#
#
# Elastic Compliance Matrix: (Units=1/GPa)
#
#
# Indices 1 2 3 4 5 6 
#
# 1 0.013432 -0.001420 -0.006747 0.000000 0.001106 0.000000
# 2 -0.001420 0.008107 -0.001930 0.000000 0.001110 0.000000
# 3 -0.006747 -0.001930 0.035743 -0.000001 0.013647 -0.000001
# 4 0.000000 0.000000 -0.000001 0.054588 -0.000002 -0.008731
# 5 0.001106 0.001110 0.013647 -0.000002 0.061843 -0.000002
# 6 0.000000 0.000000 -0.000001 -0.008731 -0.000002 0.052280
#
#
# Mechanical properties :
#
#
# Convention : Reuss Voigt Hill
#
# Bulk Modulus (GPa) = 26.96119 40.22780 33.59449
# Shear Modulus (GPa) = 19.33874 24.66286 22.00080
#
# Velocity S-wave (km/s) = 3.20890 3.62379 3.42264
# Velocity P-wave (km/s) = 5.29953 6.23928 5.78851
#
# Compressibility (1/GPa) = 0.03709036
#
# Stress axis : x y z
#
# Youngs Moduli (GPa) = 74.44860 123.34679 27.97739
#
# Poissons Ratio (x) = 0.17512 0.18875
# Poissons Ratio (y) = 0.10570 0.05399
# Poissons Ratio (z) = 0.50227 0.23804
#
# Static dielectric constant tensor:
#      x y z
#    x 3.093890 0.000000 0.105000 
#    y 0.000000 3.863280 0.000000 
#    z 0.105000 0.000000 3.279220 
# 
# 
# High freq. dielectric constant tensor:
#      x y z
#    x 1.698500 0.000000 0.015910 
#    y 0.000000 1.754250 0.000000 
#    z 0.015910 0.000000 1.706180 
# 
# From -- ./inp_files/106599.got.cif
#   From: 2010.06.25/outbox.cif.g09.slc.cpg/sg12_54_cif.got.tgz:106599.got - 2010.06.28 00:19:55.
