data_PCOD8087799
_publ_section_title
;
Structure prediction by ZEFSAII (Michael W. Deem and Ramdas Pophale) SiO2 
 PCOD8087799
Probable space group: C 2/M
;
_chemical_formula_sum "Si O2"
_cell_formula_units_Z 64
_cell_length_a 17.388814
_cell_length_b 13.786557
_cell_length_c 20.207326
_cell_angle_alpha 90.000000
_cell_angle_beta 130.983310
_cell_angle_gamma 90.000000
_cell_volume 3656.995560
_symmetry_space_group_name_H-M "C 2/M"
_symmetry_group_IT_number 12
_symmetry_cell_setting 'monoclinic'
loop_
_space_group_symop_operation_xyz
x,y,z
-x,y,-z
-x,-y,-z
x,-y,z
1/2+x,1/2+y,z
1/2-x,1/2+y,-z
1/2-x,1/2-y,-z
1/2+x,1/2-y,z
loop_
_atom_site_type_symbol
_atom_site_label
_atom_site_fract_x
_atom_site_fract_y
_atom_site_fract_z
Si Si1 0.943835 0.385761 0.401148
Si Si2 0.418147 0.756263 0.864502
Si Si3 0.646448 0.249674 0.027430
Si Si4 0.715614 0.390407 0.289488
Si Si5 0.808145 0.611853 0.062455
Si Si6 0.299995 0.391580 0.563950
Si Si7 0.037686 0.388507 0.225668
Si Si8 0.599999 0.196220 0.395289
O O1 0.952619 0.500000 0.392855
O O2 0.828263 0.349581 0.339568
O O3 0.000000 0.356375 0.500000
O O4 0.992868 0.327813 0.368250
O O5 0.357385 0.780565 0.897607
O O6 0.366245 0.668999 0.797020
O O7 0.418561 0.853240 0.820213
O O8 0.533241 0.720409 0.941516
O O9 0.721194 0.340826 0.059163
O O10 0.688903 0.159581 0.008795
O O11 0.707800 0.500000 0.259515
O O12 0.693538 0.384187 0.354143
O O13 0.780666 0.500000 0.036748
O O14 0.915882 0.625171 0.160154
O O15 0.332841 0.500000 0.559182
O O16 0.374484 0.309387 0.576486
O O17 0.185190 0.372918 0.475245
O O18 0.068478 0.500000 0.252280
O O19 0.091083 0.324663 0.312330
#
# Coordination Sequence:
#
# PCOD8087799 Si02
#       8
#     8   8   8   8   8   8   8   8
#     4  10  19  32  51  77 106 135 173 217 261 309
#     4  10  20  36  52  76 105 138 173 214 267 314
#     4   9  20  36  55  74 105 138 171 214 263 323
#     4  10  20  34  52  77 107 137 175 219 261 311
#     4   9  19  36  56  79 104 134 172 216 264 315
#     4  10  20  35  55  80 108 142 180 211 256 314
#     4  10  20  33  53  81 106 133 177 222 261 309
#     4  11  20  33  55  81 109 142 172 219 266 302
#
# _framework density 17.500706000000001
#
# number of rings (size 3 to 8) (size 9 to 14) (size 15 to 20)
#    0.000    2.125    2.500    1.125    1.750    1.500 
#    0.000    3.750    0.000    1.125    0.000    0.000 
#    0.000    0.000    0.000    0.000    0.000    0.000 
#
# Total GULP energy -396828.559424 kJ/mol
# GULP energy per Si atom -12400.892482 kJ/mol
# Density = 1.746087 g / cm^3
# Si number density = 17.500706 Si / 1000 Ang^3
#
#
#
# Elastic Constant Matrix: (Units=GPa)
#
#
# Indices 1 2 3 4 5 6 
#
# 1 76.5253 26.5192 12.7604 0.0000 -6.0451 0.0000
# 2 26.5192 96.1364 27.7371 0.0000 2.4594 0.0000
# 3 12.7604 27.7371 69.7583 0.0000 -8.2432 0.0000
# 4 0.0000 0.0000 0.0000 24.0089 0.0000 1.1595
# 5 -6.0451 2.4594 -8.2432 0.0000 22.9014 0.0000
# 6 0.0000 0.0000 0.0000 1.1595 0.0000 24.4405
#
#
#
# Elastic Compliance Matrix: (Units=1/GPa)
#
#
# Indices 1 2 3 4 5 6 
#
# 1 0.014897 -0.004033 -0.000633 0.000000 0.004138 0.000000
# 2 -0.004033 0.013052 -0.004954 0.000000 -0.004250 0.000000
# 3 -0.000633 -0.004954 0.017195 0.000000 0.006554 0.000000
# 4 0.000000 0.000000 0.000000 0.041747 0.000000 -0.001981
# 5 0.004138 -0.004250 0.006554 0.000000 0.047573 0.000000
# 6 0.000000 0.000000 0.000000 -0.001981 0.000000 0.041010
#
#
# Mechanical properties :
#
#
# Convention : Reuss Voigt Hill
#
# Bulk Modulus (GPa) = 38.60143 41.82815 40.21479
# Shear Modulus (GPa) = 24.58815 25.96370 25.27593
#
# Velocity S-wave (km/s) = 3.75237 3.85591 3.80449
# Velocity P-wave (km/s) = 6.39364 6.61640 6.50598
#
# Compressibility (1/GPa) = 0.02590577
#
# Stress axis : x y z
#
# Youngs Moduli (GPa) = 67.12557 76.61386 58.15512
#
# Poissons Ratio (x) = 0.30897 0.03679
# Poissons Ratio (y) = 0.27070 0.28812
# Poissons Ratio (z) = 0.04247 0.37957
#
# Static dielectric constant tensor:
#      x y z
#    x 3.252780 0.000000 -0.027540 
#    y 0.000000 3.240020 0.000000 
#    z -0.027540 0.000000 3.292260 
# 
# 
# High freq. dielectric constant tensor:
#      x y z
#    x 1.670130 0.000000 -0.003320 
#    y 0.000000 1.667580 0.000000 
#    z -0.003320 0.000000 1.683080 
# 
# From -- ./inp_files/224749.got.cif
#   From: 2010.06.25/outbox.cif.g09.slc.cpg/sg12_113_cif.got.tgz:224749.got - 2010.06.28 00:19:55.
