data_PCOD8087293
_publ_section_title
;
Structure prediction by ZEFSAII (Michael W. Deem and Ramdas Pophale) SiO2 
 PCOD8087293
Probable space group: C 2/M
;
_chemical_formula_sum "Si O2"
_cell_formula_units_Z 48
_cell_length_a 24.883031
_cell_length_b 7.879818
_cell_length_c 18.790543
_cell_angle_alpha 90.000000
_cell_angle_beta 49.036714
_cell_angle_gamma 90.000000
_cell_volume 2782.149194
_symmetry_space_group_name_H-M "C 2/M"
_symmetry_group_IT_number 12
_symmetry_cell_setting 'monoclinic'
loop_
_space_group_symop_operation_xyz
x,y,z
-x,y,-z
-x,-y,-z
x,-y,z
1/2+x,1/2+y,z
1/2-x,1/2+y,-z
1/2-x,1/2-y,-z
1/2+x,1/2-y,z
loop_
_atom_site_type_symbol
_atom_site_label
_atom_site_fract_x
_atom_site_fract_y
_atom_site_fract_z
Si Si1 0.941031 0.190286 0.735511
Si Si2 0.508008 0.000000 0.608655
Si Si3 0.679152 0.689476 0.272031
Si Si4 0.942698 0.313422 0.111219
Si Si5 0.169318 0.191507 0.891385
Si Si6 0.063081 0.699771 0.105128
Si Si7 0.615970 0.000000 0.398456
O O1 0.000475 0.329581 0.662636
O O2 0.868625 0.227281 0.755698
O O3 0.922189 0.202789 0.834840
O O4 0.969520 0.000000 0.694062
O O5 0.586018 0.000000 0.504978
O O6 0.449129 0.000000 0.599037
O O7 0.663116 0.500000 0.315879
O O8 0.760868 0.695427 0.177573
O O9 0.662921 0.830040 0.346576
O O10 0.911777 0.500000 0.156225
O O11 0.877779 0.197719 0.140359
O O12 0.986049 0.237612 0.141139
O O13 0.000000 0.333013 0.000000
O O14 0.193264 0.000000 0.884234
O O15 0.126210 0.259834 0.996050
O O16 0.060829 0.500000 0.120764
#
# Coordination Sequence:
#
# PCOD8087293 Si02
#       7
#     8   4   8   8   8   8   4
#     4  10  20  33  51  75 103 134 167 203 248 301
#     4   9  18  34  54  74 103 126 160 216 251 290
#     4  10  20  34  50  73 106 133 165 208 245 299
#     4   8  16  30  46  66  94 130 170 210 248 283
#     4  11  20  30  47  71 102 137 172 208 245 292
#     4  10  19  32  49  69 102 139 169 208 247 288
#     4   9  18  34  54  76  97 130 166 204 257 296
#
# _framework density 17.252849999999999
#
# number of rings (size 3 to 8) (size 9 to 14) (size 15 to 20)
#    0.000    2.333    1.667    3.000    0.000    5.000 
#    0.000    3.333    0.000    0.000    0.000    1.167 
#    0.000    0.000    0.000    0.000    0.000    0.000 
#
# Total GULP energy -297485.283062 kJ/mol
# GULP energy per Si atom -12395.220128 kJ/mol
# Density = 1.721358 g / cm^3
# Si number density = 17.252850 Si / 1000 Ang^3
#
#
#
# Elastic Constant Matrix: (Units=GPa)
#
#
# Indices 1 2 3 4 5 6 
#
# 1 62.8416 31.5063 39.5305 0.0234 -4.3563 -0.0013
# 2 31.5063 114.0965 43.7264 0.0442 -2.5310 -0.0619
# 3 39.5305 43.7264 93.9541 0.0133 -5.6528 -0.0233
# 4 0.0234 0.0442 0.0133 20.6923 0.0187 -1.7973
# 5 -4.3563 -2.5310 -5.6528 0.0187 2.2212 0.0002
# 6 -0.0013 -0.0619 -0.0233 -1.7973 0.0002 20.5342
#
#
#
# Elastic Compliance Matrix: (Units=1/GPa)
#
#
# Indices 1 2 3 4 5 6 
#
# 1 0.023659 -0.003335 -0.006895 -0.000040 0.025055 -0.000020
# 2 -0.003335 0.011138 -0.004027 -0.000011 -0.004097 0.000028
# 3 -0.006895 -0.004027 0.016920 -0.000017 0.024948 0.000005
# 4 -0.000040 -0.000011 -0.000017 0.048698 -0.000543 0.004262
# 5 0.025055 -0.004097 0.024948 -0.000543 0.558178 -0.000034
# 6 -0.000020 0.000028 0.000005 0.004262 -0.000034 0.049072
#
#
# Mechanical properties :
#
#
# Convention : Reuss Voigt Hill
#
# Bulk Modulus (GPa) = 43.09771 55.60207 49.34989
# Shear Modulus (GPa) = 6.72122 19.09815 12.90969
#
# Velocity S-wave (km/s) = 1.97590 3.33070 2.73841
# Velocity P-wave (km/s) = 5.49908 6.86216 6.21808
#
# Compressibility (1/GPa) = 0.02320309
#
# Stress axis : x y z
#
# Youngs Moduli (GPa) = 42.26693 89.78423 59.10306
#
# Poissons Ratio (x) = 0.29943 0.40751
# Poissons Ratio (y) = 0.14096 0.23800
# Poissons Ratio (z) = 0.29142 0.36155
#
# Static dielectric constant tensor:
#      x y z
#    x 3.329560 -0.000010 0.041770 
#    y -0.000010 3.382100 0.000020 
#    z 0.041770 0.000020 3.026010 
# 
# 
# High freq. dielectric constant tensor:
#      x y z
#    x 1.648340 0.000000 -0.000270 
#    y 0.000000 1.682540 0.000000 
#    z -0.000270 0.000000 1.627690 
# 
# From -- ./inp_files/287295.got.cif
#   From: 2010.06.25/outbox.cif.g09.slc.cpg/sg12_144_cif.got.tgz:287295.got - 2010.06.28 00:19:55.
