data_PCOD8087791
_publ_section_title
;
Structure prediction by ZEFSAII (Michael W. Deem and Ramdas Pophale) SiO2 
 PCOD8087791
Probable space group: C 2/M
;
_chemical_formula_sum "Si O2"
_cell_formula_units_Z 64
_cell_length_a 10.327001
_cell_length_b 17.696583
_cell_length_c 26.162755
_cell_angle_alpha 90.000000
_cell_angle_beta 45.439127
_cell_angle_gamma 90.000000
_cell_volume 3406.710717
_symmetry_space_group_name_H-M "C 2/M"
_symmetry_group_IT_number 12
_symmetry_cell_setting 'monoclinic'
loop_
_space_group_symop_operation_xyz
x,y,z
-x,y,-z
-x,-y,-z
x,-y,z
1/2+x,1/2+y,z
1/2-x,1/2+y,-z
1/2-x,1/2-y,-z
1/2+x,1/2-y,z
loop_
_atom_site_type_symbol
_atom_site_label
_atom_site_fract_x
_atom_site_fract_y
_atom_site_fract_z
Si Si1 0.206107 0.837741 0.669925
Si Si2 0.448651 0.410190 0.189732
Si Si3 0.285451 0.158655 0.340102
Si Si4 0.637388 0.089381 0.198299
Si Si5 0.190154 0.589915 0.968619
Si Si6 0.388218 0.838512 0.423872
Si Si7 0.606442 0.340748 0.584418
Si Si8 0.202173 0.910004 0.950984
O O1 0.070552 0.871213 0.749766
O O2 0.197416 0.747687 0.673366
O O3 0.408070 0.869077 0.624858
O O4 0.146442 0.867178 0.630845
O O5 0.441601 0.500000 0.198282
O O6 0.286928 0.380886 0.197471
O O7 0.641438 0.383552 0.113134
O O8 0.438184 0.119038 0.264569
O O9 0.308945 0.133642 0.392150
O O10 0.090441 0.127389 0.376401
O O11 0.681935 0.119250 0.129176
O O12 0.639994 0.000000 0.198940
O O13 0.185431 0.500000 0.970917
O O14 0.214355 0.621709 0.019401
O O15 0.000000 0.622676 0.000000
O O16 0.391998 0.748597 0.423300
O O17 0.262056 0.872852 0.503626
O O18 0.196951 0.000000 0.954219
O O19 0.000000 0.877977 0.000000
#
# Coordination Sequence:
#
# PCOD8087791 Si02
#       8
#     8   8   8   8   8   8   8   8
#     4  10  19  32  52  76 103 134 167 208 254 306
#     4  10  19  33  54  77 103 137 170 205 253 308
#     4  10  19  32  51  77 103 132 169 209 255 298
#     4  10  19  32  54  78 102 135 173 210 249 302
#     4   9  17  29  48  75 102 128 164 212 257 291
#     4   9  16  31  51  73  99 132 173 212 248 291
#     4   9  18  29  49  76 101 129 170 218 250 284
#     4   9  15  27  48  73  96 125 171 214 243 283
#
# _framework density 18.786451
#
# number of rings (size 3 to 8) (size 9 to 14) (size 15 to 20)
#    0.000    2.500    2.500    0.750    0.000    4.000 
#    0.000    1.875    0.000    6.000    0.000    0.000 
#    0.000    0.000    0.000    0.000    0.000    0.000 
#
# Total GULP energy -396754.205545 kJ/mol
# GULP energy per Si atom -12398.568923 kJ/mol
# Density = 1.874369 g / cm^3
# Si number density = 18.786451 Si / 1000 Ang^3
#
#
#
# Elastic Constant Matrix: (Units=GPa)
#
#
# Indices 1 2 3 4 5 6 
#
# 1 164.4361 8.0613 85.5154 -0.0003 9.0616 -0.0003
# 2 8.0613 4.8715 12.3082 0.0006 6.6688 -0.0001
# 3 85.5154 12.3082 180.7599 0.0030 14.3901 0.0004
# 4 -0.0003 0.0006 0.0030 28.9192 -0.0005 -0.5296
# 5 9.0616 6.6688 14.3901 -0.0005 40.4654 0.0001
# 6 -0.0003 -0.0001 0.0004 -0.5296 0.0001 10.2486
#
#
#
# Elastic Compliance Matrix: (Units=1/GPa)
#
#
# Indices 1 2 3 4 5 6 
#
# 1 0.008149 -0.004854 -0.003543 0.000001 0.000235 0.000000
# 2 -0.004854 0.314383 -0.015511 -0.000005 -0.045208 0.000005
# 3 -0.003543 -0.015511 0.008231 -0.000001 0.000423 -0.000001
# 4 0.000001 -0.000005 -0.000001 0.034612 0.000001 0.001789
# 5 0.000235 -0.045208 0.000423 0.000001 0.031960 -0.000001
# 6 0.000000 0.000005 -0.000001 0.001789 -0.000001 0.097667
#
#
# Mechanical properties :
#
#
# Convention : Reuss Voigt Hill
#
# Bulk Modulus (GPa) = 3.53425 62.42635 32.98030
# Shear Modulus (GPa) = 7.84763 32.20549 20.02656
#
# Velocity S-wave (km/s) = 2.04606 4.14489 3.26852
# Velocity P-wave (km/s) = 2.73261 7.49723 5.64250
#
# Compressibility (1/GPa) = 0.28294537
#
# Stress axis : x y z
#
# Youngs Moduli (GPa) = 122.71152 3.18083 121.49014
#
# Poissons Ratio (x) = 0.01544 0.43050
# Poissons Ratio (y) = 0.59567 1.88448
# Poissons Ratio (z) = 0.43483 0.04934
#
# Static dielectric constant tensor:
#      x y z
#    x 3.728980 0.000000 0.018520 
#    y 0.000000 2.789680 0.000000 
#    z 0.018520 0.000000 3.642130 
# 
# 
# High freq. dielectric constant tensor:
#      x y z
#    x 1.741390 0.000000 0.002540 
#    y 0.000000 1.662320 0.000000 
#    z 0.002540 0.000000 1.747550 
# 
# From -- ./inp_files/258130.got.cif
#   From: 2010.06.25/outbox.cif.g09.slc.cpg/sg12_130_cif.got.tgz:258130.got - 2010.06.28 00:19:55.
