data_PCOD8087212
_publ_section_title
;
Structure prediction by ZEFSAII (Michael W. Deem and Ramdas Pophale) SiO2 
 PCOD8087212
Probable space group: C 2/M
;
_chemical_formula_sum "Si O2"
_cell_formula_units_Z 64
_cell_length_a 25.172018
_cell_length_b 9.499102
_cell_length_c 15.234397
_cell_angle_alpha 90.000000
_cell_angle_beta 72.579828
_cell_angle_gamma 90.000000
_cell_volume 3475.647106
_symmetry_space_group_name_H-M "C 2/M"
_symmetry_group_IT_number 12
_symmetry_cell_setting 'monoclinic'
loop_
_space_group_symop_operation_xyz
x,y,z
-x,y,-z
-x,-y,-z
x,-y,z
1/2+x,1/2+y,z
1/2-x,1/2+y,-z
1/2-x,1/2-y,-z
1/2+x,1/2-y,z
loop_
_atom_site_type_symbol
_atom_site_label
_atom_site_fract_x
_atom_site_fract_y
_atom_site_fract_z
Si Si1 0.065286 0.833450 0.480463
Si Si2 0.627790 0.844300 0.790068
Si Si3 0.499522 0.156537 0.097098
Si Si4 0.698595 0.835242 0.919894
Si Si5 0.022229 0.845267 0.230983
Si Si6 0.601185 0.346891 0.655066
Si Si7 0.404759 0.833360 0.692556
Si Si8 0.191514 0.336991 0.121749
O O1 0.088044 0.787752 0.564739
O O2 0.104770 0.739504 0.397152
O O3 0.000000 0.795517 0.500000
O O4 0.073806 0.000000 0.459272
O O5 0.562247 0.852692 0.835817
O O6 0.656046 0.783455 0.865017
O O7 0.640460 0.752187 0.696238
O O8 0.651555 0.000000 0.759451
O O9 0.537817 0.261919 0.134317
O O10 0.527018 0.000000 0.085432
O O11 0.500000 0.219022 0.000000
O O12 0.755689 0.753604 0.876410
O O13 0.710913 0.000000 0.904805
O O14 0.673815 0.802493 0.029570
O O15 0.039830 0.746313 0.302569
O O16 0.956671 0.866683 0.266157
O O17 0.051293 0.000000 0.219383
O O18 0.630480 0.500000 0.633747
O O19 0.356975 0.796806 0.786294
O O20 0.414567 0.000000 0.678191
O O21 0.207539 0.500000 0.123359
#
# Coordination Sequence:
#
# PCOD8087212 Si02
#       8
#     8   8   8   8   8   8   8   8
#     4  10  19  35  54  73 104 143 176 211 258 306
#     4   9  18  31  50  75 100 131 170 211 252 303
#     4   9  18  30  46  68  99 138 172 205 252 304
#     4   9  18  35  57  77 101 135 172 211 260 312
#     4  10  19  32  47  67 101 138 174 211 248 297
#     4   9  18  33  51  71 100 137 172 207 249 299
#     4  11  22  33  51  78 105 136 172 215 264 308
#     4   9  20  36  54  77 106 133 168 217 262 310
#
# _framework density 18.413837000000001
#
# number of rings (size 3 to 8) (size 9 to 14) (size 15 to 20)
#    0.000    2.500    1.250    0.750    1.750    3.000 
#    0.000    0.000    0.000    0.750    0.000    0.000 
#    0.000    0.000    0.000    0.000    0.000    0.000 
#
# Total GULP energy -396526.719713 kJ/mol
# GULP energy per Si atom -12391.459991 kJ/mol
# Density = 1.837193 g / cm^3
# Si number density = 18.413837 Si / 1000 Ang^3
#
#
#
# Elastic Constant Matrix: (Units=GPa)
#
#
# Indices 1 2 3 4 5 6 
#
# 1 43.4160 31.6880 34.8106 0.0000 15.8483 0.0000
# 2 31.6880 89.0312 62.5233 0.0000 15.8331 0.0000
# 3 34.8106 62.5233 130.5937 0.0000 28.7047 0.0000
# 4 0.0000 0.0000 0.0000 26.5091 0.0000 4.8736
# 5 15.8483 15.8331 28.7047 0.0000 31.3184 0.0000
# 6 0.0000 0.0000 0.0000 4.8736 0.0000 23.9969
#
#
#
# Elastic Compliance Matrix: (Units=1/GPa)
#
#
# Indices 1 2 3 4 5 6 
#
# 1 0.035763 -0.008702 -0.002950 0.000000 -0.010994 0.000000
# 2 -0.008702 0.019089 -0.007096 0.000000 0.001256 0.000000
# 3 -0.002950 -0.007096 0.013430 0.000000 -0.007229 0.000000
# 4 0.000000 0.000000 0.000000 0.039186 0.000000 -0.007958
# 5 -0.010994 0.001256 -0.007229 0.000000 0.043484 0.000000
# 6 0.000000 0.000000 0.000000 -0.007958 0.000000 0.043288
#
#
# Mechanical properties :
#
#
# Convention : Reuss Voigt Hill
#
# Bulk Modulus (GPa) = 32.48218 57.89830 45.19024
# Shear Modulus (GPa) = 20.66145 25.29947 22.98046
#
# Velocity S-wave (km/s) = 3.35335 3.71069 3.53654
# Velocity P-wave (km/s) = 5.71591 7.06187 6.42424
#
# Compressibility (1/GPa) = 0.03078611
#
# Stress axis : x y z
#
# Youngs Moduli (GPa) = 27.96204 52.38714 74.46140
#
# Poissons Ratio (x) = 0.45585 0.21968
# Poissons Ratio (y) = 0.24332 0.52835
# Poissons Ratio (z) = 0.08250 0.37172
#
# Static dielectric constant tensor:
#      x y z
#    x 3.058800 0.000000 0.279030 
#    y 0.000000 3.763960 0.000000 
#    z 0.279030 0.000000 3.490520 
# 
# 
# High freq. dielectric constant tensor:
#      x y z
#    x 1.673440 0.000000 0.026250 
#    y 0.000000 1.717540 0.000000 
#    z 0.026250 0.000000 1.714620 
# 
# From -- ./inp_files/243808.got.cif
#   From: 2010.06.25/outbox.cif.g09.slc.cpg/sg12_122_cif.got.tgz:243808.got - 2010.06.28 00:19:55.
