data_PCOD8087565
_publ_section_title
;
Structure prediction by ZEFSAII (Michael W. Deem and Ramdas Pophale) SiO2 
 PCOD8087565
Probable space group: C 2/M
;
_chemical_formula_sum "Si O2"
_cell_formula_units_Z 56
_cell_length_a 8.713633
_cell_length_b 18.937186
_cell_length_c 22.514536
_cell_angle_alpha 90.000000
_cell_angle_beta 54.511891
_cell_angle_gamma 90.000000
_cell_volume 3025.018396
_symmetry_space_group_name_H-M "C 2/M"
_symmetry_group_IT_number 12
_symmetry_cell_setting 'monoclinic'
loop_
_space_group_symop_operation_xyz
x,y,z
-x,y,-z
-x,-y,-z
x,-y,z
1/2+x,1/2+y,z
1/2-x,1/2+y,-z
1/2-x,1/2-y,-z
1/2+x,1/2-y,z
loop_
_atom_site_type_symbol
_atom_site_label
_atom_site_fract_x
_atom_site_fract_y
_atom_site_fract_z
Si Si1 0.554479 0.172417 0.842546
Si Si2 0.179224 0.674152 1.000000
Si Si3 0.682817 0.825732 0.423293
Si Si4 0.417882 0.327583 0.842546
Si Si5 0.116509 0.079064 0.710567
Si Si6 0.547303 0.325731 0.423293
Si Si7 0.248209 0.920936 0.289433
O O1 0.502623 0.250000 0.831585
O O2 0.748545 0.179477 0.834303
O O3 0.579956 0.120287 0.781020
O O4 0.389277 0.138365 0.922510
O O5 0.343192 0.638365 0.922510
O O6 0.250000 0.750000 0.000000
O O7 0.000000 0.684598 0.000000
O O8 0.500000 0.852222 0.500000
O O9 0.720307 0.881452 0.362586
O O10 0.647724 0.750000 0.401517
O O11 0.856424 0.819524 0.429050
O O12 0.576983 0.379712 0.781020
O O13 0.928296 0.076405 0.714470
O O14 0.185816 0.000000 0.710006
O O15 0.500000 0.352222 0.500000
O O16 0.691936 0.381452 0.362586
O O17 0.315834 0.000000 0.289994
#
# Coordination Sequence:
#
# PCOD8087565 Si02
#       7
#     8   8   8   8   8   8   8
#     4   9  16  28  47  68  91 118 150 187 223 263
#     4   8  14  24  41  67  91 113 145 184 224 260
#     4  10  19  32  51  71  91 116 148 186 225 266
#     4   9  16  28  47  68  91 118 150 187 223 263
#     4   9  18  31  46  66  93 123 151 181 222 268
#     4  10  19  32  51  71  91 116 148 186 225 266
#     4   9  18  31  46  66  93 123 151 181 222 268
#
# _framework density 18.512284999999999
#
# number of rings (size 3 to 8) (size 9 to 14) (size 15 to 20)
#    0.000    2.857    0.000    2.571    0.000    0.571 
#    0.000    2.143    0.000   11.143    0.000    0.000 
#    0.000   11.429    0.000    0.000    0.000    0.000 
#
# Total GULP energy -346912.501052 kJ/mol
# GULP energy per Si atom -12389.732180 kJ/mol
# Density = 1.847015 g / cm^3
# Si number density = 18.512285 Si / 1000 Ang^3
#
#
#
# Elastic Constant Matrix: (Units=GPa)
#
#
# Indices 1 2 3 4 5 6 
#
# 1 29.7056 19.6907 31.6330 0.0000 -3.1036 0.0001
# 2 19.6907 130.0914 111.5683 0.0000 -7.4742 0.0001
# 3 31.6330 111.5683 207.6016 0.0000 -11.3680 0.0000
# 4 0.0000 0.0000 0.0000 12.0783 0.0000 0.3406
# 5 -3.1036 -7.4742 -11.3680 0.0000 18.7842 -0.0001
# 6 0.0001 0.0001 0.0000 0.3406 -0.0001 16.2663
#
#
#
# Elastic Compliance Matrix: (Units=1/GPa)
#
#
# Indices 1 2 3 4 5 6 
#
# 1 0.040508 -0.001497 -0.005207 0.000000 0.002946 0.000000
# 2 -0.001497 0.014335 -0.007423 0.000000 0.000964 0.000000
# 3 -0.005207 -0.007423 0.009712 0.000000 0.002064 0.000000
# 4 0.000000 0.000000 0.000000 0.082842 0.000000 -0.001735
# 5 0.002946 0.000964 0.002064 0.000000 0.055356 0.000000
# 6 0.000000 0.000000 0.000000 -0.001735 0.000000 0.061513
#
#
# Mechanical properties :
#
#
# Convention : Reuss Voigt Hill
#
# Bulk Modulus (GPa) = 27.54604 77.02028 52.28316
# Shear Modulus (GPa) = 16.41388 23.05953 19.73671
#
# Velocity S-wave (km/s) = 2.98089 3.53318 3.26872
# Velocity P-wave (km/s) = 5.17299 7.63805 6.52302
#
# Compressibility (1/GPa) = 0.03630286
#
# Stress axis : x y z
#
# Youngs Moduli (GPa) = 24.68637 69.76014 102.96033
#
# Poissons Ratio (x) = 0.10441 0.53608
# Poissons Ratio (y) = 0.03695 0.76426
# Poissons Ratio (z) = 0.12853 0.51782
#
# Static dielectric constant tensor:
#      x y z
#    x 3.624500 0.000000 -0.042210 
#    y 0.000000 3.332760 0.000000 
#    z -0.042210 0.000000 4.143480 
# 
# 
# High freq. dielectric constant tensor:
#      x y z
#    x 1.690290 0.000000 -0.004620 
#    y 0.000000 1.690210 0.000000 
#    z -0.004620 0.000000 1.747090 
# 
# From -- ./inp_files/301395.got.cif
#   From: 2010.06.25/outbox.cif.g09.slc.cpg/sg12_151_cif.got.tgz:301395.got - 2010.06.28 00:19:55.
