data_PCOD8087238
_publ_section_title
;
Structure prediction by ZEFSAII (Michael W. Deem and Ramdas Pophale) SiO2 
 PCOD8087238
Probable space group: C 2/M
;
_chemical_formula_sum "Si O2"
_cell_formula_units_Z 64
_cell_length_a 27.827154
_cell_length_b 8.980197
_cell_length_c 14.982385
_cell_angle_alpha 90.000000
_cell_angle_beta 89.960876
_cell_angle_gamma 90.000000
_cell_volume 3743.997129
_symmetry_space_group_name_H-M "C 2/M"
_symmetry_group_IT_number 12
_symmetry_cell_setting 'monoclinic'
loop_
_space_group_symop_operation_xyz
x,y,z
-x,y,-z
-x,-y,-z
x,-y,z
1/2+x,1/2+y,z
1/2-x,1/2+y,-z
1/2-x,1/2-y,-z
1/2+x,1/2-y,z
loop_
_atom_site_type_symbol
_atom_site_label
_atom_site_fract_x
_atom_site_fract_y
_atom_site_fract_z
Si Si1 0.245445 0.674132 0.096555
Si Si2 0.098817 0.174102 0.970812
Si Si3 0.666291 0.823093 0.827474
Si Si4 0.444484 0.828619 0.742905
Si Si5 0.492842 0.675177 0.399443
Si Si6 0.912772 0.336131 0.298818
Si Si7 0.977526 0.663616 0.125327
Si Si8 0.362841 0.829818 0.863910
O O1 0.256477 0.500000 0.084491
O O2 0.281677 0.746530 0.168067
O O3 0.193585 0.702746 0.140812
O O4 0.250000 0.750000 0.000000
O O5 0.136672 0.262392 0.911089
O O6 0.044009 0.226416 0.949819
O O7 0.103433 0.000000 0.952316
O O8 0.111565 0.212452 0.071740
O O9 0.640699 0.782124 0.732087
O O10 0.671267 0.000000 0.837938
O O11 0.462318 0.735257 0.658278
O O12 0.472405 0.777663 0.833483
O O13 0.387847 0.807053 0.765826
O O14 0.457603 0.000000 0.721862
O O15 0.500000 0.731821 0.500000
O O16 0.493976 0.500000 0.392724
O O17 0.440154 0.727161 0.366439
O O18 0.910169 0.500000 0.343436
O O19 0.940670 0.345050 0.206569
O O20 0.983664 0.500000 0.082230
O O21 0.372142 0.000000 0.896253
#
# Coordination Sequence:
#
# PCOD8087238 Si02
#       8
#     8   8   8   8   8   8   8   8
#     4  11  21  32  49  70  94 128 171 214 254 291
#     4  11  20  28  43  66  91 125 167 203 244 289
#     4  10  19  32  48  67  96 128 165 212 251 283
#     4   9  19  35  52  69  91 127 166 197 235 286
#     4  10  20  33  52  80 109 130 149 186 242 296
#     4   8  16  30  49  72  96 128 164 197 236 286
#     4   8  15  29  46  63  89 123 161 200 237 278
#     4  10  21  35  48  64  92 127 166 209 246 282
#
# _framework density 17.094031000000001
#
# number of rings (size 3 to 8) (size 9 to 14) (size 15 to 20)
#    0.000    2.375    1.250    3.750    0.000    7.500 
#    0.000    2.500    0.000    0.000    0.000    0.875 
#    0.000    0.000    0.000    0.000    0.000    0.000 
#
# Total GULP energy -396577.777921 kJ/mol
# GULP energy per Si atom -12393.055560 kJ/mol
# Density = 1.705512 g / cm^3
# Si number density = 17.094031 Si / 1000 Ang^3
#
#
#
# Elastic Constant Matrix: (Units=GPa)
#
#
# Indices 1 2 3 4 5 6 
#
# 1 117.9352 47.8963 52.6559 0.0000 5.0368 0.0000
# 2 47.8963 84.0137 41.5062 0.0000 4.6215 0.0000
# 3 52.6559 41.5062 79.5846 0.0000 9.7974 0.0000
# 4 0.0000 0.0000 0.0000 21.2338 0.0000 6.1670
# 5 5.0368 4.6215 9.7974 0.0000 16.0622 0.0000
# 6 0.0000 0.0000 0.0000 6.1670 0.0000 23.0423
#
#
#
# Elastic Compliance Matrix: (Units=1/GPa)
#
#
# Indices 1 2 3 4 5 6 
#
# 1 0.013108 -0.004286 -0.006577 0.000000 0.001135 0.000000
# 2 -0.004286 0.017440 -0.006279 0.000000 0.000156 0.000000
# 3 -0.006577 -0.006279 0.021316 0.000000 -0.009133 0.000000
# 4 0.000000 0.000000 0.000000 0.051064 0.000000 -0.013667
# 5 0.001135 0.000156 -0.009133 0.000000 0.067428 0.000000
# 6 0.000000 0.000000 0.000000 -0.013667 0.000000 0.047056
#
#
# Mechanical properties :
#
#
# Convention : Reuss Voigt Hill
#
# Bulk Modulus (GPa) = 56.88393 62.85004 59.86699
# Shear Modulus (GPa) = 19.41333 21.36601 20.38967
#
# Velocity S-wave (km/s) = 3.37364 3.53924 3.45743
# Velocity P-wave (km/s) = 6.96596 7.31770 7.14399
#
# Compressibility (1/GPa) = 0.01757966
#
# Stress axis : x y z
#
# Youngs Moduli (GPa) = 76.28962 57.34052 46.91349
#
# Poissons Ratio (x) = 0.24576 0.30855
# Poissons Ratio (y) = 0.32697 0.29457
# Poissons Ratio (z) = 0.50176 0.36004
#
# Static dielectric constant tensor:
#      x y z
#    x 3.710350 0.000000 0.268750 
#    y 0.000000 3.208590 0.000000 
#    z 0.268750 0.000000 2.927810 
# 
# 
# High freq. dielectric constant tensor:
#      x y z
#    x 1.660510 0.000000 0.010480 
#    y 0.000000 1.661560 0.000000 
#    z 0.010480 0.000000 1.613760 
# 
# From -- ./inp_files/248420.got.cif
#   From: 2010.06.25/outbox.cif.g09.slc.cpg/sg12_125_cif.got.tgz:248420.got - 2010.06.28 00:19:55.
