data_PCOD8087534
_publ_section_title
;
Structure prediction by ZEFSAII (Michael W. Deem and Ramdas Pophale) SiO2 
 PCOD8087534
Probable space group: C 2/M
;
_chemical_formula_sum "Si O2"
_cell_formula_units_Z 64
_cell_length_a 21.343834
_cell_length_b 11.453954
_cell_length_c 18.877017
_cell_angle_alpha 90.000000
_cell_angle_beta 132.725348
_cell_angle_gamma 90.000000
_cell_volume 3390.164198
_symmetry_space_group_name_H-M "C 2/M"
_symmetry_group_IT_number 12
_symmetry_cell_setting 'monoclinic'
loop_
_space_group_symop_operation_xyz
x,y,z
-x,y,-z
-x,-y,-z
x,-y,z
1/2+x,1/2+y,z
1/2-x,1/2+y,-z
1/2-x,1/2-y,-z
1/2+x,1/2-y,z
loop_
_atom_site_type_symbol
_atom_site_label
_atom_site_fract_x
_atom_site_fract_y
_atom_site_fract_z
Si Si1 0.021695 0.246726 0.832144
Si Si2 0.306200 0.367778 0.023738
Si Si3 0.960464 0.636039 0.642850
Si Si4 0.881531 0.636093 0.330133
Si Si5 0.290177 0.310305 0.856000
Si Si6 0.321310 0.861337 0.433434
Si Si7 0.146012 0.870198 0.245280
Si Si8 0.925181 0.633899 0.991323
O O1 0.096972 0.153640 0.874626
O O2 0.987484 0.295669 0.732641
O O3 0.941400 0.196349 0.811955
O O4 0.059051 0.345830 0.912899
O O5 0.276836 0.500000 0.029442
O O6 0.250000 0.250000 0.000000
O O7 0.308617 0.383227 0.941034
O O8 0.957651 0.500000 0.659969
O O9 0.868822 0.680835 0.541893
O O10 0.026150 0.662358 0.630133
O O11 0.857731 0.500000 0.304407
O O12 0.811229 0.707394 0.230871
O O13 0.878209 0.676638 0.409270
O O14 0.328506 0.376573 0.817585
O O15 0.334503 0.184922 0.897916
O O16 0.224686 0.811753 0.350688
O O17 0.316638 0.000000 0.430795
O O18 0.131174 0.000000 0.262280
O O19 0.918046 0.500000 0.968916
O O20 0.000000 0.689576 0.000000
#
# Coordination Sequence:
#
# PCOD8087534 Si02
#       8
#     8   8   8   8   8   8   8   8
#     4  11  22  34  52  78 104 143 183 221 272 321
#     4  11  24  39  57  81 114 148 188 229 277 333
#     4  10  19  32  50  76 108 142 176 219 271 325
#     4   9  16  29  52  79 106 132 168 219 270 324
#     4  10  19  34  56  80 102 139 178 219 274 321
#     4   8  16  30  51  77 104 133 168 216 276 329
#     4  10  19  34  54  77 104 131 171 223 276 327
#     4  10  20  35  50  71 105 141 180 222 266 321
#
# _framework density 18.878142
#
# number of rings (size 3 to 8) (size 9 to 14) (size 15 to 20)
#    0.000    2.125    1.250    3.750    0.000    5.500 
#    0.000    1.875    0.000    0.000    0.000    3.500 
#    0.000   12.000    0.000    0.000    0.000    0.000 
#
# Total GULP energy -396431.828816 kJ/mol
# GULP energy per Si atom -12388.494650 kJ/mol
# Density = 1.883517 g / cm^3
# Si number density = 18.878142 Si / 1000 Ang^3
#
#
#
# Elastic Constant Matrix: (Units=GPa)
#
#
# Indices 1 2 3 4 5 6 
#
# 1 56.0457 24.6231 28.8428 0.0000 11.4876 0.0000
# 2 24.6231 70.6209 30.9663 0.0000 7.7365 0.0000
# 3 28.8428 30.9663 136.0805 0.0000 6.8632 0.0000
# 4 0.0000 0.0000 0.0000 20.8743 0.0000 3.5567
# 5 11.4876 7.7365 6.8632 0.0000 29.0188 0.0000
# 6 0.0000 0.0000 0.0000 3.5567 0.0000 17.8949
#
#
#
# Elastic Compliance Matrix: (Units=1/GPa)
#
#
# Indices 1 2 3 4 5 6 
#
# 1 0.023607 -0.006030 -0.003280 0.000000 -0.006962 0.000000
# 2 -0.006030 0.017606 -0.002644 0.000000 -0.001682 0.000000
# 3 -0.003280 -0.002644 0.008648 0.000000 -0.000042 0.000000
# 4 0.000000 0.000000 0.000000 0.049585 0.000000 -0.009855
# 5 -0.006962 -0.001682 -0.000042 0.000000 0.037675 0.000000
# 6 0.000000 0.000000 0.000000 -0.009855 0.000000 0.057841
#
#
# Mechanical properties :
#
#
# Convention : Reuss Voigt Hill
#
# Bulk Modulus (GPa) = 38.53136 47.95683 43.24409
# Shear Modulus (GPa) = 21.97621 25.44526 23.71073
#
# Velocity S-wave (km/s) = 3.41560 3.67532 3.54784
# Velocity P-wave (km/s) = 6.00083 6.59311 6.30393
#
# Compressibility (1/GPa) = 0.02595289
#
# Stress axis : x y z
#
# Youngs Moduli (GPa) = 42.36065 56.79923 115.64003
#
# Poissons Ratio (x) = 0.34249 0.37933
# Poissons Ratio (y) = 0.25543 0.30569
# Poissons Ratio (z) = 0.13896 0.15015
#
# Static dielectric constant tensor:
#      x y z
#    x 3.562660 0.000000 0.153530 
#    y 0.000000 3.159480 0.000000 
#    z 0.153530 0.000000 3.711350 
# 
# 
# High freq. dielectric constant tensor:
#      x y z
#    x 1.732800 0.000000 0.008720 
#    y 0.000000 1.690190 0.000000 
#    z 0.008720 0.000000 1.745910 
# 
# From -- ./inp_files/283344.got.cif
#   From: 2010.06.25/outbox.cif.g09.slc.cpg/sg12_142_cif.got.tgz:283344.got - 2010.06.28 00:19:55.
