data_PCOD8087376
_publ_section_title
;
Structure prediction by ZEFSAII (Michael W. Deem and Ramdas Pophale) SiO2 
 PCOD8087376
Probable space group: C 2/M
;
_chemical_formula_sum "Si O2"
_cell_formula_units_Z 64
_cell_length_a 22.582797
_cell_length_b 8.997875
_cell_length_c 18.884674
_cell_angle_alpha 90.000000
_cell_angle_beta 98.126171
_cell_angle_gamma 90.000000
_cell_volume 3798.782881
_symmetry_space_group_name_H-M "C 2/M"
_symmetry_group_IT_number 12
_symmetry_cell_setting 'monoclinic'
loop_
_space_group_symop_operation_xyz
x,y,z
-x,y,-z
-x,-y,-z
x,-y,z
1/2+x,1/2+y,z
1/2-x,1/2+y,-z
1/2-x,1/2-y,-z
1/2+x,1/2-y,z
loop_
_atom_site_type_symbol
_atom_site_label
_atom_site_fract_x
_atom_site_fract_y
_atom_site_fract_z
Si Si1 0.598697 0.665987 0.627799
Si Si2 0.994755 0.175785 0.200413
Si Si3 0.296323 0.327996 0.105668
Si Si4 0.539091 0.664078 0.354603
Si Si5 0.331963 0.170287 0.973968
Si Si6 0.374532 0.176464 0.228057
Si Si7 0.457289 0.171526 0.927809
Si Si8 0.569126 0.833799 0.490306
O O1 0.626036 0.500000 0.632164
O O2 0.528951 0.659299 0.631837
O O3 0.631187 0.764238 0.692845
O O4 0.608380 0.738727 0.552242
O O5 0.932094 0.260179 0.196951
O O6 0.038873 0.219888 0.273116
O O7 0.026870 0.222492 0.134260
O O8 0.981792 0.000000 0.199581
O O9 0.311422 0.500000 0.121540
O O10 0.332056 0.275866 0.042094
O O11 0.316103 0.231167 0.176244
O O12 0.225815 0.300066 0.084220
O O13 0.567402 0.500000 0.365226
O O14 0.577252 0.771003 0.412028
O O15 0.333450 0.000000 0.001169
O O16 0.389411 0.207761 0.936858
O O17 0.378090 0.000000 0.230072
O O18 0.465615 0.000000 0.906870
O O19 0.500000 0.212054 0.000000
O O20 0.500000 0.830166 0.500000
O O21 0.594396 0.000000 0.495219
#
# Coordination Sequence:
#
# PCOD8087376 Si02
#       8
#     8   8   8   8   8   8   8   8
#     4   9  16  26  39  57  84 116 149 184 223 267
#     4  10  20  32  46  66  91 120 155 191 228 272
#     4  10  19  32  50  69  91 119 152 188 226 271
#     4   8  15  26  38  54  80 114 148 182 220 262
#     4   9  19  34  50  70  94 120 150 185 227 272
#     4  11  20  30  45  65  91 121 154 191 231 272
#     4  10  20  33  49  69  94 122 150 184 227 271
#     4   9  15  22  35  56  81 112 149 183 217 260
#
# _framework density 16.847501000000001
#
# number of rings (size 3 to 8) (size 9 to 14) (size 15 to 20)
#    0.000    2.500    0.000    4.125    0.000    7.250 
#    0.000    0.000    0.000    0.000    0.000    0.000 
#    0.000    1.000    0.000    3.000    0.000    5.375 
#
# Total GULP energy -396781.611891 kJ/mol
# GULP energy per Si atom -12399.425372 kJ/mol
# Density = 1.680916 g / cm^3
# Si number density = 16.847501 Si / 1000 Ang^3
#
#
#
# Elastic Constant Matrix: (Units=GPa)
#
#
# Indices 1 2 3 4 5 6 
#
# 1 46.1673 29.4720 37.9744 0.0000 5.8615 0.0000
# 2 29.4720 123.5019 70.4436 0.0000 9.5873 0.0000
# 3 37.9744 70.4436 136.6931 0.0000 11.8111 0.0000
# 4 0.0000 0.0000 0.0000 34.9632 0.0000 1.5838
# 5 5.8615 9.5873 11.8111 0.0000 14.0273 0.0000
# 6 0.0000 0.0000 0.0000 1.5838 0.0000 16.4771
#
#
#
# Elastic Compliance Matrix: (Units=1/GPa)
#
#
# Indices 1 2 3 4 5 6 
#
# 1 0.029306 -0.003128 -0.006100 0.000000 -0.004972 0.000000
# 2 -0.003128 0.011927 -0.005054 0.000000 -0.002589 0.000000
# 3 -0.006100 -0.005054 0.011967 0.000000 -0.004073 0.000000
# 4 0.000000 0.000000 0.000000 0.028727 0.000000 -0.002761
# 5 -0.004972 -0.002589 -0.004073 0.000000 0.078567 0.000000
# 6 0.000000 0.000000 0.000000 -0.002761 0.000000 0.060956
#
#
# Mechanical properties :
#
#
# Convention : Reuss Voigt Hill
#
# Bulk Modulus (GPa) = 40.59087 64.68248 52.63668
# Shear Modulus (GPa) = 19.36305 24.32499 21.84402
#
# Velocity S-wave (km/s) = 3.39383 3.80390 3.60470
# Velocity P-wave (km/s) = 6.28513 7.60060 6.97395
#
# Compressibility (1/GPa) = 0.02463608
#
# Stress axis : x y z
#
# Youngs Moduli (GPa) = 34.12291 83.84214 83.56646
#
# Poissons Ratio (x) = 0.26229 0.50972
# Poissons Ratio (y) = 0.10675 0.42232
# Poissons Ratio (z) = 0.20814 0.42372
#
# Static dielectric constant tensor:
#      x y z
#    x 2.702570 0.000000 0.146400 
#    y 0.000000 3.300040 0.000000 
#    z 0.146400 0.000000 3.360820 
# 
# 
# High freq. dielectric constant tensor:
#      x y z
#    x 1.585800 0.000000 0.015570 
#    y 0.000000 1.662420 0.000000 
#    z 0.015570 0.000000 1.660810 
# 
# From -- ./inp_files/287703.got.cif
#   From: 2010.06.25/outbox.cif.g09.slc.cpg/sg12_144_cif.got.tgz:287703.got - 2010.06.28 00:19:55.
