data_PCOD8087241
_publ_section_title
;
Structure prediction by ZEFSAII (Michael W. Deem and Ramdas Pophale) SiO2 
 PCOD8087241
Probable space group: C 2/M
;
_chemical_formula_sum "Si O2"
_cell_formula_units_Z 64
_cell_length_a 28.696234
_cell_length_b 9.349169
_cell_length_c 13.980054
_cell_angle_alpha 90.000000
_cell_angle_beta 72.756455
_cell_angle_gamma 90.000000
_cell_volume 3582.072696
_symmetry_space_group_name_H-M "C 2/M"
_symmetry_group_IT_number 12
_symmetry_cell_setting 'monoclinic'
loop_
_space_group_symop_operation_xyz
x,y,z
-x,y,-z
-x,-y,-z
x,-y,z
1/2+x,1/2+y,z
1/2-x,1/2+y,-z
1/2-x,1/2-y,-z
1/2+x,1/2-y,z
loop_
_atom_site_type_symbol
_atom_site_label
_atom_site_fract_x
_atom_site_fract_y
_atom_site_fract_z
Si Si1 0.554517 0.661228 0.485320
Si Si2 0.420974 0.663064 0.808804
Si Si3 0.471238 0.658691 0.291023
Si Si4 0.872214 0.666886 0.683120
Si Si5 0.690406 0.832631 0.624348
Si Si6 0.405280 0.168922 0.202877
Si Si7 0.784625 0.665257 0.602930
Si Si8 0.444222 0.332283 0.010195
O O1 0.500000 0.712888 0.500000
O O2 0.563577 0.500000 0.439673
O O3 0.562025 0.664575 0.594745
O O4 0.590702 0.773087 0.417356
O O5 0.402866 0.500000 0.817574
O O6 0.471582 0.683585 0.719084
O O7 0.379521 0.757513 0.781610
O O8 0.430643 0.713973 0.910887
O O9 0.466861 0.500000 0.245409
O O10 0.453475 0.778707 0.228845
O O11 0.882032 0.500000 0.689759
O O12 0.818494 0.697358 0.673943
O O13 0.641791 0.780960 0.708126
O O14 0.735928 0.756036 0.646816
O O15 0.687938 0.792312 0.513068
O O16 0.697750 0.000000 0.634397
O O17 0.406252 0.244995 0.099245
O O18 0.407437 0.000000 0.188195
O O19 0.769703 0.500000 0.607807
O O20 0.436139 0.500000 0.031266
O O21 0.500000 0.289274 0.000000
#
# Coordination Sequence:
#
# PCOD8087241 Si02
#       8
#     8   8   8   8   8   8   8   8
#     4  10  19  32  48  68 100 141 182 215 244 299
#     4  10  20  36  54  72 101 141 184 222 254 305
#     4  10  19  33  51  71 101 142 183 217 252 305
#     4  11  22  34  51  77 110 142 173 217 273 322
#     4   9  19  36  56  80 109 139 173 216 265 316
#     4  11  22  34  53  81 112 137 168 222 279 325
#     4   9  19  36  56  79 109 141 175 214 260 318
#     4  10  20  37  57  75 102 142 186 227 264 310
#
# _framework density 17.866751000000001
#
# number of rings (size 3 to 8) (size 9 to 14) (size 15 to 20)
#    0.000    2.000    2.500    1.500    0.000    5.000 
#    0.000    2.500    0.000    0.750    0.000    0.000 
#    0.000    0.000    0.000    0.000    0.000    0.000 
#
# Total GULP energy -396783.119484 kJ/mol
# GULP energy per Si atom -12399.472484 kJ/mol
# Density = 1.782609 g / cm^3
# Si number density = 17.866751 Si / 1000 Ang^3
#
#
#
# Elastic Constant Matrix: (Units=GPa)
#
#
# Indices 1 2 3 4 5 6 
#
# 1 86.6138 47.9656 36.7375 0.0000 13.2665 0.0000
# 2 47.9656 68.6715 38.0284 0.0000 6.0923 0.0000
# 3 36.7375 38.0284 80.0860 0.0000 10.6428 0.0000
# 4 0.0000 0.0000 0.0000 31.7571 0.0000 2.1365
# 5 13.2665 6.0923 10.6428 0.0000 27.9690 0.0000
# 6 0.0000 0.0000 0.0000 2.1365 0.0000 31.6369
#
#
#
# Elastic Compliance Matrix: (Units=1/GPa)
#
#
# Indices 1 2 3 4 5 6 
#
# 1 0.020371 -0.012162 -0.002778 0.000000 -0.005956 0.000000
# 2 -0.012162 0.027034 -0.007628 0.000000 0.002783 0.000000
# 3 -0.002778 -0.007628 0.017892 0.000000 -0.003829 0.000000
# 4 0.000000 0.000000 0.000000 0.031633 0.000000 -0.002136
# 5 -0.005956 0.002783 -0.003829 0.000000 0.039430 0.000000
# 6 0.000000 0.000000 0.000000 -0.002136 0.000000 0.031753
#
#
# Mechanical properties :
#
#
# Convention : Reuss Voigt Hill
#
# Bulk Modulus (GPa) = 49.59995 53.42604 51.51300
# Shear Modulus (GPa) = 22.73037 25.78192 24.25615
#
# Velocity S-wave (km/s) = 3.57068 3.80282 3.68858
# Velocity P-wave (km/s) = 6.69485 7.01779 6.85822
#
# Compressibility (1/GPa) = 0.02016131
#
# Stress axis : x y z
#
# Youngs Moduli (GPa) = 49.08830 36.99005 55.89125
#
# Poissons Ratio (x) = 0.44988 0.15528
# Poissons Ratio (y) = 0.59702 0.42633
# Poissons Ratio (z) = 0.13638 0.28215
#
# Static dielectric constant tensor:
#      x y z
#    x 3.177320 0.000000 0.104330 
#    y 0.000000 3.218980 0.000000 
#    z 0.104330 0.000000 3.349500 
# 
# 
# High freq. dielectric constant tensor:
#      x y z
#    x 1.673240 0.000000 0.014800 
#    y 0.000000 1.688460 0.000000 
#    z 0.014800 0.000000 1.685150 
# 
# From -- ./inp_files/243779.got.cif
#   From: 2010.06.25/outbox.cif.g09.slc.cpg/sg12_122_cif.got.tgz:243779.got - 2010.06.28 00:19:55.
