data_PCOD8087674
_publ_section_title
;
Structure prediction by ZEFSAII (Michael W. Deem and Ramdas Pophale) SiO2 
 PCOD8087674
Probable space group: C 2/M
;
_chemical_formula_sum "Si O2"
_cell_formula_units_Z 64
_cell_length_a 28.304669
_cell_length_b 13.198284
_cell_length_c 9.305493
_cell_angle_alpha 90.000000
_cell_angle_beta 83.173496
_cell_angle_gamma 90.000000
_cell_volume 3451.636850
_symmetry_space_group_name_H-M "C 2/M"
_symmetry_group_IT_number 12
_symmetry_cell_setting 'monoclinic'
loop_
_space_group_symop_operation_xyz
x,y,z
-x,y,-z
-x,-y,-z
x,-y,z
1/2+x,1/2+y,z
1/2-x,1/2+y,-z
1/2-x,1/2-y,-z
1/2+x,1/2-y,z
loop_
_atom_site_type_symbol
_atom_site_label
_atom_site_fract_x
_atom_site_fract_y
_atom_site_fract_z
Si Si1 0.764985 0.381443 0.847771
Si Si2 0.848866 0.616760 0.606612
Si Si3 0.039577 0.728034 0.673764
Si Si4 0.435058 0.245030 0.656654
Si Si5 0.182906 0.260053 0.939573
Si Si6 0.371616 0.117322 0.281592
Si Si7 0.883119 0.113138 0.880078
Si Si8 0.043793 0.111728 0.899765
O O1 0.751632 0.500000 0.860611
O O2 0.799125 0.358227 0.700458
O O3 0.718011 0.314075 0.838639
O O4 0.788871 0.349810 0.990366
O O5 0.861518 0.500000 0.609386
O O6 0.891860 0.666249 0.681056
O O7 0.845586 0.649998 0.440234
O O8 0.052077 0.766944 0.511324
O O9 0.071568 0.632796 0.713415
O O10 0.056349 0.823844 0.757735
O O11 0.983495 0.701331 0.713019
O O12 0.418208 0.347691 0.741695
O O13 0.146559 0.311999 0.841370
O O14 0.158975 0.192786 0.074834
O O15 0.362388 0.000000 0.246517
O O16 0.864519 0.000000 0.844039
O O17 0.910006 0.105600 0.020061
O O18 0.027799 0.000000 0.854334
O O19 0.000000 0.163751 0.000000
#
# Coordination Sequence:
#
# PCOD8087674 Si02
#       8
#     8   8   8   8   8   8   8   8
#     4  10  21  37  59  85 109 140 181 225 274 329
#     4   9  19  37  58  80 110 146 182 221 273 328
#     4  10  20  34  54  80 111 146 187 230 265 319
#     4  10  20  34  54  80 111 148 186 225 271 317
#     4  11  21  36  59  83 110 143 178 229 273 329
#     4  10  21  37  57  81 111 147 182 225 275 323
#     4  11  21  34  53  77 108 144 182 226 273 322
#     4  10  19  32  51  74 103 142 183 223 272 324
#
# _framework density 18.541927000000001
#
# number of rings (size 3 to 8) (size 9 to 14) (size 15 to 20)
#    0.000    1.875    3.750    0.750    0.000    1.500 
#    0.000    3.750    0.000    1.125    0.000    0.000 
#    0.000    0.000    0.000    0.000    0.000    0.000 
#
# Total GULP energy -396648.941352 kJ/mol
# GULP energy per Si atom -12395.279417 kJ/mol
# Density = 1.849972 g / cm^3
# Si number density = 18.541927 Si / 1000 Ang^3
#
#
#
# Elastic Constant Matrix: (Units=GPa)
#
#
# Indices 1 2 3 4 5 6 
#
# 1 76.0565 37.5189 25.2662 0.0000 -5.6069 0.0000
# 2 37.5189 87.6282 36.6562 0.0000 -2.8759 0.0000
# 3 25.2662 36.6562 56.2040 0.0000 -1.9440 0.0000
# 4 0.0000 0.0000 0.0000 19.1027 0.0000 -11.7298
# 5 -5.6069 -2.8759 -1.9440 0.0000 28.3672 0.0000
# 6 0.0000 0.0000 0.0000 -11.7298 0.0000 20.1251
#
#
#
# Elastic Compliance Matrix: (Units=1/GPa)
#
#
# Indices 1 2 3 4 5 6 
#
# 1 0.017505 -0.005714 -0.004052 0.000000 0.002603 0.000000
# 2 -0.005714 0.017581 -0.008896 0.000000 0.000043 0.000000
# 3 -0.004052 -0.008896 0.025417 0.000000 0.000039 0.000000
# 4 0.000000 0.000000 0.000000 0.081526 0.000000 0.047517
# 5 0.002603 0.000043 0.000039 0.000000 0.035773 0.000000
# 6 0.000000 0.000000 0.000000 0.047517 0.000000 0.077384
#
#
# Mechanical properties :
#
#
# Convention : Reuss Voigt Hill
#
# Bulk Modulus (GPa) = 43.14421 46.53011 44.83716
# Shear Modulus (GPa) = 16.65336 21.54883 19.10109
#
# Velocity S-wave (km/s) = 3.00016 3.41276 3.21309
# Velocity P-wave (km/s) = 5.94308 6.37795 6.16435
#
# Compressibility (1/GPa) = 0.02317808
#
# Stress axis : x y z
#
# Youngs Moduli (GPa) = 57.12600 56.87846 39.34300
#
# Poissons Ratio (x) = 0.32503 0.15943
# Poissons Ratio (y) = 0.32644 0.35000
# Poissons Ratio (z) = 0.23150 0.50600
#
# Static dielectric constant tensor:
#      x y z
#    x 3.466320 0.000000 -0.125910 
#    y 0.000000 3.417780 0.000000 
#    z -0.125910 0.000000 3.426990 
# 
# 
# High freq. dielectric constant tensor:
#      x y z
#    x 1.718700 0.000000 -0.007980 
#    y 0.000000 1.713530 0.000000 
#    z -0.007980 0.000000 1.716390 
# 
# From -- ./inp_files/111178.got.cif
#   From: 2010.06.25/outbox.cif.g09.slc.cpg/sg12_56_cif.got.tgz:111178.got - 2010.06.28 00:19:55.
