data_PCOD8087741
_publ_section_title
;
Structure prediction by ZEFSAII (Michael W. Deem and Ramdas Pophale) SiO2 
 PCOD8087741
Probable space group: C 2/M
;
_chemical_formula_sum "Si O2"
_cell_formula_units_Z 64
_cell_length_a 20.692928
_cell_length_b 8.959847
_cell_length_c 19.733399
_cell_angle_alpha 90.000000
_cell_angle_beta 104.823107
_cell_angle_gamma 90.000000
_cell_volume 3536.920283
_symmetry_space_group_name_H-M "C 2/M"
_symmetry_group_IT_number 12
_symmetry_cell_setting 'monoclinic'
loop_
_space_group_symop_operation_xyz
x,y,z
-x,y,-z
-x,-y,-z
x,-y,z
1/2+x,1/2+y,z
1/2-x,1/2+y,-z
1/2-x,1/2-y,-z
1/2+x,1/2-y,z
loop_
_atom_site_type_symbol
_atom_site_label
_atom_site_fract_x
_atom_site_fract_y
_atom_site_fract_z
Si Si1 0.905575 0.172877 0.150621
Si Si2 0.429272 0.324722 0.452027
Si Si3 0.885654 0.169898 0.294370
Si Si4 0.163012 0.176982 0.156553
Si Si5 0.769435 0.676787 0.075162
Si Si6 0.255377 0.824591 0.295787
Si Si7 0.293472 0.177505 0.453189
Si Si8 0.519186 0.677656 0.079416
O O1 0.926561 0.193522 0.235410
O O2 0.842045 0.271855 0.117307
O O3 0.965723 0.232195 0.120317
O O4 0.889461 0.000000 0.130168
O O5 0.500000 0.267796 0.500000
O O6 0.419771 0.500000 0.463491
O O7 0.429842 0.285987 0.371833
O O8 0.369252 0.238819 0.473927
O O9 0.818982 0.266169 0.271876
O O10 0.862236 0.000000 0.295844
O O11 0.215565 0.234075 0.115197
O O12 0.188374 0.228481 0.238300
O O13 0.090513 0.246374 0.121018
O O14 0.157970 0.000000 0.152243
O O15 0.768408 0.500000 0.067462
O O16 0.750000 0.750000 0.000000
O O17 0.256627 0.770947 0.373893
O O18 0.261314 0.000000 0.294337
O O19 0.250000 0.250000 0.500000
O O20 0.295350 0.000000 0.462283
O O21 0.522559 0.500000 0.078421
O O22 0.500000 0.739797 0.000000
#
# Coordination Sequence:
#
# PCOD8087741 Si02
#       8
#     8   8   8   8   8   8   8   8
#     4  10  19  32  51  76 101 129 169 210 257 308
#     4   9  18  34  54  78 109 142 176 217 267 319
#     4   9  17  30  50  77 105 133 164 209 262 308
#     4   9  17  31  51  75  99 129 170 211 251 297
#     4  11  21  33  53  77 102 130 167 214 257 303
#     4   9  17  32  53  77 100 132 174 214 255 303
#     4  10  20  34  54  79 108 141 178 219 265 317
#     4   9  17  30  48  70  99 132 165 204 248 297
#
# _framework density 18.094836999999998
#
# number of rings (size 3 to 8) (size 9 to 14) (size 15 to 20)
#    0.000    2.500    1.250    1.500    0.000    2.750 
#    2.250    0.000    0.000    4.875    0.000    0.000 
#    0.000    0.000    0.000    0.000    0.000    0.000 
#
# Total GULP energy -396682.663510 kJ/mol
# GULP energy per Si atom -12396.333235 kJ/mol
# Density = 1.805365 g / cm^3
# Si number density = 18.094837 Si / 1000 Ang^3
#
#
#
# Elastic Constant Matrix: (Units=GPa)
#
#
# Indices 1 2 3 4 5 6 
#
# 1 157.7218 29.7398 95.3148 0.0000 3.5396 0.0000
# 2 29.7398 31.4327 29.9328 0.0000 -2.9340 0.0000
# 3 95.3148 29.9328 147.5514 0.0000 -0.8129 0.0000
# 4 0.0000 0.0000 0.0000 19.7130 0.0000 -0.3235
# 5 3.5396 -2.9340 -0.8129 0.0000 37.9955 0.0000
# 6 0.0000 0.0000 0.0000 -0.3235 0.0000 24.8242
#
#
#
# Elastic Compliance Matrix: (Units=1/GPa)
#
#
# Indices 1 2 3 4 5 6 
#
# 1 0.010969 -0.004665 -0.006148 0.000000 -0.001514 0.000000
# 2 -0.004665 0.041732 -0.005433 0.000000 0.003541 0.000000
# 3 -0.006148 -0.005433 0.011853 0.000000 0.000407 0.000000
# 4 0.000000 0.000000 0.000000 0.050739 0.000000 0.000661
# 5 -0.001514 0.003541 0.000407 0.000000 0.026742 0.000000
# 6 0.000000 0.000000 0.000000 0.000661 0.000000 0.040292
#
#
# Mechanical properties :
#
#
# Convention : Reuss Voigt Hill
#
# Bulk Modulus (GPa) = 31.18900 71.85341 51.52120
# Shear Modulus (GPa) = 22.17238 28.62111 25.39674
#
# Velocity S-wave (km/s) = 3.50429 3.98141 3.75044
# Velocity P-wave (km/s) = 5.80062 7.80583 6.87671
#
# Compressibility (1/GPa) = 0.03206259
#
# Stress axis : x y z
#
# Youngs Moduli (GPa) = 91.16494 23.96242 84.36725
#
# Poissons Ratio (x) = 0.11179 0.51867
# Poissons Ratio (y) = 0.42531 0.45835
# Poissons Ratio (z) = 0.56046 0.13018
#
# Static dielectric constant tensor:
#      x y z
#    x 3.439430 0.000000 0.117860 
#    y 0.000000 3.117390 0.000000 
#    z 0.117860 0.000000 3.665170 
# 
# 
# High freq. dielectric constant tensor:
#      x y z
#    x 1.690690 0.000000 0.003480 
#    y 0.000000 1.673850 0.000000 
#    z 0.003480 0.000000 1.717670 
# 
# From -- ./inp_files/314107.got.cif
#   From: 2010.06.25/outbox.cif.g09.slc.cpg/sg12_158_cif.got.tgz:314107.got - 2010.06.28 00:19:55.
