data_PCOD8087507
_publ_section_title
;
Structure prediction by ZEFSAII (Michael W. Deem and Ramdas Pophale) SiO2 
 PCOD8087507
Probable space group: C 2/M
;
_chemical_formula_sum "Si O2"
_cell_formula_units_Z 56
_cell_length_a 20.249486
_cell_length_b 9.156010
_cell_length_c 15.800464
_cell_angle_alpha 90.000000
_cell_angle_beta 88.013825
_cell_angle_gamma 90.000000
_cell_volume 2927.717095
_symmetry_space_group_name_H-M "C 2/M"
_symmetry_group_IT_number 12
_symmetry_cell_setting 'monoclinic'
loop_
_space_group_symop_operation_xyz
x,y,z
-x,y,-z
-x,-y,-z
x,-y,z
1/2+x,1/2+y,z
1/2-x,1/2+y,-z
1/2-x,1/2-y,-z
1/2+x,1/2-y,z
loop_
_atom_site_type_symbol
_atom_site_label
_atom_site_fract_x
_atom_site_fract_y
_atom_site_fract_z
Si Si1 0.542684 0.671830 0.915438
Si Si2 0.299026 0.833167 0.273125
Si Si3 0.047752 0.667961 0.749302
Si Si4 0.216413 0.159266 0.118513
Si Si5 0.047567 0.171642 0.574812
Si Si6 0.154339 0.660030 0.992590
Si Si7 0.198242 0.169887 0.560351
O O1 0.546294 0.500000 0.898403
O O2 0.514539 0.748916 0.831157
O O3 0.615010 0.734007 0.931722
O O4 0.500000 0.711421 0.000000
O O5 0.374034 0.821239 0.238526
O O6 0.248603 0.782331 0.203076
O O7 0.284736 0.718071 0.346275
O O8 0.284953 0.000000 0.302831
O O9 0.023919 0.500000 0.748358
O O10 0.027376 0.742696 0.661176
O O11 0.272822 0.139952 0.046342
O O12 0.183369 0.000000 0.134783
O O13 0.160201 0.268936 0.086365
O O14 0.122212 0.212166 0.542980
O O15 0.000000 0.219515 0.500000
O O16 0.041267 0.000000 0.594718
O O17 0.120128 0.500000 0.001100
O O18 0.250000 0.250000 0.500000
O O19 0.210135 0.000000 0.549298
#
# Coordination Sequence:
#
# PCOD8087507 Si02
#       7
#     8   8   8   8   8   8   8
#     4  11  23  37  53  74 104 145 188 227 272 325
#     4   9  17  32  53  77 106 137 173 217 264 318
#     4  10  19  34  56  82 108 137 180 229 276 324
#     4   9  17  31  50  75 104 134 167 208 260 311
#     4   9  19  37  60  85 112 145 186 226 273 336
#     4  10  19  32  50  75 103 133 171 215 262 305
#     4  10  20  34  54  81 110 143 179 221 273 325
#
# _framework density 19.12753
#
# number of rings (size 3 to 8) (size 9 to 14) (size 15 to 20)
#    0.000    2.286    1.429    1.714    0.000    3.714 
#    0.000    1.429    0.000    3.429    0.000    0.000 
#    0.000    0.000    0.000    0.000    0.000    0.000 
#
# Total GULP energy -347065.574871 kJ/mol
# GULP energy per Si atom -12395.199103 kJ/mol
# Density = 1.908399 g / cm^3
# Si number density = 19.127530 Si / 1000 Ang^3
#
#
#
# Elastic Constant Matrix: (Units=GPa)
#
#
# Indices 1 2 3 4 5 6 
#
# 1 40.0909 36.6618 52.8328 0.0000 9.4644 0.0000
# 2 36.6618 110.3019 76.9607 0.0000 3.6565 0.0000
# 3 52.8328 76.9607 146.6552 0.0000 16.7819 0.0000
# 4 0.0000 0.0000 0.0000 37.4525 0.0000 1.3963
# 5 9.4644 3.6565 16.7819 0.0000 31.9753 0.0000
# 6 0.0000 0.0000 0.0000 1.3963 0.0000 20.7017
#
#
#
# Elastic Compliance Matrix: (Units=1/GPa)
#
#
# Indices 1 2 3 4 5 6 
#
# 1 0.051665 -0.007127 -0.014060 0.000000 -0.007098 0.000000
# 2 -0.007127 0.015469 -0.005946 0.000000 0.003461 0.000000
# 3 -0.014060 -0.005946 0.015374 0.000000 -0.003227 0.000000
# 4 0.000000 0.000000 0.000000 0.026768 0.000000 -0.001805
# 5 -0.007098 0.003461 -0.003227 0.000000 0.034673 0.000000
# 6 0.000000 0.000000 0.000000 -0.001805 0.000000 0.048427
#
#
# Mechanical properties :
#
#
# Convention : Reuss Voigt Hill
#
# Bulk Modulus (GPa) = 35.40953 69.99540 52.70246
# Shear Modulus (GPa) = 19.52698 26.73208 23.12953
#
# Velocity S-wave (km/s) = 3.19859 3.74247 3.48117
# Velocity P-wave (km/s) = 5.67396 7.43964 6.61597
#
# Compressibility (1/GPa) = 0.02824099
#
# Stress axis : x y z
#
# Youngs Moduli (GPa) = 19.35546 64.64533 65.04596
#
# Poissons Ratio (x) = 0.46071 0.91456
# Poissons Ratio (y) = 0.13794 0.38679
# Poissons Ratio (z) = 0.27214 0.38441
#
# Static dielectric constant tensor:
#      x y z
#    x 2.866250 0.000000 1.074310 
#    y 0.000000 3.809840 0.000000 
#    z 1.074310 0.000000 1.032750 
# 
# 
# High freq. dielectric constant tensor:
#      x y z
#    x 1.709380 0.000000 0.014480 
#    y 0.000000 1.753130 0.000000 
#    z 0.014480 0.000000 1.744610 
# 
# From -- ./inp_files/230851.got.cif
#   From: 2010.06.25/outbox.cif.g09.slc.cpg/sg12_116_cif.got.tgz:230851.got - 2010.06.28 00:19:55.
