data_PCOD8087284
_publ_section_title
;
Structure prediction by ZEFSAII (Michael W. Deem and Ramdas Pophale) SiO2 
 PCOD8087284
Probable space group: C 2/M
;
_chemical_formula_sum "Si O2"
_cell_formula_units_Z 64
_cell_length_a 16.984117
_cell_length_b 14.794169
_cell_length_c 25.268274
_cell_angle_alpha 90.000000
_cell_angle_beta 145.136145
_cell_angle_gamma 90.000000
_cell_volume 3629.300252
_symmetry_space_group_name_H-M "C 2/M"
_symmetry_group_IT_number 12
_symmetry_cell_setting 'monoclinic'
loop_
_space_group_symop_operation_xyz
x,y,z
-x,y,-z
-x,-y,-z
x,-y,z
1/2+x,1/2+y,z
1/2-x,1/2+y,-z
1/2-x,1/2-y,-z
1/2+x,1/2-y,z
loop_
_atom_site_type_symbol
_atom_site_label
_atom_site_fract_x
_atom_site_fract_y
_atom_site_fract_z
Si Si1 0.197655 0.673624 0.510431
Si Si2 0.655738 0.597736 0.599734
Si Si3 0.389939 0.231695 0.235114
Si Si4 0.541562 0.394990 0.278946
Si Si5 0.373619 0.099670 0.634394
Si Si6 0.678607 0.601527 0.247711
Si Si7 0.641624 0.395147 0.107501
Si Si8 0.090321 0.264337 0.630077
O O1 0.250000 0.750000 0.500000
O O2 0.319066 0.636497 0.614260
O O3 0.146880 0.597687 0.440726
O O4 0.068337 0.712386 0.474253
O O5 0.500000 0.583384 0.500000
O O6 0.712927 0.500000 0.652253
O O7 0.735513 0.626874 0.590174
O O8 0.660761 0.673756 0.646996
O O9 0.409828 0.331521 0.220350
O O10 0.513708 0.169650 0.282744
O O11 0.249859 0.177902 0.143453
O O12 0.404183 0.246161 0.304682
O O13 0.509836 0.500000 0.275906
O O14 0.561373 0.383034 0.226994
O O15 0.423865 0.000000 0.677922
O O16 0.731566 0.500000 0.277868
O O17 0.618243 0.625981 0.156706
O O18 0.815086 0.655276 0.338122
O O19 0.690249 0.500000 0.126029
O O20 0.500000 0.376697 0.000000
#
# Coordination Sequence:
#
# PCOD8087284 Si02
#       8
#     8   8   8   8   8   8   8   8
#     4  11  20  33  44  69  96 141 188 216 250 281
#     4  10  21  31  44  67  94 136 182 221 254 281
#     4  10  20  34  52  79 102 131 169 208 258 305
#     4  11  22  35  50  70 106 145 177 211 248 299
#     4  10  19  32  49  67  99 134 174 222 255 289
#     4   9  20  35  52  78 104 132 166 208 262 308
#     4   9  18  37  64  87 104 122 154 205 265 326
#     4  10  20  31  51  66 101 135 175 222 252 292
#
# _framework density 17.634252
#
# number of rings (size 3 to 8) (size 9 to 14) (size 15 to 20)
#    0.000    2.000    2.500    2.250    1.750    4.000 
#    0.000    1.875    0.000    0.375    0.000    0.000 
#    0.000    0.000    0.000    0.000    0.000    0.000 
#
# Total GULP energy -396500.458983 kJ/mol
# GULP energy per Si atom -12390.639343 kJ/mol
# Density = 1.759412 g / cm^3
# Si number density = 17.634252 Si / 1000 Ang^3
#
#
#
# Elastic Constant Matrix: (Units=GPa)
#
#
# Indices 1 2 3 4 5 6 
#
# 1 76.6124 54.1293 23.8608 0.0001 12.2788 0.0000
# 2 54.1293 120.6954 43.5763 0.0001 3.6754 0.0000
# 3 23.8608 43.5763 73.4837 0.0004 9.1872 0.0001
# 4 0.0001 0.0001 0.0004 22.1248 0.0001 5.2647
# 5 12.2788 3.6754 9.1872 0.0001 9.0829 0.0000
# 6 0.0000 0.0000 0.0001 5.2647 0.0000 34.4432
#
#
#
# Elastic Compliance Matrix: (Units=1/GPa)
#
#
# Indices 1 2 3 4 5 6 
#
# 1 0.025478 -0.011344 0.002503 0.000000 -0.032384 0.000000
# 2 -0.011344 0.015637 -0.007688 0.000000 0.016784 0.000000
# 3 0.002503 -0.007688 0.019906 0.000000 -0.020407 0.000000
# 4 0.000000 0.000000 0.000000 0.046904 -0.000001 -0.007169
# 5 -0.032384 0.016784 -0.020407 -0.000001 0.167725 0.000000
# 6 0.000000 0.000000 0.000000 -0.007169 0.000000 0.030129
#
#
# Mechanical properties :
#
#
# Convention : Reuss Voigt Hill
#
# Bulk Modulus (GPa) = 35.76076 57.10271 46.43174
# Shear Modulus (GPa) = 14.36122 23.07852 18.71987
#
# Velocity S-wave (km/s) = 2.85685 3.62157 3.26170
# Velocity P-wave (km/s) = 5.58617 7.06680 6.36965
#
# Compressibility (1/GPa) = 0.02796361
#
# Stress axis : x y z
#
# Youngs Moduli (GPa) = 39.24889 63.94903 50.23569
#
# Poissons Ratio (x) = 0.72544 -0.12573
# Poissons Ratio (y) = 0.44524 0.38621
# Poissons Ratio (z) = -0.09823 0.49164
#
# Static dielectric constant tensor:
#      x y z
#    x 16.287750 0.000000 -2.599210 
#    y 0.000000 3.933090 0.000000 
#    z -2.599210 0.000000 3.578200 
# 
# 
# High freq. dielectric constant tensor:
#      x y z
#    x 1.690310 0.000000 0.002580 
#    y 0.000000 1.698870 0.000000 
#    z 0.002580 0.000000 1.628160 
# 
# From -- ./inp_files/340207.got.cif
#   From: 2010.06.25/outbox.cif.g09.slc.cpg/sg12_171_cif.got.tgz:340207.got - 2010.06.28 00:19:55.
