data_PCOD8087301
_publ_section_title
;
Structure prediction by ZEFSAII (Michael W. Deem and Ramdas Pophale) SiO2 
 PCOD8087301
Probable space group: C 2/M
;
_chemical_formula_sum "Si O2"
_cell_formula_units_Z 64
_cell_length_a 17.170536
_cell_length_b 11.581316
_cell_length_c 17.775583
_cell_angle_alpha 90.000000
_cell_angle_beta 77.872469
_cell_angle_gamma 90.000000
_cell_volume 3455.917888
_symmetry_space_group_name_H-M "C 2/M"
_symmetry_group_IT_number 12
_symmetry_cell_setting 'monoclinic'
loop_
_space_group_symop_operation_xyz
x,y,z
-x,y,-z
-x,-y,-z
x,-y,z
1/2+x,1/2+y,z
1/2-x,1/2+y,-z
1/2-x,1/2-y,-z
1/2+x,1/2-y,z
loop_
_atom_site_type_symbol
_atom_site_label
_atom_site_fract_x
_atom_site_fract_y
_atom_site_fract_z
Si Si1 0.326640 0.130181 0.068567
Si Si2 0.718812 0.760516 0.198531
Si Si3 0.194643 0.861596 0.489746
Si Si4 0.873579 0.869825 0.231722
Si Si5 0.377293 0.634229 0.655796
Si Si6 0.118144 0.371861 0.102918
Si Si7 0.446482 0.365498 0.368425
Si Si8 0.973981 0.776355 0.085097
O O1 0.249898 0.187716 0.121369
O O2 0.410598 0.177210 0.080971
O O3 0.324460 0.000000 0.095828
O O4 0.321462 0.144537 0.979583
O O5 0.791774 0.805388 0.232586
O O6 0.662950 0.687369 0.263284
O O7 0.666654 0.861229 0.170984
O O8 0.250000 0.750000 0.500000
O O9 0.175485 0.841166 0.406665
O O10 0.113702 0.841724 0.551711
O O11 0.224227 0.000000 0.496180
O O12 0.913345 0.810527 0.297164
O O13 0.933911 0.869133 0.148607
O O14 0.850090 0.000000 0.254921
O O15 0.383527 0.500000 0.669704
O O16 0.466734 0.686947 0.628603
O O17 0.080704 0.500000 0.107565
O O18 0.048417 0.278053 0.113573
O O19 0.457338 0.500000 0.352066
O O20 0.000000 0.834429 0.000000
#
# Coordination Sequence:
#
# PCOD8087301 Si02
#       8
#     8   8   8   8   8   8   8   8
#     4   9  18  32  49  68  93 129 171 213 255 302
#     4  11  20  31  48  73 104 132 165 208 260 312
#     4  10  20  36  60  87 113 142 175 214 262 314
#     4  10  20  33  49  71 101 135 169 209 258 310
#     4  10  20  34  55  81 106 135 174 215 250 296
#     4  10  19  32  49  69  96 130 169 213 260 310
#     4   9  18  34  55  77 102 136 177 214 249 299
#     4   9  18  32  50  70  93 127 172 216 257 304
#
# _framework density 18.518958000000001
#
# number of rings (size 3 to 8) (size 9 to 14) (size 15 to 20)
#    0.000    2.250    0.000    3.375    0.000    3.250 
#    0.000    1.250    0.000    7.500    0.000    0.000 
#    0.000    0.000    0.000    0.000    0.000    0.000 
#
# Total GULP energy -396517.710191 kJ/mol
# GULP energy per Si atom -12391.178443 kJ/mol
# Density = 1.847681 g / cm^3
# Si number density = 18.518958 Si / 1000 Ang^3
#
#
#
# Elastic Constant Matrix: (Units=GPa)
#
#
# Indices 1 2 3 4 5 6 
#
# 1 92.3844 30.9334 39.9189 0.0000 -3.5544 0.0000
# 2 30.9334 57.5781 22.6569 0.0000 7.5521 0.0000
# 3 39.9189 22.6569 86.5386 0.0000 5.6756 0.0000
# 4 0.0000 0.0000 0.0000 24.1349 0.0000 -0.4457
# 5 -3.5544 7.5521 5.6756 0.0000 25.8972 0.0000
# 6 0.0000 0.0000 0.0000 -0.4457 0.0000 18.0254
#
#
#
# Elastic Compliance Matrix: (Units=1/GPa)
#
#
# Indices 1 2 3 4 5 6 
#
# 1 0.015903 -0.006953 -0.005876 0.000000 0.005498 0.000000
# 2 -0.006953 0.022958 -0.002336 0.000000 -0.007137 0.000000
# 3 -0.005876 -0.002336 0.015103 0.000000 -0.003435 0.000000
# 4 0.000000 0.000000 0.000000 0.041453 0.000000 0.001025
# 5 0.005498 -0.007137 -0.003435 0.000000 0.042203 0.000000
# 6 0.000000 0.000000 0.000000 0.001025 0.000000 0.055503
#
#
# Mechanical properties :
#
#
# Convention : Reuss Voigt Hill
#
# Bulk Modulus (GPa) = 42.30921 47.05772 44.68347
# Shear Modulus (GPa) = 21.61424 23.14428 22.37926
#
# Velocity S-wave (km/s) = 3.42005 3.53903 3.48005
# Velocity P-wave (km/s) = 6.20417 6.49349 6.35048
#
# Compressibility (1/GPa) = 0.02363551
#
# Stress axis : x y z
#
# Youngs Moduli (GPa) = 62.88189 43.55759 66.21282
#
# Poissons Ratio (x) = 0.30284 0.38907
# Poissons Ratio (y) = 0.43719 0.15464
# Poissons Ratio (z) = 0.36950 0.10173
#
# Static dielectric constant tensor:
#      x y z
#    x 3.492150 0.000000 0.047670 
#    y 0.000000 3.270160 0.000000 
#    z 0.047670 0.000000 3.541780 
# 
# 
# High freq. dielectric constant tensor:
#      x y z
#    x 1.721160 0.000000 0.001800 
#    y 0.000000 1.693290 0.000000 
#    z 0.001800 0.000000 1.728920 
# 
# From -- ./inp_files/269316.got.cif
#   From: 2010.06.25/outbox.cif.g09.slc.cpg/sg12_135_cif.got.tgz:269316.got - 2010.06.28 00:19:55.
