data_PCOD8087633
_publ_section_title
;
Structure prediction by ZEFSAII (Michael W. Deem and Ramdas Pophale) SiO2 
 PCOD8087633
Probable space group: C 2/M
;
_chemical_formula_sum "Si O2"
_cell_formula_units_Z 64
_cell_length_a 28.837305
_cell_length_b 9.486471
_cell_length_c 13.868095
_cell_angle_alpha 90.000000
_cell_angle_beta 73.203423
_cell_angle_gamma 90.000000
_cell_volume 3631.958681
_symmetry_space_group_name_H-M "C 2/M"
_symmetry_group_IT_number 12
_symmetry_cell_setting 'monoclinic'
loop_
_space_group_symop_operation_xyz
x,y,z
-x,y,-z
-x,-y,-z
x,-y,z
1/2+x,1/2+y,z
1/2-x,1/2+y,-z
1/2-x,1/2-y,-z
1/2+x,1/2-y,z
loop_
_atom_site_type_symbol
_atom_site_label
_atom_site_fract_x
_atom_site_fract_y
_atom_site_fract_z
Si Si1 0.101974 0.659833 0.808275
Si Si2 0.945136 0.832897 0.003104
Si Si3 0.054826 0.841814 0.500096
Si Si4 0.531472 0.844244 0.683521
Si Si5 0.376868 0.161136 0.670372
Si Si6 0.286639 0.162331 0.600146
Si Si7 0.570873 0.159798 0.176037
Si Si8 0.806089 0.664321 0.372090
O O1 0.110946 0.500000 0.840322
O O2 0.094449 0.765348 0.901588
O O3 0.052631 0.666899 0.777756
O O4 0.146117 0.711520 0.714341
O O5 0.938383 0.000000 0.006393
O O6 0.931277 0.773636 0.906855
O O7 0.000000 0.791496 0.000000
O O8 0.059014 0.766762 0.600512
O O9 0.086539 0.765201 0.402456
O O10 0.000000 0.837732 0.500000
O O11 0.074188 0.000000 0.500661
O O12 0.474446 0.815673 0.725270
O O13 0.541410 0.000000 0.634371
O O14 0.322803 0.196297 0.666599
O O15 0.381970 0.182588 0.783463
O O16 0.389994 0.000000 0.634901
O O17 0.239124 0.254296 0.646401
O O18 0.311968 0.201010 0.482301
O O19 0.270738 0.000000 0.609713
O O20 0.569978 0.000000 0.134160
O O21 0.796347 0.500000 0.363801
#
# Coordination Sequence:
#
# PCOD8087633 Si02
#       8
#     8   8   8   8   8   8   8   8
#     4  10  20  35  56  78 103 136 177 222 261 308
#     4  11  23  36  52  76 108 141 174 219 270 316
#     4  11  22  31  43  69 106 142 172 208 254 304
#     4  10  19  32  51  73  99 136 177 213 251 303
#     4  10  20  35  54  75 101 139 182 217 255 308
#     4   9  18  34  56  80 109 138 170 214 260 310
#     4  10  20  34  54  75  98 136 180 216 254 307
#     4   9  18  33  54  81 109 137 171 213 261 310
#
# _framework density 17.621345000000002
#
# number of rings (size 3 to 8) (size 9 to 14) (size 15 to 20)
#    0.000    2.000    2.500    1.500    0.000    5.500 
#    0.000    2.500    0.000    0.750    0.000    0.000 
#    0.000    0.000    0.000    0.000    0.000    0.000 
#
# Total GULP energy -396770.062491 kJ/mol
# GULP energy per Si atom -12399.064453 kJ/mol
# Density = 1.758124 g / cm^3
# Si number density = 17.621345 Si / 1000 Ang^3
#
#
#
# Elastic Constant Matrix: (Units=GPa)
#
#
# Indices 1 2 3 4 5 6 
#
# 1 95.9965 40.0969 38.7890 0.0000 11.5486 0.0000
# 2 40.0969 88.6341 51.1068 0.0000 5.4391 0.0000
# 3 38.7890 51.1068 81.9307 0.0000 7.5867 0.0000
# 4 0.0000 0.0000 0.0000 20.6226 0.0000 -0.2944
# 5 11.5486 5.4391 7.5867 0.0000 24.7415 0.0000
# 6 0.0000 0.0000 0.0000 -0.2944 0.0000 21.7288
#
#
#
# Elastic Compliance Matrix: (Units=1/GPa)
#
#
# Indices 1 2 3 4 5 6 
#
# 1 0.014150 -0.003908 -0.003839 0.000000 -0.004569 0.000000
# 2 -0.003908 0.018705 -0.009887 0.000000 0.000744 0.000000
# 3 -0.003839 -0.009887 0.020402 0.000000 -0.002291 0.000000
# 4 0.000000 0.000000 0.000000 0.048500 0.000000 0.000657
# 5 -0.004569 0.000744 -0.002291 0.000000 0.043089 0.000000
# 6 0.000000 0.000000 0.000000 0.000657 0.000000 0.046031
#
#
# Mechanical properties :
#
#
# Convention : Reuss Voigt Hill
#
# Bulk Modulus (GPa) = 55.58235 58.50517 57.04376
# Shear Modulus (GPa) = 21.53870 22.52315 22.03092
#
# Velocity S-wave (km/s) = 3.49994 3.57903 3.53971
# Velocity P-wave (km/s) = 6.92415 7.09596 7.01059
#
# Compressibility (1/GPa) = 0.01799132
#
# Stress axis : x y z
#
# Youngs Moduli (GPa) = 70.67220 53.46106 49.01458
#
# Poissons Ratio (x) = 0.20890 0.18815
# Poissons Ratio (y) = 0.27615 0.48460
# Poissons Ratio (z) = 0.27128 0.52856
#
# Static dielectric constant tensor:
#      x y z
#    x 3.245300 0.000000 0.103060 
#    y 0.000000 3.324570 0.000000 
#    z 0.103060 0.000000 3.080150 
# 
# 
# High freq. dielectric constant tensor:
#      x y z
#    x 1.669490 0.000000 0.011340 
#    y 0.000000 1.683280 0.000000 
#    z 0.011340 0.000000 1.662170 
# 
# From -- ./inp_files/243815.got.cif
#   From: 2010.06.25/outbox.cif.g09.slc.cpg/sg12_122_cif.got.tgz:243815.got - 2010.06.28 00:19:55.
