data_PCOD8087438
_publ_section_title
;
Structure prediction by ZEFSAII (Michael W. Deem and Ramdas Pophale) SiO2 
 PCOD8087438
Probable space group: C 2/M
;
_chemical_formula_sum "Si O2"
_cell_formula_units_Z 48
_cell_length_a 24.313234
_cell_length_b 9.396912
_cell_length_c 11.558755
_cell_angle_alpha 90.000000
_cell_angle_beta 70.492423
_cell_angle_gamma 90.000000
_cell_volume 2489.230752
_symmetry_space_group_name_H-M "C 2/M"
_symmetry_group_IT_number 12
_symmetry_cell_setting 'monoclinic'
loop_
_space_group_symop_operation_xyz
x,y,z
-x,y,-z
-x,-y,-z
x,-y,z
1/2+x,1/2+y,z
1/2-x,1/2+y,-z
1/2-x,1/2-y,-z
1/2+x,1/2-y,z
loop_
_atom_site_type_symbol
_atom_site_label
_atom_site_fract_x
_atom_site_fract_y
_atom_site_fract_z
Si Si1 0.124868 0.834140 0.345621
Si Si2 0.159234 0.665144 0.786741
Si Si3 0.520313 0.334938 0.264696
Si Si4 0.059487 0.659581 0.026626
Si Si5 0.732936 0.666111 0.127182
Si Si6 0.112033 0.169933 0.610910
O O1 0.058109 0.805764 0.353619
O O2 0.172059 0.771386 0.221395
O O3 0.132198 0.774446 0.470446
O O4 0.138218 0.000000 0.341573
O O5 0.149150 0.500000 0.762494
O O6 0.221115 0.691750 0.802394
O O7 0.154749 0.757060 0.673105
O O8 0.109928 0.720666 0.909296
O O9 0.518829 0.500000 0.234519
O O10 0.555653 0.258525 0.139445
O O11 0.454713 0.277166 0.324358
O O12 0.075134 0.500000 0.056415
O O13 0.000000 0.662716 0.000000
O O14 0.729333 0.500000 0.096265
O O15 0.750000 0.750000 0.000000
O O16 0.116166 0.000000 0.619013
#
# Coordination Sequence:
#
# PCOD8087438 Si02
#       6
#     8   8   8   8   8   8
#     4   9  19  36  55  77 106 139 172 213 265 308
#     4  10  21  36  53  77 108 140 173 213 261 308
#     4  10  19  32  54  80 105 134 175 221 257 302
#     4  10  19  32  50  72 105 141 168 206 262 312
#     4  10  21  38  59  79 104 137 173 215 261 310
#     4  10  20  34  54  79 106 138 175 213 257 310
#
# _framework density 19.283066000000002
#
# number of rings (size 3 to 8) (size 9 to 14) (size 15 to 20)
#    0.000    2.167    1.667    1.500    0.000    4.333 
#    0.000    1.667    0.000    2.000    0.000    0.000 
#    0.000    0.000    0.000    0.000    0.000    0.000 
#
# Total GULP energy -297574.357413 kJ/mol
# GULP energy per Si atom -12398.931559 kJ/mol
# Density = 1.923918 g / cm^3
# Si number density = 19.283066 Si / 1000 Ang^3
#
#
#
# Elastic Constant Matrix: (Units=GPa)
#
#
# Indices 1 2 3 4 5 6 
#
# 1 79.5710 25.1997 32.8764 0.0000 2.2580 0.0000
# 2 25.1997 42.6052 41.5700 0.0000 10.5832 0.0000
# 3 32.8764 41.5700 128.9166 0.0000 12.3920 0.0000
# 4 0.0000 0.0000 0.0000 25.5665 0.0000 -10.6938
# 5 2.2580 10.5832 12.3920 0.0000 29.9500 0.0000
# 6 0.0000 0.0000 0.0000 -10.6938 0.0000 -58.1160
#
#
#
# Elastic Compliance Matrix: (Units=1/GPa)
#
#
# Indices 1 2 3 4 5 6 
#
# 1 0.015812 -0.008454 -0.001540 0.000000 0.002432 0.000000
# 2 -0.008454 0.040631 -0.010026 0.000000 -0.009572 0.000000
# 3 -0.001540 -0.010026 0.011488 0.000000 -0.001094 0.000000
# 4 0.000000 0.000000 0.000000 0.036318 0.000000 -0.006683
# 5 0.002432 -0.009572 -0.001094 0.000000 0.037041 0.000000
# 6 0.000000 0.000000 0.000000 -0.006683 0.000000 -0.015977
#
#
# Mechanical properties :
#
#
# Convention : Reuss Voigt Hill
#
# Bulk Modulus (GPa) = 35.85316 50.04277 42.94797
# Shear Modulus (GPa) = 28.62869 9.57654 19.10262
#
# Velocity S-wave (km/s) = 3.85730 2.23094 3.15086
# Velocity P-wave (km/s) = 6.20257 5.71350 5.96305
#
# Compressibility (1/GPa) = 0.02789154
#
# Stress axis : x y z
#
# Youngs Moduli (GPa) = 63.24308 24.61153 87.04849
#
# Poissons Ratio (x) = 0.20806 0.13408
# Poissons Ratio (y) = 0.53464 0.87274
# Poissons Ratio (z) = 0.09741 0.24675
#
# Static dielectric constant tensor:
#      x y z
#    x 3.688720 0.000000 0.122950 
#    y 0.000000 3.293080 0.000000 
#    z 0.122950 0.000000 4.579740 
# 
# 
# High freq. dielectric constant tensor:
#      x y z
#    x 1.759090 0.000000 -0.000800 
#    y 0.000000 1.718650 0.000000 
#    z -0.000800 0.000000 1.756880 
# 
# From -- ./inp_files/94892.got.cif
#   From: 2010.06.25/outbox.cif.g09.slc.cpg/sg12_48_cif.got.tgz:94892.got - 2010.06.28 00:19:55.
