data_PCOD8087213
_publ_section_title
;
Structure prediction by ZEFSAII (Michael W. Deem and Ramdas Pophale) SiO2 
 PCOD8087213
Probable space group: C 2/M
;
_chemical_formula_sum "Si O2"
_cell_formula_units_Z 64
_cell_length_a 28.095104
_cell_length_b 9.332051
_cell_length_c 15.392668
_cell_angle_alpha 90.000000
_cell_angle_beta 91.272918
_cell_angle_gamma 90.000000
_cell_volume 4034.729857
_symmetry_space_group_name_H-M "C 2/M"
_symmetry_group_IT_number 12
_symmetry_cell_setting 'monoclinic'
loop_
_space_group_symop_operation_xyz
x,y,z
-x,y,-z
-x,-y,-z
x,-y,z
1/2+x,1/2+y,z
1/2-x,1/2+y,-z
1/2-x,1/2-y,-z
1/2+x,1/2-y,z
loop_
_atom_site_type_symbol
_atom_site_label
_atom_site_fract_x
_atom_site_fract_y
_atom_site_fract_z
Si Si1 0.799165 0.668018 0.999297
Si Si2 0.201597 0.835078 0.507265
Si Si3 0.857702 0.668542 0.830899
Si Si4 0.637228 0.168114 0.836840
Si Si5 0.307233 0.833515 0.332968
Si Si6 0.947713 0.834273 0.100217
Si Si7 0.944226 0.833771 0.900666
Si Si8 0.803841 0.837916 0.685215
O O1 0.788547 0.500000 0.004426
O O2 0.826328 0.710433 0.912766
O O3 0.750000 0.750000 0.000000
O O4 0.830571 0.720376 0.081649
O O5 0.250000 0.750000 0.500000
O O6 0.172752 0.759318 0.584646
O O7 0.175699 0.825079 0.412551
O O8 0.211755 0.000000 0.531847
O O9 0.864388 0.500000 0.822156
O O10 0.909550 0.739038 0.840587
O O11 0.832317 0.726561 0.744285
O O12 0.662931 0.213748 0.749403
O O13 0.586067 0.243751 0.838111
O O14 0.628502 0.000000 0.841547
O O15 0.251979 0.798879 0.312879
O O16 0.314118 0.000000 0.355647
O O17 0.002145 0.805512 0.129949
O O18 0.934913 0.000000 0.110400
O O19 0.939598 0.786091 0.000565
O O20 0.930791 0.000000 0.889666
O O21 0.811343 0.000000 0.720130
#
# Coordination Sequence:
#
# PCOD8087213 Si02
#       8
#     8   8   8   8   8   8   8   8
#     4  10  21  33  43  61  92 128 162 190 221 265
#     4   9  17  30  48  68  92 122 157 197 239 278
#     4  11  21  31  46  70  94 121 160 198 231 273
#     4  10  19  32  47  67  97 127 155 193 237 277
#     4   9  18  31  48  69  95 128 161 192 233 280
#     4   9  18  32  50  70  89 118 160 198 234 279
#     4   9  18  33  50  67  91 121 155 197 240 280
#     4   9  18  32  48  66  93 129 159 189 234 279
#
# _framework density 15.862275
#
# number of rings (size 3 to 8) (size 9 to 14) (size 15 to 20)
#    0.000    2.500    1.250    3.000    0.000    6.000 
#    0.000    1.250    0.000    0.000    0.000    0.875 
#    0.000    7.000    0.000    0.000    0.000    0.000 
#
# Total GULP energy -396774.520727 kJ/mol
# GULP energy per Si atom -12399.203773 kJ/mol
# Density = 1.582617 g / cm^3
# Si number density = 15.862275 Si / 1000 Ang^3
#
#
#
# Elastic Constant Matrix: (Units=GPa)
#
#
# Indices 1 2 3 4 5 6 
#
# 1 87.6055 46.8927 48.8546 0.0000 -4.0138 0.0000
# 2 46.8927 71.3009 54.2055 0.0000 -0.1117 0.0000
# 3 48.8546 54.2055 109.3382 0.0000 -5.4414 0.0000
# 4 0.0000 0.0000 0.0000 28.3811 0.0000 -0.3987
# 5 -4.0138 -0.1117 -5.4414 0.0000 9.6918 0.0000
# 6 0.0000 0.0000 0.0000 -0.3987 0.0000 29.5252
#
#
#
# Elastic Compliance Matrix: (Units=1/GPa)
#
#
# Indices 1 2 3 4 5 6 
#
# 1 0.018763 -0.009917 -0.003175 0.000000 0.005874 0.000000
# 2 -0.009917 0.028115 -0.009974 0.000000 -0.009383 0.000000
# 3 -0.003175 -0.009974 0.015882 0.000000 0.007487 0.000000
# 4 0.000000 0.000000 0.000000 0.035241 0.000000 0.000476
# 5 0.005874 -0.009383 0.007487 0.000000 0.109707 0.000000
# 6 0.000000 0.000000 0.000000 0.000476 0.000000 0.033876
#
#
# Mechanical properties :
#
#
# Convention : Reuss Voigt Hill
#
# Bulk Modulus (GPa) = 60.14006 63.12779 61.63392
# Shear Modulus (GPa) = 17.04979 21.40576 19.22777
#
# Velocity S-wave (km/s) = 3.28207 3.67751 3.48540
# Velocity P-wave (km/s) = 7.23594 7.61025 7.42545
#
# Compressibility (1/GPa) = 0.01662785
#
# Stress axis : x y z
#
# Youngs Moduli (GPa) = 53.29751 35.56803 62.96450
#
# Poissons Ratio (x) = 0.35272 0.19990
# Poissons Ratio (y) = 0.52854 0.62802
# Poissons Ratio (z) = 0.16921 0.35476
#
# Static dielectric constant tensor:
#      x y z
#    x 2.829770 0.000000 -0.075170 
#    y 0.000000 3.053160 0.000000 
#    z -0.075170 0.000000 3.269550 
# 
# 
# High freq. dielectric constant tensor:
#      x y z
#    x 1.585540 0.000000 -0.003940 
#    y 0.000000 1.615000 0.000000 
#    z -0.003940 0.000000 1.601420 
# 
# From -- ./inp_files/248379.got.cif
#   From: 2010.06.25/outbox.cif.g09.slc.cpg/sg12_125_cif.got.tgz:248379.got - 2010.06.28 00:19:55.
