data_PCOD8087973
_publ_section_title
;
Structure prediction by ZEFSAII (Michael W. Deem and Ramdas Pophale) SiO2 
 PCOD8087973
Probable space group: C 2/M
;
_chemical_formula_sum "Si O2"
_cell_formula_units_Z 56
_cell_length_a 19.434620
_cell_length_b 8.671566
_cell_length_c 19.046045
_cell_angle_alpha 90.000000
_cell_angle_beta 115.082781
_cell_angle_gamma 90.000000
_cell_volume 2907.106614
_symmetry_space_group_name_H-M "C 2/M"
_symmetry_group_IT_number 12
_symmetry_cell_setting 'monoclinic'
loop_
_space_group_symop_operation_xyz
x,y,z
-x,y,-z
-x,-y,-z
x,-y,z
1/2+x,1/2+y,z
1/2-x,1/2+y,-z
1/2-x,1/2-y,-z
1/2+x,1/2-y,z
loop_
_atom_site_type_symbol
_atom_site_label
_atom_site_fract_x
_atom_site_fract_y
_atom_site_fract_z
Si Si1 0.670599 0.183167 0.438079
Si Si2 0.153849 0.324682 0.685452
Si Si3 0.911978 0.827547 0.475289
Si Si4 0.278385 0.317261 0.084604
Si Si5 0.596635 0.816238 0.261767
Si Si6 0.704979 0.820841 0.192135
Si Si7 0.072851 0.678351 0.791050
O O1 0.750000 0.250000 0.500000
O O2 0.603247 0.253555 0.455716
O O3 0.650494 0.236500 0.349906
O O4 0.672023 0.000000 0.445349
O O5 0.183897 0.500000 0.700939
O O6 0.123442 0.287818 0.596025
O O7 0.221827 0.207472 0.728555
O O8 0.088209 0.299548 0.714954
O O9 0.000000 0.838085 0.500000
O O10 0.876335 0.000000 0.454901
O O11 0.274906 0.500000 0.080771
O O12 0.222122 0.250785 0.121938
O O13 0.365051 0.267981 0.135894
O O14 0.250000 0.250000 0.000000
O O15 0.632466 0.752903 0.203560
O O16 0.510830 0.751459 0.230352
O O17 0.593388 0.000000 0.261100
O O18 0.691592 0.000000 0.177142
O O19 0.077371 0.500000 0.815109
#
# Coordination Sequence:
#
# PCOD8087973 Si02
#       7
#     8   8   8   8   8   8   8
#     4  11  22  36  55  79 109 145 184 228 280 333
#     4  10  19  32  52  76 101 133 175 221 270 322
#     4  11  23  36  50  71 102 141 185 232 276 317
#     4  10  20  35  57  83 109 138 170 207 253 309
#     4   9  18  34  55  77 103 136 175 219 265 316
#     4   9  18  34  56  79 103 134 172 211 255 312
#     4   9  18  34  56  80 105 135 172 216 266 317
#
# _framework density 19.263141000000001
#
# number of rings (size 3 to 8) (size 9 to 14) (size 15 to 20)
#    0.000    2.143    0.000    3.429    0.000    4.571 
#    0.000    3.571    0.000    4.286    0.000    0.000 
#    0.000    0.000    0.000    0.000    0.000    0.000 
#
# Total GULP energy -347071.916667 kJ/mol
# GULP energy per Si atom -12395.425595 kJ/mol
# Density = 1.921930 g / cm^3
# Si number density = 19.263141 Si / 1000 Ang^3
#
#
#
# Elastic Constant Matrix: (Units=GPa)
#
#
# Indices 1 2 3 4 5 6 
#
# 1 141.4825 27.9315 57.8558 0.0000 -15.9558 0.0000
# 2 27.9315 45.1252 25.9614 0.0000 -4.2816 0.0000
# 3 57.8558 25.9614 125.0402 0.0000 -12.4274 0.0000
# 4 0.0000 0.0000 0.0000 27.0285 0.0000 2.2397
# 5 -15.9558 -4.2816 -12.4274 0.0000 24.4270 0.0000
# 6 0.0000 0.0000 0.0000 2.2397 0.0000 23.6794
#
#
#
# Elastic Compliance Matrix: (Units=1/GPa)
#
#
# Indices 1 2 3 4 5 6 
#
# 1 0.009577 -0.003668 -0.003278 0.000000 0.003946 0.000000
# 2 -0.003668 0.026651 -0.003802 0.000000 0.000341 0.000000
# 3 -0.003278 -0.003802 0.010558 0.000000 0.002564 0.000000
# 4 0.000000 0.000000 0.000000 0.037290 0.000000 -0.003527
# 5 0.003946 0.000341 0.002564 0.000000 0.044880 0.000000
# 6 0.000000 0.000000 0.000000 -0.003527 0.000000 0.042564
#
#
# Mechanical properties :
#
#
# Convention : Reuss Voigt Hill
#
# Bulk Modulus (GPa) = 39.54060 59.46058 49.50059
# Shear Modulus (GPa) = 24.82035 28.35359 26.58697
#
# Velocity S-wave (km/s) = 3.59345 3.84071 3.71913
# Velocity P-wave (km/s) = 6.14722 7.11355 6.64797
#
# Compressibility (1/GPa) = 0.02529046
#
# Stress axis : x y z
#
# Youngs Moduli (GPa) = 104.41146 37.52213 94.71203
#
# Poissons Ratio (x) = 0.13764 0.31044
# Poissons Ratio (y) = 0.38299 0.36012
# Poissons Ratio (z) = 0.34224 0.14267
#
# Static dielectric constant tensor:
#      x y z
#    x 3.885900 0.000000 -0.371230 
#    y 0.000000 3.461510 0.000000 
#    z -0.371230 0.000000 3.470380 
# 
# 
# High freq. dielectric constant tensor:
#      x y z
#    x 1.758340 0.000000 -0.013670 
#    y 0.000000 1.736220 0.000000 
#    z -0.013670 0.000000 1.737300 
# 
# From -- ./inp_files/275529.got.cif
#   From: 2010.06.25/outbox.cif.g09.slc.cpg/sg12_138_cif.got.tgz:275529.got - 2010.06.28 00:19:55.
