data_PCOD8087014
_publ_section_title
;
Structure prediction by ZEFSAII (Michael W. Deem and Ramdas Pophale) SiO2 
 PCOD8087014
Probable space group: C 2/M
;
_chemical_formula_sum "Si O2"
_cell_formula_units_Z 64
_cell_length_a 20.422701
_cell_length_b 8.870686
_cell_length_c 23.893212
_cell_angle_alpha 90.000000
_cell_angle_beta 53.040149
_cell_angle_gamma 90.000000
_cell_volume 3458.778066
_symmetry_space_group_name_H-M "C 2/M"
_symmetry_group_IT_number 12
_symmetry_cell_setting 'monoclinic'
loop_
_space_group_symop_operation_xyz
x,y,z
-x,y,-z
-x,-y,-z
x,-y,z
1/2+x,1/2+y,z
1/2-x,1/2+y,-z
1/2-x,1/2-y,-z
1/2+x,1/2-y,z
loop_
_atom_site_type_symbol
_atom_site_label
_atom_site_fract_x
_atom_site_fract_y
_atom_site_fract_z
Si Si1 0.546744 0.322703 0.849713
Si Si2 0.669831 0.825447 0.265665
Si Si3 0.431917 0.833623 0.987368
Si Si4 0.179981 0.322334 0.860171
Si Si5 0.394704 0.824492 0.287618
Si Si6 0.780380 0.677219 0.635117
Si Si7 0.982575 0.326154 0.358328
Si Si8 0.925824 0.823310 0.498106
O O1 0.554323 0.500000 0.843255
O O2 0.625594 0.260308 0.841611
O O3 0.546981 0.256848 0.787274
O O4 0.460795 0.278690 0.923647
O O5 0.726446 0.728274 0.194978
O O6 0.686340 0.778035 0.321021
O O7 0.576949 0.785878 0.298005
O O8 0.690121 0.000000 0.245546
O O9 0.349193 0.778432 0.061594
O O10 0.419756 0.000000 0.967289
O O11 0.500000 0.840723 0.000000
O O12 0.169718 0.500000 0.856115
O O13 0.303977 0.760078 0.332967
O O14 0.431756 0.792530 0.329091
O O15 0.392228 0.000000 0.274491
O O16 0.766734 0.500000 0.636025
O O17 0.845133 0.731957 0.556086
O O18 0.974925 0.500000 0.381655
O O19 0.947415 0.217654 0.423723
O O20 0.000000 0.772935 0.500000
O O21 0.907926 0.000000 0.512433
#
# Coordination Sequence:
#
# PCOD8087014 Si02
#       8
#     8   8   8   8   8   8   8   8
#     4  11  20  31  51  79 112 149 185 227 278 328
#     4  10  20  35  57  84 112 143 186 232 279 329
#     4   8  16  30  47  74 110 146 183 226 277 327
#     4  10  19  31  52  81 113 146 184 231 278 325
#     4  11  23  39  59  82 113 149 188 230 275 333
#     4  11  22  37  61  86 113 147 183 230 279 329
#     4  10  23  42  61  82 110 149 188 228 279 332
#     4  11  23  38  60  88 115 145 183 230 279 329
#
# _framework density 18.503644999999999
#
# number of rings (size 3 to 8) (size 9 to 14) (size 15 to 20)
#    0.000    1.750    2.500    3.375    0.000    5.750 
#    0.000    0.000    0.000    0.750    0.000    0.000 
#    0.000    0.000    0.000    0.000    0.000    0.000 
#
# Total GULP energy -396879.650436 kJ/mol
# GULP energy per Si atom -12402.489076 kJ/mol
# Density = 1.846153 g / cm^3
# Si number density = 18.503645 Si / 1000 Ang^3
#
#
#
# Elastic Constant Matrix: (Units=GPa)
#
#
# Indices 1 2 3 4 5 6 
#
# 1 62.1249 32.2991 19.9583 -0.0002 5.0398 -0.0003
# 2 32.2991 92.1845 50.4264 -0.0006 3.7226 -0.0012
# 3 19.9583 50.4264 117.4919 -0.0001 -1.3845 0.0000
# 4 -0.0002 -0.0006 -0.0001 36.3940 0.0000 -4.6139
# 5 5.0398 3.7226 -1.3845 0.0000 16.9482 -0.0002
# 6 -0.0003 -0.0012 0.0000 -4.6139 -0.0002 17.6734
#
#
#
# Elastic Compliance Matrix: (Units=1/GPa)
#
#
# Indices 1 2 3 4 5 6 
#
# 1 0.020051 -0.006465 -0.000686 0.000000 -0.004598 0.000000
# 2 -0.006465 0.016485 -0.006003 0.000000 -0.002189 0.000001
# 3 -0.000686 -0.006003 0.011233 0.000000 0.002440 0.000000
# 4 0.000000 0.000000 0.000000 0.028418 0.000000 0.007419
# 5 -0.004598 -0.002189 0.002440 0.000000 0.061051 0.000000
# 6 0.000000 0.000001 0.000000 0.007419 0.000000 0.058519
#
#
# Mechanical properties :
#
#
# Convention : Reuss Voigt Hill
#
# Bulk Modulus (GPa) = 46.59302 53.01876 49.80589
# Shear Modulus (GPa) = 21.81348 25.47762 23.64555
#
# Velocity S-wave (km/s) = 3.43720 3.71468 3.57863
# Velocity P-wave (km/s) = 6.40215 6.86395 6.63707
#
# Compressibility (1/GPa) = 0.02146244
#
# Stress axis : x y z
#
# Youngs Moduli (GPa) = 49.87311 60.66181 89.02494
#
# Poissons Ratio (x) = 0.39215 0.06105
# Poissons Ratio (y) = 0.32241 0.53440
# Poissons Ratio (z) = 0.03420 0.36414
#
# Static dielectric constant tensor:
#      x y z
#    x 3.140950 0.000000 -0.098870 
#    y 0.000000 3.425160 0.000000 
#    z -0.098870 0.000000 3.745280 
# 
# 
# High freq. dielectric constant tensor:
#      x y z
#    x 1.682970 0.000000 -0.009600 
#    y 0.000000 1.724340 0.000000 
#    z -0.009600 0.000000 1.735430 
# 
# From -- ./inp_files/346092.got.cif
#   From: 2010.06.25/outbox.cif.g09.slc.cpg/sg12_174_cif.got.tgz:346092.got - 2010.06.28 00:19:55.
