data_PCOD8087853
_publ_section_title
;
Structure prediction by ZEFSAII (Michael W. Deem and Ramdas Pophale) SiO2 
 PCOD8087853
Probable space group: C 2/M
;
_chemical_formula_sum "Si O2"
_cell_formula_units_Z 56
_cell_length_a 28.269432
_cell_length_b 9.410374
_cell_length_c 10.514486
_cell_angle_alpha 90.000000
_cell_angle_beta 79.779651
_cell_angle_gamma 90.000000
_cell_volume 2752.742927
_symmetry_space_group_name_H-M "C 2/M"
_symmetry_group_IT_number 12
_symmetry_cell_setting 'monoclinic'
loop_
_space_group_symop_operation_xyz
x,y,z
-x,y,-z
-x,-y,-z
x,-y,z
1/2+x,1/2+y,z
1/2-x,1/2+y,-z
1/2-x,1/2-y,-z
1/2+x,1/2-y,z
loop_
_atom_site_type_symbol
_atom_site_label
_atom_site_fract_x
_atom_site_fract_y
_atom_site_fract_z
Si Si1 0.553710 0.839379 0.498311
Si Si2 0.051455 0.838909 0.725574
Si Si3 0.199910 0.170177 0.518021
Si Si4 0.851898 0.662061 0.677541
Si Si5 0.527820 0.158307 0.117815
Si Si6 0.863535 0.665648 0.954906
Si Si7 0.351692 0.660182 0.196111
O O1 0.500000 0.782816 0.500000
O O2 0.576554 0.738540 0.594630
O O3 0.589614 0.828318 0.360789
O O4 0.551573 0.000000 0.551444
O O5 0.090324 0.829864 0.820052
O O6 0.001017 0.763151 0.777005
O O7 0.039761 0.000000 0.695408
O O8 0.250000 0.250000 0.500000
O O9 0.172742 0.228360 0.406278
O O10 0.172573 0.211888 0.661233
O O11 0.205510 0.000000 0.502118
O O12 0.835445 0.500000 0.653775
O O13 0.838983 0.700028 0.830080
O O14 0.529260 0.000000 0.178690
O O15 0.500000 0.152405 0.000000
O O16 0.581306 0.217384 0.073463
O O17 0.860741 0.500000 0.987873
O O18 0.835667 0.746245 0.082188
O O19 0.335253 0.500000 0.175301
#
# Coordination Sequence:
#
# PCOD8087853 Si02
#       7
#     8   8   8   8   8   8   8
#     4  10  20  35  56  81 117 162 207 250 294 349
#     4  11  21  33  51  79 116 156 202 251 298 351
#     4  11  24  45  70  95 121 152 198 253 312 375
#     4  10  21  38  61  91 125 160 202 253 307 361
#     4  10  19  32  51  78 116 164 213 254 289 340
#     4  10  21  37  59  88 123 163 208 251 295 354
#     4  10  22  39  59  86 121 154 192 245 302 360
#
# _framework density 20.343346
#
# number of rings (size 3 to 8) (size 9 to 14) (size 15 to 20)
#    0.000    1.714    2.857    1.714    0.000    5.714 
#    0.000    2.143    0.000    0.000    0.000    0.000 
#    0.000    0.000    0.000    0.000    0.000    0.000 
#
# Total GULP energy -347101.825900 kJ/mol
# GULP energy per Si atom -12396.493782 kJ/mol
# Density = 2.029704 g / cm^3
# Si number density = 20.343346 Si / 1000 Ang^3
#
#
#
# Elastic Constant Matrix: (Units=GPa)
#
#
# Indices 1 2 3 4 5 6 
#
# 1 75.9720 35.0091 35.6951 0.0000 0.6006 0.0000
# 2 35.0091 103.1915 70.6320 0.0000 4.4462 0.0000
# 3 35.6951 70.6320 137.7420 0.0000 14.6476 0.0000
# 4 0.0000 0.0000 0.0000 33.2683 0.0000 6.2612
# 5 0.6006 4.4462 14.6476 0.0000 21.3561 0.0000
# 6 0.0000 0.0000 0.0000 6.2612 0.0000 22.7972
#
#
#
# Elastic Compliance Matrix: (Units=1/GPa)
#
#
# Indices 1 2 3 4 5 6 
#
# 1 0.016063 -0.003916 -0.002366 0.000000 0.001986 0.000000
# 2 -0.003916 0.015993 -0.007382 0.000000 0.001844 0.000000
# 3 -0.002366 -0.007382 0.012392 0.000000 -0.006896 0.000000
# 4 0.000000 0.000000 0.000000 0.031697 0.000000 -0.008705
# 5 0.001986 0.001844 -0.006896 0.000000 0.051115 0.000000
# 6 0.000000 0.000000 0.000000 -0.008705 0.000000 0.046256
#
#
# Mechanical properties :
#
#
# Convention : Reuss Voigt Hill
#
# Bulk Modulus (GPa) = 58.41146 66.61977 62.51561
# Shear Modulus (GPa) = 24.20724 27.18892 25.69808
#
# Velocity S-wave (km/s) = 3.45328 3.65979 3.55803
# Velocity P-wave (km/s) = 6.68396 7.11881 6.90481
#
# Compressibility (1/GPa) = 0.01711993
#
# Stress axis : x y z
#
# Youngs Moduli (GPa) = 62.25437 62.52888 80.69864
#
# Poissons Ratio (x) = 0.24485 0.19093
# Poissons Ratio (y) = 0.24378 0.59572
# Poissons Ratio (z) = 0.14729 0.46159
#
# Static dielectric constant tensor:
#      x y z
#    x 3.468770 0.000000 -0.006060 
#    y 0.000000 3.644270 0.000000 
#    z -0.006060 0.000000 3.757380 
# 
# 
# High freq. dielectric constant tensor:
#      x y z
#    x 1.770850 0.000000 0.005620 
#    y 0.000000 1.788800 0.000000 
#    z 0.005620 0.000000 1.800490 
# 
# From -- ./inp_files/186409.got.cif
#   From: 2010.06.25/outbox.cif.g09.slc.cpg/sg12_94_cif.got.tgz:186409.got - 2010.06.28 00:19:55.
