data_PCOD8087519
_publ_section_title
;
Structure prediction by ZEFSAII (Michael W. Deem and Ramdas Pophale) SiO2 
 PCOD8087519
Probable space group: C 2/M
;
_chemical_formula_sum "Si O2"
_cell_formula_units_Z 64
_cell_length_a 33.628467
_cell_length_b 9.118426
_cell_length_c 15.143918
_cell_angle_alpha 90.000000
_cell_angle_beta 46.182656
_cell_angle_gamma 90.000000
_cell_volume 3350.672917
_symmetry_space_group_name_H-M "C 2/M"
_symmetry_group_IT_number 12
_symmetry_cell_setting 'monoclinic'
loop_
_space_group_symop_operation_xyz
x,y,z
-x,y,-z
-x,-y,-z
x,-y,z
1/2+x,1/2+y,z
1/2-x,1/2+y,-z
1/2-x,1/2-y,-z
1/2+x,1/2-y,z
loop_
_atom_site_type_symbol
_atom_site_label
_atom_site_fract_x
_atom_site_fract_y
_atom_site_fract_z
Si Si1 0.946591 0.827535 0.901312
Si Si2 0.772211 0.167908 0.095438
Si Si3 0.121347 0.827516 0.162888
Si Si4 0.847227 0.326072 0.523057
Si Si5 0.224791 0.832002 0.704198
Si Si6 0.939665 0.669594 0.246448
Si Si7 0.880942 0.330605 0.154446
Si Si8 0.849825 0.325655 0.716425
O O1 0.926994 0.791308 0.832013
O O2 0.007698 0.767780 0.817157
O O3 0.945476 0.000000 0.921879
O O4 0.905803 0.753204 0.033164
O O5 0.788127 0.182397 0.172786
O O6 0.712053 0.236184 0.169087
O O7 0.768945 0.000000 0.073305
O O8 0.821181 0.240384 0.963271
O O9 0.109285 0.748256 0.275072
O O10 0.125193 0.000000 0.173022
O O11 0.841889 0.500000 0.532246
O O12 0.786125 0.267713 0.590862
O O13 0.891377 0.270455 0.384370
O O14 0.865780 0.274706 0.592634
O O15 0.178658 0.734647 0.726021
O O16 0.219442 0.000000 0.680497
O O17 0.953166 0.500000 0.246729
O O18 0.922190 0.689066 0.172485
O O19 0.873669 0.500000 0.140829
O O20 0.853465 0.500000 0.719023
#
# Coordination Sequence:
#
# PCOD8087519 Si02
#       8
#     8   8   8   8   8   8   8   8
#     4  11  23  39  58  79 106 143 185 224 268 326
#     4   8  14  28  48  73 107 140 169 208 258 313
#     4  10  19  32  50  75 108 139 170 217 273 316
#     4   8  17  36  59  79 108 148 184 217 262 319
#     4   9  16  32  57  81 109 147 181 213 259 323
#     4  10  22  40  58  78 107 144 182 226 276 318
#     4  11  22  35  55  84 114 139 172 225 282 323
#     4   9  17  30  53  80 103 136 181 215 251 315
#
# _framework density 19.100639999999999
#
# number of rings (size 3 to 8) (size 9 to 14) (size 15 to 20)
#    0.000    2.500    1.250    3.000    0.000    4.000 
#    0.000    4.375    0.000    3.750    0.000    0.000 
#    0.000    0.000    0.000    0.000    0.000    0.000 
#
# Total GULP energy -396665.244103 kJ/mol
# GULP energy per Si atom -12395.788878 kJ/mol
# Density = 1.905717 g / cm^3
# Si number density = 19.100640 Si / 1000 Ang^3
#
#
#
# Elastic Constant Matrix: (Units=GPa)
#
#
# Indices 1 2 3 4 5 6 
#
# 1 104.8090 53.6165 35.4466 0.0000 -6.9819 -0.0001
# 2 53.6165 69.7916 32.8856 0.0000 -4.8681 0.0000
# 3 35.4466 32.8856 74.0891 0.0000 -13.0922 0.0000
# 4 0.0000 0.0000 0.0000 19.2914 0.0000 -2.4453
# 5 -6.9819 -4.8681 -13.0922 0.0000 15.2349 0.0000
# 6 -0.0001 0.0000 0.0000 -2.4453 0.0000 32.2049
#
#
#
# Elastic Compliance Matrix: (Units=1/GPa)
#
#
# Indices 1 2 3 4 5 6 
#
# 1 0.016206 -0.011152 -0.002500 0.000000 0.001715 0.000000
# 2 -0.011152 0.025815 -0.006565 0.000000 -0.002504 0.000000
# 3 -0.002500 -0.006565 0.020084 0.000000 0.014016 0.000000
# 4 0.000000 0.000000 0.000000 0.052340 0.000000 0.003974
# 5 0.001715 -0.002504 0.014016 0.000000 0.077669 0.000000
# 6 0.000000 0.000000 0.000000 0.003974 0.000000 0.031353
#
#
# Mechanical properties :
#
#
# Convention : Reuss Voigt Hill
#
# Bulk Modulus (GPa) = 46.14781 54.73189 50.43985
# Shear Modulus (GPa) = 18.44156 21.79564 20.11860
#
# Velocity S-wave (km/s) = 3.11061 3.38167 3.24897
# Velocity P-wave (km/s) = 6.09213 6.63056 6.36704
#
# Compressibility (1/GPa) = 0.02166950
#
# Stress axis : x y z
#
# Youngs Moduli (GPa) = 61.70481 38.73729 49.79015
#
# Poissons Ratio (x) = 0.43201 0.12449
# Poissons Ratio (y) = 0.68816 0.32688
# Poissons Ratio (z) = 0.15429 0.25432
#
# Static dielectric constant tensor:
#      x y z
#    x 3.561460 0.000000 -0.027870 
#    y 0.000000 3.184270 0.000000 
#    z -0.027870 0.000000 3.589070 
# 
# 
# High freq. dielectric constant tensor:
#      x y z
#    x 1.748710 0.000000 0.002790 
#    y 0.000000 1.713310 0.000000 
#    z 0.002790 0.000000 1.732330 
# 
# From -- ./inp_files/249682.got.cif
#   From: 2010.06.25/outbox.cif.g09.slc.cpg/sg12_125_cif.got.tgz:249682.got - 2010.06.28 00:19:55.
