data_PCOD8087935
_publ_section_title
;
Structure prediction by ZEFSAII (Michael W. Deem and Ramdas Pophale) SiO2 
 PCOD8087935
Probable space group: C 2/M
;
_chemical_formula_sum "Si O2"
_cell_formula_units_Z 56
_cell_length_a 25.721985
_cell_length_b 14.777499
_cell_length_c 8.534936
_cell_angle_alpha 90.000000
_cell_angle_beta 110.342949
_cell_angle_gamma 90.000000
_cell_volume 3041.841198
_symmetry_space_group_name_H-M "C 2/M"
_symmetry_group_IT_number 12
_symmetry_cell_setting 'monoclinic'
loop_
_space_group_symop_operation_xyz
x,y,z
-x,y,-z
-x,-y,-z
x,-y,z
1/2+x,1/2+y,z
1/2-x,1/2+y,-z
1/2-x,1/2-y,-z
1/2+x,1/2-y,z
loop_
_atom_site_type_symbol
_atom_site_label
_atom_site_fract_x
_atom_site_fract_y
_atom_site_fract_z
Si Si1 0.436521 0.104423 0.460331
Si Si2 0.345041 0.271847 0.869118
Si Si3 0.942217 0.898782 0.367107
Si Si4 0.142993 0.397987 0.346161
Si Si5 0.140150 0.748218 0.750775
Si Si6 0.767263 0.690178 0.373904
Si Si7 0.442214 0.601570 0.996457
O O1 0.500000 0.136448 0.500000
O O2 0.413876 0.120325 0.614906
O O3 0.397941 0.159350 0.300777
O O4 0.430693 0.000000 0.407404
O O5 0.350026 0.175624 0.784400
O O6 0.290677 0.332378 0.771919
O O7 0.396174 0.334141 0.873192
O O8 0.344166 0.256836 0.052679
O O9 0.892810 0.831976 0.362909
O O10 0.000000 0.863595 0.500000
O O11 0.929539 0.000000 0.416926
O O12 0.944320 0.897534 0.183861
O O13 0.142015 0.500000 0.274732
O O14 0.195659 0.392874 0.521644
O O15 0.196455 0.745784 0.712248
O O16 0.750000 0.750000 0.500000
O O17 0.432643 0.500000 0.922104
O O18 0.500000 0.641950 0.000000
#
# Coordination Sequence:
#
# PCOD8087935 Si02
#       7
#     8   8   8   8   8   8   8
#     4   9  18  33  52  73  99 134 172 207 249 304
#     4  10  20  33  53  77 103 133 168 212 259 304
#     4   9  18  32  50  74 103 133 166 203 245 297
#     4   9  19  35  53  74 102 134 171 213 253 302
#     4  10  19  32  52  75 103 134 167 210 257 300
#     4   9  19  35  52  72  99 133 171 208 249 303
#     4   9  19  34  51  75 105 134 165 202 248 301
#
# _framework density 18.409901999999999
#
# number of rings (size 3 to 8) (size 9 to 14) (size 15 to 20)
#    0.000    2.714    0.000    0.857    0.000    6.857 
#    0.000    2.857    0.000    8.143    0.000    0.000 
#    0.000    0.000    0.000    0.000    0.000    0.000 
#
# Total GULP energy -346974.971311 kJ/mol
# GULP energy per Si atom -12391.963261 kJ/mol
# Density = 1.836800 g / cm^3
# Si number density = 18.409902 Si / 1000 Ang^3
#
#
#
# Elastic Constant Matrix: (Units=GPa)
#
#
# Indices 1 2 3 4 5 6 
#
# 1 141.6350 48.4960 41.9974 0.0000 15.8473 0.0000
# 2 48.4960 82.5103 36.3699 0.0000 11.5824 0.0000
# 3 41.9974 36.3699 80.2741 0.0000 17.9590 0.0000
# 4 0.0000 0.0000 0.0000 22.1430 0.0000 0.0109
# 5 15.8473 11.5824 17.9590 0.0000 28.1803 0.0000
# 6 0.0000 0.0000 0.0000 0.0109 0.0000 19.2936
#
#
#
# Elastic Compliance Matrix: (Units=1/GPa)
#
#
# Indices 1 2 3 4 5 6 
#
# 1 0.009478 -0.004128 -0.002654 0.000000 -0.001942 0.000000
# 2 -0.004128 0.017056 -0.005270 0.000000 -0.001330 0.000000
# 3 -0.002654 -0.005270 0.017978 0.000000 -0.007799 0.000000
# 4 0.000000 0.000000 0.000000 0.045161 0.000000 -0.000026
# 5 -0.001942 -0.001330 -0.007799 0.000000 0.042095 0.000000
# 6 0.000000 0.000000 0.000000 -0.000026 0.000000 0.051831
#
#
# Mechanical properties :
#
#
# Convention : Reuss Voigt Hill
#
# Bulk Modulus (GPa) = 49.00134 62.01621 55.50878
# Shear Modulus (GPa) = 23.30940 25.76048 24.53494
#
# Velocity S-wave (km/s) = 3.56214 3.74474 3.65458
# Velocity P-wave (km/s) = 6.60250 7.24272 6.93001
#
# Compressibility (1/GPa) = 0.02040760
#
# Stress axis : x y z
#
# Youngs Moduli (GPa) = 105.50541 58.63060 55.62289
#
# Poissons Ratio (x) = 0.24206 0.14761
# Poissons Ratio (y) = 0.43558 0.29314
# Poissons Ratio (z) = 0.27999 0.30899
#
# Static dielectric constant tensor:
#      x y z
#    x 3.816800 0.000000 0.255590 
#    y 0.000000 3.512550 0.000000 
#    z 0.255590 0.000000 3.363800 
# 
# 
# High freq. dielectric constant tensor:
#      x y z
#    x 1.725010 0.000000 0.003690 
#    y 0.000000 1.705980 0.000000 
#    z 0.003690 0.000000 1.706830 
# 
# From -- ./inp_files/96498.got.cif
#   From: 2010.06.25/outbox.cif.g09.slc.cpg/sg12_49_cif.got.tgz:96498.got - 2010.06.28 00:19:55.
