data_PCOD8087060
_publ_section_title
;
Structure prediction by ZEFSAII (Michael W. Deem and Ramdas Pophale) SiO2 
 PCOD8087060
Probable space group: C 2/M
;
_chemical_formula_sum "Si O2"
_cell_formula_units_Z 64
_cell_length_a 21.711683
_cell_length_b 9.629858
_cell_length_c 22.533194
_cell_angle_alpha 90.000000
_cell_angle_beta 46.088306
_cell_angle_gamma 90.000000
_cell_volume 3394.029434
_symmetry_space_group_name_H-M "C 2/M"
_symmetry_group_IT_number 12
_symmetry_cell_setting 'monoclinic'
loop_
_space_group_symop_operation_xyz
x,y,z
-x,y,-z
-x,-y,-z
x,-y,z
1/2+x,1/2+y,z
1/2-x,1/2+y,-z
1/2-x,1/2-y,-z
1/2+x,1/2-y,z
loop_
_atom_site_type_symbol
_atom_site_label
_atom_site_fract_x
_atom_site_fract_y
_atom_site_fract_z
Si Si1 0.540648 0.163655 0.712428
Si Si2 0.919902 0.339351 0.962449
Si Si3 0.905373 0.663052 0.549480
Si Si4 0.135849 0.335462 0.129786
Si Si5 0.329689 0.165362 0.474115
Si Si6 0.211810 0.841744 0.896939
Si Si7 0.242520 0.656848 0.264892
Si Si8 0.896365 0.338130 0.205036
O O1 0.443931 0.223224 0.777798
O O2 0.588863 0.205245 0.620515
O O3 0.589808 0.219622 0.737707
O O4 0.535110 0.000000 0.724194
O O5 0.903359 0.500000 0.987608
O O6 0.876208 0.291996 0.930134
O O7 0.020840 0.308910 0.891471
O O8 0.875151 0.249209 0.044219
O O9 0.917125 0.500000 0.533148
O O10 0.857631 0.717185 0.521292
O O11 0.846332 0.702351 0.645129
O O12 0.000000 0.727606 0.500000
O O13 0.137906 0.500000 0.134747
O O14 0.224518 0.276886 0.096122
O O15 0.250000 0.250000 0.500000
O O16 0.309105 0.000000 0.485995
O O17 0.265260 0.832181 0.800495
O O18 0.185019 0.000000 0.928010
O O19 0.265039 0.500000 0.269812
O O20 0.317205 0.757437 0.232971
O O21 0.874241 0.500000 0.219619
#
# Coordination Sequence:
#
# PCOD8087060 Si02
#       8
#     8   8   8   8   8   8   8   8
#     4   8  15  28  50  76  95 121 166 209 244 289
#     4   9  18  33  52  73  96 126 165 207 247 291
#     4   9  19  34  53  79 109 139 174 216 262 312
#     4   8  15  29  49  72  97 123 158 205 248 289
#     4  10  19  31  53  80 104 134 172 217 261 306
#     4  10  20  31  48  73 100 130 163 202 248 296
#     4  10  21  34  49  73 103 133 164 203 250 297
#     4   9  18  34  53  72  98 132 168 204 245 295
#
# _framework density 18.856642000000001
#
# number of rings (size 3 to 8) (size 9 to 14) (size 15 to 20)
#    0.000    2.875    0.000    2.625    1.750    1.500 
#    0.000    2.500    0.000    3.750    0.000    0.000 
#    0.000    0.000    0.000    0.000    0.000    0.000 
#
# Total GULP energy -396549.381488 kJ/mol
# GULP energy per Si atom -12392.168172 kJ/mol
# Density = 1.881372 g / cm^3
# Si number density = 18.856642 Si / 1000 Ang^3
#
#
#
# Elastic Constant Matrix: (Units=GPa)
#
#
# Indices 1 2 3 4 5 6 
#
# 1 84.1294 29.3258 40.4514 0.0000 -15.4076 0.0000
# 2 29.3258 42.2952 45.3120 0.0000 -9.5542 0.0003
# 3 40.4514 45.3120 126.5093 0.0000 -9.6095 -0.0001
# 4 0.0000 0.0000 0.0000 21.7553 0.0000 -3.4140
# 5 -15.4076 -9.5542 -9.6095 0.0000 24.8012 -0.0001
# 6 0.0000 0.0003 -0.0001 -3.4140 -0.0001 22.6004
#
#
#
# Elastic Compliance Matrix: (Units=1/GPa)
#
#
# Indices 1 2 3 4 5 6 
#
# 1 0.016868 -0.008054 -0.002007 0.000000 0.006598 0.000000
# 2 -0.008054 0.044639 -0.012866 0.000000 0.007208 -0.000001
# 3 -0.002007 -0.012866 0.013068 0.000000 -0.001140 0.000000
# 4 0.000000 0.000000 0.000000 0.047082 0.000000 0.007112
# 5 0.006598 0.007208 -0.001140 0.000000 0.046755 0.000000
# 6 0.000000 -0.000001 0.000000 0.007112 0.000000 0.045321
#
#
# Mechanical properties :
#
#
# Convention : Reuss Voigt Hill
#
# Bulk Modulus (GPa) = 34.81855 53.67915 44.24885
# Shear Modulus (GPa) = 18.57621 23.02101 20.79861
#
# Velocity S-wave (km/s) = 3.14208 3.49785 3.32473
# Velocity P-wave (km/s) = 5.62748 6.69642 6.18508
#
# Compressibility (1/GPa) = 0.02872032
#
# Stress axis : x y z
#
# Youngs Moduli (GPa) = 59.28503 22.40173 76.52288
#
# Poissons Ratio (x) = 0.18043 0.15362
# Poissons Ratio (y) = 0.47749 0.98452
# Poissons Ratio (z) = 0.11901 0.28821
#
# Static dielectric constant tensor:
#      x y z
#    x 3.639190 0.000000 -0.068250 
#    y 0.000000 3.018350 0.000000 
#    z -0.068250 0.000000 3.847800 
# 
# 
# High freq. dielectric constant tensor:
#      x y z
#    x 1.732680 0.000000 -0.000710 
#    y 0.000000 1.682590 0.000000 
#    z -0.000710 0.000000 1.747730 
# 
# From -- ./inp_files/346792.got.cif
#   From: 2010.06.25/outbox.cif.g09.slc.cpg/sg12_174_cif.got.tgz:346792.got - 2010.06.28 00:19:55.
