data_PCOD8087185
_publ_section_title
;
Structure prediction by ZEFSAII (Michael W. Deem and Ramdas Pophale) SiO2 
 PCOD8087185
Probable space group: C 2/M
;
_chemical_formula_sum "Si O2"
_cell_formula_units_Z 32
_cell_length_a 15.575384
_cell_length_b 12.045834
_cell_length_c 13.604670
_cell_angle_alpha 90.000000
_cell_angle_beta 36.808855
_cell_angle_gamma 90.000000
_cell_volume 1529.316192
_symmetry_space_group_name_H-M "C 2/M"
_symmetry_group_IT_number 12
_symmetry_cell_setting 'monoclinic'
loop_
_space_group_symop_operation_xyz
x,y,z
-x,y,-z
-x,-y,-z
x,-y,z
1/2+x,1/2+y,z
1/2-x,1/2+y,-z
1/2-x,1/2-y,-z
1/2+x,1/2-y,z
loop_
_atom_site_type_symbol
_atom_site_label
_atom_site_fract_x
_atom_site_fract_y
_atom_site_fract_z
Si Si1 0.299470 0.237356 0.306724
Si Si2 0.339259 0.000000 0.183430
Si Si3 0.435240 0.500000 0.669095
Si Si4 0.359782 0.126837 0.696234
Si Si5 0.477653 0.727344 0.317394
O O1 0.275832 0.310147 0.229575
O O2 0.447605 0.269615 0.227315
O O3 0.166823 0.267393 0.497600
O O4 0.304467 0.106930 0.280662
O O5 0.236680 0.000000 0.182287
O O6 0.500000 0.000000 0.000000
O O7 0.500000 0.500000 0.500000
O O8 0.483890 0.604508 0.686084
O O9 0.500000 0.135981 0.500000
O O10 0.395618 0.187793 0.766888
O O11 0.316244 0.000000 0.756747
#
# Coordination Sequence:
#
# PCOD8087185 Si02
#       5
#     8   4   4   8   8
#     4  10  20  34  54  87 115 148 193 242 293 339
#     4  12  24  40  60  83 121 164 199 239 290 355
#     4  12  18  38  62  87 116 153 199 247 293 344
#     4   9  17  30  48  81 119 143 172 234 302 344
#     4  10  19  31  59  87 114 144 192 250 290 337
#
# _framework density 20.924385000000001
#
# number of rings (size 3 to 8) (size 9 to 14) (size 15 to 20)
#    0.000    1.750    5.000    0.750    3.500    0.000 
#    0.000    1.250    0.000    0.750    0.000    0.000 
#    0.000    0.000    0.000    0.000    0.000    0.000 
#
# Total GULP energy -198330.760119 kJ/mol
# GULP energy per Si atom -12395.672507 kJ/mol
# Density = 2.087676 g / cm^3
# Si number density = 20.924385 Si / 1000 Ang^3
#
#
#
# Elastic Constant Matrix: (Units=GPa)
#
#
# Indices 1 2 3 4 5 6 
#
# 1 239.6375 111.3479 10.7038 0.0000 -25.0533 0.0000
# 2 111.3479 191.9464 -5.6498 0.0000 -6.3569 0.0000
# 3 10.7038 -5.6498 18.0408 0.0000 -8.3999 0.0000
# 4 0.0000 0.0000 0.0000 3.6116 0.0000 -9.7204
# 5 -25.0533 -6.3569 -8.3999 0.0000 12.9547 0.0000
# 6 0.0000 0.0000 0.0000 -9.7204 0.0000 38.7260
#
#
#
# Elastic Compliance Matrix: (Units=1/GPa)
#
#
# Indices 1 2 3 4 5 6 
#
# 1 0.007183 -0.003755 0.000246 0.000000 0.012209 0.000000
# 2 -0.003755 0.007481 0.004152 0.000000 -0.000900 0.000000
# 3 0.000246 0.004152 0.082731 0.000001 0.056157 0.000000
# 4 0.000000 0.000000 0.000001 0.853475 -0.000001 0.214227
# 5 0.012209 -0.000900 0.056157 -0.000001 0.136774 0.000000
# 6 0.000000 0.000000 0.000000 0.214227 0.000000 0.079594
#
#
# Mechanical properties :
#
#
# Convention : Reuss Voigt Hill
#
# Bulk Modulus (GPa) = 10.13366 75.82541 42.97953
# Shear Modulus (GPa) = 4.17068 33.27330 18.72199
#
# Velocity S-wave (km/s) = 1.41334 3.99202 2.99447
# Velocity P-wave (km/s) = 2.74169 7.58714 5.70446
#
# Compressibility (1/GPa) = 0.09868104
#
# Stress axis : x y z
#
# Youngs Moduli (GPa) = 139.21095 133.67669 12.08737
#
# Poissons Ratio (x) = 0.50202 -0.00298
# Poissons Ratio (y) = 0.52280 -0.05019
# Poissons Ratio (z) = -0.03431 -0.55502
#
# Static dielectric constant tensor:
#      x y z
#    x 4.459410 0.000000 -0.307710 
#    y 0.000000 3.806290 0.000000 
#    z -0.307710 0.000000 3.105690 
# 
# 
# High freq. dielectric constant tensor:
#      x y z
#    x 1.845040 0.000000 -0.022140 
#    y 0.000000 1.828890 0.000000 
#    z -0.022140 0.000000 1.744110 
# 
# From -- ./inp_files/57002.got.cif
#   From: 2010.06.25/outbox.cif.g09.slc.cpg/sg12_29_cif.got.tgz:57002.got - 2010.06.28 00:19:55.
