data_PCOD8087638
_publ_section_title
;
Structure prediction by ZEFSAII (Michael W. Deem and Ramdas Pophale) SiO2 
 PCOD8087638
Probable space group: C 2/M
;
_chemical_formula_sum "Si O2"
_cell_formula_units_Z 48
_cell_length_a 18.105340
_cell_length_b 8.979630
_cell_length_c 32.352627
_cell_angle_alpha 90.000000
_cell_angle_beta 149.578662
_cell_angle_gamma 90.000000
_cell_volume 2663.359144
_symmetry_space_group_name_H-M "C 2/M"
_symmetry_group_IT_number 12
_symmetry_cell_setting 'monoclinic'
loop_
_space_group_symop_operation_xyz
x,y,z
-x,y,-z
-x,-y,-z
x,-y,z
1/2+x,1/2+y,z
1/2-x,1/2+y,-z
1/2-x,1/2-y,-z
1/2+x,1/2-y,z
loop_
_atom_site_type_symbol
_atom_site_label
_atom_site_fract_x
_atom_site_fract_y
_atom_site_fract_z
Si Si1 0.331069 0.826605 0.663193
Si Si2 0.080025 0.332367 0.582208
Si Si3 0.568337 0.664094 0.078104
Si Si4 0.660687 0.824778 0.838247
Si Si5 0.807459 0.675917 0.986464
Si Si6 0.822210 0.825277 0.495839
O O1 0.239511 0.739763 0.653961
O O2 0.498314 0.777559 0.747595
O O3 0.276907 0.784571 0.591389
O O4 0.308614 0.000000 0.661058
O O5 0.097494 0.500000 0.607307
O O6 0.000000 0.328168 0.500000
O O7 0.985379 0.238757 0.569215
O O8 0.561139 0.500000 0.095439
O O9 0.736559 0.714082 0.151894
O O10 0.477738 0.779182 0.062398
O O11 0.500000 0.655983 0.000000
O O12 0.673648 0.000000 0.855133
O O13 0.708050 0.731658 0.900922
O O14 0.796922 0.500000 0.985073
O O15 0.750000 0.750000 0.000000
O O16 0.750000 0.750000 0.500000
O O17 0.833550 0.000000 0.508565
#
# Coordination Sequence:
#
# PCOD8087638 Si02
#       6
#     8   8   8   8   8   8
#     4   9  18  33  53  75  99 129 164 202 247 297
#     4   9  17  30  49  72  98 130 167 204 242 291
#     4   8  15  30  51  72  96 128 162 197 242 295
#     4   9  18  34  54  75 100 128 160 202 250 298
#     4  11  21  33  51  74 100 131 167 205 244 290
#     4  10  19  32  51  74 100 132 168 206 249 296
#
# _framework density 18.022352999999999
#
# number of rings (size 3 to 8) (size 9 to 14) (size 15 to 20)
#    0.000    2.667    0.000    3.500    0.000    6.333 
#    0.000    1.667    0.000    6.000    0.000    0.000 
#    0.000    0.000    0.000    0.000    0.000    0.000 
#
# Total GULP energy -297540.351110 kJ/mol
# GULP energy per Si atom -12397.514630 kJ/mol
# Density = 1.798133 g / cm^3
# Si number density = 18.022353 Si / 1000 Ang^3
#
#
#
# Elastic Constant Matrix: (Units=GPa)
#
#
# Indices 1 2 3 4 5 6 
#
# 1 157.5091 83.0740 61.1086 0.0000 30.8921 0.0000
# 2 83.0740 121.3844 46.6799 -0.0001 13.0268 0.0000
# 3 61.1086 46.6799 83.5400 0.0000 33.9086 0.0000
# 4 0.0000 -0.0001 0.0000 20.7000 0.0000 3.8761
# 5 30.8921 13.0268 33.9086 0.0000 33.1535 0.0000
# 6 0.0000 0.0000 0.0000 3.8761 0.0000 37.5581
#
#
#
# Elastic Compliance Matrix: (Units=1/GPa)
#
#
# Indices 1 2 3 4 5 6 
#
# 1 0.012004 -0.006521 -0.002799 0.000000 -0.005760 0.000000
# 2 -0.006521 0.014238 -0.005782 0.000000 0.006395 0.000000
# 3 -0.002799 -0.005782 0.026105 0.000000 -0.021820 0.000000
# 4 0.000000 0.000000 0.000000 0.049261 0.000000 -0.005084
# 5 -0.005760 0.006395 -0.021820 0.000000 0.055334 0.000000
# 6 0.000000 0.000000 0.000000 -0.005084 0.000000 0.027150
#
#
# Mechanical properties :
#
#
# Convention : Reuss Voigt Hill
#
# Bulk Modulus (GPa) = 45.15903 82.68426 63.92164
# Shear Modulus (GPa) = 22.55551 29.72039 26.13795
#
# Velocity S-wave (km/s) = 3.54153 4.06530 3.81242
# Velocity P-wave (km/s) = 6.46799 8.24705 7.41110
#
# Compressibility (1/GPa) = 0.02214396
#
# Stress axis : x y z
#
# Youngs Moduli (GPa) = 83.30874 70.23452 38.30695
#
# Poissons Ratio (x) = 0.45797 0.10722
# Poissons Ratio (y) = 0.54322 0.22148
# Poissons Ratio (z) = 0.23318 0.40608
#
# Static dielectric constant tensor:
#      x y z
#    x 3.573670 0.000000 0.472570 
#    y 0.000000 3.396940 0.000000 
#    z 0.472570 0.000000 3.345960 
# 
# 
# High freq. dielectric constant tensor:
#      x y z
#    x 1.702970 0.000000 0.028910 
#    y 0.000000 1.700450 0.000000 
#    z 0.028910 0.000000 1.668030 
# 
# From -- ./inp_files/274577.got.cif
#   From: 2010.06.25/outbox.cif.g09.slc.cpg/sg12_138_cif.got.tgz:274577.got - 2010.06.28 00:19:55.
