data_PCOD8087355
_publ_section_title
;
Structure prediction by ZEFSAII (Michael W. Deem and Ramdas Pophale) SiO2 
 PCOD8087355
Probable space group: C 2/M
;
_chemical_formula_sum "Si O2"
_cell_formula_units_Z 56
_cell_length_a 19.841480
_cell_length_b 9.011766
_cell_length_c 21.396909
_cell_angle_alpha 90.000000
_cell_angle_beta 125.438266
_cell_angle_gamma 90.000000
_cell_volume 3117.126575
_symmetry_space_group_name_H-M "C 2/M"
_symmetry_group_IT_number 12
_symmetry_cell_setting 'monoclinic'
loop_
_space_group_symop_operation_xyz
x,y,z
-x,y,-z
-x,-y,-z
x,-y,z
1/2+x,1/2+y,z
1/2-x,1/2+y,-z
1/2-x,1/2-y,-z
1/2+x,1/2-y,z
loop_
_atom_site_type_symbol
_atom_site_label
_atom_site_fract_x
_atom_site_fract_y
_atom_site_fract_z
Si Si1 0.590522 0.323380 0.540996
Si Si2 0.658619 0.822815 0.132452
Si Si3 0.764503 0.168630 0.300418
Si Si4 0.607398 0.168479 0.300906
Si Si5 0.494080 0.176226 0.870669
Si Si6 0.176911 0.323264 0.000671
Si Si7 0.337629 0.325775 0.551228
O O1 0.500000 0.254744 0.500000
O O2 0.591094 0.500000 0.548469
O O3 0.652337 0.254980 0.627267
O O4 0.616050 0.276386 0.485931
O O5 0.728586 0.756971 0.217550
O O6 0.567712 0.766641 0.107114
O O7 0.657812 0.000000 0.135573
O O8 0.681380 0.769454 0.075163
O O9 0.697697 0.176320 0.319391
O O10 0.785126 0.000000 0.294584
O O11 0.539771 0.229171 0.214947
O O12 0.606121 0.271129 0.361005
O O13 0.586688 0.000000 0.309283
O O14 0.587640 0.234852 0.928602
O O15 0.493782 0.000000 0.873410
O O16 0.184984 0.500000 0.999437
O O17 0.250000 0.250000 0.000000
O O18 0.324687 0.500000 0.549900
O O19 0.250000 0.250000 0.500000
#
# Coordination Sequence:
#
# PCOD8087355 Si02
#       7
#     8   8   8   8   8   8   8
#     4   9  17  29  44  66  96 127 158 195 240 283
#     4   8  14  26  49  74  89 115 167 215 236 267
#     4   8  13  25  46  70  92 117 157 203 243 277
#     4   9  16  30  51  74  95 123 162 206 248 284
#     4   8  15  29  52  74  94 123 165 208 241 279
#     4  10  19  32  49  74 103 130 158 195 246 297
#     4  11  20  31  50  75  99 129 163 201 244 288
#
# _framework density 17.965264000000001
#
# number of rings (size 3 to 8) (size 9 to 14) (size 15 to 20)
#    0.000    3.000    1.429    2.571    0.000    1.714 
#    2.571    0.714    0.000    6.857    0.000    0.000 
#    0.000    0.000    0.000    0.000    0.000    0.000 
#
# Total GULP energy -346926.959317 kJ/mol
# GULP energy per Si atom -12390.248547 kJ/mol
# Density = 1.792437 g / cm^3
# Si number density = 17.965264 Si / 1000 Ang^3
#
#
#
# Elastic Constant Matrix: (Units=GPa)
#
#
# Indices 1 2 3 4 5 6 
#
# 1 139.9406 26.8699 97.4698 0.0000 4.0115 0.0000
# 2 26.8699 26.7521 25.3293 0.0000 -5.1040 0.0000
# 3 97.4698 25.3293 176.1833 0.0000 3.6038 0.0000
# 4 0.0000 0.0000 0.0000 20.2819 0.0000 -3.4415
# 5 4.0115 -5.1040 3.6038 0.0000 28.5240 0.0000
# 6 0.0000 0.0000 0.0000 -3.4415 0.0000 20.0366
#
#
#
# Elastic Compliance Matrix: (Units=1/GPa)
#
#
# Indices 1 2 3 4 5 6 
#
# 1 0.012839 -0.007736 -0.005941 0.000000 -0.002439 0.000000
# 2 -0.007736 0.050117 -0.003139 0.000000 0.010452 0.000000
# 3 -0.005941 -0.003139 0.009433 0.000000 -0.000918 0.000000
# 4 0.000000 0.000000 0.000000 0.050785 0.000000 0.008723
# 5 -0.002439 0.010452 -0.000918 0.000000 0.037388 0.000000
# 6 0.000000 0.000000 0.000000 0.008723 0.000000 0.051407
#
#
# Mechanical properties :
#
#
# Convention : Reuss Voigt Hill
#
# Bulk Modulus (GPa) = 25.80219 71.35709 48.57964
# Shear Modulus (GPa) = 19.34095 26.64898 22.99496
#
# Velocity S-wave (km/s) = 3.28468 3.85562 3.58155
# Velocity P-wave (km/s) = 5.36460 7.72184 6.64852
#
# Compressibility (1/GPa) = 0.03875639
#
# Stress axis : x y z
#
# Youngs Moduli (GPa) = 77.88722 19.95340 106.01488
#
# Poissons Ratio (x) = 0.15436 0.62982
# Poissons Ratio (y) = 0.60254 0.33279
# Poissons Ratio (z) = 0.46272 0.06264
#
# Static dielectric constant tensor:
#      x y z
#    x 3.245950 0.000000 0.126840 
#    y 0.000000 2.766830 0.000000 
#    z 0.126840 0.000000 3.872690 
# 
# 
# High freq. dielectric constant tensor:
#      x y z
#    x 1.681650 0.000000 0.001790 
#    y 0.000000 1.630180 0.000000 
#    z 0.001790 0.000000 1.719620 
# 
# From -- ./inp_files/314423.got.cif
#   From: 2010.06.25/outbox.cif.g09.slc.cpg/sg12_158_cif.got.tgz:314423.got - 2010.06.28 00:19:55.
