data_PCOD8087443
_publ_section_title
;
Structure prediction by ZEFSAII (Michael W. Deem and Ramdas Pophale) SiO2 
 PCOD8087443
Probable space group: C 2/M
;
_chemical_formula_sum "Si O2"
_cell_formula_units_Z 56
_cell_length_a 19.251978
_cell_length_b 8.809146
_cell_length_c 27.620448
_cell_angle_alpha 90.000000
_cell_angle_beta 138.520598
_cell_angle_gamma 90.000000
_cell_volume 3102.615215
_symmetry_space_group_name_H-M "C 2/M"
_symmetry_group_IT_number 12
_symmetry_cell_setting 'monoclinic'
loop_
_space_group_symop_operation_xyz
x,y,z
-x,y,-z
-x,-y,-z
x,-y,z
1/2+x,1/2+y,z
1/2-x,1/2+y,-z
1/2-x,1/2-y,-z
1/2+x,1/2-y,z
loop_
_atom_site_type_symbol
_atom_site_label
_atom_site_fract_x
_atom_site_fract_y
_atom_site_fract_z
Si Si1 0.638331 0.179174 0.431464
Si Si2 0.821250 0.324071 0.077461
Si Si3 0.443348 0.820635 0.796356
Si Si4 0.411973 0.178707 0.490643
Si Si5 0.173440 0.820285 0.353796
Si Si6 0.854981 0.175565 0.946852
Si Si7 0.942434 0.179905 0.894152
O O1 0.750000 0.250000 0.500000
O O2 0.564245 0.217284 0.439758
O O3 0.603747 0.251175 0.361972
O O4 0.647937 0.000000 0.430324
O O5 0.827977 0.500000 0.068226
O O6 0.763422 0.293029 0.098396
O O7 0.937335 0.257079 0.143341
O O8 0.750000 0.250000 0.000000
O O9 0.376342 0.734453 0.721756
O O10 0.399790 0.772810 0.825951
O O11 0.435906 0.000000 0.783946
O O12 0.500000 0.250923 0.500000
O O13 0.294527 0.238031 0.417089
O O14 0.413115 0.000000 0.483464
O O15 0.168414 0.000000 0.355609
O O16 0.869635 0.238621 0.900429
O O17 0.883292 0.000000 0.957928
O O18 0.939261 0.236073 0.030506
O O19 0.934428 0.000000 0.879330
#
# Coordination Sequence:
#
# PCOD8087443 Si02
#       7
#     8   8   8   8   8   8   8
#     4   9  16  29  52  78 105 134 164 202 242 289
#     4  10  19  32  50  72  96 125 165 211 253 296
#     4  11  22  33  48  73 104 134 164 207 259 304
#     4   8  15  30  54  82 103 124 163 207 242 283
#     4  10  20  34  53  74 100 137 172 205 248 299
#     4   8  15  29  50  72  91 118 164 211 249 296
#     4   9  16  30  52  71  91 125 164 206 250 298
#
# _framework density 18.049289000000002
#
# number of rings (size 3 to 8) (size 9 to 14) (size 15 to 20)
#    0.000    2.714    1.429    3.000    0.000    0.571 
#    0.000    3.571    0.000   24.000    0.000    0.000 
#    0.000    0.000    0.000    0.000    0.000    0.000 
#
# Total GULP energy -346882.268178 kJ/mol
# GULP energy per Si atom -12388.652435 kJ/mol
# Density = 1.800821 g / cm^3
# Si number density = 18.049289 Si / 1000 Ang^3
#
#
#
# Elastic Constant Matrix: (Units=GPa)
#
#
# Indices 1 2 3 4 5 6 
#
# 1 108.5338 27.9375 55.3483 0.0000 -18.4222 0.0000
# 2 27.9375 48.1735 26.9285 -0.0001 -6.8129 0.0002
# 3 55.3483 26.9285 114.9714 0.0000 -22.6554 0.0000
# 4 0.0000 -0.0001 0.0000 28.4169 0.0000 -6.1242
# 5 -18.4222 -6.8129 -22.6554 0.0000 29.2516 0.0000
# 6 0.0000 0.0002 0.0000 -6.1242 0.0000 20.3264
#
#
#
# Elastic Compliance Matrix: (Units=1/GPa)
#
#
# Indices 1 2 3 4 5 6 
#
# 1 0.013411 -0.004660 -0.004619 0.000000 0.003783 0.000000
# 2 -0.004660 0.025557 -0.003715 0.000000 0.000140 0.000000
# 3 -0.004619 -0.003715 0.013038 0.000000 0.006323 0.000000
# 4 0.000000 0.000000 0.000000 0.037634 0.000000 0.011339
# 5 0.003783 0.000140 0.006323 0.000000 0.041499 0.000000
# 6 0.000000 0.000000 0.000000 0.011339 0.000000 0.052613
#
#
# Mechanical properties :
#
#
# Convention : Reuss Voigt Hill
#
# Bulk Modulus (GPa) = 38.43604 54.67860 46.55732
# Shear Modulus (GPa) = 22.89235 26.36329 24.62782
#
# Velocity S-wave (km/s) = 3.56522 3.82596 3.69789
# Velocity P-wave (km/s) = 6.18781 7.06237 6.63951
#
# Compressibility (1/GPa) = 0.02601725
#
# Stress axis : x y z
#
# Youngs Moduli (GPa) = 74.56506 39.12757 76.70092
#
# Poissons Ratio (x) = 0.18235 0.35430
# Poissons Ratio (y) = 0.34751 0.28493
# Poissons Ratio (z) = 0.34443 0.14535
#
# Static dielectric constant tensor:
#      x y z
#    x 3.041800 0.000000 -0.140790 
#    y 0.000000 3.150560 0.000000 
#    z -0.140790 0.000000 3.264920 
# 
# 
# High freq. dielectric constant tensor:
#      x y z
#    x 1.702560 0.000000 -0.026770 
#    y 0.000000 1.675500 0.000000 
#    z -0.026770 0.000000 1.681310 
# 
# From -- ./inp_files/345639.got.cif
#   From: 2010.06.25/outbox.cif.g09.slc.cpg/sg12_173_cif.got.tgz:345639.got - 2010.06.28 00:19:55.
