data_PCOD8087784
_publ_section_title
;
Structure prediction by ZEFSAII (Michael W. Deem and Ramdas Pophale) SiO2 
 PCOD8087784
Probable space group: C 2/M
;
_chemical_formula_sum "Si O2"
_cell_formula_units_Z 56
_cell_length_a 22.341623
_cell_length_b 16.780835
_cell_length_c 15.753659
_cell_angle_alpha 90.000000
_cell_angle_beta 29.063261
_cell_angle_gamma 90.000000
_cell_volume 2869.094747
_symmetry_space_group_name_H-M "C 2/M"
_symmetry_group_IT_number 12
_symmetry_cell_setting 'monoclinic'
loop_
_space_group_symop_operation_xyz
x,y,z
-x,y,-z
-x,-y,-z
x,-y,z
1/2+x,1/2+y,z
1/2-x,1/2+y,-z
1/2-x,1/2-y,-z
1/2+x,1/2-y,z
loop_
_atom_site_type_symbol
_atom_site_label
_atom_site_fract_x
_atom_site_fract_y
_atom_site_fract_z
Si Si1 0.248251 0.588858 0.383115
Si Si2 0.778112 0.406373 0.943877
Si Si3 0.040409 0.822240 0.791785
Si Si4 0.588272 0.271066 0.464066
Si Si5 0.016520 0.327885 0.715818
Si Si6 0.499666 0.592139 0.329133
Si Si7 0.773234 0.843913 0.177188
O O1 0.295253 0.500000 0.347328
O O2 0.342501 0.658195 0.294891
O O3 0.118027 0.602157 0.592426
O O4 0.229480 0.594889 0.304628
O O5 0.804511 0.500000 0.905366
O O6 0.782967 0.370369 0.843259
O O7 0.879707 0.364486 0.877751
O O8 0.646026 0.388815 0.150780
O O9 0.030279 0.728254 0.781786
O O10 0.054605 0.878507 0.692563
O O11 0.919972 0.845165 0.993910
O O12 0.500000 0.241381 0.500000
O O13 0.544187 0.228127 0.602959
O O14 0.572470 0.365116 0.503467
O O15 0.724741 0.244405 0.265026
O O16 0.471414 0.500000 0.374756
#
# Coordination Sequence:
#
# PCOD8087784 Si02
#       7
#     8   8   8   8   8   8   8
#     4  11  22  36  55  81 111 141 177 223 271 317
#     4  10  19  34  55  82 112 139 174 218 271 324
#     4  10  21  36  57  74 106 144 187 218 260 316
#     4  10  19  32  51  76 109 138 174 215 264 316
#     4  10  21  35  54  79 107 144 179 218 265 321
#     4   9  20  34  53  78 105 143 182 220 264 310
#     4  10  21  34  55  84 109 143 175 219 269 322
#
# _framework density 19.518350999999999
#
# number of rings (size 3 to 8) (size 9 to 14) (size 15 to 20)
#    0.000    2.000    1.429    2.143    2.000    4.286 
#    0.000    2.143    0.000    0.000    0.000    0.000 
#    0.000   10.286    0.000    0.000    0.000    0.000 
#
# Total GULP energy -347103.377095 kJ/mol
# GULP energy per Si atom -12396.549182 kJ/mol
# Density = 1.947393 g / cm^3
# Si number density = 19.518351 Si / 1000 Ang^3
#
#
#
# Elastic Constant Matrix: (Units=GPa)
#
#
# Indices 1 2 3 4 5 6 
#
# 1 65.8193 34.2898 21.9762 0.0000 -12.9597 0.0000
# 2 34.2898 117.7301 39.6354 0.0000 1.0236 0.0000
# 3 21.9762 39.6354 38.5501 0.0001 -10.1802 0.0000
# 4 0.0000 0.0000 0.0001 21.8129 0.0000 -12.4756
# 5 -12.9597 1.0236 -10.1802 0.0000 22.3067 0.0000
# 6 0.0000 0.0000 0.0000 -12.4756 0.0000 21.1919
#
#
#
# Elastic Compliance Matrix: (Units=1/GPa)
#
#
# Indices 1 2 3 4 5 6 
#
# 1 0.021237 -0.004803 -0.004380 0.000000 0.010559 0.000000
# 2 -0.004803 0.015321 -0.015847 0.000000 -0.010725 0.000000
# 3 -0.004380 -0.015847 0.050314 0.000000 0.021145 0.000000
# 4 0.000000 0.000000 0.000000 0.069115 0.000000 0.040688
# 5 0.010559 -0.010725 0.021145 0.000000 0.061106 0.000000
# 6 0.000000 0.000000 0.000000 0.040688 0.000000 0.071141
#
#
# Mechanical properties :
#
#
# Convention : Reuss Voigt Hill
#
# Bulk Modulus (GPa) = 27.16459 45.98915 36.57687
# Shear Modulus (GPa) = 14.26271 21.47551 17.86911
#
# Velocity S-wave (km/s) = 2.70614 3.32063 3.02901
# Velocity P-wave (km/s) = 4.86949 6.18994 5.56899
#
# Compressibility (1/GPa) = 0.03681263
#
# Stress axis : x y z
#
# Youngs Moduli (GPa) = 47.08840 65.26924 19.87509
#
# Poissons Ratio (x) = 0.31346 0.08706
# Poissons Ratio (y) = 0.22614 0.31496
# Poissons Ratio (z) = 0.20625 1.03433
#
# Static dielectric constant tensor:
#      x y z
#    x 3.453680 0.000000 0.021780 
#    y 0.000000 3.625540 0.000000 
#    z 0.021780 0.000000 3.604770 
# 
# 
# High freq. dielectric constant tensor:
#      x y z
#    x 1.750100 0.000000 -0.004620 
#    y 0.000000 1.754470 0.000000 
#    z -0.004620 0.000000 1.752920 
# 
# From -- ./inp_files/155948.got.cif
#   From: 2010.06.25/outbox.cif.g09.slc.cpg/sg12_78_cif.got.tgz:155948.got - 2010.06.28 00:19:55.
