data_PCOD8087875
_publ_section_title
;
Structure prediction by ZEFSAII (Michael W. Deem and Ramdas Pophale) SiO2 
 PCOD8087875
Probable space group: C 2/M
;
_chemical_formula_sum "Si O2"
_cell_formula_units_Z 56
_cell_length_a 17.730279
_cell_length_b 13.871798
_cell_length_c 18.031214
_cell_angle_alpha 90.000000
_cell_angle_beta 140.511367
_cell_angle_gamma 90.000000
_cell_volume 2820.195899
_symmetry_space_group_name_H-M "C 2/M"
_symmetry_group_IT_number 12
_symmetry_cell_setting 'monoclinic'
loop_
_space_group_symop_operation_xyz
x,y,z
-x,y,-z
-x,-y,-z
x,-y,z
1/2+x,1/2+y,z
1/2-x,1/2+y,-z
1/2-x,1/2-y,-z
1/2+x,1/2-y,z
loop_
_atom_site_type_symbol
_atom_site_label
_atom_site_fract_x
_atom_site_fract_y
_atom_site_fract_z
Si Si1 0.589715 0.104738 0.134874
Si Si2 0.488212 0.259458 0.291005
Si Si3 0.528006 0.607346 0.938401
Si Si4 0.600283 0.209970 0.927039
Si Si5 0.432238 0.887716 0.524170
Si Si6 0.779311 0.886547 0.167121
Si Si7 0.341372 0.608353 0.671206
O O1 0.533399 0.177932 0.150680
O O2 0.711485 0.144431 0.191348
O O3 0.610671 0.000000 0.188916
O O4 0.500000 0.090007 0.000000
O O5 0.403573 0.210496 0.164567
O O6 0.521644 0.176288 0.373089
O O7 0.408125 0.339726 0.270134
O O8 0.602729 0.313889 0.343451
O O9 0.584102 0.500000 0.981207
O O10 0.622140 0.681501 0.974399
O O11 0.408060 0.610055 0.800066
O O12 0.500000 0.642314 0.000000
O O13 0.704907 0.143074 0.036943
O O14 0.500000 0.858612 0.500000
O O15 0.293278 0.864753 0.411427
O O16 0.455727 0.000000 0.560381
O O17 0.795697 0.000000 0.174674
O O18 0.349487 0.500000 0.642857
#
# Coordination Sequence:
#
# PCOD8087875 Si02
#       7
#     8   8   8   8   8   8   8
#     4   8  15  29  50  72 100 142 182 218 264 320
#     4  11  22  35  57  84 109 145 188 231 278 330
#     4   9  17  29  50  82 116 149 184 219 261 322
#     4  10  19  32  51  81 115 148 186 227 276 325
#     4  10  23  42  61  81 107 143 187 233 281 332
#     4  10  20  35  54  80 116 152 183 221 275 331
#     4   9  19  38  60  82 112 147 183 229 282 329
#
# _framework density 19.856776
#
# number of rings (size 3 to 8) (size 9 to 14) (size 15 to 20)
#    0.000    2.429    0.000    3.857    0.000    5.143 
#    0.000    2.143    0.000    3.429    0.000    0.000 
#    0.000    0.000    0.000    0.000    0.000    0.000 
#
# Total GULP energy -347043.404896 kJ/mol
# GULP energy per Si atom -12394.407318 kJ/mol
# Density = 1.981158 g / cm^3
# Si number density = 19.856776 Si / 1000 Ang^3
#
#
#
# Elastic Constant Matrix: (Units=GPa)
#
#
# Indices 1 2 3 4 5 6 
#
# 1 117.4013 46.6493 33.5719 0.0000 9.8923 0.0000
# 2 46.6493 85.9745 33.4862 0.0000 -3.1767 0.0000
# 3 33.5719 33.4862 42.6599 0.0000 -2.9920 0.0000
# 4 0.0000 0.0000 0.0000 30.6139 0.0000 -1.1175
# 5 9.8923 -3.1767 -2.9920 0.0000 35.2692 0.0000
# 6 0.0000 0.0000 0.0000 -1.1175 0.0000 24.6650
#
#
#
# Elastic Compliance Matrix: (Units=1/GPa)
#
#
# Indices 1 2 3 4 5 6 
#
# 1 0.012563 -0.004334 -0.006799 0.000000 -0.004491 0.000000
# 2 -0.004334 0.018254 -0.010782 0.000000 0.001945 0.000000
# 3 -0.006799 -0.010782 0.037544 0.000000 0.004121 0.000000
# 4 0.000000 0.000000 0.000000 0.032719 0.000000 0.001482
# 5 -0.004491 0.001945 0.004121 0.000000 0.030138 0.000000
# 6 0.000000 0.000000 0.000000 0.001482 0.000000 0.040610
#
#
# Mechanical properties :
#
#
# Convention : Reuss Voigt Hill
#
# Bulk Modulus (GPa) = 40.76453 52.60561 46.68507
# Shear Modulus (GPa) = 22.33786 26.93149 24.63468
#
# Velocity S-wave (km/s) = 3.35766 3.68678 3.52606
# Velocity P-wave (km/s) = 5.96705 6.68380 6.33557
#
# Compressibility (1/GPa) = 0.02453113
#
# Stress axis : x y z
#
# Youngs Moduli (GPa) = 79.60103 54.78189 26.63531
#
# Poissons Ratio (x) = 0.23743 0.18110
# Poissons Ratio (y) = 0.34500 0.28717
# Poissons Ratio (z) = 0.54123 0.59063
#
# Static dielectric constant tensor:
#      x y z
#    x 4.016020 0.000000 0.175350 
#    y 0.000000 3.862030 0.000000 
#    z 0.175350 0.000000 3.297440 
# 
# 
# High freq. dielectric constant tensor:
#      x y z
#    x 1.777400 0.000000 0.007570 
#    y 0.000000 1.788440 0.000000 
#    z 0.007570 0.000000 1.735600 
# 
# From -- ./inp_files/277877.got.cif
#   From: 2010.06.25/outbox.cif.g09.slc.cpg/sg12_139_cif.got.tgz:277877.got - 2010.06.28 00:19:55.
