data_PCOD8087711
_publ_section_title
;
Structure prediction by ZEFSAII (Michael W. Deem and Ramdas Pophale) SiO2 
 PCOD8087711
Probable space group: C 2/M
;
_chemical_formula_sum "Si O2"
_cell_formula_units_Z 56
_cell_length_a 25.357024
_cell_length_b 8.831815
_cell_length_c 14.914420
_cell_angle_alpha 90.000000
_cell_angle_beta 105.618555
_cell_angle_gamma 90.000000
_cell_volume 3216.732272
_symmetry_space_group_name_H-M "C 2/M"
_symmetry_group_IT_number 12
_symmetry_cell_setting 'monoclinic'
loop_
_space_group_symop_operation_xyz
x,y,z
-x,y,-z
-x,-y,-z
x,-y,z
1/2+x,1/2+y,z
1/2-x,1/2+y,-z
1/2-x,1/2-y,-z
1/2+x,1/2-y,z
loop_
_atom_site_type_symbol
_atom_site_label
_atom_site_fract_x
_atom_site_fract_y
_atom_site_fract_z
Si Si1 0.002113 0.178038 0.396443
Si Si2 0.895044 0.678095 0.272466
Si Si3 0.280619 0.326238 0.893751
Si Si4 0.671425 0.675080 0.899890
Si Si5 0.121900 0.821216 0.410389
Si Si6 0.818477 0.179217 0.385221
Si Si7 0.204471 0.175778 0.299826
O O1 0.955409 0.264674 0.321581
O O2 0.000000 0.219582 0.500000
O O3 0.059625 0.238640 0.382962
O O4 0.993417 0.000000 0.378251
O O5 0.893309 0.500000 0.280239
O O6 0.878583 0.728711 0.164206
O O7 0.849876 0.747610 0.317026
O O8 0.260300 0.500000 0.892874
O O9 0.228447 0.218480 0.878582
O O10 0.309036 0.296355 0.810960
O O11 0.324699 0.290282 0.991863
O O12 0.659961 0.500000 0.875378
O O13 0.155025 0.757730 0.510963
O O14 0.151661 0.770323 0.332389
O O15 0.119729 0.000000 0.418207
O O16 0.755463 0.226057 0.355592
O O17 0.823943 0.000000 0.379735
O O18 0.217761 0.000000 0.324848
#
# Coordination Sequence:
#
# PCOD8087711 Si02
#       7
#     8   8   8   8   8   8   8
#     4  10  19  36  57  75 100 136 176 214 254 306
#     4  12  23  34  51  77 106 135 172 221 265 300
#     4   9  18  31  50  77 107 134 165 209 257 306
#     4  10  19  32  51  75 103 136 171 208 257 314
#     4   9  19  34  53  75 104 140 174 207 250 306
#     4  11  20  33  51  76 106 142 176 204 250 310
#     4  10  19  33  52  78 109 138 167 207 256 305
#
# _framework density 17.40897
#
# number of rings (size 3 to 8) (size 9 to 14) (size 15 to 20)
#    0.000    1.857    2.857    2.571    0.000    0.857 
#    0.000    1.429    0.000    0.857    0.000    6.000 
#    0.000    0.000    0.000    0.000    0.000    0.000 
#
# Total GULP energy -347221.940261 kJ/mol
# GULP energy per Si atom -12400.783581 kJ/mol
# Density = 1.736935 g / cm^3
# Si number density = 17.408970 Si / 1000 Ang^3
#
#
#
# Elastic Constant Matrix: (Units=GPa)
#
#
# Indices 1 2 3 4 5 6 
#
# 1 126.1481 39.8367 64.3894 0.0000 4.9525 0.0000
# 2 39.8367 67.3310 45.8786 0.0000 8.1728 0.0000
# 3 64.3894 45.8786 125.7508 0.0000 8.3785 0.0000
# 4 0.0000 0.0000 0.0000 21.4567 0.0000 6.5214
# 5 4.9525 8.1728 8.3785 0.0000 23.4144 0.0000
# 6 0.0000 0.0000 0.0000 6.5214 0.0000 23.2370
#
#
#
# Elastic Compliance Matrix: (Units=1/GPa)
#
#
# Indices 1 2 3 4 5 6 
#
# 1 0.011383 -0.003728 -0.004502 0.000000 0.000505 0.000000
# 2 -0.003728 0.021445 -0.005602 0.000000 -0.004692 0.000000
# 3 -0.004502 -0.005602 0.012403 0.000000 -0.001531 0.000000
# 4 0.000000 0.000000 0.000000 0.050952 0.000000 -0.014299
# 5 0.000505 -0.004692 -0.001531 0.000000 0.044788 0.000000
# 6 0.000000 0.000000 0.000000 -0.014299 0.000000 0.047048
#
#
# Mechanical properties :
#
#
# Convention : Reuss Voigt Hill
#
# Bulk Modulus (GPa) = 56.92829 68.82657 62.87743
# Shear Modulus (GPa) = 22.56960 24.89664 23.73312
#
# Velocity S-wave (km/s) = 3.60451 3.78577 3.69625
# Velocity P-wave (km/s) = 7.07777 7.66358 7.37649
#
# Compressibility (1/GPa) = 0.01756596
#
# Stress axis : x y z
#
# Youngs Moduli (GPa) = 87.85362 46.63161 80.62483
#
# Poissons Ratio (x) = 0.17386 0.36295
# Poissons Ratio (y) = 0.32755 0.45167
# Poissons Ratio (z) = 0.39549 0.26124
#
# Static dielectric constant tensor:
#      x y z
#    x 3.237060 0.000000 0.026210 
#    y 0.000000 3.145700 0.000000 
#    z 0.026210 0.000000 3.499990 
# 
# 
# High freq. dielectric constant tensor:
#      x y z
#    x 1.650400 0.000000 0.003660 
#    y 0.000000 1.663880 0.000000 
#    z 0.003660 0.000000 1.680510 
# 
# From -- ./inp_files/237909.got.cif
#   From: 2010.06.25/outbox.cif.g09.slc.cpg/sg12_119_cif.got.tgz:237909.got - 2010.06.28 00:19:55.
