data_PCOD8087817
_publ_section_title
;
Structure prediction by ZEFSAII (Michael W. Deem and Ramdas Pophale) SiO2 
 PCOD8087817
Probable space group: C 2/M
;
_chemical_formula_sum "Si O2"
_cell_formula_units_Z 56
_cell_length_a 20.504541
_cell_length_b 8.879345
_cell_length_c 30.448698
_cell_angle_alpha 90.000000
_cell_angle_beta 146.670335
_cell_angle_gamma 90.000000
_cell_volume 3046.016296
_symmetry_space_group_name_H-M "C 2/M"
_symmetry_group_IT_number 12
_symmetry_cell_setting 'monoclinic'
loop_
_space_group_symop_operation_xyz
x,y,z
-x,y,-z
-x,-y,-z
x,-y,z
1/2+x,1/2+y,z
1/2-x,1/2+y,-z
1/2-x,1/2-y,-z
1/2+x,1/2-y,z
loop_
_atom_site_type_symbol
_atom_site_label
_atom_site_fract_x
_atom_site_fract_y
_atom_site_fract_z
Si Si1 0.020087 0.825233 0.912145
Si Si2 0.010105 0.678152 0.813265
Si Si3 0.081585 0.166045 0.503289
Si Si4 0.146223 0.822417 0.670600
Si Si5 0.774095 0.825394 0.820121
Si Si6 0.275114 0.322878 0.661389
Si Si7 0.253563 0.678584 0.907340
O O1 0.000568 0.727181 0.858134
O O2 0.909292 0.801369 0.881826
O O3 0.034267 0.000000 0.906794
O O4 0.135669 0.761172 0.002053
O O5 0.999230 0.500000 0.803901
O O6 0.133159 0.737023 0.861996
O O7 0.904176 0.752034 0.725578
O O8 0.190282 0.279993 0.572548
O O9 0.000000 0.159720 0.500000
O O10 0.994013 0.218028 0.414575
O O11 0.134624 0.000000 0.523696
O O12 0.183482 0.770021 0.739676
O O13 0.226035 0.737147 0.679908
O O14 0.166701 0.000000 0.675662
O O15 0.761241 0.760805 0.862021
O O16 0.737488 0.000000 0.796374
O O17 0.286316 0.500000 0.670896
O O18 0.260261 0.500000 0.910078
#
# Coordination Sequence:
#
# PCOD8087817 Si02
#       7
#     8   8   8   8   8   8   8
#     4  10  19  34  56  79 103 134 178 224 264 308
#     4  11  21  34  53  75 107 143 177 216 259 314
#     4   8  16  30  48  73 105 137 165 205 260 313
#     4  10  19  32  51  77 109 138 168 208 261 315
#     4  10  19  33  55  79 106 139 177 217 258 308
#     4  11  20  31  50  77 105 135 174 218 259 303
#     4   9  20  36  53  76 105 143 180 213 261 314
#
# _framework density 18.384668000000001
#
# number of rings (size 3 to 8) (size 9 to 14) (size 15 to 20)
#    0.000    2.143    1.429    3.857    0.000    4.857 
#    0.000    2.857    0.000    2.571    0.000    0.000 
#    0.000    0.000    0.000    0.000    0.000    0.000 
#
# Total GULP energy -347200.185124 kJ/mol
# GULP energy per Si atom -12400.006612 kJ/mol
# Density = 1.834282 g / cm^3
# Si number density = 18.384668 Si / 1000 Ang^3
#
#
#
# Elastic Constant Matrix: (Units=GPa)
#
#
# Indices 1 2 3 4 5 6 
#
# 1 61.8334 26.5597 31.9265 0.0001 7.8526 0.0003
# 2 26.5597 81.4758 49.9872 0.0002 7.2624 0.0004
# 3 31.9265 49.9872 151.9712 0.0001 15.8541 0.0000
# 4 0.0001 0.0002 0.0001 25.0037 0.0000 0.9034
# 5 7.8526 7.2624 15.8541 0.0000 12.6508 0.0000
# 6 0.0003 0.0004 0.0000 0.9034 0.0000 15.0555
#
#
#
# Elastic Compliance Matrix: (Units=1/GPa)
#
#
# Indices 1 2 3 4 5 6 
#
# 1 0.020127 -0.004737 -0.001899 0.000000 -0.007394 0.000000
# 2 -0.004737 0.016582 -0.004340 0.000000 -0.001140 0.000000
# 3 -0.001899 -0.004340 0.009231 0.000000 -0.007898 0.000000
# 4 0.000000 0.000000 0.000000 0.040081 0.000000 -0.002405
# 5 -0.007394 -0.001140 -0.007898 0.000000 0.094187 0.000000
# 6 0.000000 0.000000 0.000000 -0.002405 0.000000 0.066565
#
#
# Mechanical properties :
#
#
# Convention : Reuss Voigt Hill
#
# Bulk Modulus (GPa) = 41.68838 56.91411 49.30124
# Shear Modulus (GPa) = 18.06877 22.99583 20.53230
#
# Velocity S-wave (km/s) = 3.13839 3.54052 3.34551
# Velocity P-wave (km/s) = 5.98812 6.90929 6.46513
#
# Compressibility (1/GPa) = 0.02398750
#
# Stress axis : x y z
#
# Youngs Moduli (GPa) = 49.68562 60.30578 108.33499
#
# Poissons Ratio (x) = 0.28566 0.20570
# Poissons Ratio (y) = 0.23535 0.47020
# Poissons Ratio (z) = 0.09434 0.26174
#
# Static dielectric constant tensor:
#      x y z
#    x 3.147590 0.000000 0.088350 
#    y 0.000000 3.227580 0.000000 
#    z 0.088350 0.000000 3.883880 
# 
# 
# High freq. dielectric constant tensor:
#      x y z
#    x 1.675350 0.000000 0.006510 
#    y 0.000000 1.700000 0.000000 
#    z 0.006510 0.000000 1.735580 
# 
# From -- ./inp_files/363095.got.cif
#   From: 2010.06.25/outbox.cif.g09.slc.cpg/sg12_182_cif.got.tgz:363095.got - 2010.06.28 00:19:55.
