data_PCOD8087895
_publ_section_title
;
Structure prediction by ZEFSAII (Michael W. Deem and Ramdas Pophale) SiO2 
 PCOD8087895
Probable space group: C 2/M
;
_chemical_formula_sum "Si O2"
_cell_formula_units_Z 56
_cell_length_a 19.019415
_cell_length_b 9.183714
_cell_length_c 32.587802
_cell_angle_alpha 90.000000
_cell_angle_beta 146.214624
_cell_angle_gamma 90.000000
_cell_volume 3165.268696
_symmetry_space_group_name_H-M "C 2/M"
_symmetry_group_IT_number 12
_symmetry_cell_setting 'monoclinic'
loop_
_space_group_symop_operation_xyz
x,y,z
-x,y,-z
-x,-y,-z
x,-y,z
1/2+x,1/2+y,z
1/2-x,1/2+y,-z
1/2-x,1/2-y,-z
1/2+x,1/2-y,z
loop_
_atom_site_type_symbol
_atom_site_label
_atom_site_fract_x
_atom_site_fract_y
_atom_site_fract_z
Si Si1 0.805908 0.165123 0.810790
Si Si2 0.569630 0.336326 0.903655
Si Si3 0.466509 0.170522 0.354550
Si Si4 0.689604 0.328574 0.432105
Si Si5 0.861885 0.328336 0.919223
Si Si6 0.745966 0.832303 0.934253
Si Si7 0.061642 0.329939 0.488566
O O1 0.678718 0.204849 0.725186
O O2 0.829457 0.278825 0.858027
O O3 0.919318 0.180827 0.833294
O O4 0.801836 0.000000 0.826358
O O5 0.608277 0.500000 0.909015
O O6 0.618451 0.221588 0.894243
O O7 0.632347 0.301989 0.978180
O O8 0.550835 0.255361 0.360860
O O9 0.495339 0.229493 0.414665
O O10 0.498959 0.000000 0.366857
O O11 0.675180 0.500000 0.433068
O O12 0.750000 0.250000 0.500000
O O13 0.785753 0.300791 0.440244
O O14 0.850756 0.500000 0.916623
O O15 0.758991 0.257304 0.898991
O O16 0.000000 0.273459 0.000000
O O17 0.730346 0.000000 0.915423
O O18 0.033384 0.500000 0.476663
O O19 0.000000 0.257845 0.500000
#
# Coordination Sequence:
#
# PCOD8087895 Si02
#       7
#     8   8   8   8   8   8   8
#     4  10  20  35  53  73 101 137 175 215 263 316
#     4   9  18  32  50  72  98 130 168 211 259 311
#     4   9  18  32  51  74 101 135 170 205 250 304
#     4   9  16  28  49  74 101 132 168 206 245 293
#     4  11  22  34  51  75 100 127 169 221 265 310
#     4  10  19  32  52  73  97 129 168 213 262 314
#     4   8  14  27  49  76 101 128 165 204 239 283
#
# _framework density 17.692022000000001
#
# number of rings (size 3 to 8) (size 9 to 14) (size 15 to 20)
#    0.000    2.571    1.429    2.143    0.000    2.286 
#    0.000    1.429    0.000   14.143    0.000    0.000 
#    0.000    0.000    0.000    0.000    0.000    0.000 
#
# Total GULP energy -347065.127981 kJ/mol
# GULP energy per Si atom -12395.183142 kJ/mol
# Density = 1.765175 g / cm^3
# Si number density = 17.692022 Si / 1000 Ang^3
#
#
#
# Elastic Constant Matrix: (Units=GPa)
#
#
# Indices 1 2 3 4 5 6 
#
# 1 120.9931 46.5022 49.3210 0.0000 12.8537 0.0000
# 2 46.5022 67.2249 30.5634 0.0000 4.8880 0.0000
# 3 49.3210 30.5634 83.0085 0.0000 18.2802 0.0000
# 4 0.0000 0.0000 0.0000 18.8594 0.0000 2.1548
# 5 12.8537 4.8880 18.2802 0.0000 27.9462 0.0000
# 6 0.0000 0.0000 0.0000 2.1548 0.0000 30.0133
#
#
#
# Elastic Compliance Matrix: (Units=1/GPa)
#
#
# Indices 1 2 3 4 5 6 
#
# 1 0.012991 -0.006631 -0.004927 0.000000 -0.001593 0.000000
# 2 -0.006631 0.021296 -0.004384 0.000000 0.002193 0.000000
# 3 -0.004927 -0.004384 0.018600 0.000000 -0.009134 0.000000
# 4 0.000000 0.000000 0.000000 0.053463 0.000000 -0.003838
# 5 -0.001593 0.002193 -0.009134 0.000000 0.042107 0.000000
# 6 0.000000 0.000000 0.000000 -0.003838 0.000000 0.033594
#
#
# Mechanical properties :
#
#
# Convention : Reuss Voigt Hill
#
# Bulk Modulus (GPa) = 47.61071 58.22219 52.91645
# Shear Modulus (GPa) = 22.63117 25.01977 23.82547
#
# Velocity S-wave (km/s) = 3.58043 3.76464 3.67369
# Velocity P-wave (km/s) = 6.63792 7.20256 6.92600
#
# Compressibility (1/GPa) = 0.02100368
#
# Stress axis : x y z
#
# Youngs Moduli (GPa) = 76.97776 46.95733 53.76370
#
# Poissons Ratio (x) = 0.31135 0.26487
# Poissons Ratio (y) = 0.51041 0.23572
# Poissons Ratio (z) = 0.37924 0.20587
#
# Static dielectric constant tensor:
#      x y z
#    x 3.614070 0.000000 0.292280 
#    y 0.000000 3.291410 0.000000 
#    z 0.292280 0.000000 3.230750 
# 
# 
# High freq. dielectric constant tensor:
#      x y z
#    x 1.689720 0.000000 0.017790 
#    y 0.000000 1.675760 0.000000 
#    z 0.017790 0.000000 1.653130 
# 
# From -- ./inp_files/314382.got.cif
#   From: 2010.06.25/outbox.cif.g09.slc.cpg/sg12_158_cif.got.tgz:314382.got - 2010.06.28 00:19:55.
