data_PCOD8087341
_publ_section_title
;
Structure prediction by ZEFSAII (Michael W. Deem and Ramdas Pophale) SiO2 
 PCOD8087341
Probable space group: C 2/M
;
_chemical_formula_sum "Si O2"
_cell_formula_units_Z 56
_cell_length_a 16.316689
_cell_length_b 27.532796
_cell_length_c 17.101602
_cell_angle_alpha 90.000000
_cell_angle_beta 155.984317
_cell_angle_gamma 90.000000
_cell_volume 3126.794557
_symmetry_space_group_name_H-M "C 2/M"
_symmetry_group_IT_number 12
_symmetry_cell_setting 'monoclinic'
loop_
_space_group_symop_operation_xyz
x,y,z
-x,y,-z
-x,-y,-z
x,-y,z
1/2+x,1/2+y,z
1/2-x,1/2+y,-z
1/2-x,1/2-y,-z
1/2+x,1/2-y,z
loop_
_atom_site_type_symbol
_atom_site_label
_atom_site_fract_x
_atom_site_fract_y
_atom_site_fract_z
Si Si1 0.304765 0.665314 0.788693
Si Si2 0.269923 0.000000 0.194562
Si Si3 0.769923 0.500000 0.382292
Si Si4 0.910272 0.297950 0.002863
Si Si5 0.836430 0.230631 0.674146
Si Si6 0.187064 0.164931 0.940381
Si Si7 0.496176 0.580173 0.119716
Si Si8 0.096089 0.285628 0.734218
O O1 0.255937 0.692209 0.667095
O O2 0.117968 0.671660 0.686480
O O3 0.500000 0.690061 0.000000
O O4 0.366405 0.609661 0.822975
O O5 0.243527 0.000000 0.264663
O O6 0.509727 0.000000 0.388293
O O7 0.170803 0.048024 0.070831
O O8 0.649048 0.547706 0.304742
O O9 0.750456 0.256115 0.842875
O O10 0.794126 0.341243 0.948927
O O11 0.000000 0.318877 0.000000
O O12 0.087545 0.278322 0.214260
O O13 0.626287 0.237572 0.443791
O O14 0.008109 0.204234 0.772745
O O15 0.116248 0.114680 0.916118
O O16 0.351644 0.190636 0.138167
#
# Coordination Sequence:
#
# PCOD8087341 Si02
#       8
#     8   4   4   8   8   8   8   8
#     4  11  16  30  49  75 102 141 175 206 243 285
#     4  10  21  35  56  77 103 139 158 196 251 314
#     4  10  21  35  52  81 103 131 166 192 250 313
#     4  11  21  37  49  68 101 134 176 223 264 294
#     4  10  19  32  49  72  98 136 179 215 251 292
#     4  10  23  34  50  74  99 133 173 219 257 296
#     4  10  20  36  50  72 110 132 167 207 245 299
#     4  11  19  32  51  71 100 139 180 214 251 291
#
# _framework density 17.909714999999998
#
# number of rings (size 3 to 8) (size 9 to 14) (size 15 to 20)
#    0.000    1.571    5.714    3.857    0.000    4.571 
#    7.714    0.000    0.000    0.000    0.000    2.000 
#    0.000    1.143    0.000    0.000    0.000    0.000 
#
# Total GULP energy -346904.669015 kJ/mol
# GULP energy per Si atom -12389.452465 kJ/mol
# Density = 1.786895 g / cm^3
# Si number density = 17.909715 Si / 1000 Ang^3
#
#
#
# Elastic Constant Matrix: (Units=GPa)
#
#
# Indices 1 2 3 4 5 6 
#
# 1 100.6157 31.4873 21.6140 0.0005 29.7654 0.0001
# 2 31.4873 68.8255 30.2700 0.0003 5.0908 0.0000
# 3 21.6140 30.2700 115.0382 0.0017 14.1564 0.0008
# 4 0.0005 0.0003 0.0017 11.1795 0.0005 0.3775
# 5 29.7654 5.0908 14.1564 0.0005 17.7156 0.0002
# 6 0.0001 0.0000 0.0008 0.3775 0.0002 15.6091
#
#
#
# Elastic Compliance Matrix: (Units=1/GPa)
#
#
# Indices 1 2 3 4 5 6 
#
# 1 0.024107 -0.009319 0.002859 0.000001 -0.040111 0.000000
# 2 -0.009319 0.020065 -0.005264 0.000000 0.014098 0.000000
# 3 0.002859 -0.005264 0.011030 -0.000001 -0.012105 0.000000
# 4 0.000001 0.000000 -0.000001 0.089523 -0.000003 -0.002165
# 5 -0.040111 0.014098 -0.012105 -0.000003 0.129463 -0.000001
# 6 0.000000 0.000000 0.000000 -0.002165 -0.000001 0.064118
#
#
# Mechanical properties :
#
#
# Convention : Reuss Voigt Hill
#
# Bulk Modulus (GPa) = 31.49186 50.13579 40.81382
# Shear Modulus (GPa) = 13.42861 22.30805 17.86833
#
# Velocity S-wave (km/s) = 2.74121 3.53311 3.16205
# Velocity P-wave (km/s) = 5.25745 6.68567 6.01411
#
# Compressibility (1/GPa) = 0.03175424
#
# Stress axis : x y z
#
# Youngs Moduli (GPa) = 41.48117 49.83732 90.65950
#
# Poissons Ratio (x) = 0.46445 -0.25918
# Poissons Ratio (y) = 0.38658 0.47721
# Poissons Ratio (z) = -0.11859 0.26233
#
# Static dielectric constant tensor:
#      x y z
#    x 3.294070 0.000000 0.103790 
#    y 0.000000 3.166050 0.000000 
#    z 0.103790 0.000000 3.545480 
# 
# 
# High freq. dielectric constant tensor:
#      x y z
#    x 1.677450 0.000000 0.005140 
#    y 0.000000 1.653980 0.000000 
#    z 0.005140 0.000000 1.708590 
# 
# From -- ./inp_files/318552.got.cif
#   From: 2010.06.25/outbox.cif.g09.slc.cpg/sg12_160_cif.got.tgz:318552.got - 2010.06.28 00:19:55.
