data_PCOD8087772
_publ_section_title
;
Structure prediction by ZEFSAII (Michael W. Deem and Ramdas Pophale) SiO2 
 PCOD8087772
Probable space group: C 2/M
;
_chemical_formula_sum "Si O2"
_cell_formula_units_Z 56
_cell_length_a 19.534250
_cell_length_b 22.262084
_cell_length_c 8.427984
_cell_angle_alpha 90.000000
_cell_angle_beta 54.213610
_cell_angle_gamma 90.000000
_cell_volume 2973.142147
_symmetry_space_group_name_H-M "C 2/M"
_symmetry_group_IT_number 12
_symmetry_cell_setting 'monoclinic'
loop_
_space_group_symop_operation_xyz
x,y,z
-x,y,-z
-x,-y,-z
x,-y,z
1/2+x,1/2+y,z
1/2-x,1/2+y,-z
1/2-x,1/2-y,-z
1/2+x,1/2-y,z
loop_
_atom_site_type_symbol
_atom_site_label
_atom_site_fract_x
_atom_site_fract_y
_atom_site_fract_z
Si Si1 0.677221 0.153229 0.026291
Si Si2 0.096327 0.069217 0.348121
Si Si3 0.716358 0.569588 0.911008
Si Si4 0.098920 0.567302 0.891857
Si Si5 0.792887 0.629009 0.516724
Si Si6 0.815178 0.173334 0.608118
Si Si7 0.596229 0.787914 0.415829
O O1 0.711048 0.097554 0.080901
O O2 0.639809 0.205337 0.186175
O O3 0.611053 0.120558 0.001271
O O4 0.747063 0.189558 0.834077
O O5 0.149223 0.106881 0.404737
O O6 0.000000 0.088432 0.500000
O O7 0.110854 0.000000 0.373652
O O8 0.126876 0.081521 0.124175
O O9 0.734678 0.500000 0.869141
O O10 0.723853 0.598083 0.726147
O O11 0.125790 0.500000 0.912031
O O12 0.156175 0.581401 0.659422
O O13 0.000000 0.567657 0.000000
O O14 0.732949 0.673444 0.495207
O O15 0.865715 0.664353 0.512427
O O16 0.889119 0.222641 0.524180
O O17 0.500000 0.799272 0.500000
#
# Coordination Sequence:
#
# PCOD8087772 Si02
#       7
#     8   8   8   8   8   8   8
#     4   9  19  33  51  74 100 134 177 215 252 308
#     4   9  18  34  56  81 107 136 175 219 262 312
#     4   9  17  31  52  76 103 136 170 208 257 313
#     4  10  19  32  51  76 107 141 176 216 262 308
#     4  10  21  34  51  77 107 137 174 219 262 312
#     4  10  20  35  55  75 102 139 177 213 260 318
#     4  11  21  35  54  75 102 135 174 220 266 310
#
# _framework density 18.835291999999999
#
# number of rings (size 3 to 8) (size 9 to 14) (size 15 to 20)
#    0.000    2.286    0.000    3.000    0.000    4.000 
#    0.000    0.714    0.000   12.857    0.000    0.000 
#    0.000    0.000    0.000    0.000    0.000    0.000 
#
# Total GULP energy -346937.613321 kJ/mol
# GULP energy per Si atom -12390.629047 kJ/mol
# Density = 1.879242 g / cm^3
# Si number density = 18.835292 Si / 1000 Ang^3
#
#
#
# Elastic Constant Matrix: (Units=GPa)
#
#
# Indices 1 2 3 4 5 6 
#
# 1 89.2899 17.4743 44.9629 0.0000 0.0126 0.0000
# 2 17.4743 52.3753 22.6423 0.0000 1.9055 0.0000
# 3 44.9629 22.6423 104.2550 0.0000 -1.5168 0.0000
# 4 0.0000 0.0000 0.0000 21.6749 0.0000 -6.5853
# 5 0.0126 1.9055 -1.5168 0.0000 28.2569 0.0000
# 6 0.0000 0.0000 0.0000 -6.5853 0.0000 17.1912
#
#
#
# Elastic Compliance Matrix: (Units=1/GPa)
#
#
# Indices 1 2 3 4 5 6 
#
# 1 0.014568 -0.002359 -0.005773 0.000000 -0.000157 0.000000
# 2 -0.002359 0.021532 -0.003683 0.000000 -0.001649 0.000000
# 3 -0.005773 -0.003683 0.012895 0.000000 0.000943 0.000000
# 4 0.000000 0.000000 0.000000 0.052213 0.000000 0.020001
# 5 -0.000157 -0.001649 0.000943 0.000000 0.035551 0.000000
# 6 0.000000 0.000000 0.000000 0.020001 0.000000 0.065831
#
#
# Mechanical properties :
#
#
# Convention : Reuss Voigt Hill
#
# Bulk Modulus (GPa) = 39.42330 46.23100 42.82715
# Shear Modulus (GPa) = 21.30598 24.14732 22.72665
#
# Velocity S-wave (km/s) = 3.36694 3.58442 3.47738
# Velocity P-wave (km/s) = 6.00758 6.45979 6.23779
#
# Compressibility (1/GPa) = 0.02536571
#
# Stress axis : x y z
#
# Youngs Moduli (GPa) = 68.64281 46.44210 77.54840
#
# Poissons Ratio (x) = 0.10956 0.44768
# Poissons Ratio (y) = 0.16193 0.28561
# Poissons Ratio (z) = 0.39627 0.17104
#
# Static dielectric constant tensor:
#      x y z
#    x 3.382920 0.000000 0.010490 
#    y 0.000000 3.431710 0.000000 
#    z 0.010490 0.000000 3.736530 
# 
# 
# High freq. dielectric constant tensor:
#      x y z
#    x 1.721420 0.000000 0.000460 
#    y 0.000000 1.732720 0.000000 
#    z 0.000460 0.000000 1.735600 
# 
# From -- ./inp_files/79579.got.cif
#   From: 2010.06.25/outbox.cif.g09.slc.cpg/sg12_40_cif.got.tgz:79579.got - 2010.06.28 00:19:55.
