data_PCOD8087894
_publ_section_title
;
Structure prediction by ZEFSAII (Michael W. Deem and Ramdas Pophale) SiO2 
 PCOD8087894
Probable space group: C 2/M
;
_chemical_formula_sum "Si O2"
_cell_formula_units_Z 56
_cell_length_a 19.123526
_cell_length_b 9.275418
_cell_length_c 24.501905
_cell_angle_alpha 90.000000
_cell_angle_beta 132.240782
_cell_angle_gamma 90.000000
_cell_volume 3217.543932
_symmetry_space_group_name_H-M "C 2/M"
_symmetry_group_IT_number 12
_symmetry_cell_setting 'monoclinic'
loop_
_space_group_symop_operation_xyz
x,y,z
-x,y,-z
-x,-y,-z
x,-y,z
1/2+x,1/2+y,z
1/2-x,1/2+y,-z
1/2-x,1/2-y,-z
1/2+x,1/2-y,z
loop_
_atom_site_type_symbol
_atom_site_label
_atom_site_fract_x
_atom_site_fract_y
_atom_site_fract_z
Si Si1 0.405716 0.170026 0.418618
Si Si2 0.657966 0.664851 0.938407
Si Si3 0.281469 0.333351 0.433529
Si Si4 0.913010 0.165096 0.311629
Si Si5 0.124648 0.162008 0.403999
Si Si6 0.283041 0.667725 0.144428
Si Si7 0.591579 0.330384 0.015944
O O1 0.500000 0.215976 0.500000
O O2 0.316845 0.244974 0.400266
O O3 0.408991 0.224752 0.358931
O O4 0.390959 0.000000 0.411168
O O5 0.684207 0.500000 0.960453
O O6 0.639802 0.696812 0.864477
O O7 0.750000 0.750000 0.000000
O O8 0.579245 0.703629 0.943665
O O9 0.274273 0.500000 0.413865
O O10 0.177542 0.276003 0.393644
O O11 0.353089 0.305354 0.520982
O O12 0.833626 0.212513 0.226890
O O13 0.014042 0.179678 0.335268
O O14 0.898569 0.000000 0.324096
O O15 0.159306 0.000000 0.408016
O O16 0.255217 0.500000 0.130462
O O17 0.186634 0.757085 0.088405
O O18 0.601137 0.500000 0.032169
O O19 0.500000 0.269119 0.000000
#
# Coordination Sequence:
#
# PCOD8087894 Si02
#       7
#     8   8   8   8   8   8   8
#     4  11  22  34  51  75 101 131 173 221 264 315
#     4   8  14  27  47  70  95 125 161 197 234 280
#     4  10  19  32  52  73  97 128 166 213 260 308
#     4  10  20  35  53  73 101 136 173 215 267 319
#     4   9  18  32  50  72  98 129 165 208 258 310
#     4   9  18  32  51  74 100 132 170 210 250 299
#     4   9  17  30  50  76 106 137 169 205 246 295
#
# _framework density 17.404578999999998
#
# number of rings (size 3 to 8) (size 9 to 14) (size 15 to 20)
#    0.000    2.571    1.429    0.857    0.000    2.571 
#    0.000    1.429    0.000    3.429    0.000    0.000 
#    0.000    0.000    0.000    0.000    0.000    0.000 
#
# Total GULP energy -346967.138601 kJ/mol
# GULP energy per Si atom -12391.683521 kJ/mol
# Density = 1.736497 g / cm^3
# Si number density = 17.404579 Si / 1000 Ang^3
#
#
#
# Elastic Constant Matrix: (Units=GPa)
#
#
# Indices 1 2 3 4 5 6 
#
# 1 125.1280 50.1410 50.0202 0.0000 -9.1963 0.0000
# 2 50.1410 64.2677 35.1503 0.0000 -7.0368 0.0000
# 3 50.0202 35.1503 84.3551 0.0000 -6.4819 0.0000
# 4 0.0000 0.0000 0.0000 20.1433 0.0000 -1.2731
# 5 -9.1963 -7.0368 -6.4819 0.0000 22.4955 0.0000
# 6 0.0000 0.0000 0.0000 -1.2731 0.0000 29.5675
#
#
#
# Elastic Compliance Matrix: (Units=1/GPa)
#
#
# Indices 1 2 3 4 5 6 
#
# 1 0.012852 -0.007443 -0.004392 0.000000 0.001660 0.000000
# 2 -0.007443 0.024817 -0.005691 0.000000 0.003080 0.000000
# 3 -0.004392 -0.005691 0.016930 0.000000 0.001303 0.000000
# 4 0.000000 0.000000 0.000000 0.049780 0.000000 0.002143
# 5 0.001660 0.003080 0.001303 0.000000 0.046471 0.000000
# 6 0.000000 0.000000 0.000000 0.002143 0.000000 0.033913
#
#
# Mechanical properties :
#
#
# Convention : Reuss Voigt Hill
#
# Bulk Modulus (GPa) = 51.15706 60.48599 55.82153
# Shear Modulus (GPa) = 22.09159 23.67055 22.88107
#
# Velocity S-wave (km/s) = 3.56659 3.69184 3.62975
# Velocity P-wave (km/s) = 6.81303 7.28020 7.05049
#
# Compressibility (1/GPa) = 0.01954764
#
# Stress axis : x y z
#
# Youngs Moduli (GPa) = 77.80813 40.29534 59.06592
#
# Poissons Ratio (x) = 0.29993 0.25941
# Poissons Ratio (y) = 0.57915 0.33612
# Poissons Ratio (z) = 0.34172 0.22931
#
# Static dielectric constant tensor:
#      x y z
#    x 3.527110 0.000000 -0.313290 
#    y 0.000000 3.280230 0.000000 
#    z -0.313290 0.000000 3.134920 
# 
# 
# High freq. dielectric constant tensor:
#      x y z
#    x 1.677230 0.000000 -0.014100 
#    y 0.000000 1.675960 0.000000 
#    z -0.014100 0.000000 1.641770 
# 
# From -- ./inp_files/280393.got.cif
#   From: 2010.06.25/outbox.cif.g09.slc.cpg/sg12_141_cif.got.tgz:280393.got - 2010.06.28 00:19:55.
