data_PCOD8087319
_publ_section_title
;
Structure prediction by ZEFSAII (Michael W. Deem and Ramdas Pophale) SiO2 
 PCOD8087319
Probable space group: C 2/M
;
_chemical_formula_sum "Si O2"
_cell_formula_units_Z 64
_cell_length_a 28.283607
_cell_length_b 8.968391
_cell_length_c 20.897576
_cell_angle_alpha 90.000000
_cell_angle_beta 48.171915
_cell_angle_gamma 90.000000
_cell_volume 3949.921608
_symmetry_space_group_name_H-M "C 2/M"
_symmetry_group_IT_number 12
_symmetry_cell_setting 'monoclinic'
loop_
_space_group_symop_operation_xyz
x,y,z
-x,y,-z
-x,-y,-z
x,-y,z
1/2+x,1/2+y,z
1/2-x,1/2+y,-z
1/2-x,1/2-y,-z
1/2+x,1/2-y,z
loop_
_atom_site_type_symbol
_atom_site_label
_atom_site_fract_x
_atom_site_fract_y
_atom_site_fract_z
Si Si1 0.450928 0.328020 0.987715
Si Si2 0.605497 0.324710 0.680824
Si Si3 0.297322 0.175768 0.308699
Si Si4 0.342820 0.827885 0.904043
Si Si5 0.020567 0.325820 0.169025
Si Si6 0.703708 0.670565 0.494929
Si Si7 0.751074 0.826054 0.897979
Si Si8 0.687745 0.324005 0.840556
O O1 0.450352 0.500000 0.966369
O O2 0.472808 0.227219 0.909498
O O3 0.500000 0.300575 0.000000
O O4 0.382030 0.276037 0.073456
O O5 0.604201 0.500000 0.697868
O O6 0.647849 0.244569 0.696358
O O7 0.535057 0.260744 0.744831
O O8 0.632183 0.292875 0.583996
O O9 0.226226 0.209891 0.402258
O O10 0.298224 0.251304 0.239701
O O11 0.310028 0.000000 0.290502
O O12 0.416234 0.790354 0.847961
O O13 0.317381 0.727575 0.868797
O O14 0.331218 0.000000 0.897170
O O15 0.306113 0.786734 0.002290
O O16 0.005404 0.500000 0.181688
O O17 0.717686 0.500000 0.494336
O O18 0.750000 0.750000 0.500000
O O19 0.739725 0.736854 0.843049
O O20 0.755069 0.000000 0.878800
O O21 0.694133 0.500000 0.828449
#
# Coordination Sequence:
#
# PCOD8087319 Si02
#       8
#     8   8   8   8   8   8   8   8
#     4  10  21  34  46  63  93 132 168 198 230 276
#     4  10  19  32  49  71 100 131 164 199 240 288
#     4  10  19  32  50  72  98 129 166 203 241 283
#     4   9  19  34  50  70  95 122 158 204 248 286
#     4  11  21  33  49  71  97 127 162 200 241 285
#     4   8  16  30  48  69  94 125 160 201 241 281
#     4  10  19  33  52  71  93 124 162 203 244 287
#     4  11  21  32  48  71 100 131 162 199 243 288
#
# _framework density 16.202853999999999
#
# number of rings (size 3 to 8) (size 9 to 14) (size 15 to 20)
#    0.000    2.125    1.250    2.625    0.000    4.250 
#    0.000    0.000    0.000    0.000    0.000    0.875 
#    0.000    7.000    0.000    0.000    0.000    0.000 
#
# Total GULP energy -396666.955869 kJ/mol
# GULP energy per Si atom -12395.842371 kJ/mol
# Density = 1.616598 g / cm^3
# Si number density = 16.202854 Si / 1000 Ang^3
#
#
#
# Elastic Constant Matrix: (Units=GPa)
#
#
# Indices 1 2 3 4 5 6 
#
# 1 80.3845 37.6976 47.1438 -0.0010 -5.3624 0.0069
# 2 37.6976 71.0752 45.5079 0.0064 -7.5176 -0.0095
# 3 47.1438 45.5079 110.1193 0.0022 -15.7605 0.0186
# 4 -0.0010 0.0064 0.0022 24.7535 0.0031 1.4507
# 5 -5.3624 -7.5176 -15.7605 0.0031 6.6672 0.0107
# 6 0.0069 -0.0095 0.0186 1.4507 0.0107 25.9344
#
#
#
# Elastic Compliance Matrix: (Units=1/GPa)
#
#
# Indices 1 2 3 4 5 6 
#
# 1 0.018808 -0.006697 -0.006348 0.000004 -0.007429 0.000000
# 2 -0.006697 0.021601 -0.005055 -0.000007 0.007020 0.000011
# 3 -0.006348 -0.005055 0.018651 -0.000003 0.033285 -0.000027
# 4 0.000004 -0.000007 -0.000003 0.040531 -0.000027 -0.002267
# 5 -0.007429 0.007020 0.033285 -0.000027 0.230611 -0.000113
# 6 0.000000 0.000011 -0.000027 -0.002267 -0.000113 0.038686
#
#
# Mechanical properties :
#
#
# Convention : Reuss Voigt Hill
#
# Bulk Modulus (GPa) = 43.74275 58.03085 50.88680
# Shear Modulus (GPa) = 12.11512 20.21966 16.16739
#
# Velocity S-wave (km/s) = 2.73740 3.53641 3.16224
# Velocity P-wave (km/s) = 6.08660 7.25037 6.69382
#
# Compressibility (1/GPa) = 0.02286093
#
# Stress axis : x y z
#
# Youngs Moduli (GPa) = 53.16849 46.29480 53.61543
#
# Poissons Ratio (x) = 0.31004 0.34033
# Poissons Ratio (y) = 0.35608 0.27101
# Poissons Ratio (z) = 0.33750 0.23401
#
# Static dielectric constant tensor:
#      x y z
#    x 2.920930 -0.000020 -0.148400 
#    y -0.000020 3.180260 0.000000 
#    z -0.148400 0.000000 3.658760 
# 
# 
# High freq. dielectric constant tensor:
#      x y z
#    x 1.599730 0.000000 -0.003000 
#    y 0.000000 1.638830 0.000000 
#    z -0.003000 0.000000 1.618870 
# 
# From -- ./inp_files/326836.got.cif
#   From: 2010.06.25/outbox.cif.g09.slc.cpg/sg12_164_cif.got.tgz:326836.got - 2010.06.28 00:19:55.
