data_PCOD8087246
_publ_section_title
;
Structure prediction by ZEFSAII (Michael W. Deem and Ramdas Pophale) SiO2 
 PCOD8087246
Probable space group: C 2/M
;
_chemical_formula_sum "Si O2"
_cell_formula_units_Z 48
_cell_length_a 33.009566
_cell_length_b 10.807574
_cell_length_c 7.480869
_cell_angle_alpha 90.000000
_cell_angle_beta 99.524354
_cell_angle_gamma 90.000000
_cell_volume 2632.036110
_symmetry_space_group_name_H-M "C 2/M"
_symmetry_group_IT_number 12
_symmetry_cell_setting 'monoclinic'
loop_
_space_group_symop_operation_xyz
x,y,z
-x,y,-z
-x,-y,-z
x,-y,z
1/2+x,1/2+y,z
1/2-x,1/2+y,-z
1/2-x,1/2-y,-z
1/2+x,1/2-y,z
loop_
_atom_site_type_symbol
_atom_site_label
_atom_site_fract_x
_atom_site_fract_y
_atom_site_fract_z
Si Si1 0.310086 0.791640 0.669370
Si Si2 0.897495 0.859078 0.093069
Si Si3 0.544989 0.642879 0.548536
Si Si4 0.732158 0.864522 0.708443
Si Si5 0.609631 0.641583 0.317659
Si Si6 0.335512 0.861496 0.062554
O O1 0.296516 0.870303 0.488937
O O2 0.270597 0.723303 0.718736
O O3 0.345621 0.700174 0.629222
O O4 0.326916 0.873611 0.844561
O O5 0.938788 0.840890 0.237689
O O6 0.866355 0.750906 0.129058
O O7 0.879708 0.000000 0.112293
O O8 0.908899 0.842652 0.894161
O O9 0.500000 0.706690 0.500000
O O10 0.540366 0.500000 0.490620
O O11 0.577260 0.703957 0.432022
O O12 0.705325 0.824560 0.859380
O O13 0.750382 0.000000 0.754022
O O14 0.616140 0.500000 0.376039
O O15 0.351236 0.000000 0.133261
#
# Coordination Sequence:
#
# PCOD8087246 Si02
#       6
#     8   8   8   8   8   8
#     4  10  19  32  48  68  94 128 165 200 240 286
#     4   9  18  32  50  73  98 127 162 196 237 287
#     4   9  17  29  47  73 101 125 154 196 243 289
#     4  10  20  32  47  69  97 129 166 205 241 280
#     4   9  17  29  46  68  95 126 160 199 241 285
#     4  10  20  34  51  72  99 130 164 201 240 282
#
# _framework density 18.236832
#
# number of rings (size 3 to 8) (size 9 to 14) (size 15 to 20)
#    0.000    2.500    0.000    2.500    0.000    1.333 
#    0.000    7.500    0.000    0.500    0.000    4.667 
#    0.000    0.000    0.000    0.000    0.000    0.000 
#
# Total GULP energy -297419.901701 kJ/mol
# GULP energy per Si atom -12392.495904 kJ/mol
# Density = 1.819532 g / cm^3
# Si number density = 18.236832 Si / 1000 Ang^3
#
#
#
# Elastic Constant Matrix: (Units=GPa)
#
#
# Indices 1 2 3 4 5 6 
#
# 1 96.6929 33.0336 29.3835 0.0000 0.1492 0.0000
# 2 33.0336 67.6339 9.7236 0.0000 3.5827 0.0000
# 3 29.3835 9.7236 59.7905 0.0000 1.0126 0.0000
# 4 0.0000 0.0000 0.0000 17.7050 0.0000 0.6401
# 5 0.1492 3.5827 1.0126 0.0000 28.4926 0.0000
# 6 0.0000 0.0000 0.0000 0.6401 0.0000 15.5030
#
#
#
# Elastic Compliance Matrix: (Units=1/GPa)
#
#
# Indices 1 2 3 4 5 6 
#
# 1 0.014275 -0.006154 -0.006030 0.000000 0.000913 0.000000
# 2 -0.006154 0.017887 0.000153 0.000000 -0.002222 0.000000
# 3 -0.006030 0.000153 0.019675 0.000000 -0.000687 0.000000
# 4 0.000000 0.000000 0.000000 0.056566 0.000000 -0.002336
# 5 0.000913 -0.002222 -0.000687 0.000000 0.035396 0.000000
# 6 0.000000 0.000000 0.000000 -0.002336 0.000000 0.064600
#
#
# Mechanical properties :
#
#
# Convention : Reuss Voigt Hill
#
# Bulk Modulus (GPa) = 36.00297 40.93317 38.46807
# Shear Modulus (GPa) = 20.68512 22.47191 21.57851
#
# Velocity S-wave (km/s) = 3.37152 3.51412 3.44355
# Velocity P-wave (km/s) = 5.91108 6.24175 6.07866
#
# Compressibility (1/GPa) = 0.02777548
#
# Stress axis : x y z
#
# Youngs Moduli (GPa) = 70.05033 55.90701 50.82513
#
# Poissons Ratio (x) = 0.34404 0.30649
# Poissons Ratio (y) = 0.43108 -0.00777
# Poissons Ratio (z) = 0.42242 -0.00855
#
# Static dielectric constant tensor:
#      x y z
#    x 3.356890 0.000000 -0.094450 
#    y 0.000000 3.138350 0.000000 
#    z -0.094450 0.000000 3.491200 
# 
# 
# High freq. dielectric constant tensor:
#      x y z
#    x 1.692460 0.000000 -0.008420 
#    y 0.000000 1.680020 0.000000 
#    z -0.008420 0.000000 1.720910 
# 
# From -- ./inp_files/102057.got.cif
#   From: 2010.06.25/outbox.cif.g09.slc.cpg/sg12_52_cif.got.tgz:102057.got - 2010.06.28 00:19:55.
