data_PCOD8087223
_publ_section_title
;
Structure prediction by ZEFSAII (Michael W. Deem and Ramdas Pophale) SiO2 
 PCOD8087223
Probable space group: C 2/M
;
_chemical_formula_sum "Si O2"
_cell_formula_units_Z 36
_cell_length_a 14.743652
_cell_length_b 15.178946
_cell_length_c 9.458201
_cell_angle_alpha 90.000000
_cell_angle_beta 81.263963
_cell_angle_gamma 90.000000
_cell_volume 2092.123548
_symmetry_space_group_name_H-M "C 2/M"
_symmetry_group_IT_number 12
_symmetry_cell_setting 'monoclinic'
loop_
_space_group_symop_operation_xyz
x,y,z
-x,y,-z
-x,-y,-z
x,-y,z
1/2+x,1/2+y,z
1/2-x,1/2+y,-z
1/2-x,1/2-y,-z
1/2+x,1/2-y,z
loop_
_atom_site_type_symbol
_atom_site_label
_atom_site_fract_x
_atom_site_fract_y
_atom_site_fract_z
Si Si1 0.471014 0.901126 0.255453
Si Si2 0.500000 0.221358 0.500000
Si Si3 0.212677 0.398789 0.847320
Si Si4 0.694062 0.742096 0.369000
Si Si5 0.678558 0.100509 0.167432
O O1 0.453730 0.838464 0.391733
O O2 0.394506 0.880025 0.156638
O O3 0.570474 0.886990 0.163215
O O4 0.459884 0.000000 0.315743
O O5 0.414257 0.277632 0.578771
O O6 0.237859 0.500000 0.808606
O O7 0.275469 0.339062 0.733962
O O8 0.230576 0.377497 0.008388
O O9 0.750000 0.750000 0.500000
O O10 0.711379 0.833944 0.282455
O O11 0.699795 0.000000 0.210241
#
# Coordination Sequence:
#
# PCOD8087223 Si02
#       5
#     8   4   8   8   8
#     4   9  16  28  50  77 104 129 159 208 265 313
#     4  10  19  32  47  74 108 132 172 206 252 298
#     4  10  19  33  52  76 103 136 172 208 252 304
#     4  11  21  34  52  76 105 137 172 206 254 303
#     4   9  19  33  53  78 104 130 165 213 263 306
#
# _framework density 17.207397
#
# number of rings (size 3 to 8) (size 9 to 14) (size 15 to 20)
#    0.000    2.222    2.222    1.667    0.000    4.444 
#    0.000    0.556    0.000    0.000    0.000    3.111 
#    0.000    0.000    0.000    0.000    0.000    0.000 
#
# Total GULP energy -223142.799952 kJ/mol
# GULP energy per Si atom -12396.822220 kJ/mol
# Density = 1.716823 g / cm^3
# Si number density = 17.207397 Si / 1000 Ang^3
#
#
#
# Elastic Constant Matrix: (Units=GPa)
#
#
# Indices 1 2 3 4 5 6 
#
# 1 75.7197 49.7863 49.1820 0.0000 -2.4035 0.0000
# 2 49.7863 96.5828 70.2198 0.0000 -3.7135 0.0000
# 3 49.1820 70.2198 122.7236 0.0000 -2.3626 0.0000
# 4 0.0000 0.0000 0.0000 26.5001 0.0000 4.0412
# 5 -2.4035 -3.7135 -2.3626 0.0000 26.7765 0.0000
# 6 0.0000 0.0000 0.0000 4.0412 0.0000 20.3412
#
#
#
# Elastic Compliance Matrix: (Units=1/GPa)
#
#
# Indices 1 2 3 4 5 6 
#
# 1 0.020968 -0.008028 -0.003801 0.000000 0.000433 0.000000
# 2 -0.008028 0.020869 -0.008696 0.000000 0.001406 0.000000
# 3 -0.003801 -0.008696 0.014643 0.000000 -0.000255 0.000000
# 4 0.000000 0.000000 0.000000 0.038915 0.000000 -0.007731
# 5 0.000433 0.001406 -0.000255 0.000000 0.037558 0.000000
# 6 0.000000 0.000000 0.000000 -0.007731 0.000000 0.050697
#
#
# Mechanical properties :
#
#
# Convention : Reuss Voigt Hill
#
# Bulk Modulus (GPa) = 64.81663 70.37805 67.59734
# Shear Modulus (GPa) = 21.75402 23.11277 22.43339
#
# Velocity S-wave (km/s) = 3.55945 3.66893 3.61460
# Velocity P-wave (km/s) = 7.39206 7.67703 7.53589
#
# Compressibility (1/GPa) = 0.01542814
#
# Stress axis : x y z
#
# Youngs Moduli (GPa) = 47.69196 47.91832 68.29418
#
# Poissons Ratio (x) = 0.38471 0.25958
# Poissons Ratio (y) = 0.38289 0.59390
# Poissons Ratio (z) = 0.18128 0.41671
#
# Static dielectric constant tensor:
#      x y z
#    x 3.079650 0.000000 -0.050720 
#    y 0.000000 3.165440 0.000000 
#    z -0.050720 0.000000 3.389400 
# 
# 
# High freq. dielectric constant tensor:
#      x y z
#    x 1.643900 0.000000 -0.001840 
#    y 0.000000 1.649590 0.000000 
#    z -0.001840 0.000000 1.678630 
# 
# From -- ./inp_files/58317.got.cif
#   From: 2010.06.25/outbox.cif.g09.slc.cpg/sg12_30_cif.got.tgz:58317.got - 2010.06.28 00:19:55.
