data_PCOD8087792
_publ_section_title
;
Structure prediction by ZEFSAII (Michael W. Deem and Ramdas Pophale) SiO2 
 PCOD8087792
Probable space group: C 2/M
;
_chemical_formula_sum "Si O2"
_cell_formula_units_Z 48
_cell_length_a 18.312086
_cell_length_b 13.406684
_cell_length_c 17.407820
_cell_angle_alpha 90.000000
_cell_angle_beta 39.036928
_cell_angle_gamma 90.000000
_cell_volume 2691.663809
_symmetry_space_group_name_H-M "C 2/M"
_symmetry_group_IT_number 12
_symmetry_cell_setting 'monoclinic'
loop_
_space_group_symop_operation_xyz
x,y,z
-x,y,-z
-x,-y,-z
x,-y,z
1/2+x,1/2+y,z
1/2-x,1/2+y,-z
1/2-x,1/2-y,-z
1/2+x,1/2-y,z
loop_
_atom_site_type_symbol
_atom_site_label
_atom_site_fract_x
_atom_site_fract_y
_atom_site_fract_z
Si Si1 0.885304 0.108976 0.143652
Si Si2 0.915586 0.115159 0.505457
Si Si3 0.587829 0.616116 0.233492
Si Si4 0.159528 0.383741 0.740297
Si Si5 0.982159 0.762934 0.853146
Si Si6 0.308830 0.791792 0.128588
O O1 0.791342 0.180170 0.178186
O O2 0.928481 0.153894 0.188747
O O3 0.828548 0.000000 0.202692
O O4 0.000000 0.100273 0.000000
O O5 0.786556 0.160651 0.614752
O O6 0.000000 0.166191 0.500000
O O7 0.967715 0.128007 0.377708
O O8 0.902766 0.000000 0.538984
O O9 0.609217 0.500000 0.193407
O O10 0.586346 0.687869 0.161170
O O11 0.689828 0.654371 0.204949
O O12 0.149028 0.500000 0.733185
O O13 0.131418 0.357547 0.852727
O O14 0.064017 0.330703 0.763516
O O15 0.890158 0.718259 0.988298
#
# Coordination Sequence:
#
# PCOD8087792 Si02
#       6
#     8   8   8   8   8   8
#     4   8  15  30  49  67  95 134 170 203 238 290
#     4   9  17  32  54  77  96 127 177 214 249 300
#     4  11  21  34  53  75 105 137 169 215 258 296
#     4  10  19  34  55  77 103 134 170 217 255 291
#     4  10  21  32  47  78 109 133 167 203 255 322
#     4  10  19  32  51  77 103 133 175 209 246 309
#
# _framework density 17.832837000000001
#
# number of rings (size 3 to 8) (size 9 to 14) (size 15 to 20)
#    0.000    2.333    1.667    3.000    0.000    3.333 
#    0.000    0.833    0.000    0.000    0.000   10.500 
#    0.000    0.000    0.000    0.000    0.000    0.000 
#
# Total GULP energy -297406.233649 kJ/mol
# GULP energy per Si atom -12391.926402 kJ/mol
# Density = 1.779225 g / cm^3
# Si number density = 17.832837 Si / 1000 Ang^3
#
#
#
# Elastic Constant Matrix: (Units=GPa)
#
#
# Indices 1 2 3 4 5 6 
#
# 1 60.1022 31.0708 6.3138 0.0000 -1.6993 0.0000
# 2 31.0708 99.6811 20.2358 0.0000 -10.6268 0.0000
# 3 6.3138 20.2358 55.7683 0.0000 -4.9055 0.0000
# 4 0.0000 0.0000 0.0000 16.4041 0.0000 -0.4634
# 5 -1.6993 -10.6268 -4.9055 0.0000 17.4415 0.0000
# 6 0.0000 0.0000 0.0000 -0.4634 0.0000 31.3627
#
#
#
# Elastic Compliance Matrix: (Units=1/GPa)
#
#
# Indices 1 2 3 4 5 6 
#
# 1 0.019898 -0.006392 -0.000108 0.000000 -0.001986 0.000000
# 2 -0.006392 0.013451 -0.003580 0.000000 0.006566 0.000000
# 3 -0.000108 -0.003580 0.019533 0.000000 0.003302 0.000000
# 4 0.000000 0.000000 0.000000 0.060986 0.000000 0.000901
# 5 -0.001986 0.006566 0.003302 0.000000 0.062070 0.000000
# 6 0.000000 0.000000 0.000000 0.000901 0.000000 0.031898
#
#
# Mechanical properties :
#
#
# Convention : Reuss Voigt Hill
#
# Bulk Modulus (GPa) = 30.55997 36.75473 33.65735
# Shear Modulus (GPa) = 20.92895 23.57039 22.24967
#
# Velocity S-wave (km/s) = 3.42953 3.63952 3.53608
# Velocity P-wave (km/s) = 5.73204 6.19007 5.96545
#
# Compressibility (1/GPa) = 0.03272255
#
# Stress axis : x y z
#
# Youngs Moduli (GPa) = 50.25636 74.34356 51.19565
#
# Poissons Ratio (x) = 0.47521 0.00553
# Poissons Ratio (y) = 0.32124 0.18326
# Poissons Ratio (z) = 0.00543 0.26612
#
# Static dielectric constant tensor:
#      x y z
#    x 3.185740 0.000000 -0.102650 
#    y 0.000000 3.524080 0.000000 
#    z -0.102650 0.000000 3.196700 
# 
# 
# High freq. dielectric constant tensor:
#      x y z
#    x 1.675160 0.000000 -0.002590 
#    y 0.000000 1.681140 0.000000 
#    z -0.002590 0.000000 1.674820 
# 
# From -- ./inp_files/166340.got.cif
#   From: 2010.06.25/outbox.cif.g09.slc.cpg/sg12_84_cif.got.tgz:166340.got - 2010.06.28 00:19:55.
