data_PCOD8087360
_publ_section_title
;
Structure prediction by ZEFSAII (Michael W. Deem and Ramdas Pophale) SiO2 
 PCOD8087360
Probable space group: C 2/M
;
_chemical_formula_sum "Si O2"
_cell_formula_units_Z 52
_cell_length_a 21.717411
_cell_length_b 10.156568
_cell_length_c 19.785840
_cell_angle_alpha 90.000000
_cell_angle_beta 40.070005
_cell_angle_gamma 90.000000
_cell_volume 2809.367897
_symmetry_space_group_name_H-M "C 2/M"
_symmetry_group_IT_number 12
_symmetry_cell_setting 'monoclinic'
loop_
_space_group_symop_operation_xyz
x,y,z
-x,y,-z
-x,-y,-z
x,-y,z
1/2+x,1/2+y,z
1/2-x,1/2+y,-z
1/2-x,1/2-y,-z
1/2+x,1/2-y,z
loop_
_atom_site_type_symbol
_atom_site_label
_atom_site_fract_x
_atom_site_fract_y
_atom_site_fract_z
Si Si1 0.199775 0.355211 0.295837
Si Si2 0.000000 0.246411 0.500000
Si Si3 0.343433 0.150177 0.133746
Si Si4 0.244074 0.354483 0.410102
Si Si5 0.503376 0.150419 0.107807
Si Si6 0.461134 0.351136 0.255401
Si Si7 0.584454 0.352822 0.563806
O O1 0.214968 0.500000 0.250444
O O2 0.250415 0.243986 0.207448
O O3 0.252742 0.346297 0.322477
O O4 0.086667 0.335952 0.400937
O O5 0.969009 0.157918 0.462733
O O6 0.411133 0.186866 0.140238
O O7 0.307618 0.000000 0.171233
O O8 0.401342 0.168618 0.016058
O O9 0.207908 0.500000 0.462191
O O10 0.348030 0.324916 0.351517
O O11 0.171151 0.247787 0.499492
O O12 0.513714 0.246966 0.163140
O O13 0.495220 0.000000 0.140268
O O14 0.485562 0.500000 0.210313
O O15 0.489372 0.330622 0.311015
O O16 0.627397 0.500000 0.532582
#
# Coordination Sequence:
#
# PCOD8087360 Si02
#       7
#     8   4   8   8   8   8   8
#     4  10  19  33  54  77 103 138 174 212 257 303
#     4  10  22  38  52  74 104 134 180 220 258 298
#     4   9  18  32  51  77 109 139 169 207 250 304
#     4   9  18  31  47  72 105 134 165 206 258 313
#     4   9  18  32  50  77 110 141 168 200 253 313
#     4  10  19  32  49  75 106 135 168 212 258 307
#     4  10  21  34  51  72  99 135 177 218 257 301
#
# _framework density 18.509502000000001
#
# number of rings (size 3 to 8) (size 9 to 14) (size 15 to 20)
#    0.000    2.462    1.538    1.846    0.000    5.538 
#    0.000    1.538    0.000    0.923    0.000    0.000 
#    0.000    0.000    0.000    0.000    0.000    0.000 
#
# Total GULP energy -322263.555435 kJ/mol
# GULP energy per Si atom -12394.752132 kJ/mol
# Density = 1.846737 g / cm^3
# Si number density = 18.509502 Si / 1000 Ang^3
#
#
#
# Elastic Constant Matrix: (Units=GPa)
#
#
# Indices 1 2 3 4 5 6 
#
# 1 38.9246 21.2464 27.7101 0.0000 6.6945 0.0000
# 2 21.2464 133.8708 73.4741 0.0001 3.9761 0.0000
# 3 27.7101 73.4741 93.7211 0.0000 1.5844 0.0000
# 4 0.0000 0.0001 0.0000 36.8557 0.0000 4.8462
# 5 6.6945 3.9761 1.5844 0.0000 28.6776 0.0000
# 6 0.0000 0.0000 0.0000 4.8462 0.0000 12.6269
#
#
#
# Elastic Compliance Matrix: (Units=1/GPa)
#
#
# Indices 1 2 3 4 5 6 
#
# 1 0.034056 0.000480 -0.010320 0.000000 -0.007446 0.000000
# 2 0.000480 0.013163 -0.010438 0.000000 -0.001360 0.000000
# 3 -0.010320 -0.010438 0.021860 0.000000 0.002649 0.000000
# 4 0.000000 0.000000 0.000000 0.028575 0.000000 -0.010967
# 5 -0.007446 -0.001360 0.002649 0.000000 0.036651 0.000000
# 6 0.000000 0.000000 0.000000 -0.010967 0.000000 0.083405
#
#
# Mechanical properties :
#
#
# Convention : Reuss Voigt Hill
#
# Bulk Modulus (GPa) = 35.05973 56.81973 45.93973
# Shear Modulus (GPa) = 18.67254 25.23777 21.95516
#
# Velocity S-wave (km/s) = 3.17962 3.69657 3.44780
# Velocity P-wave (km/s) = 5.69759 6.99884 6.38147
#
# Compressibility (1/GPa) = 0.02852275
#
# Stress axis : x y z
#
# Youngs Moduli (GPa) = 29.36359 75.96966 45.74632
#
# Poissons Ratio (x) = -0.03647 0.47208
# Poissons Ratio (y) = -0.01410 0.47752
# Poissons Ratio (z) = 0.30302 0.79300
#
# Static dielectric constant tensor:
#      x y z
#    x 3.287600 0.000000 0.194330 
#    y 0.000000 3.530390 0.000000 
#    z 0.194330 0.000000 3.212480 
# 
# 
# High freq. dielectric constant tensor:
#      x y z
#    x 1.689890 0.000000 0.013700 
#    y 0.000000 1.728970 0.000000 
#    z 0.013700 0.000000 1.701220 
# 
# From -- ./inp_files/237226.got.cif
#   From: 2010.06.25/outbox.cif.g09.slc.cpg/sg12_119_cif.got.tgz:237226.got - 2010.06.28 00:19:55.
