data_PCOD8087079
_publ_section_title
;
Structure prediction by ZEFSAII (Michael W. Deem and Ramdas Pophale) SiO2 
 PCOD8087079
Probable space group: C 2/M
;
_chemical_formula_sum "Si O2"
_cell_formula_units_Z 52
_cell_length_a 12.682360
_cell_length_b 13.474601
_cell_length_c 16.853754
_cell_angle_alpha 90.000000
_cell_angle_beta 118.703426
_cell_angle_gamma 90.000000
_cell_volume 2526.215476
_symmetry_space_group_name_H-M "C 2/M"
_symmetry_group_IT_number 12
_symmetry_cell_setting 'monoclinic'
loop_
_space_group_symop_operation_xyz
x,y,z
-x,y,-z
-x,-y,-z
x,-y,z
1/2+x,1/2+y,z
1/2-x,1/2+y,-z
1/2-x,1/2-y,-z
1/2+x,1/2-y,z
loop_
_atom_site_type_symbol
_atom_site_label
_atom_site_fract_x
_atom_site_fract_y
_atom_site_fract_z
Si Si1 0.750820 0.389241 0.859366
Si Si2 0.000000 0.322934 0.000000
Si Si3 0.226962 0.763028 0.275171
Si Si4 0.530223 0.718217 0.845079
Si Si5 0.531862 0.803400 0.683454
Si Si6 0.790387 0.611362 0.590644
Si Si7 0.950329 0.111475 0.569956
O O1 0.725624 0.500000 0.819907
O O2 0.758177 0.314068 0.790536
O O3 0.640126 0.358842 0.877557
O O4 0.880237 0.389224 0.949659
O O5 0.973318 0.255818 0.066821
O O6 0.342142 0.836524 0.311485
O O7 0.233386 0.698321 0.356184
O O8 0.103854 0.826425 0.222591
O O9 0.542694 0.807516 0.783856
O O10 0.428138 0.874689 0.610991
O O11 0.506919 0.687402 0.652696
O O12 0.775551 0.500000 0.621217
O O13 0.695223 0.624668 0.484664
O O14 0.000000 0.132575 0.500000
O O15 0.984841 0.000000 0.609690
#
# Coordination Sequence:
#
# PCOD8087079 Si02
#       7
#     8   4   8   8   8   8   8
#     4  10  19  32  54  81 103 130 169 216 258 299
#     4  10  19  36  55  74 104 134 170 208 253 312
#     4   9  18  33  52  76 105 139 174 211 256 306
#     4   9  20  34  53  76 104 138 170 208 258 309
#     4  10  19  33  53  79 106 139 175 217 263 308
#     4  10  19  32  51  78 107 139 177 217 260 307
#     4  10  19  31  53  82 106 134 173 221 264 305
#
# _framework density 20.584150999999999
#
# number of rings (size 3 to 8) (size 9 to 14) (size 15 to 20)
#    0.000    2.308    1.538    1.615    0.000    2.462 
#    0.000    1.923    0.000    1.385    0.000    0.000 
#    0.000    0.000    0.000    0.000    0.000    0.000 
#
# Total GULP energy -322090.869411 kJ/mol
# GULP energy per Si atom -12388.110362 kJ/mol
# Density = 2.053730 g / cm^3
# Si number density = 20.584151 Si / 1000 Ang^3
#
#
#
# Elastic Constant Matrix: (Units=GPa)
#
#
# Indices 1 2 3 4 5 6 
#
# 1 143.0021 15.0686 25.6422 0.0000 37.0169 0.0000
# 2 15.0686 30.1324 9.0649 0.0000 2.4458 0.0000
# 3 25.6422 9.0649 55.2007 0.0000 10.0619 0.0000
# 4 0.0000 0.0000 0.0000 7.2512 0.0000 4.7739
# 5 37.0169 2.4458 10.0619 0.0000 45.3973 0.0000
# 6 0.0000 0.0000 0.0000 4.7739 0.0000 13.8397
#
#
#
# Elastic Compliance Matrix: (Units=1/GPa)
#
#
# Indices 1 2 3 4 5 6 
#
# 1 0.009672 -0.003469 -0.002626 0.000000 -0.007117 0.000000
# 2 -0.003469 0.036173 -0.004678 0.000000 0.001917 0.000000
# 3 -0.002626 -0.004678 0.020495 0.000000 -0.002150 0.000000
# 4 0.000000 0.000000 0.000000 0.178430 0.000000 -0.061548
# 5 -0.007117 0.001917 -0.002150 0.000000 0.028204 0.000000
# 6 0.000000 0.000000 0.000000 -0.061548 0.000000 0.093486
#
#
# Mechanical properties :
#
#
# Convention : Reuss Voigt Hill
#
# Bulk Modulus (GPa) = 22.32405 36.43184 29.37795
# Shear Modulus (GPa) = 12.40883 25.20160 18.80521
#
# Velocity S-wave (km/s) = 2.45793 3.50283 3.02582
# Velocity P-wave (km/s) = 4.35018 5.83927 5.14884
#
# Compressibility (1/GPa) = 0.04479474
#
# Stress axis : x y z
#
# Youngs Moduli (GPa) = 103.39507 27.64460 48.79124
#
# Poissons Ratio (x) = 0.09590 0.12811
# Poissons Ratio (y) = 0.35868 0.22826
# Poissons Ratio (z) = 0.27149 0.12933
#
# Static dielectric constant tensor:
#      x y z
#    x 4.595650 0.000000 0.552630 
#    y 0.000000 3.273390 0.000000 
#    z 0.552630 0.000000 3.845930 
# 
# 
# High freq. dielectric constant tensor:
#      x y z
#    x 1.827980 0.000000 0.026570 
#    y 0.000000 1.749960 0.000000 
#    z 0.026570 0.000000 1.804490 
# 
# From -- ./inp_files/263035.got.cif
#   From: 2010.06.25/outbox.cif.g09.slc.cpg/sg12_132_cif.got.tgz:263035.got - 2010.06.28 00:19:55.
