data_PCOD8087592
_publ_section_title
;
Structure prediction by ZEFSAII (Michael W. Deem and Ramdas Pophale) SiO2 
 PCOD8087592
Probable space group: C 2/M
;
_chemical_formula_sum "Si O2"
_cell_formula_units_Z 56
_cell_length_a 26.899108
_cell_length_b 9.460166
_cell_length_c 13.095670
_cell_angle_alpha 90.000000
_cell_angle_beta 118.138141
_cell_angle_gamma 90.000000
_cell_volume 2938.602995
_symmetry_space_group_name_H-M "C 2/M"
_symmetry_group_IT_number 12
_symmetry_cell_setting 'monoclinic'
loop_
_space_group_symop_operation_xyz
x,y,z
-x,y,-z
-x,-y,-z
x,-y,z
1/2+x,1/2+y,z
1/2-x,1/2+y,-z
1/2-x,1/2-y,-z
1/2+x,1/2-y,z
loop_
_atom_site_type_symbol
_atom_site_label
_atom_site_fract_x
_atom_site_fract_y
_atom_site_fract_z
Si Si1 0.126470 0.162376 0.442146
Si Si2 0.363945 0.162699 0.959672
Si Si3 0.435238 0.833096 0.445054
Si Si4 0.756281 0.157852 0.365146
Si Si5 0.634255 0.835463 0.817217
Si Si6 0.354545 0.335994 0.761854
Si Si7 0.266022 0.344228 0.147975
O O1 0.089870 0.262067 0.478510
O O2 0.193244 0.202108 0.509941
O O3 0.108540 0.183371 0.305919
O O4 0.117790 0.000000 0.468003
O O5 0.386352 0.259540 0.887969
O O6 0.298923 0.201321 0.915900
O O7 0.371099 0.000000 0.932646
O O8 0.394538 0.192383 0.098731
O O9 0.500000 0.788788 0.500000
O O10 0.405484 0.778218 0.312007
O O11 0.427714 0.000000 0.450366
O O12 0.706609 0.270416 0.318543
O O13 0.786883 0.156673 0.284927
O O14 0.732577 0.000000 0.367092
O O15 0.695688 0.763834 0.877730
O O16 0.645746 0.000000 0.813980
O O17 0.346748 0.500000 0.781438
O O18 0.273474 0.500000 0.106890
#
# Coordination Sequence:
#
# PCOD8087592 Si02
#       7
#     8   8   8   8   8   8   8
#     4  10  20  35  53  74 103 136 171 212 256 304
#     4   9  19  33  47  69 104 141 171 203 245 299
#     4  10  22  38  56  80 104 127 167 222 268 307
#     4   9  17  30  47  71 106 141 171 205 247 300
#     4  10  19  32  51  72  98 133 170 209 257 306
#     4  10  20  31  48  76 106 137 174 209 243 297
#     4   9  16  27  45  70 102 135 166 203 244 294
#
# _framework density 19.056674000000001
#
# number of rings (size 3 to 8) (size 9 to 14) (size 15 to 20)
#    0.000    2.429    1.429    2.143    0.000    4.857 
#    0.000    0.000    0.000    0.857    0.000    6.000 
#    0.000    0.000    0.000    0.000    0.000    0.000 
#
# Total GULP energy -347007.505622 kJ/mol
# GULP energy per Si atom -12393.125201 kJ/mol
# Density = 1.901330 g / cm^3
# Si number density = 19.056674 Si / 1000 Ang^3
#
#
#
# Elastic Constant Matrix: (Units=GPa)
#
#
# Indices 1 2 3 4 5 6 
#
# 1 55.5356 38.1275 39.2482 0.0000 -16.1174 0.0000
# 2 38.1275 74.1173 42.6204 0.0000 -15.3041 0.0000
# 3 39.2482 42.6204 88.0849 0.0000 -32.2319 0.0000
# 4 0.0000 0.0000 0.0000 24.7490 0.0000 -9.7552
# 5 -16.1174 -15.3041 -32.2319 0.0000 25.7444 0.0000
# 6 0.0000 0.0000 0.0000 -9.7552 0.0000 24.9919
#
#
#
# Elastic Compliance Matrix: (Units=1/GPa)
#
#
# Indices 1 2 3 4 5 6 
#
# 1 0.032306 -0.011581 -0.007215 0.000000 0.004308 0.000000
# 2 -0.011581 0.022847 -0.006602 0.000000 -0.001935 0.000000
# 3 -0.007215 -0.006602 0.027079 0.000000 0.025460 0.000000
# 4 0.000000 0.000000 0.000000 0.047753 0.000000 0.018639
# 5 0.004308 -0.001935 0.025460 0.000000 0.072266 0.000000
# 6 0.000000 0.000000 0.000000 0.018639 0.000000 0.047289
#
#
# Mechanical properties :
#
#
# Convention : Reuss Voigt Hill
#
# Bulk Modulus (GPa) = 31.81143 50.85889 41.33516
# Shear Modulus (GPa) = 16.08680 21.61317 18.84999
#
# Velocity S-wave (km/s) = 2.90859 3.37137 3.14849
# Velocity P-wave (km/s) = 5.29237 6.47310 5.91228
#
# Compressibility (1/GPa) = 0.03143525
#
# Stress axis : x y z
#
# Youngs Moduli (GPa) = 30.95366 43.77023 36.92963
#
# Poissons Ratio (x) = 0.50688 0.26645
# Poissons Ratio (y) = 0.35846 0.24383
# Poissons Ratio (z) = 0.22333 0.28899
#
# Static dielectric constant tensor:
#      x y z
#    x 3.068630 0.000000 -0.380660 
#    y 0.000000 3.413890 0.000000 
#    z -0.380660 0.000000 3.922690 
# 
# 
# High freq. dielectric constant tensor:
#      x y z
#    x 1.691150 0.000000 -0.034390 
#    y 0.000000 1.737300 0.000000 
#    z -0.034390 0.000000 1.750980 
# 
# From -- ./inp_files/244308.got.cif
#   From: 2010.06.25/outbox.cif.g09.slc.cpg/sg12_123_cif.got.tgz:244308.got - 2010.06.28 00:19:55.
