data_PCOD8087251
_publ_section_title
;
Structure prediction by ZEFSAII (Michael W. Deem and Ramdas Pophale) SiO2 
 PCOD8087251
Probable space group: C 2/M
;
_chemical_formula_sum "Si O2"
_cell_formula_units_Z 64
_cell_length_a 29.951051
_cell_length_b 9.024575
_cell_length_c 23.111974
_cell_angle_alpha 90.000000
_cell_angle_beta 39.971468
_cell_angle_gamma 90.000000
_cell_volume 4013.150924
_symmetry_space_group_name_H-M "C 2/M"
_symmetry_group_IT_number 12
_symmetry_cell_setting 'monoclinic'
loop_
_space_group_symop_operation_xyz
x,y,z
-x,y,-z
-x,-y,-z
x,-y,z
1/2+x,1/2+y,z
1/2-x,1/2+y,-z
1/2-x,1/2-y,-z
1/2+x,1/2-y,z
loop_
_atom_site_type_symbol
_atom_site_label
_atom_site_fract_x
_atom_site_fract_y
_atom_site_fract_z
Si Si1 0.229953 0.170698 0.930274
Si Si2 0.863598 0.672184 0.066550
Si Si3 0.722719 0.171488 0.610302
Si Si4 0.132302 0.330467 0.805200
Si Si5 0.854159 0.174048 0.415139
Si Si6 0.999612 0.175890 0.114032
Si Si7 0.502634 0.675433 0.242299
Si Si8 0.150837 0.828791 0.127599
O O1 0.199866 0.260837 0.906460
O O2 0.306279 0.232296 0.869296
O O3 0.236514 0.000000 0.906229
O O4 0.179049 0.193195 0.034878
O O5 0.872053 0.500000 0.042800
O O6 0.844456 0.697634 0.152459
O O7 0.935113 0.754554 0.983060
O O8 0.700300 0.204488 0.698345
O O9 0.803383 0.220071 0.518775
O O10 0.671992 0.259625 0.618851
O O11 0.714426 0.000000 0.602619
O O12 0.107590 0.500000 0.820671
O O13 0.069623 0.223709 0.850369
O O14 0.933869 0.227391 0.346207
O O15 0.854886 0.000000 0.404816
O O16 0.997806 0.236024 0.181574
O O17 0.006631 0.000000 0.104353
O O18 0.509191 0.500000 0.232361
O O19 0.571757 0.733470 0.206099
O O20 0.155943 0.000000 0.141266
#
# Coordination Sequence:
#
# PCOD8087251 Si02
#       8
#     8   8   8   8   8   8   8   8
#     4  10  19  32  48  69  92 116 153 193 228 271
#     4  11  22  34  47  63  91 129 163 192 229 271
#     4   9  17  29  45  66  91 120 154 192 229 268
#     4  10  21  34  45  64  94 128 162 194 228 270
#     4   9  16  28  47  68  91 119 151 188 232 274
#     4  11  20  32  47  67  94 124 161 197 225 263
#     4   9  16  28  46  69  94 120 148 183 227 276
#     4   9  17  31  48  66  92 120 146 182 233 282
#
# _framework density 15.947568
#
# number of rings (size 3 to 8) (size 9 to 14) (size 15 to 20)
#    0.000    2.250    2.500    1.500    0.000    3.000 
#    0.000    0.625    0.000    0.000    0.000    0.875 
#    0.000    7.000    0.000    0.000    0.000    0.000 
#
# Total GULP energy -396706.906410 kJ/mol
# GULP energy per Si atom -12397.090825 kJ/mol
# Density = 1.591127 g / cm^3
# Si number density = 15.947568 Si / 1000 Ang^3
#
#
#
# Elastic Constant Matrix: (Units=GPa)
#
#
# Indices 1 2 3 4 5 6 
#
# 1 106.3941 41.5349 64.3350 -0.0057 -14.9159 0.0052
# 2 41.5349 59.0621 37.3175 -0.0148 -1.9589 0.0196
# 3 64.3350 37.3175 116.6027 0.0012 -14.3064 0.0001
# 4 -0.0057 -0.0148 0.0012 13.7657 0.0002 0.6645
# 5 -14.9159 -1.9589 -14.3064 0.0002 26.0272 -0.0029
# 6 0.0052 0.0196 0.0001 0.6645 -0.0029 24.3364
#
#
#
# Elastic Compliance Matrix: (Units=1/GPa)
#
#
# Indices 1 2 3 4 5 6 
#
# 1 0.017004 -0.007879 -0.006152 -0.000001 0.005770 0.000003
# 2 -0.007879 0.025002 -0.004265 0.000025 -0.004978 -0.000020
# 3 -0.006152 -0.004265 0.013794 -0.000009 0.003735 0.000005
# 4 -0.000001 0.000025 -0.000009 0.072740 -0.000004 -0.001986
# 5 0.005770 -0.004978 0.003735 -0.000004 0.043407 0.000008
# 6 0.000003 -0.000020 0.000005 -0.001986 0.000008 0.041145
#
#
# Mechanical properties :
#
#
# Convention : Reuss Voigt Hill
#
# Bulk Modulus (GPa) = 52.06509 63.15932 57.61221
# Shear Modulus (GPa) = 19.52456 22.08397 20.80427
#
# Velocity S-wave (km/s) = 3.50279 3.72531 3.61576
# Velocity P-wave (km/s) = 7.00557 7.62851 7.32367
#
# Compressibility (1/GPa) = 0.01920673
#
# Stress axis : x y z
#
# Youngs Moduli (GPa) = 58.80902 39.99647 72.49582
#
# Poissons Ratio (x) = 0.31515 0.44601
# Poissons Ratio (y) = 0.46338 0.30920
# Poissons Ratio (z) = 0.36181 0.17059
#
# Static dielectric constant tensor:
#      x y z
#    x 3.057990 -0.000040 -0.211140 
#    y -0.000040 3.018030 0.000040 
#    z -0.211140 0.000040 3.235220 
# 
# 
# High freq. dielectric constant tensor:
#      x y z
#    x 1.595400 0.000000 -0.015080 
#    y 0.000000 1.610470 0.000000 
#    z -0.015080 0.000000 1.602470 
# 
# From -- ./inp_files/326814.got.cif
#   From: 2010.06.25/outbox.cif.g09.slc.cpg/sg12_164_cif.got.tgz:326814.got - 2010.06.28 00:19:55.
