data_PCOD8087310
_publ_section_title
;
Structure prediction by ZEFSAII (Michael W. Deem and Ramdas Pophale) SiO2 
 PCOD8087310
Probable space group: C 2/M
;
_chemical_formula_sum "Si O2"
_cell_formula_units_Z 56
_cell_length_a 15.010257
_cell_length_b 9.268697
_cell_length_c 23.244053
_cell_angle_alpha 90.000000
_cell_angle_beta 110.847539
_cell_angle_gamma 90.000000
_cell_volume 3022.123803
_symmetry_space_group_name_H-M "C 2/M"
_symmetry_group_IT_number 12
_symmetry_cell_setting 'monoclinic'
loop_
_space_group_symop_operation_xyz
x,y,z
-x,y,-z
-x,-y,-z
x,-y,z
1/2+x,1/2+y,z
1/2-x,1/2+y,-z
1/2-x,1/2-y,-z
1/2+x,1/2-y,z
loop_
_atom_site_type_symbol
_atom_site_label
_atom_site_fract_x
_atom_site_fract_y
_atom_site_fract_z
Si Si1 0.569702 0.828926 0.437307
Si Si2 0.728615 0.671388 0.300307
Si Si3 0.063967 0.329430 0.308866
Si Si4 0.806053 0.669343 0.088485
Si Si5 0.100405 0.168873 0.993120
Si Si6 0.366012 0.828769 0.429781
Si Si7 0.855507 0.670622 0.225780
O O1 0.596955 0.774163 0.380001
O O2 0.465689 0.767213 0.428983
O O3 0.644166 0.780826 0.504987
O O4 0.562640 0.000000 0.433908
O O5 0.717996 0.500000 0.298498
O O6 0.626667 0.747350 0.276257
O O7 0.782816 0.730834 0.369865
O O8 0.779515 0.727507 0.254490
O O9 0.075474 0.500000 0.304517
O O10 0.957524 0.277612 0.271607
O O11 0.826318 0.500000 0.087131
O O12 0.878574 0.747540 0.061331
O O13 0.831658 0.731629 0.157243
O O14 0.693213 0.701715 0.053930
O O15 0.092165 0.000000 0.977089
O O16 0.000000 0.220280 0.000000
O O17 0.366757 0.000000 0.425205
O O18 0.851231 0.500000 0.222646
#
# Coordination Sequence:
#
# PCOD8087310 Si02
#       7
#     8   8   8   8   8   8   8
#     4   8  13  24  45  68  89 119 161 203 240 285
#     4  10  19  32  50  72  96 126 164 204 244 291
#     4  10  19  32  49  70  95 126 163 204 246 288
#     4   9  18  33  53  75  99 132 167 197 232 279
#     4   9  18  33  53  78 106 130 156 195 241 284
#     4   8  13  24  45  69  89 118 162 203 239 287
#     4   9  18  34  52  69  97 134 168 197 232 285
#
# _framework density 18.530016
#
# number of rings (size 3 to 8) (size 9 to 14) (size 15 to 20)
#    0.000    3.000    1.429    0.857    0.000    2.000 
#    0.000    3.571    0.000    0.000    0.000    2.000 
#    0.000    0.000    0.000    0.000    0.000    0.000 
#
# Total GULP energy -346907.469011 kJ/mol
# GULP energy per Si atom -12389.552465 kJ/mol
# Density = 1.848784 g / cm^3
# Si number density = 18.530016 Si / 1000 Ang^3
#
#
#
# Elastic Constant Matrix: (Units=GPa)
#
#
# Indices 1 2 3 4 5 6 
#
# 1 138.4242 33.4081 60.9012 0.0000 -29.5472 0.0000
# 2 33.4081 22.7687 29.0976 0.0000 -6.4589 0.0000
# 3 60.9012 29.0976 142.3963 0.0000 -26.0139 0.0000
# 4 0.0000 0.0000 0.0000 15.5840 0.0000 -3.5295
# 5 -29.5472 -6.4589 -26.0139 0.0000 12.3942 0.0000
# 6 0.0000 0.0000 0.0000 -3.5295 0.0000 25.3464
#
#
#
# Elastic Compliance Matrix: (Units=1/GPa)
#
#
# Indices 1 2 3 4 5 6 
#
# 1 0.020806 -0.022750 0.004291 0.000000 0.046753 0.000000
# 2 -0.022750 0.084930 -0.015322 0.000000 -0.042137 0.000000
# 3 0.004291 -0.015322 0.014157 0.000000 0.031959 0.000000
# 4 0.000000 0.000000 0.000000 0.066258 0.000000 0.009227
# 5 0.046753 -0.042137 0.031959 0.000000 0.237258 0.000000
# 6 0.000000 0.000000 0.000000 0.009227 0.000000 0.040738
#
#
# Mechanical properties :
#
#
# Convention : Reuss Voigt Hill
#
# Bulk Modulus (GPa) = 19.10968 61.15589 40.13279
# Shear Modulus (GPa) = 9.10493 22.67707 15.89100
#
# Velocity S-wave (km/s) = 2.21907 3.50208 2.93163
# Velocity P-wave (km/s) = 4.11107 7.03051 5.75886
#
# Compressibility (1/GPa) = 0.05232950
#
# Stress axis : x y z
#
# Youngs Moduli (GPa) = 48.06205 11.77446 70.63777
#
# Poissons Ratio (x) = 0.26787 -0.30313
# Poissons Ratio (y) = 1.09343 1.08234
# Poissons Ratio (z) = -0.20625 0.18041
#
# Static dielectric constant tensor:
#      x y z
#    x 3.414810 0.000000 -0.042110 
#    y 0.000000 2.856630 0.000000 
#    z -0.042110 0.000000 3.771930 
# 
# 
# High freq. dielectric constant tensor:
#      x y z
#    x 1.719680 0.000000 -0.003570 
#    y 0.000000 1.664350 0.000000 
#    z -0.003570 0.000000 1.727060 
# 
# From -- ./inp_files/304260.got.cif
#   From: 2010.06.25/outbox.cif.g09.slc.cpg/sg12_153_cif.got.tgz:304260.got - 2010.06.28 00:19:55.
