data_PCOD8087171
_publ_section_title
;
Structure prediction by ZEFSAII (Michael W. Deem and Ramdas Pophale) SiO2 
 PCOD8087171
Probable space group: C 2/M
;
_chemical_formula_sum "Si O2"
_cell_formula_units_Z 56
_cell_length_a 18.510368
_cell_length_b 17.234209
_cell_length_c 15.145812
_cell_angle_alpha 90.000000
_cell_angle_beta 35.785176
_cell_angle_gamma 90.000000
_cell_volume 2825.319550
_symmetry_space_group_name_H-M "C 2/M"
_symmetry_group_IT_number 12
_symmetry_cell_setting 'monoclinic'
loop_
_space_group_symop_operation_xyz
x,y,z
-x,y,-z
-x,-y,-z
x,-y,z
1/2+x,1/2+y,z
1/2-x,1/2+y,-z
1/2-x,1/2-y,-z
1/2+x,1/2-y,z
loop_
_atom_site_type_symbol
_atom_site_label
_atom_site_fract_x
_atom_site_fract_y
_atom_site_fract_z
Si Si1 0.439497 0.089410 0.646689
Si Si2 0.248744 0.688685 0.092610
Si Si3 0.700870 0.589671 0.272457
Si Si4 0.590901 0.671493 0.220686
Si Si5 0.653153 0.590114 0.521757
Si Si6 0.925816 0.320492 0.989587
Si Si7 0.574550 0.910809 0.695762
O O1 0.500000 0.127855 0.500000
O O2 0.301798 0.124934 0.790220
O O3 0.523597 0.105026 0.648761
O O4 0.417450 0.000000 0.651329
O O5 0.123478 0.736400 0.188307
O O6 0.309376 0.640567 0.950731
O O7 0.347730 0.746656 0.035686
O O8 0.675629 0.500000 0.282066
O O9 0.608548 0.635424 0.299993
O O10 0.675575 0.613520 0.397954
O O11 0.840649 0.609175 0.107522
O O12 0.450979 0.647724 0.333150
O O13 0.611329 0.500000 0.571326
O O14 0.778579 0.604934 0.451639
O O15 0.011946 0.352316 0.826604
O O16 0.000000 0.289386 0.000000
O O17 0.549637 0.000000 0.749766
#
# Coordination Sequence:
#
# PCOD8087171 Si02
#       7
#     8   8   8   8   8   8   8
#     4  10  22  43  67  85 105 141 195 251 295 337
#     4  10  23  40  57  81 110 148 199 242 282 339
#     4  10  19  31  55  88 120 157 191 222 273 340
#     4  10  20  36  54  80 121 157 189 231 275 334
#     4  10  20  33  53  88 127 156 186 226 278 343
#     4  11  21  37  57  85 124 156 188 232 284 340
#     4  10  20  36  60  90 121 154 190 229 279 339
#
# _framework density 19.820767
#
# number of rings (size 3 to 8) (size 9 to 14) (size 15 to 20)
#    0.000    1.857    1.429    3.857    0.000    6.286 
#    2.571    1.429    0.000    0.429    0.000    0.000 
#    0.000    0.000    0.000    0.000    0.000    0.000 
#
# Total GULP energy -347025.631676 kJ/mol
# GULP energy per Si atom -12393.772560 kJ/mol
# Density = 1.977565 g / cm^3
# Si number density = 19.820767 Si / 1000 Ang^3
#
#
#
# Elastic Constant Matrix: (Units=GPa)
#
#
# Indices 1 2 3 4 5 6 
#
# 1 93.8345 49.0089 46.9545 0.0000 -1.4259 0.0001
# 2 49.0089 51.2090 51.0260 -0.0001 -4.6758 0.0001
# 3 46.9545 51.0260 124.3887 -0.0001 -0.4317 0.0001
# 4 0.0000 -0.0001 -0.0001 37.6106 0.0001 -5.5556
# 5 -1.4259 -4.6758 -0.4317 0.0001 36.7639 -0.0001
# 6 0.0001 0.0001 0.0001 -5.5556 -0.0001 22.9208
#
#
#
# Elastic Compliance Matrix: (Units=1/GPa)
#
#
# Indices 1 2 3 4 5 6 
#
# 1 0.021456 -0.021359 0.000656 0.000000 -0.001877 0.000000
# 2 -0.021359 0.054903 -0.014438 0.000000 0.005985 0.000000
# 3 0.000656 -0.014438 0.013709 0.000000 -0.001650 0.000000
# 4 0.000000 0.000000 0.000000 0.027576 0.000000 0.006684
# 5 -0.001877 0.005985 -0.001650 0.000000 0.027870 0.000000
# 6 0.000000 0.000000 0.000000 0.006684 0.000000 0.045249
#
#
# Mechanical properties :
#
#
# Convention : Reuss Voigt Hill
#
# Bulk Modulus (GPa) = 50.54502 62.60122 56.57312
# Shear Modulus (GPa) = 18.68191 27.62191 23.15191
#
# Velocity S-wave (km/s) = 3.07342 3.73712 3.42140
# Velocity P-wave (km/s) = 6.17664 7.09039 6.64923
#
# Compressibility (1/GPa) = 0.01978434
#
# Stress axis : x y z
#
# Youngs Moduli (GPa) = 46.60703 18.21410 72.94643
#
# Poissons Ratio (x) = 0.38904 -0.04786
# Poissons Ratio (y) = 0.99549 1.05322
# Poissons Ratio (z) = -0.03058 0.26298
#
# Static dielectric constant tensor:
#      x y z
#    x 3.632990 0.000000 -0.005800 
#    y 0.000000 3.458830 0.000000 
#    z -0.005800 0.000000 3.861450 
# 
# 
# High freq. dielectric constant tensor:
#      x y z
#    x 1.767870 0.000000 -0.001040 
#    y 0.000000 1.758030 0.000000 
#    z -0.001040 0.000000 1.779460 
# 
# From -- ./inp_files/226534.got.cif
#   From: 2010.06.25/outbox.cif.g09.slc.cpg/sg12_114_cif.got.tgz:226534.got - 2010.06.28 00:19:55.
