data_PCOD8087188
_publ_section_title
;
Structure prediction by ZEFSAII (Michael W. Deem and Ramdas Pophale) SiO2 
 PCOD8087188
Probable space group: C 2/M
;
_chemical_formula_sum "Si O2"
_cell_formula_units_Z 64
_cell_length_a 16.458964
_cell_length_b 17.703263
_cell_length_c 13.752929
_cell_angle_alpha 90.000000
_cell_angle_beta 100.257446
_cell_angle_gamma 90.000000
_cell_volume 3943.245969
_symmetry_space_group_name_H-M "C 2/M"
_symmetry_group_IT_number 12
_symmetry_cell_setting 'monoclinic'
loop_
_space_group_symop_operation_xyz
x,y,z
-x,y,-z
-x,-y,-z
x,-y,z
1/2+x,1/2+y,z
1/2-x,1/2+y,-z
1/2-x,1/2-y,-z
1/2+x,1/2-y,z
loop_
_atom_site_type_symbol
_atom_site_label
_atom_site_fract_x
_atom_site_fract_y
_atom_site_fract_z
Si Si1 0.514467 0.305827 0.389591
Si Si2 0.071572 0.413800 0.724141
Si Si3 0.166554 0.167624 0.651179
Si Si4 0.683546 0.835471 0.607867
Si Si5 0.917560 0.647132 0.602531
Si Si6 0.341665 0.411077 0.553180
Si Si7 0.186481 0.589061 0.250203
Si Si8 0.524491 0.089788 0.109763
O O1 0.500000 0.290477 0.500000
O O2 0.424853 0.321812 0.322274
O O3 0.555530 0.230493 0.354024
O O4 0.574273 0.376643 0.384040
O O5 0.100666 0.500000 0.737394
O O6 0.149258 0.364832 0.704220
O O7 0.040642 0.382518 0.822537
O O8 0.995220 0.408510 0.632354
O O9 0.202801 0.246694 0.618976
O O10 0.164468 0.109247 0.561302
O O11 0.226536 0.132785 0.747366
O O12 0.611188 0.850605 0.514742
O O13 0.766047 0.878977 0.598744
O O14 0.841872 0.614381 0.648499
O O15 0.345081 0.500000 0.566768
O O16 0.201269 0.500000 0.248755
O O17 0.117751 0.615239 0.157079
O O18 0.521820 0.000000 0.106808
O O19 0.500000 0.124544 0.000000
#
# Coordination Sequence:
#
# PCOD8087188 Si02
#       8
#     8   8   8   8   8   8   8   8
#     4  10  19  32  44  59  85 133 173 197 226 272
#     4  10  20  29  47  74  96 122 157 197 239 287
#     4  11  20  32  46  64  94 131 170 198 234 275
#     4  12  20  31  45  65 100 132 163 195 234 281
#     4  11  17  31  44  65  98 128 162 189 231 285
#     4  11  22  31  43  62  90 133 175 207 229 258
#     4  10  20  30  49  76  95 120 162 202 239 283
#     4   8  16  33  53  74  99 121 145 189 251 304
#
# _framework density 16.230283
#
# number of rings (size 3 to 8) (size 9 to 14) (size 15 to 20)
#    0.000    1.625    5.000    3.375    0.000    4.750 
#    0.000    0.000    0.000    0.750    0.000    0.000 
#    0.000    0.000    0.000    7.500    0.000    0.375 
#
# Total GULP energy -396713.860357 kJ/mol
# GULP energy per Si atom -12397.308136 kJ/mol
# Density = 1.619334 g / cm^3
# Si number density = 16.230283 Si / 1000 Ang^3
#
#
#
# Elastic Constant Matrix: (Units=GPa)
#
#
# Indices 1 2 3 4 5 6 
#
# 1 76.8046 23.8203 24.1878 0.0000 7.6214 0.0000
# 2 23.8203 72.3315 17.3310 0.0000 1.8683 0.0000
# 3 24.1878 17.3310 71.2390 0.0000 5.2891 0.0000
# 4 0.0000 0.0000 0.0000 10.4846 0.0000 5.4382
# 5 7.6214 1.8683 5.2891 0.0000 13.2686 0.0000
# 6 0.0000 0.0000 0.0000 5.4382 0.0000 27.5203
#
#
#
# Elastic Compliance Matrix: (Units=1/GPa)
#
#
# Indices 1 2 3 4 5 6 
#
# 1 0.016295 -0.004229 -0.003970 0.000000 -0.007181 0.000000
# 2 -0.004229 0.015784 -0.002493 0.000000 0.001201 0.000000
# 3 -0.003970 -0.002493 0.016278 0.000000 -0.003857 0.000000
# 4 0.000000 0.000000 0.000000 0.106270 0.000000 -0.021000
# 5 -0.007181 0.001201 -0.003857 0.000000 0.080859 0.000000
# 6 0.000000 0.000000 0.000000 -0.021000 0.000000 0.040486
#
#
# Mechanical properties :
#
#
# Convention : Reuss Voigt Hill
#
# Bulk Modulus (GPa) = 37.07627 39.00593 38.04110
# Shear Modulus (GPa) = 16.32119 20.59044 18.45581
#
# Velocity S-wave (km/s) = 3.17456 3.56567 3.37578
# Velocity P-wave (km/s) = 6.02749 6.40601 6.21963
#
# Compressibility (1/GPa) = 0.02697143
#
# Stress axis : x y z
#
# Youngs Moduli (GPa) = 61.36934 63.35361 61.43162
#
# Poissons Ratio (x) = 0.26795 0.24391
# Poissons Ratio (y) = 0.25955 0.15316
# Poissons Ratio (z) = 0.24366 0.15795
#
# Static dielectric constant tensor:
#      x y z
#    x 3.347700 0.000000 0.139690 
#    y 0.000000 3.049820 0.000000 
#    z 0.139690 0.000000 2.859590 
# 
# 
# High freq. dielectric constant tensor:
#      x y z
#    x 1.633620 0.000000 0.012400 
#    y 0.000000 1.622200 0.000000 
#    z 0.012400 0.000000 1.563330 
# 
# From -- ./inp_files/226110.got.cif
#   From: 2010.06.25/outbox.cif.g09.slc.cpg/sg12_114_cif.got.tgz:226110.got - 2010.06.28 00:19:55.
