data_PCOD8087428
_publ_section_title
;
Structure prediction by ZEFSAII (Michael W. Deem and Ramdas Pophale) SiO2 
 PCOD8087428
Probable space group: C 2/M
;
_chemical_formula_sum "Si O2"
_cell_formula_units_Z 64
_cell_length_a 29.544315
_cell_length_b 14.615451
_cell_length_c 9.200830
_cell_angle_alpha 90.000000
_cell_angle_beta 111.417230
_cell_angle_gamma 90.000000
_cell_volume 3698.602556
_symmetry_space_group_name_H-M "C 2/M"
_symmetry_group_IT_number 12
_symmetry_cell_setting 'monoclinic'
loop_
_space_group_symop_operation_xyz
x,y,z
-x,y,-z
-x,-y,-z
x,-y,z
1/2+x,1/2+y,z
1/2-x,1/2+y,-z
1/2-x,1/2-y,-z
1/2+x,1/2-y,z
loop_
_atom_site_type_symbol
_atom_site_label
_atom_site_fract_x
_atom_site_fract_y
_atom_site_fract_z
Si Si1 0.788431 0.815545 0.624797
Si Si2 0.237982 0.396113 0.105154
Si Si3 0.326911 0.607449 0.386702
Si Si4 0.853585 0.293671 0.926347
Si Si5 0.133652 0.263847 0.728616
Si Si6 0.451352 0.104091 0.019304
Si Si7 0.219089 0.395446 0.766667
Si Si8 0.451588 0.897907 0.358402
O O1 0.750000 0.750000 0.500000
O O2 0.820802 0.873121 0.549731
O O3 0.828292 0.768689 0.775611
O O4 0.756721 0.886759 0.679729
O O5 0.248275 0.500000 0.149106
O O6 0.278720 0.348109 0.251945
O O7 0.182912 0.377426 0.087829
O O8 0.247378 0.369910 0.948819
O O9 0.337226 0.500000 0.372634
O O10 0.369782 0.667035 0.361737
O O11 0.904615 0.332965 0.925758
O O12 0.860210 0.244401 0.091127
O O13 0.174778 0.325981 0.700870
O O14 0.085310 0.319715 0.638349
O O15 0.440918 0.000000 0.954447
O O16 0.500000 0.143209 0.000000
O O17 0.462299 0.107067 0.201369
O O18 0.199727 0.500000 0.751812
O O19 0.500000 0.875120 0.500000
O O20 0.432057 0.000000 0.374976
#
# Coordination Sequence:
#
# PCOD8087428 Si02
#       8
#     8   8   8   8   8   8   8   8
#     4  12  21  33  46  70 105 138 171 217 260 306
#     4   9  17  30  49  71  95 132 174 209 248 300
#     4  11  22  35  49  70 102 136 174 218 260 301
#     4  10  19  32  52  72 100 138 175 213 255 308
#     4  10  19  34  54  76  99 135 179 213 250 310
#     4   9  18  33  51  76 108 139 172 207 250 311
#     4  10  19  32  50  72 102 135 170 209 252 305
#     4   9  18  33  54  81 110 135 163 208 261 309
#
# _framework density 17.303833000000001
#
# number of rings (size 3 to 8) (size 9 to 14) (size 15 to 20)
#    0.000    2.000    2.500    1.875    0.000    6.000 
#    0.000    0.625    0.000    0.375    0.000    0.000 
#    0.000    6.000    0.000    0.000    0.000    0.000 
#
# Total GULP energy -396588.249853 kJ/mol
# GULP energy per Si atom -12393.382808 kJ/mol
# Density = 1.726445 g / cm^3
# Si number density = 17.303833 Si / 1000 Ang^3
#
#
#
# Elastic Constant Matrix: (Units=GPa)
#
#
# Indices 1 2 3 4 5 6 
#
# 1 98.9435 57.2776 41.7407 0.0000 -8.7200 0.0000
# 2 57.2776 88.0582 47.4547 0.0000 -0.9502 0.0000
# 3 41.7407 47.4547 82.5573 0.0000 1.2706 0.0000
# 4 0.0000 0.0000 0.0000 24.8214 0.0000 -2.6363
# 5 -8.7200 -0.9502 1.2706 0.0000 27.1174 0.0000
# 6 0.0000 0.0000 0.0000 -2.6363 0.0000 26.0864
#
#
#
# Elastic Compliance Matrix: (Units=1/GPa)
#
#
# Indices 1 2 3 4 5 6 
#
# 1 0.017551 -0.009460 -0.003520 0.000000 0.005477 0.000000
# 2 -0.009460 0.021579 -0.007592 0.000000 -0.001930 0.000000
# 3 -0.003520 -0.007592 0.018291 0.000000 -0.002255 0.000000
# 4 0.000000 0.000000 0.000000 0.040725 0.000000 0.004116
# 5 0.005477 -0.001930 -0.002255 0.000000 0.038676 0.000000
# 6 0.000000 0.000000 0.000000 0.004116 0.000000 0.038750
#
#
# Mechanical properties :
#
#
# Convention : Reuss Voigt Hill
#
# Bulk Modulus (GPa) = 61.43250 62.50056 61.96653
# Shear Modulus (GPa) = 22.50815 23.81077 23.15946
#
# Velocity S-wave (km/s) = 3.61052 3.71353 3.66238
# Velocity P-wave (km/s) = 7.27739 7.38816 7.33299
#
# Compressibility (1/GPa) = 0.01627803
#
# Stress axis : x y z
#
# Youngs Moduli (GPa) = 56.97766 46.34028 54.67128
#
# Poissons Ratio (x) = 0.43836 0.19246
# Poissons Ratio (y) = 0.53899 0.41504
# Poissons Ratio (z) = 0.20058 0.35180
#
# Static dielectric constant tensor:
#      x y z
#    x 3.137030 0.000000 -0.101080 
#    y 0.000000 3.122400 0.000000 
#    z -0.101080 0.000000 3.353020 
# 
# 
# High freq. dielectric constant tensor:
#      x y z
#    x 1.647040 0.000000 -0.010020 
#    y 0.000000 1.656940 0.000000 
#    z -0.010020 0.000000 1.673080 
# 
# From -- ./inp_files/104605.got.cif
#   From: 2010.06.25/outbox.cif.g09.slc.cpg/sg12_53_cif.got.tgz:104605.got - 2010.06.28 00:19:55.
