data_PCOD8087907
_publ_section_title
;
Structure prediction by ZEFSAII (Michael W. Deem and Ramdas Pophale) SiO2 
 PCOD8087907
Probable space group: C 2/M
;
_chemical_formula_sum "Si O2"
_cell_formula_units_Z 56
_cell_length_a 5.058520
_cell_length_b 17.840967
_cell_length_c 34.622911
_cell_angle_alpha 90.000000
_cell_angle_beta 102.227280
_cell_angle_gamma 90.000000
_cell_volume 3053.796402
_symmetry_space_group_name_H-M "C 2/M"
_symmetry_group_IT_number 12
_symmetry_cell_setting 'monoclinic'
loop_
_space_group_symop_operation_xyz
x,y,z
-x,y,-z
-x,-y,-z
x,-y,z
1/2+x,1/2+y,z
1/2-x,1/2+y,-z
1/2-x,1/2-y,-z
1/2+x,1/2-y,z
loop_
_atom_site_type_symbol
_atom_site_label
_atom_site_fract_x
_atom_site_fract_y
_atom_site_fract_z
Si Si1 0.604926 0.199038 0.766165
Si Si2 0.416429 0.203148 0.318564
Si Si3 0.723112 0.913334 0.112829
Si Si4 0.301410 0.086890 0.163576
Si Si5 0.957827 0.298512 0.954955
Si Si6 0.360538 0.801021 0.596547
Si Si7 0.718199 0.913396 0.474071
O O1 0.323459 0.234194 0.771571
O O2 0.573776 0.160500 0.722479
O O3 0.698430 0.133922 0.797390
O O4 0.105551 0.222925 0.318506
O O5 0.544835 0.160811 0.359684
O O6 0.552569 0.888493 0.144944
O O7 0.632759 0.869612 0.072210
O O8 0.033637 0.895334 0.130975
O O9 0.671316 0.000000 0.102081
O O10 0.315588 0.000000 0.175865
O O11 0.735385 0.233038 0.946066
O O12 0.000000 0.326511 0.000000
O O13 0.563545 0.734392 0.590904
O O14 0.361709 0.867017 0.565864
O O15 0.500000 0.899075 0.500000
O O16 0.000000 0.884524 0.500000
O O17 0.735571 0.000000 0.462203
#
# Coordination Sequence:
#
# PCOD8087907 Si02
#       7
#     8   8   8   8   8   8   8
#     4  10  19  32  52  75  98 129 167 199 238 294
#     4   8  16  30  47  70  98 124 155 200 244 281
#     4  10  21  36  53  73 101 135 166 199 243 294
#     4  10  21  35  50  74 105 131 161 205 248 282
#     4  10  21  36  54  77 103 129 162 207 249 285
#     4  10  19  32  52  74  96 125 163 204 241 283
#     4  10  21  35  49  69 100 131 158 197 247 292
#
# _framework density 18.337828999999999
#
# number of rings (size 3 to 8) (size 9 to 14) (size 15 to 20)
#    0.000    2.286    0.000    2.571    0.000    5.429 
#    0.000    0.714    0.000    5.143    0.000   18.000 
#    0.000    0.000    0.000    0.000    0.000    0.000 
#
# Total GULP energy -347138.801523 kJ/mol
# GULP energy per Si atom -12397.814340 kJ/mol
# Density = 1.829609 g / cm^3
# Si number density = 18.337829 Si / 1000 Ang^3
#
#
#
# Elastic Constant Matrix: (Units=GPa)
#
#
# Indices 1 2 3 4 5 6 
#
# 1 74.2996 9.3556 7.6756 0.0000 3.9921 0.0000
# 2 9.3556 55.1268 66.3999 0.0000 -0.0066 0.0000
# 3 7.6756 66.3999 136.4195 0.0000 2.5340 0.0000
# 4 0.0000 0.0000 0.0000 7.7519 0.0000 -1.6481
# 5 3.9921 -0.0066 2.5340 0.0000 20.7003 0.0000
# 6 0.0000 0.0000 0.0000 -1.6481 0.0000 20.7986
#
#
#
# Elastic Compliance Matrix: (Units=1/GPa)
#
#
# Indices 1 2 3 4 5 6 
#
# 1 0.013958 -0.003592 0.001015 0.000000 -0.002817 0.000000
# 2 -0.003592 0.044913 -0.021721 0.000000 0.003366 0.000000
# 3 0.001015 -0.021721 0.017890 0.000000 -0.002393 0.000000
# 4 0.000000 0.000000 0.000000 0.131211 0.000000 0.010397
# 5 -0.002817 0.003366 -0.002393 0.000000 0.049146 0.000000
# 6 0.000000 0.000000 0.000000 0.010397 0.000000 0.048904
#
#
# Mechanical properties :
#
#
# Convention : Reuss Voigt Hill
#
# Bulk Modulus (GPa) = 35.50497 48.07869 41.79183
# Shear Modulus (GPa) = 13.73606 22.01115 17.87360
#
# Velocity S-wave (km/s) = 2.73986 3.46831 3.12538
# Velocity P-wave (km/s) = 5.42335 6.50493 5.98861
#
# Compressibility (1/GPa) = 0.02816507
#
# Stress axis : x y z
#
# Youngs Moduli (GPa) = 71.64449 22.26534 55.89723
#
# Poissons Ratio (x) = 0.07998 -0.05676
# Poissons Ratio (y) = 0.25737 1.21414
# Poissons Ratio (z) = -0.07275 0.48363
#
# Static dielectric constant tensor:
#      x y z
#    x 3.668630 0.000000 0.016900 
#    y 0.000000 2.961790 0.000000 
#    z 0.016900 0.000000 3.583200 
# 
# 
# High freq. dielectric constant tensor:
#      x y z
#    x 1.737010 0.000000 0.001420 
#    y 0.000000 1.665910 0.000000 
#    z 0.001420 0.000000 1.727060 
# 
# From -- ./inp_files/371561.got.cif
#   From: 2010.06.25/outbox.cif.g09.slc.cpg/sg12_186_cif.got.tgz:371561.got - 2010.06.28 00:19:55.
