data_PCOD8087568
_publ_section_title
;
Structure prediction by ZEFSAII (Michael W. Deem and Ramdas Pophale) SiO2 
 PCOD8087568
Probable space group: C 2/M
;
_chemical_formula_sum "Si O2"
_cell_formula_units_Z 56
_cell_length_a 16.681879
_cell_length_b 13.714886
_cell_length_c 30.382516
_cell_angle_alpha 90.000000
_cell_angle_beta 27.589237
_cell_angle_gamma 90.000000
_cell_volume 3219.314456
_symmetry_space_group_name_H-M "C 2/M"
_symmetry_group_IT_number 12
_symmetry_cell_setting 'monoclinic'
loop_
_space_group_symop_operation_xyz
x,y,z
-x,y,-z
-x,-y,-z
x,-y,z
1/2+x,1/2+y,z
1/2-x,1/2+y,-z
1/2-x,1/2-y,-z
1/2+x,1/2-y,z
loop_
_atom_site_type_symbol
_atom_site_label
_atom_site_fract_x
_atom_site_fract_y
_atom_site_fract_z
Si Si1 0.672347 0.768163 0.791685
Si Si2 0.310610 0.609109 0.081568
Si Si3 0.871106 0.115262 0.624896
Si Si4 0.896830 0.609753 0.728303
Si Si5 0.463850 0.112067 0.966737
Si Si6 0.740912 0.384303 0.414779
Si Si7 0.668182 0.265829 0.086206
O O1 0.789702 0.845732 0.709342
O O2 0.793258 0.678452 0.745836
O O3 0.583484 0.819536 0.877385
O O4 0.536431 0.724157 0.822336
O O5 0.333523 0.500000 0.050816
O O6 0.199156 0.606086 0.179105
O O7 0.208942 0.671831 0.095616
O O8 0.500000 0.654153 0.000000
O O9 0.771121 0.154008 0.629862
O O10 0.071643 0.149078 0.524265
O O11 0.859635 0.000000 0.632473
O O12 0.906623 0.500000 0.703585
O O13 0.087813 0.655242 0.644006
O O14 0.496117 0.000000 0.937960
O O15 0.500000 0.132311 0.000000
O O16 0.259306 0.137535 0.061434
O O17 0.752541 0.500000 0.406996
O O18 0.750000 0.250000 0.000000
#
# Coordination Sequence:
#
# PCOD8087568 Si02
#       7
#     8   8   8   8   8   8   8
#     4  11  21  31  50  76  98 126 164 202 241 288
#     4  10  19  32  51  71  94 126 163 204 246 289
#     4   9  17  31  52  78 102 123 157 202 246 293
#     4  10  20  33  49  70  98 131 164 200 245 290
#     4  10  21  36  50  65  94 133 165 196 237 286
#     4   8  16  32  52  73 100 130 157 197 251 295
#     4  10  20  31  45  68  95 122 155 196 239 283
#
# _framework density 17.395009000000002
#
# number of rings (size 3 to 8) (size 9 to 14) (size 15 to 20)
#    0.000    2.286    0.000    5.143    0.000    5.143 
#    0.000    0.000    0.000    0.000    0.000    2.000 
#    0.000    0.000    0.000    0.000    0.000    0.000 
#
# Total GULP energy -347016.827107 kJ/mol
# GULP energy per Si atom -12393.458111 kJ/mol
# Density = 1.735542 g / cm^3
# Si number density = 17.395009 Si / 1000 Ang^3
#
#
#
# Elastic Constant Matrix: (Units=GPa)
#
#
# Indices 1 2 3 4 5 6 
#
# 1 123.3626 50.3346 54.1893 0.0004 -27.2559 0.0003
# 2 50.3346 62.5066 32.5358 -0.0040 -11.9104 -0.0038
# 3 54.1893 32.5358 95.2200 -0.0064 -16.1358 -0.0094
# 4 0.0004 -0.0040 -0.0064 -29.6082 -0.0040 -54.1832
# 5 -27.2559 -11.9104 -16.1358 -0.0040 37.3762 -0.0040
# 6 0.0003 -0.0038 -0.0094 -54.1832 -0.0040 -42.3790
#
#
#
# Elastic Compliance Matrix: (Units=1/GPa)
#
#
# Indices 1 2 3 4 5 6 
#
# 1 0.014939 -0.008474 -0.004551 0.000001 0.006229 0.000000
# 2 -0.008474 0.024724 -0.003601 0.000000 0.000144 -0.000001
# 3 -0.004551 -0.003601 0.014636 -0.000002 0.001853 -0.000001
# 4 0.000001 0.000000 -0.000002 0.025210 -0.000001 -0.032232
# 5 0.006229 0.000144 0.001853 -0.000001 0.032143 -0.000002
# 6 0.000000 -0.000001 -0.000001 -0.032232 -0.000002 0.017613
#
#
# Mechanical properties :
#
#
# Convention : Reuss Voigt Hill
#
# Bulk Modulus (GPa) = 47.51104 61.68985 54.60045
# Shear Modulus (GPa) = 29.49278 2.67978 16.08628
#
# Velocity S-wave (km/s) = 4.12208 1.24253 3.04429
# Velocity P-wave (km/s) = 7.07303 6.13185 6.61919
#
# Compressibility (1/GPa) = 0.02104774
#
# Stress axis : x y z
#
# Youngs Moduli (GPa) = 66.93840 40.44602 68.32452
#
# Poissons Ratio (x) = 0.34276 0.31092
# Poissons Ratio (y) = 0.56726 0.24603
# Poissons Ratio (z) = 0.30461 0.14564
#
# Static dielectric constant tensor:
#      x y z
#    x 0.024530 0.000010 2.150390 
#    y 0.000010 3.169690 0.000000 
#    z 2.150390 0.000000 1.641870 
# 
# 
# High freq. dielectric constant tensor:
#      x y z
#    x 1.676540 0.000000 -0.012250 
#    y 0.000000 1.648950 0.000000 
#    z -0.012250 0.000000 1.670750 
# 
# From -- ./inp_files/251131.got.cif
#   From: 2010.06.25/outbox.cif.g09.slc.cpg/sg12_126_cif.got.tgz:251131.got - 2010.06.28 00:19:55.
