data_PCOD8087701
_publ_section_title
;
Structure prediction by ZEFSAII (Michael W. Deem and Ramdas Pophale) SiO2 
 PCOD8087701
Probable space group: C 2/M
;
_chemical_formula_sum "Si O2"
_cell_formula_units_Z 64
_cell_length_a 15.590343
_cell_length_b 9.236938
_cell_length_c 24.098512
_cell_angle_alpha 90.000000
_cell_angle_beta 98.764105
_cell_angle_gamma 90.000000
_cell_volume 3429.835422
_symmetry_space_group_name_H-M "C 2/M"
_symmetry_group_IT_number 12
_symmetry_cell_setting 'monoclinic'
loop_
_space_group_symop_operation_xyz
x,y,z
-x,y,-z
-x,-y,-z
x,-y,z
1/2+x,1/2+y,z
1/2-x,1/2+y,-z
1/2-x,1/2-y,-z
1/2+x,1/2-y,z
loop_
_atom_site_type_symbol
_atom_site_label
_atom_site_fract_x
_atom_site_fract_y
_atom_site_fract_z
Si Si1 0.264767 0.831958 0.444871
Si Si2 0.669159 0.670288 0.325651
Si Si3 0.543601 0.170872 0.559050
Si Si4 0.318683 0.828846 0.259294
Si Si5 0.728996 0.172144 0.868734
Si Si6 0.000244 0.672182 0.324666
Si Si7 0.606916 0.828368 0.068845
Si Si8 0.587438 0.828960 0.941606
O O1 0.250000 0.750000 0.500000
O O2 0.193283 0.793584 0.391768
O O3 0.356337 0.784187 0.428197
O O4 0.264610 0.000000 0.459628
O O5 0.655699 0.500000 0.315471
O O6 0.743526 0.731583 0.292165
O O7 0.580799 0.753097 0.301776
O O8 0.500000 0.242335 0.500000
O O9 0.498828 0.225180 0.611116
O O10 0.533232 0.000000 0.554901
O O11 0.300658 0.778936 0.195021
O O12 0.412535 0.769885 0.287092
O O13 0.319879 0.000000 0.265358
O O14 0.821518 0.244496 0.888967
O O15 0.655963 0.233522 0.903908
O O16 0.739211 0.000000 0.874658
O O17 0.008701 0.500000 0.320237
O O18 0.511456 0.779828 0.081398
O O19 0.620383 0.000000 0.076577
O O20 0.615844 0.778708 0.005691
O O21 0.588674 0.000000 0.939501
#
# Coordination Sequence:
#
# PCOD8087701 Si02
#       8
#     8   8   8   8   8   8   8   8
#     4  10  19  32  51  75 103 132 163 204 253 306
#     4  10  20  36  54  74 103 135 163 206 268 309
#     4   9  16  28  49  74  98 125 163 204 241 293
#     4   9  19  36  54  72 101 140 175 209 253 310
#     4  10  19  32  52  76 101 134 178 217 250 298
#     4  10  19  35  57  77  97 132 178 211 244 304
#     4   9  17  32  52  75 106 139 169 209 261 308
#     4   8  16  31  51  74 104 141 173 205 255 311
#
# _framework density 18.659787999999999
#
# number of rings (size 3 to 8) (size 9 to 14) (size 15 to 20)
#    0.000    2.625    1.250    1.875    0.000    2.500 
#    0.000    5.625    0.000    2.250    0.000    0.000 
#    0.000    0.000    0.000    0.000    0.000    0.000 
#
# Total GULP energy -396710.646321 kJ/mol
# GULP energy per Si atom -12397.207698 kJ/mol
# Density = 1.861732 g / cm^3
# Si number density = 18.659788 Si / 1000 Ang^3
#
#
#
# Elastic Constant Matrix: (Units=GPa)
#
#
# Indices 1 2 3 4 5 6 
#
# 1 152.8254 34.9983 63.5410 0.0000 11.8117 0.0000
# 2 34.9983 27.4377 27.1097 0.0000 2.8899 0.0000
# 3 63.5410 27.1097 104.1380 0.0000 10.8646 0.0000
# 4 0.0000 0.0000 0.0000 18.5354 0.0000 4.1504
# 5 11.8117 2.8899 10.8646 0.0000 29.9052 0.0000
# 6 0.0000 0.0000 0.0000 4.1504 0.0000 29.9987
#
#
#
# Elastic Compliance Matrix: (Units=1/GPa)
#
#
# Indices 1 2 3 4 5 6 
#
# 1 0.010371 -0.009386 -0.003691 0.000000 -0.001848 0.000000
# 2 -0.009386 0.057562 -0.009421 0.000000 0.001567 0.000000
# 3 -0.003691 -0.009421 0.014614 0.000000 -0.002941 0.000000
# 4 0.000000 0.000000 0.000000 0.055676 0.000000 -0.007703
# 5 -0.001848 0.001567 -0.002941 0.000000 0.035086 0.000000
# 6 0.000000 0.000000 0.000000 -0.007703 0.000000 0.034401
#
#
# Mechanical properties :
#
#
# Convention : Reuss Voigt Hill
#
# Bulk Modulus (GPa) = 26.63157 59.52212 43.07685
# Shear Modulus (GPa) = 18.85196 26.27133 22.56165
#
# Velocity S-wave (km/s) = 3.18197 3.75628 3.48099
# Velocity P-wave (km/s) = 5.27286 7.12606 6.26833
#
# Compressibility (1/GPa) = 0.03754941
#
# Stress axis : x y z
#
# Youngs Moduli (GPa) = 96.42646 17.37243 68.42535
#
# Poissons Ratio (x) = 0.16306 0.25259
# Poissons Ratio (y) = 0.90509 0.64466
# Poissons Ratio (z) = 0.35595 0.16367
#
# Static dielectric constant tensor:
#      x y z
#    x 3.606130 0.000000 -0.039730 
#    y 0.000000 2.924190 0.000000 
#    z -0.039730 0.000000 3.552160 
# 
# 
# High freq. dielectric constant tensor:
#      x y z
#    x 1.740410 0.000000 -0.000240 
#    y 0.000000 1.673310 0.000000 
#    z -0.000240 0.000000 1.726310 
# 
# From -- ./inp_files/338788.got.cif
#   From: 2010.06.25/outbox.cif.g09.slc.cpg/sg12_170_cif.got.tgz:338788.got - 2010.06.28 00:19:55.
