data_PCOD8087081
_publ_section_title
;
Structure prediction by ZEFSAII (Michael W. Deem and Ramdas Pophale) SiO2 
 PCOD8087081
Probable space group: C 2/M
;
_chemical_formula_sum "Si O2"
_cell_formula_units_Z 64
_cell_length_a 19.955120
_cell_length_b 9.082818
_cell_length_c 25.335376
_cell_angle_alpha 90.000000
_cell_angle_beta 128.340082
_cell_angle_gamma 90.000000
_cell_volume 3601.704807
_symmetry_space_group_name_H-M "C 2/M"
_symmetry_group_IT_number 12
_symmetry_cell_setting 'monoclinic'
loop_
_space_group_symop_operation_xyz
x,y,z
-x,y,-z
-x,-y,-z
x,-y,z
1/2+x,1/2+y,z
1/2-x,1/2+y,-z
1/2-x,1/2-y,-z
1/2+x,1/2-y,z
loop_
_atom_site_type_symbol
_atom_site_label
_atom_site_fract_x
_atom_site_fract_y
_atom_site_fract_z
Si Si1 0.195530 0.174522 0.817696
Si Si2 0.180103 0.828535 0.931145
Si Si3 0.320405 0.673427 0.808869
Si Si4 0.251143 0.168801 0.675491
Si Si5 0.077916 0.331757 0.291697
Si Si6 0.058297 0.170613 0.576486
Si Si7 0.046019 0.327424 0.679427
Si Si8 0.491577 0.328641 0.840876
O O1 0.184758 0.222995 0.872827
O O2 0.287019 0.238121 0.843423
O O3 0.122871 0.246168 0.746308
O O4 0.192130 0.000000 0.808615
O O5 0.086073 0.787000 0.907803
O O6 0.198569 0.000000 0.944421
O O7 0.250000 0.750000 0.000000
O O8 0.308679 0.500000 0.811939
O O9 0.265704 0.722305 0.731411
O O10 0.419965 0.717489 0.848719
O O11 0.320600 0.203899 0.663437
O O12 0.156544 0.196776 0.607069
O O13 0.260854 0.000000 0.700089
O O14 0.060407 0.500000 0.269034
O O15 0.023378 0.242779 0.222909
O O16 0.042796 0.295581 0.332875
O O17 0.033321 0.265325 0.614968
O O18 0.000000 0.225963 0.500000
O O19 0.040900 0.000000 0.581017
O O20 0.067369 0.500000 0.687341
O O21 0.485614 0.500000 0.826261
#
# Coordination Sequence:
#
# PCOD8087081 Si02
#       8
#     8   8   8   8   8   8   8   8
#     4  11  21  35  55  79 108 140 176 218 265 318
#     4  10  22  38  56  78 107 144 180 217 264 316
#     4  10  19  31  53  82 108 134 173 222 267 310
#     4   9  17  32  52  74 105 141 176 215 261 314
#     4   9  18  31  51  79 105 134 174 221 267 309
#     4  10  21  36  54  76 106 146 184 218 264 322
#     4  11  21  33  53  81 108 135 176 227 270 310
#     4   9  18  34  53  77 108 140 174 216 264 313
#
# _framework density 17.769362999999998
#
# number of rings (size 3 to 8) (size 9 to 14) (size 15 to 20)
#    0.000    2.125    2.500    1.125    0.000    2.750 
#    0.000    1.250    0.000    3.750    0.000    0.000 
#    0.000    0.000    0.000    0.000    0.000    0.000 
#
# Total GULP energy -396738.901128 kJ/mol
# GULP energy per Si atom -12398.090660 kJ/mol
# Density = 1.772892 g / cm^3
# Si number density = 17.769363 Si / 1000 Ang^3
#
#
#
# Elastic Constant Matrix: (Units=GPa)
#
#
# Indices 1 2 3 4 5 6 
#
# 1 132.0731 44.4041 53.0584 0.0000 5.1802 0.0000
# 2 44.4041 59.8783 35.5076 0.0000 -2.2865 0.0000
# 3 53.0584 35.5076 91.1711 0.0000 6.7214 0.0000
# 4 0.0000 0.0000 0.0000 26.3884 0.0000 -1.9939
# 5 5.1802 -2.2865 6.7214 0.0000 24.1875 0.0000
# 6 0.0000 0.0000 0.0000 -1.9939 0.0000 27.7294
#
#
#
# Elastic Compliance Matrix: (Units=1/GPa)
#
#
# Indices 1 2 3 4 5 6 
#
# 1 0.011321 -0.006034 -0.004102 0.000000 -0.001855 0.000000
# 2 -0.006034 0.025421 -0.006801 0.000000 0.005585 0.000000
# 3 -0.004102 -0.006801 0.016321 0.000000 -0.004300 0.000000
# 4 0.000000 0.000000 0.000000 0.038102 0.000000 0.002740
# 5 -0.001855 0.005585 -0.004300 0.000000 0.043464 0.000000
# 6 0.000000 0.000000 0.000000 0.002740 0.000000 0.036260
#
#
# Mechanical properties :
#
#
# Convention : Reuss Voigt Hill
#
# Bulk Modulus (GPa) = 52.10914 61.00696 56.55805
# Shear Modulus (GPa) = 23.67893 25.67122 24.67508
#
# Velocity S-wave (km/s) = 3.65440 3.80503 3.73048
# Velocity P-wave (km/s) = 6.86987 7.32882 7.10305
#
# Compressibility (1/GPa) = 0.01919049
#
# Stress axis : x y z
#
# Youngs Moduli (GPa) = 88.33405 39.33732 61.27064
#
# Poissons Ratio (x) = 0.23735 0.25131
# Poissons Ratio (y) = 0.53298 0.41669
# Poissons Ratio (z) = 0.36231 0.26753
#
# Static dielectric constant tensor:
#      x y z
#    x 3.928440 0.000000 0.092250 
#    y 0.000000 3.328350 0.000000 
#    z 0.092250 0.000000 3.022660 
# 
# 
# High freq. dielectric constant tensor:
#      x y z
#    x 1.709750 0.000000 0.008320 
#    y 0.000000 1.691380 0.000000 
#    z 0.008320 0.000000 1.649880 
# 
# From -- ./inp_files/346269.got.cif
#   From: 2010.06.25/outbox.cif.g09.slc.cpg/sg12_174_cif.got.tgz:346269.got - 2010.06.28 00:19:55.
