data_PCOD8087665
_publ_section_title
;
Structure prediction by ZEFSAII (Michael W. Deem and Ramdas Pophale) SiO2 
 PCOD8087665
Probable space group: C 2/M
;
_chemical_formula_sum "Si O2"
_cell_formula_units_Z 64
_cell_length_a 24.832337
_cell_length_b 8.986624
_cell_length_c 23.710156
_cell_angle_alpha 90.000000
_cell_angle_beta 134.010708
_cell_angle_gamma 90.000000
_cell_volume 3805.434674
_symmetry_space_group_name_H-M "C 2/M"
_symmetry_group_IT_number 12
_symmetry_cell_setting 'monoclinic'
loop_
_space_group_symop_operation_xyz
x,y,z
-x,y,-z
-x,-y,-z
x,-y,z
1/2+x,1/2+y,z
1/2-x,1/2+y,-z
1/2-x,1/2-y,-z
1/2+x,1/2-y,z
loop_
_atom_site_type_symbol
_atom_site_label
_atom_site_fract_x
_atom_site_fract_y
_atom_site_fract_z
Si Si1 0.415947 0.826711 0.655906
Si Si2 0.072289 0.674655 0.821786
Si Si3 0.974071 0.170704 0.099385
Si Si4 0.724196 0.676509 0.923180
Si Si5 0.362060 0.324412 0.814974
Si Si6 0.835428 0.170880 0.921398
Si Si7 0.299961 0.828514 0.666548
Si Si8 0.689238 0.327952 0.494102
O O1 0.501855 0.788089 0.730719
O O2 0.364842 0.771137 0.671077
O O3 0.391239 0.744481 0.579701
O O4 0.402497 0.000000 0.636667
O O5 0.090248 0.500000 0.835595
O O6 0.056888 0.725232 0.874062
O O7 0.141975 0.764627 0.847129
O O8 0.054561 0.232693 0.138720
O O9 0.978586 0.000000 0.124168
O O10 0.919108 0.183302 0.006324
O O11 0.722981 0.500000 0.929953
O O12 0.779668 0.721605 0.913809
O O13 0.750000 0.750000 0.000000
O O14 0.360893 0.500000 0.812261
O O15 0.337530 0.270134 0.858892
O O16 0.303148 0.262367 0.726752
O O17 0.807214 0.000000 0.905069
O O18 0.216965 0.805211 0.578904
O O19 0.314600 0.000000 0.691374
O O20 0.686223 0.500000 0.476295
O O21 0.750000 0.250000 0.500000
#
# Coordination Sequence:
#
# PCOD8087665 Si02
#       8
#     8   8   8   8   8   8   8   8
#     4   9  18  31  47  71 102 132 165 207 251 299
#     4  11  21  34  53  76 103 134 169 210 256 303
#     4  10  19  32  51  74 102 135 170 208 252 299
#     4  12  24  38  55  75  98 130 172 215 259 302
#     4  10  20  32  50  76 103 136 174 208 249 300
#     4  10  21  37  53  72 101 135 173 216 254 296
#     4   9  17  30  45  68 102 136 166 202 247 296
#     4   9  17  28  44  67  98 135 169 203 246 298
#
# _framework density 16.818051000000001
#
# number of rings (size 3 to 8) (size 9 to 14) (size 15 to 20)
#    0.000    2.000    2.500    3.000    0.000    5.500 
#    0.000    0.000    0.000    2.250    0.000    0.875 
#    0.000    7.000    0.000    0.000    0.000    0.000 
#
# Total GULP energy -396774.534966 kJ/mol
# GULP energy per Si atom -12399.204218 kJ/mol
# Density = 1.677977 g / cm^3
# Si number density = 16.818051 Si / 1000 Ang^3
#
#
#
# Elastic Constant Matrix: (Units=GPa)
#
#
# Indices 1 2 3 4 5 6 
#
# 1 69.4262 28.4543 43.0897 0.0000 -3.6347 0.0000
# 2 28.4543 66.4511 46.6944 0.0000 1.9656 0.0000
# 3 43.0897 46.6944 124.0827 0.0000 0.3522 0.0000
# 4 0.0000 0.0000 0.0000 30.4774 0.0000 0.1403
# 5 -3.6347 1.9656 0.3522 0.0000 18.9871 0.0000
# 6 0.0000 0.0000 0.0000 0.1403 0.0000 23.4480
#
#
#
# Elastic Compliance Matrix: (Units=1/GPa)
#
#
# Indices 1 2 3 4 5 6 
#
# 1 0.019818 -0.005128 -0.004965 0.000000 0.004417 0.000000
# 2 -0.005128 0.021860 -0.006437 0.000000 -0.003125 0.000000
# 3 -0.004965 -0.006437 0.012207 0.000000 -0.000511 0.000000
# 4 0.000000 0.000000 0.000000 0.032812 0.000000 -0.000196
# 5 0.004417 -0.003125 -0.000511 0.000000 0.053846 0.000000
# 6 0.000000 0.000000 0.000000 -0.000196 0.000000 0.042649
#
#
# Mechanical properties :
#
#
# Convention : Reuss Voigt Hill
#
# Bulk Modulus (GPa) = 48.01706 55.15965 51.58836
# Shear Modulus (GPa) = 22.40218 24.03062 23.21640
#
# Velocity S-wave (km/s) = 3.65366 3.78413 3.71946
# Velocity P-wave (km/s) = 6.81263 7.20846 7.01334
#
# Compressibility (1/GPa) = 0.02082593
#
# Stress axis : x y z
#
# Youngs Moduli (GPa) = 50.45855 45.74612 81.92061
#
# Poissons Ratio (x) = 0.23458 0.40674
# Poissons Ratio (y) = 0.25875 0.52729
# Poissons Ratio (z) = 0.25053 0.29445
#
# Static dielectric constant tensor:
#      x y z
#    x 2.970640 0.000000 0.102720 
#    y 0.000000 3.195110 0.000000 
#    z 0.102720 0.000000 3.467450 
# 
# 
# High freq. dielectric constant tensor:
#      x y z
#    x 1.606900 0.000000 0.006710 
#    y 0.000000 1.651970 0.000000 
#    z 0.006710 0.000000 1.657340 
# 
# From -- ./inp_files/323669.got.cif
#   From: 2010.06.25/outbox.cif.g09.slc.cpg/sg12_162_cif.got.tgz:323669.got - 2010.06.28 00:19:55.
