data_PCOD8087018
_publ_section_title
;
Structure prediction by ZEFSAII (Michael W. Deem and Ramdas Pophale) SiO2 
 PCOD8087018
Probable space group: C 2/M
;
_chemical_formula_sum "Si O2"
_cell_formula_units_Z 56
_cell_length_a 23.480744
_cell_length_b 18.960677
_cell_length_c 11.908773
_cell_angle_alpha 90.000000
_cell_angle_beta 146.697332
_cell_angle_gamma 90.000000
_cell_volume 2911.078323
_symmetry_space_group_name_H-M "C 2/M"
_symmetry_group_IT_number 12
_symmetry_cell_setting 'monoclinic'
loop_
_space_group_symop_operation_xyz
x,y,z
-x,y,-z
-x,-y,-z
x,-y,z
1/2+x,1/2+y,z
1/2-x,1/2+y,-z
1/2-x,1/2-y,-z
1/2+x,1/2-y,z
loop_
_atom_site_type_symbol
_atom_site_label
_atom_site_fract_x
_atom_site_fract_y
_atom_site_fract_z
Si Si1 0.984832 0.420119 0.345256
Si Si2 0.713407 0.080375 0.684918
Si Si3 0.314094 0.672599 0.016482
Si Si4 0.799076 0.921371 0.406906
Si Si5 0.617597 0.583646 0.219136
Si Si6 0.986489 0.922762 0.355803
Si Si7 0.698723 0.170621 0.052583
O O1 0.942391 0.500000 0.267098
O O2 0.000000 0.399507 0.500000
O O3 0.092383 0.413159 0.450973
O O4 0.903287 0.368395 0.156110
O O5 0.721063 0.129852 0.806159
O O6 0.797541 0.107469 0.733026
O O7 0.739000 0.000000 0.759984
O O8 0.329696 0.747263 0.980634
O O9 0.419678 0.629461 0.168848
O O10 0.290435 0.671961 0.110850
O O11 0.831306 0.888579 0.580558
O O12 0.731193 0.864969 0.224409
O O13 0.903265 0.934262 0.513873
O O14 0.744974 0.000000 0.328129
O O15 0.609217 0.500000 0.213413
O O16 0.500000 0.613186 0.000000
O O17 0.000000 0.888361 0.500000
O O18 0.931386 0.000000 0.273695
#
# Coordination Sequence:
#
# PCOD8087018 Si02
#       7
#     8   8   8   8   8   8   8
#     4  10  20  35  56  80 108 148 191 230 270 321
#     4  10  20  36  59  82 106 143 193 234 271 325
#     4  11  22  34  52  80 115 150 182 224 280 336
#     4  10  20  36  58  83 112 143 179 232 285 332
#     4   9  18  35  60  87 112 141 183 235 287 335
#     4  10  19  31  52  82 110 138 177 228 285 336
#     4  11  23  35  51  80 117 151 185 222 279 335
#
# _framework density 19.236858000000002
#
# number of rings (size 3 to 8) (size 9 to 14) (size 15 to 20)
#    0.000    1.857    2.857    1.714    0.000    5.143 
#    0.000    1.429    0.000    5.143    0.000    0.000 
#    0.000    0.000    0.000    0.000    0.000    0.143 
#
# Total GULP energy -346937.778063 kJ/mol
# GULP energy per Si atom -12390.634931 kJ/mol
# Density = 1.919307 g / cm^3
# Si number density = 19.236858 Si / 1000 Ang^3
#
#
#
# Elastic Constant Matrix: (Units=GPa)
#
#
# Indices 1 2 3 4 5 6 
#
# 1 71.9752 19.4558 31.2055 0.0000 0.6754 0.0000
# 2 19.4558 106.5055 70.9971 0.0000 -6.6698 0.0000
# 3 31.2055 70.9971 117.5891 0.0000 -6.3463 0.0000
# 4 0.0000 0.0000 0.0000 7.5054 0.0000 -1.5458
# 5 0.6754 -6.6698 -6.3463 0.0000 34.4264 0.0000
# 6 0.0000 0.0000 0.0000 -1.5458 0.0000 14.6748
#
#
#
# Elastic Compliance Matrix: (Units=1/GPa)
#
#
# Indices 1 2 3 4 5 6 
#
# 1 0.015743 -0.000201 -0.004116 0.000000 -0.001107 0.000000
# 2 -0.000201 0.015775 -0.009399 0.000000 0.001327 0.000000
# 3 -0.004116 -0.009399 0.015330 0.000000 0.001086 0.000000
# 4 0.000000 0.000000 0.000000 0.136193 0.000000 0.014346
# 5 -0.001107 0.001327 0.001086 0.000000 0.029527 0.000000
# 6 0.000000 0.000000 0.000000 0.014346 0.000000 0.069655
#
#
# Mechanical properties :
#
#
# Convention : Reuss Voigt Hill
#
# Bulk Modulus (GPa) = 51.50777 59.93186 55.71981
# Shear Modulus (GPa) = 15.81645 22.94876 19.38260
#
# Velocity S-wave (km/s) = 2.87050 3.45767 3.17768
# Velocity P-wave (km/s) = 6.14980 6.86753 6.51855
#
# Compressibility (1/GPa) = 0.01941455
#
# Stress axis : x y z
#
# Youngs Moduli (GPa) = 63.52030 63.39274 65.23134
#
# Poissons Ratio (x) = 0.01277 0.26849
# Poissons Ratio (y) = 0.01280 0.61312
# Poissons Ratio (z) = 0.26145 0.59584
#
# Static dielectric constant tensor:
#      x y z
#    x 4.506690 0.000000 -0.647670 
#    y 0.000000 3.461060 0.000000 
#    z -0.647670 0.000000 3.872540 
# 
# 
# High freq. dielectric constant tensor:
#      x y z
#    x 1.731740 0.000000 0.002780 
#    y 0.000000 1.728710 0.000000 
#    z 0.002780 0.000000 1.746850 
# 
# From -- ./inp_files/177955.got.cif
#   From: 2010.06.25/outbox.cif.g09.slc.cpg/sg12_89_cif.got.tgz:177955.got - 2010.06.28 00:19:55.
