data_PCOD8087553
_publ_section_title
;
Structure prediction by ZEFSAII (Michael W. Deem and Ramdas Pophale) SiO2 
 PCOD8087553
Probable space group: C 2/M
;
_chemical_formula_sum "Si O2"
_cell_formula_units_Z 56
_cell_length_a 8.150834
_cell_length_b 19.691190
_cell_length_c 23.242000
_cell_angle_alpha 90.000000
_cell_angle_beta 126.042977
_cell_angle_gamma 90.000000
_cell_volume 3016.256614
_symmetry_space_group_name_H-M "C 2/M"
_symmetry_group_IT_number 12
_symmetry_cell_setting 'monoclinic'
loop_
_space_group_symop_operation_xyz
x,y,z
-x,y,-z
-x,-y,-z
x,-y,z
1/2+x,1/2+y,z
1/2-x,1/2+y,-z
1/2-x,1/2-y,-z
1/2+x,1/2-y,z
loop_
_atom_site_type_symbol
_atom_site_label
_atom_site_fract_x
_atom_site_fract_y
_atom_site_fract_z
Si Si1 0.826515 0.247633 0.854370
Si Si2 0.500756 0.648115 0.811443
Si Si3 0.774385 0.080235 0.663390
Si Si4 0.767348 0.308077 0.049471
Si Si5 0.453812 0.419325 0.580851
Si Si6 0.182097 0.419307 0.419325
Si Si7 0.236807 0.422436 0.036683
O O1 0.621222 0.289771 0.807351
O O2 0.875411 0.210109 0.925910
O O3 0.818292 0.185496 0.807498
O O4 0.002958 0.302793 0.878756
O O5 0.414366 0.597780 0.746270
O O6 0.643016 0.606511 0.884067
O O7 0.881972 0.110376 0.627902
O O8 0.547525 0.110458 0.627362
O O9 0.759576 0.000000 0.654591
O O10 0.750000 0.250000 0.000000
O O11 0.715089 0.381440 0.011970
O O12 0.454514 0.500000 0.583920
O O13 0.290851 0.394442 0.500114
O O14 0.680767 0.394810 0.607504
O O15 0.172079 0.500000 0.416072
O O16 0.300887 0.500000 0.039470
O O17 0.000000 0.414473 0.000000
#
# Coordination Sequence:
#
# PCOD8087553 Si02
#       7
#     8   8   8   8   8   8   8
#     4  10  21  34  58  72  93 128 190 226 256 302
#     4  11  22  37  51  76 102 140 177 223 264 322
#     4  10  19  32  50  78 118 148 165 210 284 335
#     4  11  17  34  59  78  91 131 178 231 262 314
#     4   8  14  27  50  78 108 142 181 214 252 322
#     4   8  14  27  49  79 109 141 180 215 254 320
#     4  11  21  33  53  81 108 133 169 222 279 326
#
# _framework density 18.56606
#
# number of rings (size 3 to 8) (size 9 to 14) (size 15 to 20)
#    0.000    2.143    4.286    2.143    0.000    1.714 
#    5.143    2.143    0.000    0.000    0.000    4.000 
#    0.000    0.000    0.000    0.000    0.000    0.000 
#
# Total GULP energy -346939.414016 kJ/mol
# GULP energy per Si atom -12390.693358 kJ/mol
# Density = 1.852380 g / cm^3
# Si number density = 18.566060 Si / 1000 Ang^3
#
#
#
# Elastic Constant Matrix: (Units=GPa)
#
#
# Indices 1 2 3 4 5 6 
#
# 1 131.2260 26.1268 51.0757 0.0000 -2.6522 0.0000
# 2 26.1268 57.0418 14.1678 0.0000 -0.5702 0.0000
# 3 51.0757 14.1678 87.8374 0.0000 -2.4001 0.0000
# 4 0.0000 0.0000 0.0000 16.6826 0.0000 -1.2484
# 5 -2.6522 -0.5702 -2.4001 0.0000 20.3437 0.0000
# 6 0.0000 0.0000 0.0000 -1.2484 0.0000 17.6755
#
#
#
# Elastic Compliance Matrix: (Units=1/GPa)
#
#
# Indices 1 2 3 4 5 6 
#
# 1 0.010459 -0.003415 -0.005514 0.000000 0.000617 0.000000
# 2 -0.003415 0.019378 -0.001141 0.000000 -0.000037 0.000000
# 3 -0.005514 -0.001141 0.014802 0.000000 0.000996 0.000000
# 4 0.000000 0.000000 0.000000 0.060261 0.000000 0.004256
# 5 0.000617 -0.000037 0.000996 0.000000 0.049352 0.000000
# 6 0.000000 0.000000 0.000000 0.004256 0.000000 0.056876
#
#
# Mechanical properties :
#
#
# Convention : Reuss Voigt Hill
#
# Bulk Modulus (GPa) = 40.81682 50.98285 45.89984
# Shear Modulus (GPa) = 20.88251 23.25603 22.06927
#
# Velocity S-wave (km/s) = 3.35739 3.54306 3.45148
# Velocity P-wave (km/s) = 6.08784 6.65264 6.37650
#
# Compressibility (1/GPa) = 0.02449970
#
# Stress axis : x y z
#
# Youngs Moduli (GPa) = 95.61185 51.60466 67.55753
#
# Poissons Ratio (x) = 0.17622 0.37251
# Poissons Ratio (y) = 0.32649 0.07708
# Poissons Ratio (z) = 0.52721 0.05888
#
# Static dielectric constant tensor:
#      x y z
#    x 4.072730 0.000000 0.008960 
#    y 0.000000 2.923200 0.000000 
#    z 0.008960 0.000000 3.341040 
# 
# 
# High freq. dielectric constant tensor:
#      x y z
#    x 1.741950 0.000000 0.002820 
#    y 0.000000 1.673900 0.000000 
#    z 0.002820 0.000000 1.702320 
# 
# From -- ./inp_files/333615.got.cif
#   From: 2010.06.25/outbox.cif.g09.slc.cpg/sg12_167_cif.got.tgz:333615.got - 2010.06.28 00:19:55.
