data_PCOD8087715
_publ_section_title
;
Structure prediction by ZEFSAII (Michael W. Deem and Ramdas Pophale) SiO2 
 PCOD8087715
Probable space group: C 2/M
;
_chemical_formula_sum "Si O2"
_cell_formula_units_Z 56
_cell_length_a 28.671776
_cell_length_b 8.858764
_cell_length_c 19.097212
_cell_angle_alpha 90.000000
_cell_angle_beta 138.373454
_cell_angle_gamma 90.000000
_cell_volume 3222.137285
_symmetry_space_group_name_H-M "C 2/M"
_symmetry_group_IT_number 12
_symmetry_cell_setting 'monoclinic'
loop_
_space_group_symop_operation_xyz
x,y,z
-x,y,-z
-x,-y,-z
x,-y,z
1/2+x,1/2+y,z
1/2-x,1/2+y,-z
1/2-x,1/2-y,-z
1/2+x,1/2-y,z
loop_
_atom_site_type_symbol
_atom_site_label
_atom_site_fract_x
_atom_site_fract_y
_atom_site_fract_z
Si Si1 0.150038 0.827442 0.899874
Si Si2 0.056614 0.677263 0.006435
Si Si3 0.255947 0.674490 0.118943
Si Si4 0.241237 0.675499 0.378777
Si Si5 0.353272 0.325784 0.618043
Si Si6 0.489249 0.672480 0.185302
Si Si7 0.207362 0.177662 0.198798
O O1 0.173345 0.790893 0.846349
O O2 0.066728 0.802291 0.814883
O O3 0.171409 0.000000 0.942133
O O4 0.188481 0.717532 0.997049
O O5 0.069574 0.500000 0.024926
O O6 0.129739 0.756788 0.104383
O O7 0.027756 0.719476 0.898114
O O8 0.000000 0.731082 0.000000
O O9 0.249729 0.500000 0.132543
O O10 0.257302 0.770836 0.191195
O O11 0.234006 0.500000 0.352937
O O12 0.312397 0.713721 0.500820
O O13 0.173992 0.724249 0.348786
O O14 0.244407 0.768010 0.311001
O O15 0.340561 0.500000 0.624098
O O16 0.434895 0.288509 0.697576
O O17 0.486476 0.500000 0.155076
O O18 0.201272 0.000000 0.192004
#
# Coordination Sequence:
#
# PCOD8087715 Si02
#       7
#     8   8   8   8   8   8   8
#     4   9  18  32  51  76 104 135 168 207 254 310
#     4  11  23  35  48  73 106 137 168 205 254 309
#     4  10  19  32  51  75 104 134 170 211 255 307
#     4  10  20  35  54  76 103 136 176 217 255 299
#     4   9  19  35  55  78 104 136 173 212 254 303
#     4  10  19  33  53  77 104 134 168 205 252 309
#     4  12  23  35  52  74 102 137 176 214 258 306
#
# _framework density 17.379767999999999
#
# number of rings (size 3 to 8) (size 9 to 14) (size 15 to 20)
#    0.000    1.857    1.429    3.429    0.000    5.143 
#    0.000    0.000    0.000    0.857    0.000    6.000 
#    0.000    0.000    0.000    0.000    0.000    0.000 
#
# Total GULP energy -347261.619486 kJ/mol
# GULP energy per Si atom -12402.200696 kJ/mol
# Density = 1.734021 g / cm^3
# Si number density = 17.379768 Si / 1000 Ang^3
#
#
#
# Elastic Constant Matrix: (Units=GPa)
#
#
# Indices 1 2 3 4 5 6 
#
# 1 142.1523 47.1384 65.6381 0.0000 -1.3958 0.0000
# 2 47.1384 79.2453 34.6879 0.0000 -7.5765 0.0000
# 3 65.6381 34.6879 90.6145 0.0000 -3.8349 0.0000
# 4 0.0000 0.0000 0.0000 26.6688 0.0000 -4.8572
# 5 -1.3958 -7.5765 -3.8349 0.0000 24.9865 0.0000
# 6 0.0000 0.0000 0.0000 -4.8572 0.0000 24.8516
#
#
#
# Elastic Compliance Matrix: (Units=1/GPa)
#
#
# Indices 1 2 3 4 5 6 
#
# 1 0.011523 -0.003996 -0.006886 0.000000 -0.001625 0.000000
# 2 -0.003996 0.016898 -0.003389 0.000000 0.004381 0.000000
# 3 -0.006886 -0.003389 0.017375 0.000000 0.001254 0.000000
# 4 0.000000 0.000000 0.000000 0.038881 0.000000 0.007599
# 5 -0.001625 0.004381 0.001254 0.000000 0.041452 0.000000
# 6 0.000000 0.000000 0.000000 0.007599 0.000000 0.041724
#
#
# Mechanical properties :
#
#
# Convention : Reuss Voigt Hill
#
# Bulk Modulus (GPa) = 57.95792 67.43788 62.69790
# Shear Modulus (GPa) = 24.73455 26.27123 25.50289
#
# Velocity S-wave (km/s) = 3.77660 3.89215 3.83481
# Velocity P-wave (km/s) = 7.24136 7.68669 7.46734
#
# Compressibility (1/GPa) = 0.01725390
#
# Stress axis : x y z
#
# Youngs Moduli (GPa) = 86.77924 59.17823 57.55556
#
# Poissons Ratio (x) = 0.23645 0.39635
# Poissons Ratio (y) = 0.34674 0.19506
# Poissons Ratio (z) = 0.59760 0.20056
#
# Static dielectric constant tensor:
#      x y z
#    x 3.468130 0.000000 0.002440 
#    y 0.000000 3.336570 0.000000 
#    z 0.002440 0.000000 3.128950 
# 
# 
# High freq. dielectric constant tensor:
#      x y z
#    x 1.676100 0.000000 -0.000740 
#    y 0.000000 1.681470 0.000000 
#    z -0.000740 0.000000 1.648200 
# 
# From -- ./inp_files/288234.got.cif
#   From: 2010.06.25/outbox.cif.g09.slc.cpg/sg12_145_cif.got.tgz:288234.got - 2010.06.28 00:19:55.
