data_PCOD8087974
_publ_section_title
;
Structure prediction by ZEFSAII (Michael W. Deem and Ramdas Pophale) SiO2 
 PCOD8087974
Probable space group: C 2/M
;
_chemical_formula_sum "Si O2"
_cell_formula_units_Z 64
_cell_length_a 26.596300
_cell_length_b 9.594369
_cell_length_c 14.776670
_cell_angle_alpha 90.000000
_cell_angle_beta 74.415081
_cell_angle_gamma 90.000000
_cell_volume 3631.998920
_symmetry_space_group_name_H-M "C 2/M"
_symmetry_group_IT_number 12
_symmetry_cell_setting 'monoclinic'
loop_
_space_group_symop_operation_xyz
x,y,z
-x,y,-z
-x,-y,-z
x,-y,z
1/2+x,1/2+y,z
1/2-x,1/2+y,-z
1/2-x,1/2-y,-z
1/2+x,1/2-y,z
loop_
_atom_site_type_symbol
_atom_site_label
_atom_site_fract_x
_atom_site_fract_y
_atom_site_fract_z
Si Si1 0.059298 0.657728 0.497104
Si Si2 0.630849 0.838231 0.782099
Si Si3 0.485430 0.848860 0.109201
Si Si4 0.706852 0.837966 0.907224
Si Si5 0.018175 0.847528 0.231214
Si Si6 0.596829 0.343100 0.641944
Si Si7 0.405898 0.843571 0.713267
Si Si8 0.191518 0.338276 0.118517
O O1 0.056142 0.500000 0.538577
O O2 0.086951 0.760734 0.554016
O O3 0.099309 0.659594 0.392690
O O4 0.000000 0.705203 0.500000
O O5 0.574839 0.810704 0.852765
O O6 0.670897 0.790855 0.840856
O O7 0.636376 0.742898 0.688759
O O8 0.639307 0.000000 0.751171
O O9 0.523853 0.735835 0.134809
O O10 0.495660 0.000000 0.150052
O O11 0.500000 0.855457 0.000000
O O12 0.759260 0.750136 0.873810
O O13 0.721338 0.000000 0.892291
O O14 0.678812 0.809886 0.018263
O O15 0.046435 0.760915 0.294739
O O16 0.957771 0.857803 0.281987
O O17 0.043599 0.000000 0.209053
O O18 0.618929 0.500000 0.612268
O O19 0.355780 0.790267 0.793523
O O20 0.419751 0.000000 0.739150
O O21 0.204408 0.500000 0.128515
#
# Coordination Sequence:
#
# PCOD8087974 Si02
#       8
#     8   8   8   8   8   8   8   8
#     4  10  19  32  52  76 101 135 174 210 249 297
#     4   9  18  32  51  74  98 131 172 210 247 297
#     4   9  18  30  47  68  94 132 172 205 241 293
#     4   9  18  34  55  77 102 132 168 209 255 302
#     4  10  20  31  44  67 102 136 167 204 248 294
#     4  10  20  33  49  72 103 137 170 207 250 299
#     4  10  20  33  52  75 101 134 171 210 250 297
#     4   9  19  34  54  78 104 131 166 211 255 303
#
# _framework density 17.621151000000001
#
# number of rings (size 3 to 8) (size 9 to 14) (size 15 to 20)
#    0.000    2.500    1.250    0.750    1.750    3.000 
#    0.000    0.000    0.000    0.750    0.000    0.000 
#    0.000    0.000    0.000    0.000    0.000    0.000 
#
# Total GULP energy -396557.216565 kJ/mol
# GULP energy per Si atom -12392.413018 kJ/mol
# Density = 1.758104 g / cm^3
# Si number density = 17.621151 Si / 1000 Ang^3
#
#
#
# Elastic Constant Matrix: (Units=GPa)
#
#
# Indices 1 2 3 4 5 6 
#
# 1 59.4234 50.3611 45.9476 0.0000 26.3377 0.0000
# 2 50.3611 103.1946 43.2830 0.0000 21.9558 0.0000
# 3 45.9476 43.2830 87.8744 0.0000 14.0052 0.0000
# 4 0.0000 0.0000 0.0000 17.0469 0.0000 4.2981
# 5 26.3377 21.9558 14.0052 0.0000 29.0339 0.0000
# 6 0.0000 0.0000 0.0000 4.2981 0.0000 25.9588
#
#
#
# Elastic Compliance Matrix: (Units=1/GPa)
#
#
# Indices 1 2 3 4 5 6 
#
# 1 0.055710 -0.012936 -0.017617 0.000000 -0.032256 0.000000
# 2 -0.012936 0.016625 -0.001399 0.000000 -0.000163 0.000000
# 3 -0.017617 -0.001399 0.020111 0.000000 0.007338 0.000000
# 4 0.000000 0.000000 0.000000 0.061218 0.000000 -0.010136
# 5 -0.032256 -0.000163 0.007338 0.000000 0.060287 0.000000
# 6 0.000000 0.000000 0.000000 -0.010136 0.000000 0.040201
#
#
# Mechanical properties :
#
#
# Convention : Reuss Voigt Hill
#
# Bulk Modulus (GPa) = 35.03556 58.85287 46.94422
# Shear Modulus (GPa) = 15.26404 21.80129 18.53267
#
# Velocity S-wave (km/s) = 2.94638 3.52123 3.24655
# Velocity P-wave (km/s) = 5.61255 7.07132 6.38374
#
# Compressibility (1/GPa) = 0.02854243
#
# Stress axis : x y z
#
# Youngs Moduli (GPa) = 17.95019 60.15187 49.72412
#
# Poissons Ratio (x) = 0.77810 0.87599
# Poissons Ratio (y) = 0.23220 0.06956
# Poissons Ratio (z) = 0.31623 0.08415
#
# Static dielectric constant tensor:
#      x y z
#    x 3.038910 0.000000 0.140250 
#    y 0.000000 3.673490 0.000000 
#    z 0.140250 0.000000 3.245980 
# 
# 
# High freq. dielectric constant tensor:
#      x y z
#    x 1.649110 0.000000 0.017030 
#    y 0.000000 1.687390 0.000000 
#    z 0.017030 0.000000 1.675670 
# 
# From -- ./inp_files/243809.got.cif
#   From: 2010.06.25/outbox.cif.g09.slc.cpg/sg12_122_cif.got.tgz:243809.got - 2010.06.28 00:19:55.
