data_PCOD8087886
_publ_section_title
;
Structure prediction by ZEFSAII (Michael W. Deem and Ramdas Pophale) SiO2 
 PCOD8087886
Probable space group: C 2/M
;
_chemical_formula_sum "Si O2"
_cell_formula_units_Z 64
_cell_length_a 16.117578
_cell_length_b 21.210852
_cell_length_c 32.481265
_cell_angle_alpha 90.000000
_cell_angle_beta 162.220469
_cell_angle_gamma 90.000000
_cell_volume 3390.752245
_symmetry_space_group_name_H-M "C 2/M"
_symmetry_group_IT_number 12
_symmetry_cell_setting 'monoclinic'
loop_
_space_group_symop_operation_xyz
x,y,z
-x,y,-z
-x,-y,-z
x,-y,z
1/2+x,1/2+y,z
1/2-x,1/2+y,-z
1/2-x,1/2-y,-z
1/2+x,1/2-y,z
loop_
_atom_site_type_symbol
_atom_site_label
_atom_site_fract_x
_atom_site_fract_y
_atom_site_fract_z
Si Si1 0.887269 0.068901 0.787156
Si Si2 0.753676 0.832650 0.025723
Si Si3 0.042472 0.130667 0.394490
Si Si4 0.100811 0.570739 0.504322
Si Si5 0.800348 0.427594 0.150740
Si Si6 0.212827 0.743976 0.210532
Si Si7 0.494117 0.071595 0.153316
Si Si8 0.466828 0.131788 0.311956
O O1 0.668283 0.065046 0.648908
O O2 0.764712 0.096448 0.771576
O O3 0.129449 0.116039 0.886630
O O4 0.008657 0.000000 0.853462
O O5 0.983883 0.778564 0.130072
O O6 0.467965 0.801339 0.905177
O O7 0.697102 0.875490 0.958014
O O8 0.189172 0.116337 0.420012
O O9 0.245310 0.124507 0.529040
O O10 0.914995 0.201009 0.333404
O O11 0.807947 0.079195 0.288907
O O12 0.224283 0.500000 0.568790
O O13 0.000000 0.600155 0.500000
O O14 0.765187 0.500000 0.146991
O O15 0.981821 0.417989 0.196310
O O16 0.968435 0.394693 0.266771
O O17 0.500000 0.398652 0.000000
O O18 0.394872 0.794248 0.272774
O O19 0.401953 0.000000 0.098432
#
# Coordination Sequence:
#
# PCOD8087886 Si02
#       8
#     8   8   8   8   8   8   8   8
#     4   9  16  28  51  79 100 129 172 216 261 322
#     4   9  17  31  53  77 100 136 181 219 260 312
#     4  10  20  34  55  77 107 138 181 220 270 320
#     4   9  18  33  55  78 103 131 165 217 279 331
#     4  10  20  33  52  79 113 145 177 218 261 309
#     4   9  18  32  52  72  97 138 179 222 261 301
#     4  10  20  33  53  83 115 144 173 218 272 321
#     4  10  19  32  52  73 104 145 184 214 254 313
#
# _framework density 18.874866999999998
#
# number of rings (size 3 to 8) (size 9 to 14) (size 15 to 20)
#    0.000    2.500    0.000    3.000    0.000    3.000 
#    0.000    1.250   27.500    2.250    0.000   11.375 
#    0.000    0.000    0.000    0.000    0.000    0.000 
#
# Total GULP energy -396432.337336 kJ/mol
# GULP energy per Si atom -12388.510542 kJ/mol
# Density = 1.883191 g / cm^3
# Si number density = 18.874867 Si / 1000 Ang^3
#
#
#
# Elastic Constant Matrix: (Units=GPa)
#
#
# Indices 1 2 3 4 5 6 
#
# 1 87.6786 28.5233 33.9644 -0.0033 -5.0732 0.0071
# 2 28.5233 105.2049 40.7043 0.0166 -2.9246 0.0037
# 3 33.9644 40.7043 94.9279 0.1702 6.0260 0.0527
# 4 -0.0033 0.0166 0.1702 35.2688 -0.0183 -2.1934
# 5 -5.0732 -2.9246 6.0260 -0.0183 13.4506 0.0012
# 6 0.0071 0.0037 0.0527 -2.1934 0.0012 14.2622
#
#
#
# Elastic Compliance Matrix: (Units=1/GPa)
#
#
# Indices 1 2 3 4 5 6 
#
# 1 0.014259 -0.001821 -0.004773 0.000030 0.007120 0.000015
# 2 -0.001821 0.011938 -0.004723 0.000020 0.004025 0.000018
# 3 -0.004773 -0.004723 0.014870 -0.000079 -0.009489 -0.000063
# 4 0.000030 0.000020 -0.000079 0.028628 0.000089 0.004403
# 5 0.007120 0.004025 -0.009489 0.000089 0.082158 0.000038
# 6 0.000015 0.000018 -0.000063 0.004403 0.000038 0.070793
#
#
# Mechanical properties :
#
#
# Convention : Reuss Voigt Hill
#
# Bulk Modulus (GPa) = 54.25158 54.91060 54.58109
# Shear Modulus (GPa) = 19.88679 24.90428 22.39553
#
# Velocity S-wave (km/s) = 3.24946 3.63635 3.44834
# Velocity P-wave (km/s) = 6.54857 6.84002 6.69588
#
# Compressibility (1/GPa) = 0.01843264
#
# Stress axis : x y z
#
# Youngs Moduli (GPa) = 70.13319 83.76431 67.25119
#
# Poissons Ratio (x) = 0.15256 0.32097
# Poissons Ratio (y) = 0.12773 0.31762
# Poissons Ratio (z) = 0.33472 0.39561
#
# Static dielectric constant tensor:
#      x y z
#    x 3.108600 0.000030 0.039800 
#    y 0.000030 3.831940 -0.000260 
#    z 0.039800 -0.000260 3.646190 
# 
# 
# High freq. dielectric constant tensor:
#      x y z
#    x 1.680390 0.000000 -0.000970 
#    y 0.000000 1.745690 -0.000030 
#    z -0.000970 -0.000030 1.747060 
# 
# From -- ./inp_files/377127.got.cif
#   From: 2010.06.25/outbox.cif.g09.slc.cpg/sg12_189_cif.got.tgz:377127.got - 2010.06.28 00:19:55.
