data_PCOD8087285
_publ_section_title
;
Structure prediction by ZEFSAII (Michael W. Deem and Ramdas Pophale) SiO2 
 PCOD8087285
Probable space group: C 2/M
;
_chemical_formula_sum "Si O2"
_cell_formula_units_Z 64
_cell_length_a 9.326017
_cell_length_b 28.163250
_cell_length_c 12.360576
_cell_angle_alpha 90.000000
_cell_angle_beta 89.382317
_cell_angle_gamma 90.000000
_cell_volume 3246.328352
_symmetry_space_group_name_H-M "C 2/M"
_symmetry_group_IT_number 12
_symmetry_cell_setting 'monoclinic'
loop_
_space_group_symop_operation_xyz
x,y,z
-x,y,-z
-x,-y,-z
x,-y,z
1/2+x,1/2+y,z
1/2-x,1/2+y,-z
1/2-x,1/2-y,-z
1/2+x,1/2-y,z
loop_
_atom_site_type_symbol
_atom_site_label
_atom_site_fract_x
_atom_site_fract_y
_atom_site_fract_z
Si Si1 0.473547 0.121797 0.309526
Si Si2 0.950776 0.948197 0.761356
Si Si3 0.246871 0.766264 0.121838
Si Si4 0.285185 0.594394 0.333720
Si Si5 0.494683 0.324910 0.373359
Si Si6 0.012535 0.726475 0.266327
Si Si7 0.199039 0.862771 0.197563
Si Si8 0.768897 0.445343 0.433006
O O1 0.626654 0.097695 0.283076
O O2 0.500668 0.177803 0.336518
O O3 0.365990 0.121611 0.207464
O O4 0.399794 0.090589 0.404300
O O5 0.119403 0.940519 0.740786
O O6 0.890065 0.908349 0.844719
O O7 0.862026 0.941535 0.650430
O O8 0.926326 0.000000 0.812352
O O9 0.404894 0.772352 0.166422
O O10 0.174307 0.818731 0.117799
O O11 0.165190 0.731092 0.204798
O O12 0.250000 0.750000 0.000000
O O13 0.355634 0.646790 0.331619
O O14 0.288250 0.571027 0.451377
O O15 0.500000 0.332590 0.500000
O O16 0.479952 0.269141 0.348791
O O17 0.638467 0.346105 0.316603
O O18 0.824661 0.500000 0.436280
#
# Coordination Sequence:
#
# PCOD8087285 Si02
#       8
#     8   8   8   8   8   8   8   8
#     4  10  20  32  44  64  99 131 159 211 263 294
#     4   9  17  31  49  67  94 134 173 217 265 298
#     4  10  19  35  58  79 102 130 164 213 268 308
#     4  11  19  28  45  69  94 130 181 222 247 282
#     4  10  19  32  49  67  99 143 178 204 239 291
#     4  10  21  36  51  76 105 132 172 210 248 314
#     4   8  18  34  48  71 103 134 171 208 247 312
#     4  10  20  32  45  64  94 135 182 222 255 295
#
# _framework density 19.714580999999999
#
# number of rings (size 3 to 8) (size 9 to 14) (size 15 to 20)
#    0.000    2.250    0.000    4.500    0.000    3.500 
#    0.000    6.875    0.000    0.000    0.000    0.875 
#    0.000   30.000    0.000    4.000    0.000    2.125 
#
# Total GULP energy -396505.723641 kJ/mol
# GULP energy per Si atom -12390.803864 kJ/mol
# Density = 1.966971 g / cm^3
# Si number density = 19.714581 Si / 1000 Ang^3
#
#
#
# Elastic Constant Matrix: (Units=GPa)
#
#
# Indices 1 2 3 4 5 6 
#
# 1 109.4754 35.9191 11.8440 0.0000 -4.1844 0.0000
# 2 35.9191 160.4078 24.8580 0.0000 -14.2041 0.0000
# 3 11.8440 24.8580 46.9801 0.0000 -7.8580 0.0000
# 4 0.0000 0.0000 0.0000 15.7959 0.0000 1.1495
# 5 -4.1844 -14.2041 -7.8580 0.0000 15.7507 0.0000
# 6 0.0000 0.0000 0.0000 1.1495 0.0000 26.4579
#
#
#
# Elastic Compliance Matrix: (Units=1/GPa)
#
#
# Indices 1 2 3 4 5 6 
#
# 1 0.009949 -0.001994 -0.001431 0.000000 0.000130 0.000000
# 2 -0.001994 0.007529 -0.002656 0.000000 0.004935 0.000000
# 3 -0.001431 -0.002656 0.024644 0.000000 0.009520 0.000000
# 4 0.000000 0.000000 0.000000 0.063508 0.000000 -0.002759
# 5 0.000130 0.004935 0.009520 0.000000 0.072724 0.000000
# 6 0.000000 0.000000 0.000000 -0.002759 0.000000 0.037916
#
#
# Mechanical properties :
#
#
# Convention : Reuss Voigt Hill
#
# Bulk Modulus (GPa) = 33.37822 51.34503 42.36163
# Shear Modulus (GPa) = 20.97156 27.88372 24.42764
#
# Velocity S-wave (km/s) = 3.26507 3.76489 3.52385
# Velocity P-wave (km/s) = 5.58406 6.70820 6.17178
#
# Compressibility (1/GPa) = 0.02995966
#
# Stress axis : x y z
#
# Youngs Moduli (GPa) = 100.51609 132.81537 40.57822
#
# Poissons Ratio (x) = 0.26489 0.05807
# Poissons Ratio (y) = 0.20047 0.10776
# Poissons Ratio (z) = 0.14384 0.35270
#
# Static dielectric constant tensor:
#      x y z
#    x 3.772050 0.000000 -0.111950 
#    y 0.000000 4.145240 0.000000 
#    z -0.111950 0.000000 2.924510 
# 
# 
# High freq. dielectric constant tensor:
#      x y z
#    x 1.779430 0.000000 -0.005850 
#    y 0.000000 1.789670 0.000000 
#    z -0.005850 0.000000 1.697830 
# 
# From -- ./inp_files/125743.got.cif
#   From: 2010.06.25/outbox.cif.g09.slc.cpg/sg12_63_cif.got.tgz:125743.got - 2010.06.28 00:19:55.
