data_PCOD8087192
_publ_section_title
;
Structure prediction by ZEFSAII (Michael W. Deem and Ramdas Pophale) SiO2 
 PCOD8087192
Probable space group: C 2/M
;
_chemical_formula_sum "Si O2"
_cell_formula_units_Z 64
_cell_length_a 24.017290
_cell_length_b 8.921406
_cell_length_c 24.438485
_cell_angle_alpha 90.000000
_cell_angle_beta 130.942977
_cell_angle_gamma 90.000000
_cell_volume 3955.367129
_symmetry_space_group_name_H-M "C 2/M"
_symmetry_group_IT_number 12
_symmetry_cell_setting 'monoclinic'
loop_
_space_group_symop_operation_xyz
x,y,z
-x,y,-z
-x,-y,-z
x,-y,z
1/2+x,1/2+y,z
1/2-x,1/2+y,-z
1/2-x,1/2-y,-z
1/2+x,1/2-y,z
loop_
_atom_site_type_symbol
_atom_site_label
_atom_site_fract_x
_atom_site_fract_y
_atom_site_fract_z
Si Si1 0.412607 0.672657 0.004419
Si Si2 0.282244 0.823530 0.762392
Si Si3 0.447152 0.332424 0.518178
Si Si4 0.421700 0.327797 0.882462
Si Si5 0.168788 0.332147 0.619669
Si Si6 0.771493 0.677673 0.956981
Si Si7 0.697970 0.178301 0.807809
Si Si8 0.061977 0.333874 0.654277
O O1 0.390510 0.500000 0.000822
O O2 0.494076 0.705881 0.080475
O O3 0.410928 0.707638 0.939260
O O4 0.355767 0.781169 0.997964
O O5 0.368301 0.779217 0.812597
O O6 0.239660 0.768053 0.680658
O O7 0.252494 0.741031 0.797015
O O8 0.271794 0.000000 0.761892
O O9 0.500000 0.325834 0.500000
O O10 0.421764 0.500000 0.514779
O O11 0.373549 0.236101 0.460008
O O12 0.491612 0.272499 0.599807
O O13 0.401977 0.500000 0.857416
O O14 0.194716 0.500000 0.621851
O O15 0.113691 0.333386 0.634831
O O16 0.762577 0.500000 0.953536
O O17 0.715653 0.744702 0.876385
O O18 0.750000 0.750000 0.000000
O O19 0.612838 0.218096 0.738003
O O20 0.709959 0.000000 0.818705
O O21 0.030824 0.500000 0.644416
#
# Coordination Sequence:
#
# PCOD8087192 Si02
#       8
#     8   8   8   8   8   8   8   8
#     4   9  18  33  51  69  89 115 148 184 225 273
#     4  11  19  26  40  64  89 114 146 185 223 262
#     4   9  15  22  33  51  75 102 136 178 215 252
#     4   9  17  30  49  68  90 119 146 181 227 271
#     4   9  16  25  36  50  75 111 146 177 212 258
#     4  12  24  36  51  69  90 118 150 189 232 274
#     4  10  19  32  46  61  84 112 147 186 223 267
#     4   8  15  25  38  53  72 104 140 175 214 257
#
# _framework density 16.180544999999999
#
# number of rings (size 3 to 8) (size 9 to 14) (size 15 to 20)
#    0.000    2.375    1.250    4.875    0.000    5.500 
#    0.000    1.250    0.000    0.000    0.000    0.000 
#    0.000    0.000    0.000    1.125    0.000   15.125 
#
# Total GULP energy -396698.431323 kJ/mol
# GULP energy per Si atom -12396.825979 kJ/mol
# Density = 1.614372 g / cm^3
# Si number density = 16.180545 Si / 1000 Ang^3
#
#
#
# Elastic Constant Matrix: (Units=GPa)
#
#
# Indices 1 2 3 4 5 6 
#
# 1 38.3409 30.2355 37.0429 0.0000 4.1167 0.0000
# 2 30.2355 125.4709 67.5080 0.0000 10.5923 0.0000
# 3 37.0429 67.5080 132.8753 0.0000 24.0269 0.0000
# 4 0.0000 0.0000 0.0000 28.9429 0.0000 4.4285
# 5 4.1167 10.5923 24.0269 0.0000 15.3121 0.0000
# 6 0.0000 0.0000 0.0000 4.4285 0.0000 16.9357
#
#
#
# Elastic Compliance Matrix: (Units=1/GPa)
#
#
# Indices 1 2 3 4 5 6 
#
# 1 0.038362 -0.004656 -0.009838 0.000000 0.008344 0.000000
# 2 -0.004656 0.011562 -0.004686 0.000000 0.000606 0.000000
# 3 -0.009838 -0.004686 0.016174 0.000000 -0.019493 0.000000
# 4 0.000000 0.000000 0.000000 0.035991 0.000000 -0.009411
# 5 0.008344 0.000606 -0.019493 0.000000 0.093232 0.000000
# 6 0.000000 0.000000 0.000000 -0.009411 0.000000 0.061508
#
#
# Mechanical properties :
#
#
# Convention : Reuss Voigt Hill
#
# Bulk Modulus (GPa) = 36.05038 62.91779 49.48409
# Shear Modulus (GPa) = 16.42392 23.03152 19.72772
#
# Velocity S-wave (km/s) = 3.18943 3.77690 3.49553
# Velocity P-wave (km/s) = 5.99097 7.61507 6.85131
#
# Compressibility (1/GPa) = 0.02773896
#
# Stress axis : x y z
#
# Youngs Moduli (GPa) = 26.06720 86.49174 61.82778
#
# Poissons Ratio (x) = 0.40266 0.60828
# Poissons Ratio (y) = 0.12136 0.28971
# Poissons Ratio (z) = 0.25646 0.40528
#
# Static dielectric constant tensor:
#      x y z
#    x 2.571520 0.000000 0.307710 
#    y 0.000000 3.150870 0.000000 
#    z 0.307710 0.000000 3.366130 
# 
# 
# High freq. dielectric constant tensor:
#      x y z
#    x 1.546150 0.000000 0.034040 
#    y 0.000000 1.632880 0.000000 
#    z 0.034040 0.000000 1.632240 
# 
# From -- ./inp_files/348615.got.cif
#   From: 2010.06.25/outbox.cif.g09.slc.cpg/sg12_175_cif.got.tgz:348615.got - 2010.06.28 00:19:55.
