data_PCOD8087084
_publ_section_title
;
Structure prediction by ZEFSAII (Michael W. Deem and Ramdas Pophale) SiO2 
 PCOD8087084
Probable space group: C 2/M
;
_chemical_formula_sum "Si O2"
_cell_formula_units_Z 64
_cell_length_a 28.153460
_cell_length_b 9.605847
_cell_length_c 12.846249
_cell_angle_alpha 90.000000
_cell_angle_beta 87.011997
_cell_angle_gamma 90.000000
_cell_volume 3469.388540
_symmetry_space_group_name_H-M "C 2/M"
_symmetry_group_IT_number 12
_symmetry_cell_setting 'monoclinic'
loop_
_space_group_symop_operation_xyz
x,y,z
-x,y,-z
-x,-y,-z
x,-y,z
1/2+x,1/2+y,z
1/2-x,1/2+y,-z
1/2-x,1/2-y,-z
1/2+x,1/2-y,z
loop_
_atom_site_type_symbol
_atom_site_label
_atom_site_fract_x
_atom_site_fract_y
_atom_site_fract_z
Si Si1 0.550247 0.842403 0.749235
Si Si2 0.197495 0.838042 0.796749
Si Si3 0.472043 0.165204 0.601618
Si Si4 0.451363 0.340503 0.054197
Si Si5 0.307605 0.836809 0.804249
Si Si6 0.133877 0.334762 0.400125
Si Si7 0.352171 0.840974 0.371069
Si Si8 0.148812 0.840772 0.017106
O O1 0.500769 0.794315 0.702621
O O2 0.562852 0.743786 0.842628
O O3 0.591878 0.830181 0.659592
O O4 0.546299 0.000000 0.791375
O O5 0.252322 0.801205 0.807554
O O6 0.179225 0.753313 0.700201
O O7 0.189702 0.000000 0.773145
O O8 0.169276 0.792927 0.903224
O O9 0.500000 0.229661 0.500000
O O10 0.418858 0.227727 0.614316
O O11 0.470031 0.000000 0.589470
O O12 0.458500 0.500000 0.087069
O O13 0.500000 0.280209 0.000000
O O14 0.408384 0.325483 0.977017
O O15 0.331164 0.782025 0.694589
O O16 0.330843 0.758217 0.897638
O O17 0.316987 0.000000 0.819341
O O18 0.130597 0.500000 0.400644
O O19 0.154284 0.286325 0.509712
O O20 0.334619 0.000000 0.360878
O O21 0.164026 0.000000 0.038101
#
# Coordination Sequence:
#
# PCOD8087084 Si02
#       8
#     8   8   8   8   8   8   8   8
#     4  10  19  31  53  83 106 133 179 224 256 304
#     4  10  21  38  57  78 105 140 180 222 273 325
#     4   9  15  27  49  76 106 137 166 202 255 311
#     4  10  22  38  54  75 108 147 175 207 267 326
#     4  10  22  37  56  81 107 138 178 226 274 317
#     4   9  18  33  51  78 114 142 170 218 273 317
#     4  10  19  33  56  83 109 140 180 221 263 316
#     4  10  21  38  57  76 105 143 179 218 266 322
#
# _framework density 18.447054999999999
#
# number of rings (size 3 to 8) (size 9 to 14) (size 15 to 20)
#    0.000    2.250    2.500    0.375    1.750    2.250 
#    0.000    0.625    0.000    1.125    0.000    0.000 
#    0.000    0.000    0.000    0.000    0.000    0.000 
#
# Total GULP energy -396821.533135 kJ/mol
# GULP energy per Si atom -12400.672910 kJ/mol
# Density = 1.840507 g / cm^3
# Si number density = 18.447055 Si / 1000 Ang^3
#
#
#
# Elastic Constant Matrix: (Units=GPa)
#
#
# Indices 1 2 3 4 5 6 
#
# 1 118.5409 36.2633 60.9172 0.0000 2.4184 0.0000
# 2 36.2633 48.9017 49.2455 0.0000 11.5191 0.0000
# 3 60.9172 49.2455 119.9038 0.0000 13.7235 0.0000
# 4 0.0000 0.0000 0.0000 18.1985 0.0000 4.3960
# 5 2.4184 11.5191 13.7235 0.0000 30.0197 0.0000
# 6 0.0000 0.0000 0.0000 4.3960 0.0000 14.1467
#
#
#
# Elastic Compliance Matrix: (Units=1/GPa)
#
#
# Indices 1 2 3 4 5 6 
#
# 1 0.012277 -0.005448 -0.004353 0.000000 0.003092 0.000000
# 2 -0.005448 0.038835 -0.012163 0.000000 -0.008902 0.000000
# 3 -0.004353 -0.012163 0.015800 0.000000 -0.002205 0.000000
# 4 0.000000 0.000000 0.000000 0.059409 0.000000 -0.018461
# 5 0.003092 -0.008902 -0.002205 0.000000 0.037486 0.000000
# 6 0.000000 0.000000 0.000000 -0.018461 0.000000 0.076425
#
#
# Mechanical properties :
#
#
# Convention : Reuss Voigt Hill
#
# Bulk Modulus (GPa) = 43.51218 64.46648 53.98933
# Shear Modulus (GPa) = 17.13380 21.86765 19.50072
#
# Velocity S-wave (km/s) = 3.05094 3.44674 3.25486
# Velocity P-wave (km/s) = 6.00415 7.13180 6.59213
#
# Compressibility (1/GPa) = 0.02298207
#
# Stress axis : x y z
#
# Youngs Moduli (GPa) = 81.45532 25.75018 63.29268
#
# Poissons Ratio (x) = 0.14029 0.27554
# Poissons Ratio (y) = 0.44377 0.76983
# Poissons Ratio (z) = 0.35461 0.31320
#
# Static dielectric constant tensor:
#      x y z
#    x 3.620970 0.000000 -0.129430 
#    y 0.000000 3.078000 0.000000 
#    z -0.129430 0.000000 3.380570 
# 
# 
# High freq. dielectric constant tensor:
#      x y z
#    x 1.727400 0.000000 0.001340 
#    y 0.000000 1.680400 0.000000 
#    z 0.001340 0.000000 1.717550 
# 
# From -- ./inp_files/187481.got.cif
#   From: 2010.06.25/outbox.cif.g09.slc.cpg/sg12_94_cif.got.tgz:187481.got - 2010.06.28 00:19:55.
