data_PCOD8087008
_publ_section_title
;
Structure prediction by ZEFSAII (Michael W. Deem and Ramdas Pophale) SiO2 
 PCOD8087008
Probable space group: C 2/M
;
_chemical_formula_sum "Si O2"
_cell_formula_units_Z 52
_cell_length_a 28.428500
_cell_length_b 13.118410
_cell_length_c 11.957305
_cell_angle_alpha 90.000000
_cell_angle_beta 138.533458
_cell_angle_gamma 90.000000
_cell_volume 2952.882762
_symmetry_space_group_name_H-M "C 2/M"
_symmetry_group_IT_number 12
_symmetry_cell_setting 'monoclinic'
loop_
_space_group_symop_operation_xyz
x,y,z
-x,y,-z
-x,-y,-z
x,-y,z
1/2+x,1/2+y,z
1/2-x,1/2+y,-z
1/2-x,1/2-y,-z
1/2+x,1/2-y,z
loop_
_atom_site_type_symbol
_atom_site_label
_atom_site_fract_x
_atom_site_fract_y
_atom_site_fract_z
Si Si1 0.142810 0.749254 0.842870
Si Si2 0.723051 0.615512 0.362917
Si Si3 0.259909 0.382901 0.134233
Si Si4 0.046825 0.883082 0.355060
Si Si5 0.695143 0.692305 0.555722
Si Si6 0.106204 0.883300 0.981799
Si Si7 0.500000 0.705338 0.500000
O O1 0.179693 0.811407 0.809359
O O2 0.062958 0.723084 0.660212
O O3 0.183783 0.644778 0.943799
O O4 0.145036 0.817498 0.957301
O O5 0.748012 0.500000 0.383287
O O6 0.714769 0.631507 0.479381
O O7 0.782572 0.689408 0.416269
O O8 0.645908 0.636712 0.169624
O O9 0.276537 0.500000 0.137976
O O10 0.260050 0.362417 0.266937
O O11 0.110866 0.811061 0.429178
O O12 0.028757 0.867243 0.453140
O O13 0.070710 0.000000 0.380970
O O14 0.977467 0.855797 0.156554
O O15 0.113019 0.000000 0.955093
#
# Coordination Sequence:
#
# PCOD8087008 Si02
#       7
#     8   8   8   8   8   8   4
#     4  10  20  34  51  77 106 139 174 215 268 317
#     4  10  21  37  56  79 108 143 181 219 262 312
#     4  11  21  34  53  78 106 138 178 221 266 316
#     4  10  19  31  52  81 110 140 173 217 271 319
#     4  11  21  35  55  83 109 141 177 220 266 314
#     4   9  18  33  52  77 108 139 171 213 267 315
#     4  10  19  32  53  74 112 140 175 216 267 320
#
# _framework density 17.609908999999998
#
# number of rings (size 3 to 8) (size 9 to 14) (size 15 to 20)
#    0.000    1.846    3.077    2.077    0.000    1.846 
#    0.000    2.692    0.000    3.692    0.000    2.154 
#    0.000    0.000    0.000    0.000    0.000    0.000 
#
# Total GULP energy -322383.719292 kJ/mol
# GULP energy per Si atom -12399.373819 kJ/mol
# Density = 1.756983 g / cm^3
# Si number density = 17.609909 Si / 1000 Ang^3
#
#
#
# Elastic Constant Matrix: (Units=GPa)
#
#
# Indices 1 2 3 4 5 6 
#
# 1 77.2863 37.3942 44.8321 0.0000 7.0069 0.0000
# 2 37.3942 72.9443 46.0146 0.0000 4.6127 0.0000
# 3 44.8321 46.0146 126.4781 0.0000 3.6007 0.0000
# 4 0.0000 0.0000 0.0000 20.4650 0.0000 -0.1196
# 5 7.0069 4.6127 3.6007 0.0000 29.9571 0.0000
# 6 0.0000 0.0000 0.0000 -0.1196 0.0000 17.0035
#
#
#
# Elastic Compliance Matrix: (Units=1/GPa)
#
#
# Indices 1 2 3 4 5 6 
#
# 1 0.018937 -0.006935 -0.004108 0.000000 -0.002868 0.000000
# 2 -0.006935 0.020449 -0.004955 0.000000 -0.000931 0.000000
# 3 -0.004108 -0.004955 0.011154 0.000000 0.000383 0.000000
# 4 0.000000 0.000000 0.000000 0.048866 0.000000 0.000344
# 5 -0.002868 -0.000931 0.000383 0.000000 0.034149 0.000000
# 6 0.000000 0.000000 0.000000 0.000344 0.000000 0.058814
#
#
# Mechanical properties :
#
#
# Convention : Reuss Voigt Hill
#
# Bulk Modulus (GPa) = 53.92402 59.24339 56.58370
# Shear Modulus (GPa) = 21.68755 23.38297 22.53526
#
# Velocity S-wave (km/s) = 3.51316 3.64789 3.58116
# Velocity P-wave (km/s) = 6.86617 7.17342 7.02147
#
# Compressibility (1/GPa) = 0.01854461
#
# Stress axis : x y z
#
# Youngs Moduli (GPa) = 52.80557 48.90234 89.65171
#
# Poissons Ratio (x) = 0.33916 0.36827
# Poissons Ratio (y) = 0.36623 0.44420
# Poissons Ratio (z) = 0.21691 0.24230
#
# Static dielectric constant tensor:
#      x y z
#    x 3.190310 0.000000 -0.003560 
#    y 0.000000 3.082910 0.000000 
#    z -0.003560 0.000000 3.609850 
# 
# 
# High freq. dielectric constant tensor:
#      x y z
#    x 1.674340 0.000000 -0.007020 
#    y 0.000000 1.653560 0.000000 
#    z -0.007020 0.000000 1.699230 
# 
# From -- ./inp_files/155422.got.cif
#   From: 2010.06.25/outbox.cif.g09.slc.cpg/sg12_78_cif.got.tgz:155422.got - 2010.06.28 00:19:55.
