data_PCOD8087956
_publ_section_title
;
Structure prediction by ZEFSAII (Michael W. Deem and Ramdas Pophale) SiO2 
 PCOD8087956
Probable space group: C 2/M
;
_chemical_formula_sum "Si O2"
_cell_formula_units_Z 64
_cell_length_a 18.570448
_cell_length_b 8.827412
_cell_length_c 20.605452
_cell_angle_alpha 90.000000
_cell_angle_beta 89.476140
_cell_angle_gamma 90.000000
_cell_volume 3377.689863
_symmetry_space_group_name_H-M "C 2/M"
_symmetry_group_IT_number 12
_symmetry_cell_setting 'monoclinic'
loop_
_space_group_symop_operation_xyz
x,y,z
-x,y,-z
-x,-y,-z
x,-y,z
1/2+x,1/2+y,z
1/2-x,1/2+y,-z
1/2-x,1/2-y,-z
1/2+x,1/2-y,z
loop_
_atom_site_type_symbol
_atom_site_label
_atom_site_fract_x
_atom_site_fract_y
_atom_site_fract_z
Si Si1 0.916331 0.176338 0.491565
Si Si2 0.418363 0.320203 0.119305
Si Si3 0.920596 0.820204 0.874640
Si Si4 0.336961 0.178421 0.376066
Si Si5 0.174420 0.178146 0.388384
Si Si6 0.327865 0.679675 0.755554
Si Si7 0.671418 0.680151 0.002980
Si Si8 0.324788 0.320611 0.241050
O O1 0.893676 0.267247 0.428329
O O2 0.875163 0.247451 0.554419
O O3 0.000000 0.203640 0.500000
O O4 0.897700 0.000000 0.481848
O O5 0.422227 0.500000 0.116250
O O6 0.499278 0.252168 0.117831
O O7 0.379296 0.266041 0.184930
O O8 0.374381 0.259487 0.057787
O O9 0.888724 0.767300 0.805565
O O10 0.869171 0.760618 0.932355
O O11 0.924298 0.000000 0.877616
O O12 0.256929 0.227289 0.399482
O O13 0.355792 0.257014 0.308036
O O14 0.341992 0.000000 0.366052
O O15 0.149113 0.233835 0.317089
O O16 0.165474 0.000000 0.391657
O O17 0.315669 0.500000 0.757041
O O18 0.253032 0.755380 0.776200
O O19 0.678417 0.500000 0.002201
O O20 0.750000 0.750000 0.000000
O O21 0.319607 0.500000 0.245371
#
# Coordination Sequence:
#
# PCOD8087956 Si02
#       8
#     8   8   8   8   8   8   8   8
#     4  10  20  33  51  76 103 130 163 205 251 297
#     4   9  18  31  49  75 103 131 167 210 251 293
#     4   9  17  30  51  76 101 133 170 205 245 295
#     4  10  20  35  54  73  98 132 168 206 245 294
#     4   8  16  31  50  72  97 127 163 202 243 288
#     4   9  17  31  51  73  98 129 165 203 243 294
#     4  10  19  32  52  76 102 133 170 211 250 293
#     4  10  19  32  52  75  99 128 164 208 252 294
#
# _framework density 18.947861
#
# number of rings (size 3 to 8) (size 9 to 14) (size 15 to 20)
#    0.000    2.625    0.000    3.000    0.000    2.750 
#    0.000    6.875    0.000    8.250    0.000    0.000 
#    0.000    0.000    0.000    0.000    0.000    0.000 
#
# Total GULP energy -396771.245520 kJ/mol
# GULP energy per Si atom -12399.101422 kJ/mol
# Density = 1.890473 g / cm^3
# Si number density = 18.947861 Si / 1000 Ang^3
#
#
#
# Elastic Constant Matrix: (Units=GPa)
#
#
# Indices 1 2 3 4 5 6 
#
# 1 124.4353 23.9555 75.6539 0.0000 11.0991 0.0000
# 2 23.9555 33.1560 26.4579 0.0000 2.4737 0.0000
# 3 75.6539 26.4579 138.9408 0.0000 12.3924 0.0000
# 4 0.0000 0.0000 0.0000 16.4806 0.0000 0.0330
# 5 11.0991 2.4737 12.3924 0.0000 31.0269 0.0000
# 6 0.0000 0.0000 0.0000 0.0330 0.0000 23.5768
#
#
#
# Elastic Compliance Matrix: (Units=1/GPa)
#
#
# Indices 1 2 3 4 5 6 
#
# 1 0.012598 -0.004271 -0.005884 0.000000 -0.001816 0.000000
# 2 -0.004271 0.037013 -0.004766 0.000000 0.000480 0.000000
# 3 -0.005884 -0.004766 0.011497 0.000000 -0.002107 0.000000
# 4 0.000000 0.000000 0.000000 0.060678 0.000000 -0.000085
# 5 -0.001816 0.000480 -0.002107 0.000000 0.033683 0.000000
# 6 0.000000 0.000000 0.000000 -0.000085 0.000000 0.042415
#
#
# Mechanical properties :
#
#
# Convention : Reuss Voigt Hill
#
# Bulk Modulus (GPa) = 31.98344 60.96295 46.47320
# Shear Modulus (GPa) = 20.99539 25.58118 23.28828
#
# Velocity S-wave (km/s) = 3.33237 3.67833 3.50962
# Velocity P-wave (km/s) = 5.63228 7.09113 6.40338
#
# Compressibility (1/GPa) = 0.03126618
#
# Stress axis : x y z
#
# Youngs Moduli (GPa) = 79.37682 27.01731 86.98052
#
# Poissons Ratio (x) = 0.11539 0.51183
# Poissons Ratio (y) = 0.33902 0.41451
# Poissons Ratio (z) = 0.46709 0.12875
#
# Static dielectric constant tensor:
#      x y z
#    x 3.555560 0.000000 -0.040130 
#    y 0.000000 3.079650 0.000000 
#    z -0.040130 0.000000 3.806790 
# 
# 
# High freq. dielectric constant tensor:
#      x y z
#    x 1.737570 0.000000 0.001180 
#    y 0.000000 1.695120 0.000000 
#    z 0.001180 0.000000 1.755150 
# 
# From -- ./inp_files/314016.got.cif
#   From: 2010.06.25/outbox.cif.g09.slc.cpg/sg12_158_cif.got.tgz:314016.got - 2010.06.28 00:19:55.
