data_PCOD8087347
_publ_section_title
;
Structure prediction by ZEFSAII (Michael W. Deem and Ramdas Pophale) SiO2 
 PCOD8087347
Probable space group: C 2/M
;
_chemical_formula_sum "Si O2"
_cell_formula_units_Z 64
_cell_length_a 24.335531
_cell_length_b 9.284743
_cell_length_c 20.652626
_cell_angle_alpha 90.000000
_cell_angle_beta 128.407924
_cell_angle_gamma 90.000000
_cell_volume 3656.660189
_symmetry_space_group_name_H-M "C 2/M"
_symmetry_group_IT_number 12
_symmetry_cell_setting 'monoclinic'
loop_
_space_group_symop_operation_xyz
x,y,z
-x,y,-z
-x,-y,-z
x,-y,z
1/2+x,1/2+y,z
1/2-x,1/2+y,-z
1/2-x,1/2-y,-z
1/2+x,1/2-y,z
loop_
_atom_site_type_symbol
_atom_site_label
_atom_site_fract_x
_atom_site_fract_y
_atom_site_fract_z
Si Si1 0.523820 0.167985 0.197636
Si Si2 0.327192 0.167514 0.738063
Si Si3 0.825107 0.831598 0.385708
Si Si4 0.954150 0.169918 0.028931
Si Si5 0.041951 0.669149 0.714676
Si Si6 0.330524 0.664457 0.239422
Si Si7 0.453937 0.169648 0.527437
Si Si8 0.329525 0.832399 0.883581
O O1 0.607623 0.198581 0.261351
O O2 0.493611 0.215339 0.244341
O O3 0.509642 0.000000 0.171978
O O4 0.489583 0.265359 0.118166
O O5 0.253813 0.224365 0.654236
O O6 0.342589 0.230647 0.820783
O O7 0.313534 0.000000 0.741036
O O8 0.838438 0.794044 0.320407
O O9 0.878486 0.744906 0.469738
O O10 0.835273 0.000000 0.407161
O O11 0.877154 0.239286 0.966637
O O12 0.946876 0.000000 0.032177
O O13 0.000000 0.211831 0.000000
O O14 0.052720 0.500000 0.717852
O O15 0.118382 0.739224 0.766451
O O16 0.992558 0.723689 0.620376
O O17 0.352303 0.500000 0.244886
O O18 0.251545 0.690998 0.156811
O O19 0.500000 0.218836 0.500000
O O20 0.441501 0.000000 0.518639
O O21 0.350896 0.000000 0.905094
#
# Coordination Sequence:
#
# PCOD8087347 Si02
#       8
#     8   8   8   8   8   8   8   8
#     4  10  20  36  57  75  99 140 179 210 248 306
#     4   8  15  30  52  76 100 128 168 215 253 290
#     4   9  17  30  51  78 101 127 171 216 253 300
#     4  11  22  34  51  81 112 133 163 211 261 307
#     4  10  21  35  52  76 104 138 178 210 252 312
#     4   9  18  32  52  78 105 132 169 216 258 298
#     4  10  19  32  49  73 106 138 169 211 258 301
#     4   9  17  32  55  79 100 131 175 212 249 303
#
# _framework density 17.502309
#
# number of rings (size 3 to 8) (size 9 to 14) (size 15 to 20)
#    0.000    2.500    2.500    1.875    0.000    2.250 
#    0.000    3.750    0.000    0.000    0.000    0.000 
#    0.000    0.000    0.000    0.000    0.000    0.000 
#
# Total GULP energy -396770.376457 kJ/mol
# GULP energy per Si atom -12399.074264 kJ/mol
# Density = 1.746247 g / cm^3
# Si number density = 17.502309 Si / 1000 Ang^3
#
#
#
# Elastic Constant Matrix: (Units=GPa)
#
#
# Indices 1 2 3 4 5 6 
#
# 1 124.3689 45.4799 62.2556 0.0000 6.1353 0.0000
# 2 45.4799 50.5520 47.7535 0.0000 4.9010 0.0000
# 3 62.2556 47.7535 108.0226 0.0000 9.2644 0.0000
# 4 0.0000 0.0000 0.0000 22.2880 0.0000 3.3114
# 5 6.1353 4.9010 9.2644 0.0000 29.1392 0.0000
# 6 0.0000 0.0000 0.0000 3.3114 0.0000 21.0265
#
#
#
# Elastic Compliance Matrix: (Units=1/GPa)
#
#
# Indices 1 2 3 4 5 6 
#
# 1 0.012898 -0.007864 -0.003945 0.000000 -0.000139 0.000000
# 2 -0.007864 0.038786 -0.012539 0.000000 -0.000881 0.000000
# 3 -0.003945 -0.012539 0.017293 0.000000 -0.002559 0.000000
# 4 0.000000 0.000000 0.000000 0.045942 0.000000 -0.007235
# 5 -0.000139 -0.000881 -0.002559 0.000000 0.035309 0.000000
# 6 0.000000 0.000000 0.000000 -0.007235 0.000000 0.048698
#
#
# Mechanical properties :
#
#
# Convention : Reuss Voigt Hill
#
# Bulk Modulus (GPa) = 49.30318 65.99128 57.64723
# Shear Modulus (GPa) = 19.65544 22.98772 21.32158
#
# Velocity S-wave (km/s) = 3.35478 3.62803 3.49408
# Velocity P-wave (km/s) = 6.57547 7.43884 7.02044
#
# Compressibility (1/GPa) = 0.02028267
#
# Stress axis : x y z
#
# Youngs Moduli (GPa) = 77.53216 25.78242 57.82562
#
# Poissons Ratio (x) = 0.20274 0.22813
# Poissons Ratio (y) = 0.60968 0.72505
# Poissons Ratio (z) = 0.30588 0.32328
#
# Static dielectric constant tensor:
#      x y z
#    x 3.253390 0.000000 0.162340 
#    y 0.000000 3.030270 0.000000 
#    z 0.162340 0.000000 3.192020 
# 
# 
# High freq. dielectric constant tensor:
#      x y z
#    x 1.670790 0.000000 0.021040 
#    y 0.000000 1.658970 0.000000 
#    z 0.021040 0.000000 1.669590 
# 
# From -- ./inp_files/320125.got.cif
#   From: 2010.06.25/outbox.cif.g09.slc.cpg/sg12_161_cif.got.tgz:320125.got - 2010.06.28 00:19:55.
