data_PCOD8087589
_publ_section_title
;
Structure prediction by ZEFSAII (Michael W. Deem and Ramdas Pophale) SiO2 
 PCOD8087589
Probable space group: C 2/M
;
_chemical_formula_sum "Si O2"
_cell_formula_units_Z 56
_cell_length_a 28.721336
_cell_length_b 9.476749
_cell_length_c 14.312614
_cell_angle_alpha 90.000000
_cell_angle_beta 59.888816
_cell_angle_gamma 90.000000
_cell_volume 3369.969323
_symmetry_space_group_name_H-M "C 2/M"
_symmetry_group_IT_number 12
_symmetry_cell_setting 'monoclinic'
loop_
_space_group_symop_operation_xyz
x,y,z
-x,y,-z
-x,-y,-z
x,-y,z
1/2+x,1/2+y,z
1/2-x,1/2+y,-z
1/2-x,1/2-y,-z
1/2+x,1/2-y,z
loop_
_atom_site_type_symbol
_atom_site_label
_atom_site_fract_x
_atom_site_fract_y
_atom_site_fract_z
Si Si1 0.576167 0.840401 0.669203
Si Si2 0.048881 0.164307 0.389226
Si Si3 0.441976 0.661611 0.023291
Si Si4 0.142947 0.657987 0.782259
Si Si5 0.976245 0.162451 0.789217
Si Si6 0.869865 0.836758 0.541796
Si Si7 0.746611 0.334477 0.407092
O O1 0.624200 0.838055 0.694266
O O2 0.526588 0.759246 0.765630
O O3 0.593446 0.758397 0.560161
O O4 0.559927 0.000000 0.659133
O O5 0.049663 0.221097 0.281527
O O6 0.107382 0.193493 0.376774
O O7 0.000000 0.232400 0.500000
O O8 0.037219 0.000000 0.394968
O O9 0.437304 0.500000 0.060643
O O10 0.391542 0.742270 0.117138
O O11 0.500000 0.721135 0.000000
O O12 0.435680 0.677234 0.917437
O O13 0.138082 0.500000 0.828095
O O14 0.205202 0.707040 0.712534
O O15 0.995103 0.000000 0.760847
O O16 0.807500 0.795125 0.595254
O O17 0.878861 0.000000 0.505081
O O18 0.749131 0.500000 0.429623
O O19 0.750000 0.250000 0.500000
#
# Coordination Sequence:
#
# PCOD8087589 Si02
#       7
#     8   8   8   8   8   8   8
#     4  11  20  29  46  73 104 131 159 195 240 292
#     4   9  16  28  50  75  96 125 163 200 242 286
#     4  10  20  32  50  74  96 124 164 205 242 283
#     4  10  21  34  47  69 102 133 160 194 241 296
#     4  10  19  33  50  71 101 129 162 203 240 288
#     4  10  19  32  51  72  97 132 167 198 236 286
#     4  10  20  33  50  73  99 129 164 200 241 288
#
# _framework density 16.617362
#
# number of rings (size 3 to 8) (size 9 to 14) (size 15 to 20)
#    0.000    2.000    4.286    0.429    0.000    2.000 
#    0.000    1.429    0.000    0.857    0.000    0.000 
#    0.000    0.000    0.000    0.000    0.000    0.000 
#
# Total GULP energy -347064.546072 kJ/mol
# GULP energy per Si atom -12395.162360 kJ/mol
# Density = 1.657954 g / cm^3
# Si number density = 16.617362 Si / 1000 Ang^3
#
#
#
# Elastic Constant Matrix: (Units=GPa)
#
#
# Indices 1 2 3 4 5 6 
#
# 1 98.8856 25.0331 46.6761 0.0000 -3.2750 0.0000
# 2 25.0331 58.9059 37.7777 0.0000 -8.1303 0.0000
# 3 46.6761 37.7777 101.7181 0.0000 -2.2434 0.0000
# 4 0.0000 0.0000 0.0000 25.8563 0.0000 -2.7392
# 5 -3.2750 -8.1303 -2.2434 0.0000 28.3568 0.0000
# 6 0.0000 0.0000 0.0000 -2.7392 0.0000 15.0016
#
#
#
# Elastic Compliance Matrix: (Units=1/GPa)
#
#
# Indices 1 2 3 4 5 6 
#
# 1 0.013139 -0.002176 -0.005211 0.000000 0.000481 0.000000
# 2 -0.002176 0.023619 -0.007643 0.000000 0.005916 0.000000
# 3 -0.005211 -0.007643 0.015025 0.000000 -0.001604 0.000000
# 4 0.000000 0.000000 0.000000 0.039438 0.000000 0.007201
# 5 0.000481 0.005916 -0.001604 0.000000 0.036890 0.000000
# 6 0.000000 0.000000 0.000000 0.007201 0.000000 0.067974
#
#
# Mechanical properties :
#
#
# Convention : Reuss Voigt Hill
#
# Bulk Modulus (GPa) = 46.03051 53.16484 49.59767
# Shear Modulus (GPa) = 21.42375 23.84445 22.63410
#
# Velocity S-wave (km/s) = 3.59449 3.79213 3.69463
# Velocity P-wave (km/s) = 6.70728 7.15798 6.93629
#
# Compressibility (1/GPa) = 0.02172472
#
# Stress axis : x y z
#
# Youngs Moduli (GPa) = 76.11007 42.33858 66.55411
#
# Poissons Ratio (x) = 0.09211 0.34678
# Poissons Ratio (y) = 0.16558 0.50869
# Poissons Ratio (z) = 0.39657 0.32360
#
# Static dielectric constant tensor:
#      x y z
#    x 3.250110 0.000000 0.046020 
#    y 0.000000 3.066040 0.000000 
#    z 0.046020 0.000000 3.058610 
# 
# 
# High freq. dielectric constant tensor:
#      x y z
#    x 1.631950 0.000000 0.002250 
#    y 0.000000 1.626850 0.000000 
#    z 0.002250 0.000000 1.626390 
# 
# From -- ./inp_files/237439.got.cif
#   From: 2010.06.25/outbox.cif.g09.slc.cpg/sg12_119_cif.got.tgz:237439.got - 2010.06.28 00:19:55.
