data_PCOD8087191
_publ_section_title
;
Structure prediction by ZEFSAII (Michael W. Deem and Ramdas Pophale) SiO2 
 PCOD8087191
Probable space group: C 2/M
;
_chemical_formula_sum "Si O2"
_cell_formula_units_Z 56
_cell_length_a 9.337466
_cell_length_b 25.361343
_cell_length_c 17.902747
_cell_angle_alpha 90.000000
_cell_angle_beta 46.166764
_cell_angle_gamma 90.000000
_cell_volume 3058.244302
_symmetry_space_group_name_H-M "C 2/M"
_symmetry_group_IT_number 12
_symmetry_cell_setting 'monoclinic'
loop_
_space_group_symop_operation_xyz
x,y,z
-x,y,-z
-x,-y,-z
x,-y,z
1/2+x,1/2+y,z
1/2-x,1/2+y,-z
1/2-x,1/2-y,-z
1/2+x,1/2-y,z
loop_
_atom_site_type_symbol
_atom_site_label
_atom_site_fract_x
_atom_site_fract_y
_atom_site_fract_z
Si Si1 0.417880 0.438789 0.111896
Si Si2 0.809776 0.859104 0.914327
Si Si3 0.589612 0.837240 0.853070
Si Si4 0.270411 0.786506 0.590827
Si Si5 0.202034 0.169096 0.465646
Si Si6 0.845613 0.784800 0.199815
Si Si7 0.452111 0.865481 0.746884
O O1 0.400214 0.500000 0.136597
O O2 0.579194 0.414099 0.109810
O O3 0.198798 0.414390 0.202486
O O4 0.500000 0.427566 0.000000
O O5 0.765444 0.859772 0.841594
O O6 0.945343 0.811173 0.893910
O O7 0.614101 0.849690 0.032319
O O8 0.640669 0.776037 0.824114
O O9 0.580559 0.865986 0.776678
O O10 0.500000 0.798933 0.500000
O O11 0.161443 0.824233 0.569146
O O12 0.225060 0.725497 0.591935
O O13 0.198333 0.800121 0.698828
O O14 0.384750 0.130013 0.378975
O O15 0.000000 0.149404 0.500000
O O16 0.672893 0.810853 0.211678
#
# Coordination Sequence:
#
# PCOD8087191 Si02
#       7
#     8   8   8   8   8   8   8
#     4  10  21  42  65  82 104 139 188 242 290 344
#     4  10  23  36  52  80 113 151 188 225 276 337
#     4  11  21  34  49  83 120 149 185 221 272 332
#     4  10  19  32  45  74 109 153 194 217 254 311
#     4  10  21  31  50  75 114 149 190 232 265 315
#     4  11  21  32  53  75 118 164 186 220 256 328
#     4  11  21  35  56  82 112 152 192 227 277 334
#
# _framework density 18.311160000000001
#
# number of rings (size 3 to 8) (size 9 to 14) (size 15 to 20)
#    0.000    1.571    4.286    1.286    2.000    1.143 
#    0.000    2.143    0.000    0.429    0.000    8.000 
#    0.000    0.000    0.000    0.000    0.000    0.000 
#
# Total GULP energy -347130.520356 kJ/mol
# GULP energy per Si atom -12397.518584 kJ/mol
# Density = 1.826948 g / cm^3
# Si number density = 18.311160 Si / 1000 Ang^3
#
#
#
# Elastic Constant Matrix: (Units=GPa)
#
#
# Indices 1 2 3 4 5 6 
#
# 1 123.1797 49.7059 29.8302 0.0000 3.1372 0.0000
# 2 49.7059 93.3076 40.4884 0.0000 -3.3394 0.0000
# 3 29.8302 40.4884 53.6985 0.0000 -6.3184 0.0000
# 4 0.0000 0.0000 0.0000 14.8232 0.0000 1.3459
# 5 3.1372 -3.3394 -6.3184 0.0000 34.1414 0.0000
# 6 0.0000 0.0000 0.0000 1.3459 0.0000 13.0473
#
#
#
# Elastic Compliance Matrix: (Units=1/GPa)
#
#
# Indices 1 2 3 4 5 6 
#
# 1 0.010670 -0.004581 -0.002700 0.000000 -0.001928 0.000000
# 2 -0.004581 0.017911 -0.010943 0.000000 0.000148 0.000000
# 3 -0.002700 -0.010943 0.028906 0.000000 0.004527 0.000000
# 4 0.000000 0.000000 0.000000 0.068100 0.000000 -0.007025
# 5 -0.001928 0.000148 0.004527 0.000000 0.030319 0.000000
# 6 0.000000 0.000000 0.000000 -0.007025 0.000000 0.077369
#
#
# Mechanical properties :
#
#
# Convention : Reuss Voigt Hill
#
# Bulk Modulus (GPa) = 47.53031 56.69275 52.11153
# Shear Modulus (GPa) = 18.06775 22.41311 20.24043
#
# Velocity S-wave (km/s) = 3.14460 3.50239 3.32830
# Velocity P-wave (km/s) = 6.26083 6.88357 6.57958
#
# Compressibility (1/GPa) = 0.02103921
#
# Stress axis : x y z
#
# Youngs Moduli (GPa) = 93.72212 55.83022 34.59529
#
# Poissons Ratio (x) = 0.25579 0.09340
# Poissons Ratio (y) = 0.42939 0.37857
# Poissons Ratio (z) = 0.25302 0.61093
#
# Static dielectric constant tensor:
#      x y z
#    x 3.808410 0.000000 0.079500 
#    y 0.000000 2.931900 0.000000 
#    z 0.079500 0.000000 3.526520 
# 
# 
# High freq. dielectric constant tensor:
#      x y z
#    x 1.733800 0.000000 -0.003870 
#    y 0.000000 1.647730 0.000000 
#    z -0.003870 0.000000 1.715620 
# 
# From -- ./inp_files/199428.got.cif
#   From: 2010.06.25/outbox.cif.g09.slc.cpg/sg12_100_cif.got.tgz:199428.got - 2010.06.28 00:19:55.
