data_PCOD8087860
_publ_section_title
;
Structure prediction by ZEFSAII (Michael W. Deem and Ramdas Pophale) SiO2 
 PCOD8087860
Probable space group: C 2/M
;
_chemical_formula_sum "Si O2"
_cell_formula_units_Z 56
_cell_length_a 17.825507
_cell_length_b 16.062536
_cell_length_c 17.248390
_cell_angle_alpha 90.000000
_cell_angle_beta 38.553994
_cell_angle_gamma 90.000000
_cell_volume 3077.996757
_symmetry_space_group_name_H-M "C 2/M"
_symmetry_group_IT_number 12
_symmetry_cell_setting 'monoclinic'
loop_
_space_group_symop_operation_xyz
x,y,z
-x,y,-z
-x,-y,-z
x,-y,z
1/2+x,1/2+y,z
1/2-x,1/2+y,-z
1/2-x,1/2-y,-z
1/2+x,1/2-y,z
loop_
_atom_site_type_symbol
_atom_site_label
_atom_site_fract_x
_atom_site_fract_y
_atom_site_fract_z
Si Si1 0.860954 0.090530 0.595637
Si Si2 0.832220 0.403745 0.738465
Si Si3 0.292770 0.764380 0.643550
Si Si4 0.062274 0.183794 0.745732
Si Si5 0.448402 0.807802 0.374245
Si Si6 0.925228 0.904737 0.985967
Si Si7 0.273719 0.409054 0.494525
O O1 0.804835 0.174899 0.679410
O O2 0.842431 0.100733 0.519235
O O3 0.000000 0.088206 0.500000
O O4 0.805323 0.000000 0.668376
O O5 0.848219 0.500000 0.698186
O O6 0.814614 0.344576 0.679064
O O7 0.948715 0.375272 0.692309
O O8 0.716716 0.395257 0.886638
O O9 0.158703 0.764792 0.718381
O O10 0.398206 0.766687 0.493520
O O11 0.002008 0.238698 0.725886
O O12 0.132579 0.107023 0.650340
O O13 0.956730 0.150476 0.885920
O O14 0.337003 0.846747 0.418379
O O15 0.961735 0.000000 0.940104
O O16 0.000000 0.872340 0.000000
O O17 0.219646 0.500000 0.525787
#
# Coordination Sequence:
#
# PCOD8087860 Si02
#       7
#     8   8   8   8   8   8   8
#     4  10  19  32  51  79 111 149 189 226 277 335
#     4  11  24  38  59  86 115 154 194 236 285 339
#     4  11  20  36  57  83 118 148 187 231 285 344
#     4  11  20  35  56  82 111 150 187 232 285 341
#     4  11  21  35  52  84 120 146 183 226 294 353
#     4  10  21  39  58  80 109 148 198 246 280 329
#     4  10  19  32  52  80 114 147 179 229 291 342
#
# _framework density 18.193652
#
# number of rings (size 3 to 8) (size 9 to 14) (size 15 to 20)
#    0.000    1.429    4.286    3.000    0.000    4.000 
#    0.000    0.000    0.000    0.000    0.000    3.000 
#    0.000    0.000    0.000    0.000    0.000    0.000 
#
# Total GULP energy -347028.853151 kJ/mol
# GULP energy per Si atom -12393.887613 kJ/mol
# Density = 1.815224 g / cm^3
# Si number density = 18.193652 Si / 1000 Ang^3
#
#
#
# Elastic Constant Matrix: (Units=GPa)
#
#
# Indices 1 2 3 4 5 6 
#
# 1 75.4792 34.7544 29.8332 0.0000 -1.9711 0.0000
# 2 34.7544 141.6581 46.0991 0.0000 8.3236 0.0000
# 3 29.8332 46.0991 78.3715 0.0001 5.8328 -0.0001
# 4 0.0000 0.0000 0.0001 20.0821 0.0000 5.1584
# 5 -1.9711 8.3236 5.8328 0.0000 25.3914 0.0000
# 6 0.0000 0.0000 -0.0001 5.1584 0.0000 34.0916
#
#
#
# Elastic Compliance Matrix: (Units=1/GPa)
#
#
# Indices 1 2 3 4 5 6 
#
# 1 0.016513 -0.002621 -0.004989 0.000000 0.003287 0.000000
# 2 -0.002621 0.009220 -0.004258 0.000000 -0.002248 0.000000
# 3 -0.004989 -0.004258 0.017386 0.000000 -0.002985 0.000000
# 4 0.000000 0.000000 0.000000 0.051809 0.000000 -0.007839
# 5 0.003287 -0.002248 -0.002985 0.000000 0.041061 0.000000
# 6 0.000000 0.000000 0.000000 -0.007839 0.000000 0.030519
#
#
# Mechanical properties :
#
#
# Convention : Reuss Voigt Hill
#
# Bulk Modulus (GPa) = 51.59268 57.43136 54.51202
# Shear Modulus (GPa) = 25.41864 28.23449 26.82657
#
# Velocity S-wave (km/s) = 3.74186 3.94367 3.84409
# Velocity P-wave (km/s) = 6.86205 7.23685 7.05194
#
# Compressibility (1/GPa) = 0.01938260
#
# Stress axis : x y z
#
# Youngs Moduli (GPa) = 60.55749 108.45816 57.51800
#
# Poissons Ratio (x) = 0.28427 0.28695
# Poissons Ratio (y) = 0.15872 0.24493
# Poissons Ratio (z) = 0.30212 0.46186
#
# Static dielectric constant tensor:
#      x y z
#    x 3.372470 0.000000 -0.040910 
#    y 0.000000 3.898670 0.000000 
#    z -0.040910 0.000000 3.061950 
# 
# 
# High freq. dielectric constant tensor:
#      x y z
#    x 1.710570 0.000000 -0.005240 
#    y 0.000000 1.723790 0.000000 
#    z -0.005240 0.000000 1.663840 
# 
# From -- ./inp_files/156158.got.cif
#   From: 2010.06.25/outbox.cif.g09.slc.cpg/sg12_79_cif.got.tgz:156158.got - 2010.06.28 00:19:55.
