data_PCOD8087172
_publ_section_title
;
Structure prediction by ZEFSAII (Michael W. Deem and Ramdas Pophale) SiO2 
 PCOD8087172
Probable space group: C 2/M
;
_chemical_formula_sum "Si O2"
_cell_formula_units_Z 64
_cell_length_a 13.044530
_cell_length_b 22.122621
_cell_length_c 11.012349
_cell_angle_alpha 90.000000
_cell_angle_beta 104.378695
_cell_angle_gamma 90.000000
_cell_volume 3078.387787
_symmetry_space_group_name_H-M "C 2/M"
_symmetry_group_IT_number 12
_symmetry_cell_setting 'monoclinic'
loop_
_space_group_symop_operation_xyz
x,y,z
-x,y,-z
-x,-y,-z
x,-y,z
1/2+x,1/2+y,z
1/2-x,1/2+y,-z
1/2-x,1/2-y,-z
1/2+x,1/2-y,z
loop_
_atom_site_type_symbol
_atom_site_label
_atom_site_fract_x
_atom_site_fract_y
_atom_site_fract_z
Si Si1 0.234306 0.858222 0.815185
Si Si2 0.033731 0.636072 0.383528
Si Si3 0.631395 0.568974 0.311249
Si Si4 0.839638 0.570752 0.251296
Si Si5 0.255093 0.429289 0.411607
Si Si6 0.941456 0.288994 0.854006
Si Si7 0.985166 0.155611 0.133528
Si Si8 0.612041 0.929797 0.992807
O O1 0.194625 0.886267 0.676958
O O2 0.316006 0.802148 0.831309
O O3 0.138837 0.837000 0.872423
O O4 0.298971 0.915988 0.883607
O O5 0.146674 0.602716 0.423669
O O6 0.020039 0.676253 0.257225
O O7 0.000000 0.671622 0.500000
O O8 0.945231 0.583825 0.357017
O O9 0.609613 0.500000 0.265392
O O10 0.733770 0.598833 0.276819
O O11 0.653672 0.572636 0.460662
O O12 0.530119 0.607271 0.241802
O O13 0.821283 0.500000 0.243528
O O14 0.852511 0.600213 0.122364
O O15 0.233547 0.500000 0.369105
O O16 0.955352 0.218663 0.830626
O O17 0.000000 0.305258 0.000000
O O18 0.000000 0.132140 0.000000
O O19 0.596608 0.000000 0.968985
O O20 0.500000 0.900916 0.000000
#
# Coordination Sequence:
#
# PCOD8087172 Si02
#       8
#     8   8   8   8   8   8   8   8
#     4  11  22  40  63  92 121 163 205 256 308 368
#     4  11  20  35  61  98 128 168 210 258 310 368
#     4  10  22  40  60  88 122 159 204 251 305 368
#     4  10  19  31  55  88 126 164 199 250 307 362
#     4  10  21  38  61  93 131 167 203 248 309 376
#     4  10  24  44  64  91 124 163 210 260 315 371
#     4  11  26  45  66  90 117 159 212 260 311 369
#     4  10  19  32  55  91 128 163 201 250 309 368
#
# _framework density 20.790102999999998
#
# number of rings (size 3 to 8) (size 9 to 14) (size 15 to 20)
#    0.000    1.625    1.250    4.125    0.000    6.250 
#    2.250    2.500    0.000    0.375    0.000    0.000 
#    0.000    0.000    0.000    0.000    0.000    0.000 
#
# Total GULP energy -396490.266519 kJ/mol
# GULP energy per Si atom -12390.320829 kJ/mol
# Density = 2.074278 g / cm^3
# Si number density = 20.790103 Si / 1000 Ang^3
#
#
#
# Elastic Constant Matrix: (Units=GPa)
#
#
# Indices 1 2 3 4 5 6 
#
# 1 123.8911 34.4220 45.9453 0.0000 -8.6526 0.0000
# 2 34.4220 86.3809 45.6405 0.0000 5.8864 0.0000
# 3 45.9453 45.6405 112.0118 0.0000 -10.0878 0.0000
# 4 0.0000 0.0000 0.0000 30.1455 0.0000 10.9756
# 5 -8.6526 5.8864 -10.0878 0.0000 37.8247 0.0000
# 6 0.0000 0.0000 0.0000 10.9756 0.0000 28.8537
#
#
#
# Elastic Compliance Matrix: (Units=1/GPa)
#
#
# Indices 1 2 3 4 5 6 
#
# 1 0.009991 -0.002598 -0.002866 0.000000 0.001925 0.000000
# 2 -0.002598 0.016042 -0.005891 0.000000 -0.004662 0.000000
# 3 -0.002866 -0.005891 0.012835 0.000000 0.003684 0.000000
# 4 0.000000 0.000000 0.000000 0.038505 0.000000 -0.014647
# 5 0.001925 -0.004662 0.003684 0.000000 0.028586 0.000000
# 6 0.000000 0.000000 0.000000 -0.014647 0.000000 0.040229
#
#
# Mechanical properties :
#
#
# Convention : Reuss Voigt Hill
#
# Bulk Modulus (GPa) = 61.88705 63.81105 62.84905
# Shear Modulus (GPa) = 28.68876 32.44986 30.56931
#
# Velocity S-wave (km/s) = 3.71876 3.95502 3.83871
# Velocity P-wave (km/s) = 6.94774 7.18442 7.06707
#
# Compressibility (1/GPa) = 0.01615847
#
# Stress axis : x y z
#
# Youngs Moduli (GPa) = 100.09195 62.33611 77.91051
#
# Poissons Ratio (x) = 0.16196 0.22329
# Poissons Ratio (y) = 0.26006 0.45894
# Poissons Ratio (z) = 0.28686 0.36720
#
# Static dielectric constant tensor:
#      x y z
#    x 3.839080 0.000000 -0.347950 
#    y 0.000000 3.474490 0.000000 
#    z -0.347950 0.000000 3.994280 
# 
# 
# High freq. dielectric constant tensor:
#      x y z
#    x 1.813010 0.000000 -0.011460 
#    y 0.000000 1.791970 0.000000 
#    z -0.011460 0.000000 1.826340 
# 
# From -- ./inp_files/135951.got.cif
#   From: 2010.06.25/outbox.cif.g09.slc.cpg/sg12_68_cif.got.tgz:135951.got - 2010.06.28 00:19:55.
