data_PCOD8087010
_publ_section_title
;
Structure prediction by ZEFSAII (Michael W. Deem and Ramdas Pophale) SiO2 
 PCOD8087010
Probable space group: C 2/M
;
_chemical_formula_sum "Si O2"
_cell_formula_units_Z 56
_cell_length_a 29.126500
_cell_length_b 8.815720
_cell_length_c 20.419499
_cell_angle_alpha 90.000000
_cell_angle_beta 32.612308
_cell_angle_gamma 90.000000
_cell_volume 2825.797603
_symmetry_space_group_name_H-M "C 2/M"
_symmetry_group_IT_number 12
_symmetry_cell_setting 'monoclinic'
loop_
_space_group_symop_operation_xyz
x,y,z
-x,y,-z
-x,-y,-z
x,-y,z
1/2+x,1/2+y,z
1/2-x,1/2+y,-z
1/2-x,1/2-y,-z
1/2+x,1/2-y,z
loop_
_atom_site_type_symbol
_atom_site_label
_atom_site_fract_x
_atom_site_fract_y
_atom_site_fract_z
Si Si1 0.195181 0.179126 0.738651
Si Si2 0.986418 0.324333 0.804256
Si Si3 0.954502 0.820128 0.709355
Si Si4 0.370290 0.676001 0.562081
Si Si5 0.824854 0.825136 0.761222
Si Si6 0.146290 0.320948 0.928448
Si Si7 0.329833 0.178446 0.367472
O O1 0.293494 0.226526 0.625343
O O2 0.139822 0.239367 0.866210
O O3 0.155745 0.250090 0.720791
O O4 0.188198 0.000000 0.743169
O O5 0.972427 0.500000 0.805491
O O6 0.944088 0.231230 0.796347
O O7 0.085704 0.284262 0.692177
O O8 0.937435 0.280196 0.929790
O O9 0.877501 0.749686 0.757956
O O10 0.043962 0.760084 0.573382
O O11 0.953259 0.000000 0.706058
O O12 0.353535 0.500000 0.564903
O O13 0.378183 0.698357 0.630534
O O14 0.729782 0.757139 0.866769
O O15 0.814289 0.000000 0.791001
O O16 0.156403 0.500000 0.903141
O O17 0.250000 0.250000 0.500000
O O18 0.315440 0.000000 0.377692
#
# Coordination Sequence:
#
# PCOD8087010 Si02
#       7
#     8   8   8   8   8   8   8
#     4  11  22  36  57  84 111 139 176 224 274 319
#     4  10  23  39  55  77 107 143 181 223 267 318
#     4  10  19  31  52  81 110 143 182 223 266 313
#     4   9  17  32  54  79 110 146 182 219 264 320
#     4   8  15  30  54  80 105 139 183 223 260 313
#     4   9  19  39  60  77 104 144 185 219 261 318
#     4  11  23  40  60  83 111 142 178 218 266 322
#
# _framework density 19.817413999999999
#
# number of rings (size 3 to 8) (size 9 to 14) (size 15 to 20)
#    0.000    2.286    0.000    3.857    0.000    7.429 
#    0.000    5.714    0.000    4.286    0.000    0.000 
#    0.000    0.000    0.000    0.000    0.000    0.000 
#
# Total GULP energy -347205.095658 kJ/mol
# GULP energy per Si atom -12400.181988 kJ/mol
# Density = 1.977231 g / cm^3
# Si number density = 19.817414 Si / 1000 Ang^3
#
#
#
# Elastic Constant Matrix: (Units=GPa)
#
#
# Indices 1 2 3 4 5 6 
#
# 1 95.3481 33.3407 25.8570 -0.0003 17.5267 -0.0007
# 2 33.3407 63.8058 26.9337 -0.0072 4.3595 0.0090
# 3 25.8570 26.9337 100.6591 -0.0121 2.6983 0.0093
# 4 -0.0003 -0.0072 -0.0121 27.6342 0.0067 6.3696
# 5 17.5267 4.3595 2.6983 0.0067 23.2886 -0.0059
# 6 -0.0007 0.0090 0.0093 6.3696 -0.0059 25.9400
#
#
#
# Elastic Compliance Matrix: (Units=1/GPa)
#
#
# Indices 1 2 3 4 5 6 
#
# 1 0.015059 -0.006393 -0.001892 0.000000 -0.009918 0.000001
# 2 -0.006393 0.020562 -0.003897 0.000005 0.001414 -0.000007
# 3 -0.001892 -0.003897 0.011441 0.000005 0.000828 -0.000004
# 4 0.000000 0.000005 0.000005 0.038358 -0.000015 -0.009419
# 5 -0.009918 0.001414 0.000828 -0.000015 0.050043 0.000014
# 6 0.000001 -0.000007 -0.000004 -0.009419 0.000014 0.040863
#
#
# Mechanical properties :
#
#
# Convention : Reuss Voigt Hill
#
# Bulk Modulus (GPa) = 44.05739 48.00842 46.03291
# Shear Modulus (GPa) = 24.00884 26.95134 25.48009
#
# Velocity S-wave (km/s) = 3.48444 3.69180 3.58962
# Velocity P-wave (km/s) = 6.20229 6.51540 6.36077
#
# Compressibility (1/GPa) = 0.02269767
#
# Stress axis : x y z
#
# Youngs Moduli (GPa) = 66.40380 48.63430 87.40332
#
# Poissons Ratio (x) = 0.31091 0.16537
# Poissons Ratio (y) = 0.42450 0.34065
# Poissons Ratio (z) = 0.12564 0.18955
#
# Static dielectric constant tensor:
#      x y z
#    x 3.825360 -0.000010 -0.012320 
#    y -0.000010 3.313180 0.000020 
#    z -0.012320 0.000020 3.638740 
# 
# 
# High freq. dielectric constant tensor:
#      x y z
#    x 1.780480 0.000000 0.002150 
#    y 0.000000 1.744810 0.000000 
#    z 0.002150 0.000000 1.774060 
# 
# From -- ./inp_files/288255.got.cif
#   From: 2010.06.25/outbox.cif.g09.slc.cpg/sg12_145_cif.got.tgz:288255.got - 2010.06.28 00:19:55.
