data_PCOD8087048
_publ_section_title
;
Structure prediction by ZEFSAII (Michael W. Deem and Ramdas Pophale) SiO2 
 PCOD8087048
Probable space group: C 2/M
;
_chemical_formula_sum "Si O2"
_cell_formula_units_Z 48
_cell_length_a 11.021324
_cell_length_b 14.091092
_cell_length_c 26.156450
_cell_angle_alpha 90.000000
_cell_angle_beta 35.359491
_cell_angle_gamma 90.000000
_cell_volume 2350.792221
_symmetry_space_group_name_H-M "C 2/M"
_symmetry_group_IT_number 12
_symmetry_cell_setting 'monoclinic'
loop_
_space_group_symop_operation_xyz
x,y,z
-x,y,-z
-x,-y,-z
x,-y,z
1/2+x,1/2+y,z
1/2-x,1/2+y,-z
1/2-x,1/2-y,-z
1/2+x,1/2-y,z
loop_
_atom_site_type_symbol
_atom_site_label
_atom_site_fract_x
_atom_site_fract_y
_atom_site_fract_z
Si Si1 0.022196 0.734288 0.053027
Si Si2 0.719740 0.897735 0.631306
Si Si3 0.456676 0.709033 0.629223
Si Si4 0.626227 0.889643 0.809801
Si Si5 0.162684 0.606011 0.538622
Si Si6 0.312239 0.107312 0.826850
O O1 0.924221 0.643423 0.115490
O O2 0.890102 0.828099 0.110945
O O3 0.250000 0.750000 0.000000
O O4 0.000000 0.713202 0.000000
O O5 0.853195 0.816859 0.611219
O O6 0.785883 0.905893 0.549734
O O7 0.472600 0.874900 0.724689
O O8 0.762559 0.000000 0.644123
O O9 0.322177 0.673661 0.723260
O O10 0.685171 0.657270 0.554685
O O11 0.472243 0.823345 0.619014
O O12 0.428900 0.870259 0.840455
O O13 0.689036 0.000000 0.788818
O O14 0.090355 0.500000 0.544683
O O15 0.227785 0.000000 0.855908
#
# Coordination Sequence:
#
# PCOD8087048 Si02
#       6
#     8   8   8   8   8   8
#     4  12  24  40  62  92 123 154 196 254 308 367
#     4   9  17  32  56  83 110 146 199 247 285 337
#     4  10  19  32  56  83 115 156 197 244 294 349
#     4  10  21  39  61  84 117 159 204 248 302 367
#     4  10  19  31  52  85 119 152 198 247 291 342
#     4   9  19  37  61  86 114 157 201 244 299 364
#
# _framework density 20.41865
#
# number of rings (size 3 to 8) (size 9 to 14) (size 15 to 20)
#    0.000    2.000    1.667    4.000    0.000    2.667 
#    0.000    0.000    0.000   18.000    0.000    0.000 
#    0.000    0.000    0.000    0.000    0.000    0.000 
#
# Total GULP energy -297358.938126 kJ/mol
# GULP energy per Si atom -12389.955755 kJ/mol
# Density = 2.037218 g / cm^3
# Si number density = 20.418650 Si / 1000 Ang^3
#
#
#
# Elastic Constant Matrix: (Units=GPa)
#
#
# Indices 1 2 3 4 5 6 
#
# 1 63.9605 29.7500 28.3663 0.0007 1.1455 -0.0001
# 2 29.7500 151.6848 47.9365 0.0002 -21.5647 -0.0006
# 3 28.3663 47.9365 96.2321 -0.0009 3.1870 0.0007
# 4 0.0007 0.0002 -0.0009 26.9315 0.0000 -0.1070
# 5 1.1455 -21.5647 3.1870 0.0000 26.8684 -0.0001
# 6 -0.0001 -0.0006 0.0007 -0.1070 -0.0001 28.0791
#
#
#
# Elastic Compliance Matrix: (Units=1/GPa)
#
#
# Indices 1 2 3 4 5 6 
#
# 1 0.018768 -0.002751 -0.004078 -0.000001 -0.002524 0.000000
# 2 -0.002751 0.009682 -0.004290 0.000000 0.008397 0.000000
# 3 -0.004078 -0.004290 0.013893 0.000001 -0.004917 0.000000
# 4 -0.000001 0.000000 0.000001 0.037132 0.000000 0.000142
# 5 -0.002524 0.008397 -0.004917 0.000000 0.044649 0.000000
# 6 0.000000 0.000000 0.000000 0.000142 0.000000 0.035614
#
#
# Mechanical properties :
#
#
# Convention : Reuss Voigt Hill
#
# Bulk Modulus (GPa) = 49.73935 58.22032 53.97984
# Shear Modulus (GPa) = 26.50018 30.09745 28.29882
#
# Velocity S-wave (km/s) = 3.60647 3.84346 3.72685
# Velocity P-wave (km/s) = 6.46179 6.94777 6.70918
#
# Compressibility (1/GPa) = 0.02010481
#
# Stress axis : x y z
#
# Youngs Moduli (GPa) = 53.28174 103.28812 71.97613
#
# Poissons Ratio (x) = 0.28415 0.29354
# Poissons Ratio (y) = 0.14658 0.30877
# Poissons Ratio (z) = 0.21730 0.44310
#
# Static dielectric constant tensor:
#      x y z
#    x 3.399660 0.000000 0.116580 
#    y 0.000000 3.857450 0.000000 
#    z 0.116580 0.000000 3.835840 
# 
# 
# High freq. dielectric constant tensor:
#      x y z
#    x 1.760380 0.000000 0.008950 
#    y 0.000000 1.805940 0.000000 
#    z 0.008950 0.000000 1.807460 
# 
# From -- ./inp_files/204389.got.cif
#   From: 2010.06.25/outbox.cif.g09.slc.cpg/sg12_103_cif.got.tgz:204389.got - 2010.06.28 00:19:55.
