data_PCOD8087514
_publ_section_title
;
Structure prediction by ZEFSAII (Michael W. Deem and Ramdas Pophale) SiO2 
 PCOD8087514
Probable space group: C 2/M
;
_chemical_formula_sum "Si O2"
_cell_formula_units_Z 48
_cell_length_a 19.017037
_cell_length_b 9.666300
_cell_length_c 19.255228
_cell_angle_alpha 90.000000
_cell_angle_beta 43.592801
_cell_angle_gamma 90.000000
_cell_volume 2440.641764
_symmetry_space_group_name_H-M "C 2/M"
_symmetry_group_IT_number 12
_symmetry_cell_setting 'monoclinic'
loop_
_space_group_symop_operation_xyz
x,y,z
-x,y,-z
-x,-y,-z
x,-y,z
1/2+x,1/2+y,z
1/2-x,1/2+y,-z
1/2-x,1/2-y,-z
1/2+x,1/2-y,z
loop_
_atom_site_type_symbol
_atom_site_label
_atom_site_fract_x
_atom_site_fract_y
_atom_site_fract_z
Si Si1 0.830062 0.650106 0.856144
Si Si2 0.440106 0.836321 0.334908
Si Si3 0.316288 0.659555 0.314140
Si Si4 0.332685 0.150836 0.011378
Si Si5 0.991491 0.844116 0.086898
Si Si6 0.587049 0.837112 0.488309
O O1 0.819256 0.500000 0.825328
O O2 0.750296 0.763295 0.883106
O O3 0.944943 0.704378 0.767867
O O4 0.794518 0.627498 0.960613
O O5 0.361993 0.753866 0.342315
O O6 0.424755 0.784172 0.424515
O O7 0.420135 0.000000 0.339873
O O8 0.320112 0.500000 0.336841
O O9 0.377927 0.678430 0.197999
O O10 0.200000 0.704476 0.381077
O O11 0.349002 0.000000 0.035098
O O12 0.437536 0.232974 0.927205
O O13 0.029448 0.000000 0.075967
O O14 0.000000 0.812918 0.000000
O O15 0.500000 0.771052 0.500000
O O16 0.571718 0.000000 0.498910
#
# Coordination Sequence:
#
# PCOD8087514 Si02
#       6
#     8   8   8   8   8   8
#     4   9  18  31  50  76 104 138 175 214 263 316
#     4  10  19  34  58  84 110 144 182 224 273 324
#     4  10  20  35  57  83 109 141 183 230 273 320
#     4  10  19  32  50  75 106 139 176 219 266 313
#     4  10  21  35  52  76 108 146 184 222 268 323
#     4   9  19  35  56  83 111 141 181 226 272 325
#
# _framework density 19.666958000000001
#
# number of rings (size 3 to 8) (size 9 to 14) (size 15 to 20)
#    0.000    2.333    1.667    1.000    0.000    3.000 
#    0.000    5.000    0.000    2.000    0.000    0.000 
#    0.000    0.000    0.000    0.000    0.000    0.000 
#
# Total GULP energy -297439.748263 kJ/mol
# GULP energy per Si atom -12393.322844 kJ/mol
# Density = 1.962220 g / cm^3
# Si number density = 19.666958 Si / 1000 Ang^3
#
#
#
# Elastic Constant Matrix: (Units=GPa)
#
#
# Indices 1 2 3 4 5 6 
#
# 1 87.6628 37.2450 73.7069 0.0000 -10.1803 0.0000
# 2 37.2450 84.9517 47.8737 0.0000 -14.2784 0.0000
# 3 73.7069 47.8737 123.8727 0.0000 -17.4868 0.0000
# 4 0.0000 0.0000 0.0000 17.3917 0.0000 -3.7754
# 5 -10.1803 -14.2784 -17.4868 0.0000 37.6001 0.0000
# 6 0.0000 0.0000 0.0000 -3.7754 0.0000 20.8101
#
#
#
# Elastic Compliance Matrix: (Units=1/GPa)
#
#
# Indices 1 2 3 4 5 6 
#
# 1 0.023470 -0.003188 -0.012851 0.000000 -0.000832 0.000000
# 2 -0.003188 0.015856 -0.003749 0.000000 0.003414 0.000000
# 3 -0.012851 -0.003749 0.017634 0.000000 0.003298 0.000000
# 4 0.000000 0.000000 0.000000 0.059856 0.000000 0.010859
# 5 -0.000832 0.003414 0.003298 0.000000 0.029201 0.000000
# 6 0.000000 0.000000 0.000000 0.010859 0.000000 0.050024
#
#
# Mechanical properties :
#
#
# Convention : Reuss Voigt Hill
#
# Bulk Modulus (GPa) = 57.52320 68.23760 62.88040
# Shear Modulus (GPa) = 20.71177 24.33783 22.52480
#
# Velocity S-wave (km/s) = 3.24871 3.52163 3.38792
# Velocity P-wave (km/s) = 6.58668 7.16294 6.88084
#
# Compressibility (1/GPa) = 0.01738429
#
# Stress axis : x y z
#
# Youngs Moduli (GPa) = 42.60784 63.06916 56.71003
#
# Poissons Ratio (x) = 0.20106 0.72875
# Poissons Ratio (y) = 0.13583 0.21260
# Poissons Ratio (z) = 0.54753 0.23644
#
# Static dielectric constant tensor:
#      x y z
#    x 3.440190 0.000000 -0.125230 
#    y 0.000000 3.761020 0.000000 
#    z -0.125230 0.000000 3.662860 
# 
# 
# High freq. dielectric constant tensor:
#      x y z
#    x 1.742980 0.000000 -0.015990 
#    y 0.000000 1.749660 0.000000 
#    z -0.015990 0.000000 1.772300 
# 
# From -- ./inp_files/319577.got.cif
#   From: 2010.06.25/outbox.cif.g09.slc.cpg/sg12_160_cif.got.tgz:319577.got - 2010.06.28 00:19:55.
