data_PCOD8087631
_publ_section_title
;
Structure prediction by ZEFSAII (Michael W. Deem and Ramdas Pophale) SiO2 
 PCOD8087631
Probable space group: C 2/M
;
_chemical_formula_sum "Si O2"
_cell_formula_units_Z 56
_cell_length_a 19.140995
_cell_length_b 9.211645
_cell_length_c 24.521667
_cell_angle_alpha 90.000000
_cell_angle_beta 132.163477
_cell_angle_gamma 90.000000
_cell_volume 3204.839047
_symmetry_space_group_name_H-M "C 2/M"
_symmetry_group_IT_number 12
_symmetry_cell_setting 'monoclinic'
loop_
_space_group_symop_operation_xyz
x,y,z
-x,y,-z
-x,-y,-z
x,-y,z
1/2+x,1/2+y,z
1/2-x,1/2+y,-z
1/2-x,1/2-y,-z
1/2+x,1/2-y,z
loop_
_atom_site_type_symbol
_atom_site_label
_atom_site_fract_x
_atom_site_fract_y
_atom_site_fract_z
Si Si1 0.720156 0.831137 0.564597
Si Si2 0.570521 0.335178 0.690030
Si Si3 0.885240 0.331079 0.600654
Si Si4 0.412258 0.169602 0.988250
Si Si5 0.902557 0.166978 0.421172
Si Si6 0.155491 0.328968 0.932895
Si Si7 0.701969 0.331660 0.856930
O O1 0.818698 0.752000 0.607606
O O2 0.647022 0.795786 0.477769
O O3 0.678591 0.769469 0.598433
O O4 0.740150 0.000000 0.580774
O O5 0.532715 0.500000 0.675786
O O6 0.489903 0.224879 0.665774
O O7 0.599020 0.302480 0.643439
O O8 0.661816 0.309416 0.775312
O O9 0.880026 0.500000 0.611085
O O10 0.309923 0.228595 0.914174
O O11 0.413867 0.000000 0.976877
O O12 0.500000 0.241069 0.000000
O O13 0.421302 0.199304 0.058699
O O14 0.000000 0.214532 0.500000
O O15 0.880457 0.000000 0.423825
O O16 0.171529 0.500000 0.933727
O O17 0.132363 0.256188 0.862197
O O18 0.250000 0.250000 0.000000
O O19 0.700698 0.500000 0.874205
#
# Coordination Sequence:
#
# PCOD8087631 Si02
#       7
#     8   8   8   8   8   8   8
#     4  10  20  33  51  73  98 126 164 214 264 312
#     4  10  20  34  51  72 101 136 172 214 265 313
#     4  10  20  33  51  73  96 126 167 212 259 312
#     4   8  14  27  49  75  99 126 162 200 237 286
#     4  10  19  32  51  73  99 133 174 218 261 310
#     4   9  16  28  49  74  99 128 165 204 243 290
#     4   9  18  32  50  72 100 134 168 204 250 302
#
# _framework density 17.473576000000001
#
# number of rings (size 3 to 8) (size 9 to 14) (size 15 to 20)
#    0.000    2.571    1.429    2.143    0.000    2.571 
#    0.000    1.429    0.000   14.143    0.000    0.000 
#    0.000    0.000    0.000    0.000    0.000    0.000 
#
# Total GULP energy -347058.039184 kJ/mol
# GULP energy per Si atom -12394.929971 kJ/mol
# Density = 1.743381 g / cm^3
# Si number density = 17.473576 Si / 1000 Ang^3
#
#
#
# Elastic Constant Matrix: (Units=GPa)
#
#
# Indices 1 2 3 4 5 6 
#
# 1 135.1711 57.5946 51.3813 0.0000 -8.6263 0.0000
# 2 57.5946 73.1343 31.2972 0.0000 -3.8603 0.0000
# 3 51.3813 31.2972 87.8737 0.0000 -12.3111 0.0000
# 4 0.0000 0.0000 0.0000 21.9590 0.0000 -2.3525
# 5 -8.6263 -3.8603 -12.3111 0.0000 23.9437 0.0000
# 6 0.0000 0.0000 0.0000 -2.3525 0.0000 31.0612
#
#
#
# Elastic Compliance Matrix: (Units=1/GPa)
#
#
# Indices 1 2 3 4 5 6 
#
# 1 0.012488 -0.007924 -0.004341 0.000000 0.000989 0.000000
# 2 -0.007924 0.021164 -0.003046 0.000000 -0.001009 0.000000
# 3 -0.004341 -0.003046 0.015857 0.000000 0.006098 0.000000
# 4 0.000000 0.000000 0.000000 0.045912 0.000000 0.003477
# 5 0.000989 -0.001009 0.006098 0.000000 0.045094 0.000000
# 6 0.000000 0.000000 0.000000 0.003477 0.000000 0.032458
#
#
# Mechanical properties :
#
#
# Convention : Reuss Voigt Hill
#
# Bulk Modulus (GPa) = 52.94530 64.08060 58.51295
# Shear Modulus (GPa) = 23.82196 25.78653 24.80425
#
# Velocity S-wave (km/s) = 3.69631 3.84571 3.77175
# Velocity P-wave (km/s) = 6.97015 7.51477 7.24758
#
# Compressibility (1/GPa) = 0.01888742
#
# Stress axis : x y z
#
# Youngs Moduli (GPa) = 80.07887 47.24956 63.06285
#
# Poissons Ratio (x) = 0.37443 0.27374
# Poissons Ratio (y) = 0.63458 0.19207
# Poissons Ratio (z) = 0.34760 0.14390
#
# Static dielectric constant tensor:
#      x y z
#    x 3.518540 0.000000 -0.236810 
#    y 0.000000 3.276880 0.000000 
#    z -0.236810 0.000000 3.308340 
# 
# 
# High freq. dielectric constant tensor:
#      x y z
#    x 1.674130 0.000000 -0.013350 
#    y 0.000000 1.667100 0.000000 
#    z -0.013350 0.000000 1.652710 
# 
# From -- ./inp_files/342279.got.cif
#   From: 2010.06.25/outbox.cif.g09.slc.cpg/sg12_172_cif.got.tgz:342279.got - 2010.06.28 00:19:55.
