data_PCOD8087016
_publ_section_title
;
Structure prediction by ZEFSAII (Michael W. Deem and Ramdas Pophale) SiO2 
 PCOD8087016
Probable space group: C 2/M
;
_chemical_formula_sum "Si O2"
_cell_formula_units_Z 64
_cell_length_a 22.130988
_cell_length_b 9.487773
_cell_length_c 21.629978
_cell_angle_alpha 90.000000
_cell_angle_beta 131.333452
_cell_angle_gamma 90.000000
_cell_volume 3410.287009
_symmetry_space_group_name_H-M "C 2/M"
_symmetry_group_IT_number 12
_symmetry_cell_setting 'monoclinic'
loop_
_space_group_symop_operation_xyz
x,y,z
-x,y,-z
-x,-y,-z
x,-y,z
1/2+x,1/2+y,z
1/2-x,1/2+y,-z
1/2-x,1/2-y,-z
1/2+x,1/2-y,z
loop_
_atom_site_type_symbol
_atom_site_label
_atom_site_fract_x
_atom_site_fract_y
_atom_site_fract_z
Si Si1 0.462581 0.836825 0.672514
Si Si2 0.086542 0.664884 0.033680
Si Si3 0.738566 0.840132 0.672038
Si Si4 0.692196 0.163279 0.505866
Si Si5 0.114842 0.836048 0.797235
Si Si6 0.750101 0.838301 0.206102
Si Si7 0.086013 0.156296 0.249178
Si Si8 0.415384 0.659240 0.085277
O O1 0.401740 0.818203 0.574006
O O2 0.544798 0.752269 0.715719
O O3 0.416311 0.775759 0.700520
O O4 0.483104 0.000000 0.698222
O O5 0.081958 0.500000 0.015836
O O6 0.156506 0.698588 0.130595
O O7 0.113861 0.740332 0.989069
O O8 0.000000 0.719781 0.000000
O O9 0.702373 0.782590 0.583109
O O10 0.710129 0.748719 0.711042
O O11 0.834517 0.824928 0.736932
O O12 0.710243 0.000000 0.663969
O O13 0.750000 0.250000 0.500000
O O14 0.719085 0.000000 0.519378
O O15 0.199329 0.804612 0.821652
O O16 0.121587 0.790781 0.873818
O O17 0.090208 0.000000 0.777054
O O18 0.759314 0.000000 0.231172
O O19 0.011794 0.172048 0.152591
O O20 0.084222 0.000000 0.279150
O O21 0.388002 0.500000 0.051760
#
# Coordination Sequence:
#
# PCOD8087016 Si02
#       8
#     8   8   8   8   8   8   8   8
#     4  10  19  31  52  82 109 136 176 223 267 315
#     4  10  21  36  54  80 113 140 167 216 278 325
#     4  10  20  34  53  78 109 143 179 219 269 320
#     4  10  20  33  52  82 115 142 174 218 269 323
#     4   9  20  39  57  74 104 145 186 226 267 315
#     4  10  22  39  56  75 104 145 187 223 266 324
#     4   9  17  31  51  76 110 146 174 211 266 323
#     4   9  18  32  53  79 103 136 181 221 260 312
#
# _framework density 18.766748
#
# number of rings (size 3 to 8) (size 9 to 14) (size 15 to 20)
#    0.000    2.375    1.250    1.875    0.000    5.250 
#    0.000    0.625    0.000    3.750    0.000    0.000 
#    0.000    0.000    0.000    0.000    0.000    0.000 
#
# Total GULP energy -396742.002487 kJ/mol
# GULP energy per Si atom -12398.187578 kJ/mol
# Density = 1.872403 g / cm^3
# Si number density = 18.766748 Si / 1000 Ang^3
#
#
#
# Elastic Constant Matrix: (Units=GPa)
#
#
# Indices 1 2 3 4 5 6 
#
# 1 76.8638 36.9129 36.7246 0.0000 -9.8920 0.0000
# 2 36.9129 75.1843 51.7069 0.0000 -11.0726 0.0000
# 3 36.7246 51.7069 96.3886 0.0000 -20.2332 0.0000
# 4 0.0000 0.0000 0.0000 31.2788 0.0000 -5.8711
# 5 -9.8920 -11.0726 -20.2332 0.0000 26.3171 0.0000
# 6 0.0000 0.0000 0.0000 -5.8711 0.0000 26.8038
#
#
#
# Elastic Compliance Matrix: (Units=1/GPa)
#
#
# Indices 1 2 3 4 5 6 
#
# 1 0.017722 -0.006421 -0.002953 0.000000 0.001689 0.000000
# 2 -0.006421 0.023404 -0.010193 0.000000 -0.000403 0.000000
# 3 -0.002953 -0.010193 0.018882 0.000000 0.009118 0.000000
# 4 0.000000 0.000000 0.000000 0.033341 0.000000 0.007303
# 5 0.001689 -0.000403 0.009118 0.000000 0.045474 0.000000
# 6 0.000000 0.000000 0.000000 0.007303 0.000000 0.038908
#
#
# Mechanical properties :
#
#
# Convention : Reuss Voigt Hill
#
# Bulk Modulus (GPa) = 47.90800 55.45839 51.68320
# Shear Modulus (GPa) = 22.33910 25.08610 23.71260
#
# Velocity S-wave (km/s) = 3.45390 3.66010 3.55849
# Velocity P-wave (km/s) = 6.44123 6.89038 6.66959
#
# Compressibility (1/GPa) = 0.02087334
#
# Stress axis : x y z
#
# Youngs Moduli (GPa) = 56.42687 42.72775 52.96129
#
# Poissons Ratio (x) = 0.27437 0.15639
# Poissons Ratio (y) = 0.36233 0.53983
# Poissons Ratio (z) = 0.16662 0.43552
#
# Static dielectric constant tensor:
#      x y z
#    x 3.306700 0.000000 0.089970 
#    y 0.000000 3.438380 0.000000 
#    z 0.089970 0.000000 3.382230 
# 
# 
# High freq. dielectric constant tensor:
#      x y z
#    x 1.712890 0.000000 0.002600 
#    y 0.000000 1.726180 0.000000 
#    z 0.002600 0.000000 1.725300 
# 
# From -- ./inp_files/324336.got.cif
#   From: 2010.06.25/outbox.cif.g09.slc.cpg/sg12_163_cif.got.tgz:324336.got - 2010.06.28 00:19:55.
