data_PCOD8087135
_publ_section_title
;
Structure prediction by ZEFSAII (Michael W. Deem and Ramdas Pophale) SiO2 
 PCOD8087135
Probable space group: C 2/M
;
_chemical_formula_sum "Si O2"
_cell_formula_units_Z 48
_cell_length_a 20.436080
_cell_length_b 9.124971
_cell_length_c 24.804640
_cell_angle_alpha 90.000000
_cell_angle_beta 145.796452
_cell_angle_gamma 90.000000
_cell_volume 2600.173498
_symmetry_space_group_name_H-M "C 2/M"
_symmetry_group_IT_number 12
_symmetry_cell_setting 'monoclinic'
loop_
_space_group_symop_operation_xyz
x,y,z
-x,y,-z
-x,-y,-z
x,-y,z
1/2+x,1/2+y,z
1/2-x,1/2+y,-z
1/2-x,1/2-y,-z
1/2+x,1/2-y,z
loop_
_atom_site_type_symbol
_atom_site_label
_atom_site_fract_x
_atom_site_fract_y
_atom_site_fract_z
Si Si1 0.214101 0.831037 0.897792
Si Si2 0.567273 0.830107 0.886064
Si Si3 0.156660 0.830384 0.287528
Si Si4 0.140205 0.169398 0.401884
Si Si5 0.374953 0.327915 0.389570
Si Si6 0.597681 0.672224 0.711623
O O1 0.130056 0.730591 0.875784
O O2 0.197732 0.789471 0.823643
O O3 0.176579 0.000000 0.882471
O O4 0.348630 0.806043 0.005058
O O5 0.447278 0.746021 0.816863
O O6 0.539536 0.000000 0.857776
O O7 0.128057 0.805195 0.330294
O O8 0.279562 0.756853 0.358913
O O9 0.162129 0.000000 0.275364
O O10 0.250000 0.250000 0.500000
O O11 0.025368 0.236657 0.351762
O O12 0.155005 0.000000 0.426015
O O13 0.500000 0.292444 0.500000
O O14 0.347287 0.500000 0.373376
O O15 0.369833 0.264967 0.324913
O O16 0.582394 0.500000 0.695102
#
# Coordination Sequence:
#
# PCOD8087135 Si02
#       6
#     8   8   8   8   8   8
#     4   9  17  33  55  80 111 143 178 222 276 328
#     4  10  19  31  54  84 110 140 180 226 271 322
#     4  11  22  37  56  78 111 148 179 221 274 328
#     4  10  20  34  54  78 104 137 177 223 271 317
#     4  10  21  37  58  80 107 144 185 228 268 319
#     4   9  17  34  56  77 105 142 179 219 271 323
#
# _framework density 18.460305999999999
#
# number of rings (size 3 to 8) (size 9 to 14) (size 15 to 20)
#    0.000    2.167    1.667    2.000    0.000    3.667 
#    0.000    2.500    0.000    5.000    0.000    0.000 
#    0.000    0.000    0.000    0.000    0.000    0.000 
#
# Total GULP energy -297602.064856 kJ/mol
# GULP energy per Si atom -12400.086036 kJ/mol
# Density = 1.841829 g / cm^3
# Si number density = 18.460306 Si / 1000 Ang^3
#
#
#
# Elastic Constant Matrix: (Units=GPa)
#
#
# Indices 1 2 3 4 5 6 
#
# 1 49.1302 30.3688 18.0559 -0.0001 0.7014 0.0000
# 2 30.3688 75.7600 52.5561 -0.0002 8.5232 0.0000
# 3 18.0559 52.5561 114.9240 -0.0002 0.0946 -0.0001
# 4 -0.0001 -0.0002 -0.0002 30.3721 -0.0001 5.7536
# 5 0.7014 8.5232 0.0946 -0.0001 36.1669 0.0000
# 6 0.0000 0.0000 -0.0001 5.7536 0.0000 24.8033
#
#
#
# Elastic Compliance Matrix: (Units=1/GPa)
#
#
# Indices 1 2 3 4 5 6 
#
# 1 0.027328 -0.012061 0.001220 0.000000 0.002309 0.000000
# 2 -0.012061 0.025428 -0.009729 0.000000 -0.005733 0.000000
# 3 0.001220 -0.009729 0.012957 0.000000 0.002235 0.000000
# 4 0.000000 0.000000 0.000000 0.034438 0.000000 -0.007989
# 5 0.002309 -0.005733 0.002235 0.000000 0.028950 0.000000
# 6 0.000000 0.000000 0.000000 -0.007989 0.000000 0.042170
#
#
# Mechanical properties :
#
#
# Convention : Reuss Voigt Hill
#
# Bulk Modulus (GPa) = 40.69359 49.08620 44.88990
# Shear Modulus (GPa) = 22.66516 27.52403 25.09460
#
# Velocity S-wave (km/s) = 3.50777 3.86552 3.69098
# Velocity P-wave (km/s) = 6.20464 6.82428 6.52183
#
# Compressibility (1/GPa) = 0.02457390
#
# Stress axis : x y z
#
# Youngs Moduli (GPa) = 36.59278 39.32600 77.17759
#
# Poissons Ratio (x) = 0.47430 -0.09416
# Poissons Ratio (y) = 0.44133 0.75087
# Poissons Ratio (z) = -0.04465 0.38261
#
# Static dielectric constant tensor:
#      x y z
#    x 2.835950 0.000000 0.617860 
#    y 0.000000 3.296340 0.000000 
#    z 0.617860 0.000000 2.660070 
# 
# 
# High freq. dielectric constant tensor:
#      x y z
#    x 1.699050 0.000000 -0.003440 
#    y 0.000000 1.699800 0.000000 
#    z -0.003440 0.000000 1.732950 
# 
# From -- ./inp_files/229302.got.cif
#   From: 2010.06.25/outbox.cif.g09.slc.cpg/sg12_115_cif.got.tgz:229302.got - 2010.06.28 00:19:55.
