data_PCOD8087326
_publ_section_title
;
Structure prediction by ZEFSAII (Michael W. Deem and Ramdas Pophale) SiO2 
 PCOD8087326
Probable space group: C 2/M
;
_chemical_formula_sum "Si O2"
_cell_formula_units_Z 36
_cell_length_a 15.086110
_cell_length_b 27.574079
_cell_length_c 4.960379
_cell_angle_alpha 90.000000
_cell_angle_beta 112.484023
_cell_angle_gamma 90.000000
_cell_volume 1906.595812
_symmetry_space_group_name_H-M "C 2/M"
_symmetry_group_IT_number 12
_symmetry_cell_setting 'monoclinic'
loop_
_space_group_symop_operation_xyz
x,y,z
-x,y,-z
-x,-y,-z
x,-y,z
1/2+x,1/2+y,z
1/2-x,1/2+y,-z
1/2-x,1/2-y,-z
1/2+x,1/2-y,z
loop_
_atom_site_type_symbol
_atom_site_label
_atom_site_fract_x
_atom_site_fract_y
_atom_site_fract_z
Si Si1 0.612356 0.900040 0.581358
Si Si2 0.797948 0.646477 0.810229
Si Si3 0.070201 0.500000 0.339029
Si Si4 0.390900 0.691056 0.359552
Si Si5 0.391371 0.754807 0.865039
O O1 0.500000 0.891390 0.500000
O O2 0.655776 0.861324 0.428370
O O3 0.633969 0.951679 0.456411
O O4 0.664436 0.893130 0.929636
O O5 0.681662 0.645983 0.669262
O O6 0.826075 0.701944 0.904307
O O7 0.000000 0.500000 0.500000
O O8 0.000000 0.500000 0.000000
O O9 0.500000 0.671515 0.500000
O O10 0.369133 0.735722 0.538366
O O11 0.373960 0.709112 0.037479
O O12 0.500000 0.774095 0.000000
#
# Coordination Sequence:
#
# PCOD8087326 Si02
#       5
#     8   8   4   8   8
#     4  11  22  35  54  80 106 132 164 207 261 321
#     4  12  21  33  53  79 103 136 178 218 252 300
#     4  10  20  38  56  76 109 140 159 198 266 334
#     4  10  21  35  50  71 104 145 181 214 255 295
#     4  10  19  32  49  71 105 142 174 214 259 303
#
# _framework density 18.881820999999999
#
# number of rings (size 3 to 8) (size 9 to 14) (size 15 to 20)
#    0.000    1.333    0.000    8.667    0.000    1.778 
#    0.000    0.000    0.000    0.000    0.000    4.667 
#    0.000    0.000    0.000    0.000    0.000    0.000 
#
# Total GULP energy -223102.359995 kJ/mol
# GULP energy per Si atom -12394.575555 kJ/mol
# Density = 1.883885 g / cm^3
# Si number density = 18.881821 Si / 1000 Ang^3
#
#
#
# Elastic Constant Matrix: (Units=GPa)
#
#
# Indices 1 2 3 4 5 6 
#
# 1 116.6253 39.9741 34.1805 0.0000 4.4531 0.0000
# 2 39.9741 57.7068 21.3545 0.0000 12.2708 0.0000
# 3 34.1805 21.3545 89.3272 0.0000 -8.6924 0.0000
# 4 0.0000 0.0000 0.0000 15.4920 0.0000 1.5713
# 5 4.4531 12.2708 -8.6924 0.0000 28.2082 0.0000
# 6 0.0000 0.0000 0.0000 1.5713 0.0000 14.8283
#
#
#
# Elastic Compliance Matrix: (Units=1/GPa)
#
#
# Indices 1 2 3 4 5 6 
#
# 1 0.011865 -0.007297 -0.002751 0.000000 0.000453 0.000000
# 2 -0.007297 0.026672 -0.004743 0.000000 -0.011912 0.000000
# 3 -0.002751 -0.004743 0.014046 0.000000 0.006826 0.000000
# 4 0.000000 0.000000 0.000000 0.065251 0.000000 -0.006914
# 5 0.000453 -0.011912 0.006826 0.000000 0.042665 0.000000
# 6 0.000000 0.000000 0.000000 -0.006914 0.000000 0.068171
#
#
# Mechanical properties :
#
#
# Convention : Reuss Voigt Hill
#
# Bulk Modulus (GPa) = 43.47991 50.51972 46.99981
# Shear Modulus (GPa) = 18.80277 22.91571 20.85924
#
# Velocity S-wave (km/s) = 3.15907 3.48751 3.32735
# Velocity P-wave (km/s) = 6.03189 6.55979 6.30137
#
# Compressibility (1/GPa) = 0.02299913
#
# Stress axis : x y z
#
# Youngs Moduli (GPa) = 84.28410 37.49254 71.19603
#
# Poissons Ratio (x) = 0.27358 0.19589
# Poissons Ratio (y) = 0.61502 0.33770
# Poissons Ratio (z) = 0.23190 0.17783
#
# Static dielectric constant tensor:
#      x y z
#    x 3.633520 0.000000 -0.017900 
#    y 0.000000 2.144800 0.000000 
#    z -0.017900 0.000000 3.529950 
# 
# 
# High freq. dielectric constant tensor:
#      x y z
#    x 1.734380 0.000000 -0.017280 
#    y 0.000000 1.692420 0.000000 
#    z -0.017280 0.000000 1.747690 
# 
# From -- ./inp_files/11432.got.cif
#   From: 2010.06.25/outbox.cif.g09.slc.cpg/sg12_6_cif.got.tgz:11432.got - 2010.06.28 00:19:55.
