data_PCOD8087844
_publ_section_title
;
Structure prediction by ZEFSAII (Michael W. Deem and Ramdas Pophale) SiO2 
 PCOD8087844
Probable space group: C 2/M
;
_chemical_formula_sum "Si O2"
_cell_formula_units_Z 56
_cell_length_a 23.647772
_cell_length_b 8.485010
_cell_length_c 20.626812
_cell_angle_alpha 90.000000
_cell_angle_beta 125.979495
_cell_angle_gamma 90.000000
_cell_volume 3349.231934
_symmetry_space_group_name_H-M "C 2/M"
_symmetry_group_IT_number 12
_symmetry_cell_setting 'monoclinic'
loop_
_space_group_symop_operation_xyz
x,y,z
-x,y,-z
-x,-y,-z
x,-y,z
1/2+x,1/2+y,z
1/2-x,1/2+y,-z
1/2-x,1/2-y,-z
1/2+x,1/2-y,z
loop_
_atom_site_type_symbol
_atom_site_label
_atom_site_fract_x
_atom_site_fract_y
_atom_site_fract_z
Si Si1 0.957319 0.316772 0.908074
Si Si2 0.033648 0.820018 0.587183
Si Si3 0.673627 0.679857 0.738698
Si Si4 0.809915 0.315654 0.994621
Si Si5 0.684855 0.682741 0.144330
Si Si6 0.548271 0.681915 0.860848
Si Si7 0.053996 0.683883 0.730726
O O1 0.969403 0.500000 0.902026
O O2 0.875985 0.283625 0.863808
O O3 0.984209 0.216896 0.865485
O O4 0.000000 0.262104 0.000000
O O5 0.118944 0.811772 0.641209
O O6 0.008927 0.727549 0.635603
O O7 0.000000 0.742586 0.500000
O O8 0.007948 0.000000 0.576275
O O9 0.692887 0.500000 0.768952
O O10 0.743528 0.776150 0.769457
O O11 0.634356 0.758107 0.774370
O O12 0.798897 0.500000 0.975207
O O13 0.885410 0.288740 0.076924
O O14 0.750000 0.250000 0.000000
O O15 0.805493 0.225846 0.923862
O O16 0.666914 0.500000 0.139649
O O17 0.569390 0.500000 0.879838
O O18 0.522646 0.724978 0.771274
O O19 0.051451 0.500000 0.742448
#
# Coordination Sequence:
#
# PCOD8087844 Si02
#       7
#     8   8   8   8   8   8   8
#     4  11  23  39  57  74  97 134 180 227 267 308
#     4   8  16  32  54  80 110 141 171 205 255 316
#     4   9  18  33  52  76 108 140 171 210 257 307
#     4  12  24  37  52  72  99 135 175 217 265 313
#     4  12  23  36  53  75 102 136 177 220 261 309
#     4  12  23  37  54  74 101 136 178 222 263 309
#     4  10  19  32  51  78 110 139 171 211 258 311
#
# _framework density 16.720251999999999
#
# number of rings (size 3 to 8) (size 9 to 14) (size 15 to 20)
#    0.857    0.571    1.429    6.429    0.000    0.857 
#    0.000    0.000    0.000    0.000    0.000    1.000 
#    0.000    0.000    0.000    0.000    0.000    0.000 
#
# Total GULP energy -347136.228024 kJ/mol
# GULP energy per Si atom -12397.722429 kJ/mol
# Density = 1.668220 g / cm^3
# Si number density = 16.720252 Si / 1000 Ang^3
#
#
#
# Elastic Constant Matrix: (Units=GPa)
#
#
# Indices 1 2 3 4 5 6 
#
# 1 94.5644 13.8396 38.3458 0.0000 -3.1206 0.0000
# 2 13.8396 78.5747 18.7030 0.0000 -1.3675 0.0000
# 3 38.3458 18.7030 94.5196 0.0000 -6.1249 0.0000
# 4 0.0000 0.0000 0.0000 22.2092 0.0000 0.2066
# 5 -3.1206 -1.3675 -6.1249 0.0000 12.5293 0.0000
# 6 0.0000 0.0000 0.0000 0.2066 0.0000 28.2556
#
#
#
# Elastic Compliance Matrix: (Units=1/GPa)
#
#
# Indices 1 2 3 4 5 6 
#
# 1 0.012746 -0.001063 -0.004918 0.000000 0.000654 0.000000
# 2 -0.001063 0.013445 -0.002222 0.000000 0.000117 0.000000
# 3 -0.004918 -0.002222 0.013342 0.000000 0.005055 0.000000
# 4 0.000000 0.000000 0.000000 0.045029 0.000000 -0.000329
# 5 0.000654 0.000117 0.005055 0.000000 0.082460 0.000000
# 6 0.000000 0.000000 0.000000 -0.000329 0.000000 0.035394
#
#
# Mechanical properties :
#
#
# Convention : Reuss Voigt Hill
#
# Bulk Modulus (GPa) = 43.23829 45.49284 44.36556
# Shear Modulus (GPa) = 22.07199 25.71684 23.89441
#
# Velocity S-wave (km/s) = 3.63723 3.92607 3.78441
# Velocity P-wave (km/s) = 6.59963 6.91515 6.75924
#
# Compressibility (1/GPa) = 0.02312765
#
# Stress axis : x y z
#
# Youngs Moduli (GPa) = 78.45384 74.37823 74.94962
#
# Poissons Ratio (x) = 0.07906 0.36863
# Poissons Ratio (y) = 0.08339 0.16651
# Poissons Ratio (z) = 0.38586 0.16524
#
# Static dielectric constant tensor:
#      x y z
#    x 3.014980 0.000000 -0.002990 
#    y 0.000000 3.250700 0.000000 
#    z -0.002990 0.000000 3.056710 
# 
# 
# High freq. dielectric constant tensor:
#      x y z
#    x 1.625090 0.000000 -0.002260 
#    y 0.000000 1.660430 0.000000 
#    z -0.002260 0.000000 1.621900 
# 
# From -- ./inp_files/319311.got.cif
#   From: 2010.06.25/outbox.cif.g09.slc.cpg/sg12_160_cif.got.tgz:319311.got - 2010.06.28 00:19:55.
