data_PCOD8087354
_publ_section_title
;
Structure prediction by ZEFSAII (Michael W. Deem and Ramdas Pophale) SiO2 
 PCOD8087354
Probable space group: C 2/M
;
_chemical_formula_sum "Si O2"
_cell_formula_units_Z 64
_cell_length_a 30.561225
_cell_length_b 9.144697
_cell_length_c 22.847364
_cell_angle_alpha 90.000000
_cell_angle_beta 148.667402
_cell_angle_gamma 90.000000
_cell_volume 3320.349784
_symmetry_space_group_name_H-M "C 2/M"
_symmetry_group_IT_number 12
_symmetry_cell_setting 'monoclinic'
loop_
_space_group_symop_operation_xyz
x,y,z
-x,y,-z
-x,-y,-z
x,-y,z
1/2+x,1/2+y,z
1/2-x,1/2+y,-z
1/2-x,1/2-y,-z
1/2+x,1/2-y,z
loop_
_atom_site_type_symbol
_atom_site_label
_atom_site_fract_x
_atom_site_fract_y
_atom_site_fract_z
Si Si1 0.117786 0.826763 0.503316
Si Si2 0.032543 0.834525 0.192256
Si Si3 0.101631 0.671993 0.894992
Si Si4 0.433022 0.674124 0.266266
Si Si5 0.744504 0.174128 0.248996
Si Si6 0.088673 0.169868 0.130214
Si Si7 0.228329 0.171855 0.849903
Si Si8 0.677836 0.334578 0.449573
O O1 0.171984 0.773307 0.620621
O O2 0.160509 0.763033 0.493201
O O3 0.020606 0.775223 0.396449
O O4 0.118298 0.000000 0.498934
O O5 0.083116 0.785837 0.192153
O O6 0.092062 0.824748 0.315985
O O7 0.954589 0.726748 0.114662
O O8 0.998507 0.000000 0.144532
O O9 0.088600 0.500000 0.871598
O O10 0.075540 0.755390 0.806960
O O11 0.197510 0.711990 0.020463
O O12 0.428644 0.500000 0.252788
O O13 0.358620 0.733651 0.222943
O O14 0.661196 0.236894 0.183142
O O15 0.754256 0.238049 0.194567
O O16 0.736371 0.000000 0.240625
O O17 0.110807 0.000000 0.147314
O O18 0.000000 0.210005 0.000000
O O19 0.220218 0.000000 0.832800
O O20 0.709093 0.500000 0.491569
O O21 0.750000 0.250000 0.500000
#
# Coordination Sequence:
#
# PCOD8087354 Si02
#       8
#     8   8   8   8   8   8   8   8
#     4   9  18  33  55  79 106 138 179 222 261 320
#     4  10  20  35  54  75 106 145 180 216 266 325
#     4  11  21  34  53  83 114 137 178 230 273 323
#     4  10  19  37  59  78 108 146 180 221 274 325
#     4  10  20  36  56  81 111 142 180 226 272 318
#     4  10  21  36  54  79 109 145 188 223 260 321
#     4   9  20  35  55  82 109 141 181 225 273 325
#     4  10  19  32  49  74 102 133 174 213 259 313
#
# _framework density 19.275078000000001
#
# number of rings (size 3 to 8) (size 9 to 14) (size 15 to 20)
#    0.000    2.125    1.250    2.250    0.000    1.750 
#    0.000    5.000    0.000    0.000    0.000    1.750 
#    0.000    0.000    0.000    0.000    0.000    0.000 
#
# Total GULP energy -396796.780038 kJ/mol
# GULP energy per Si atom -12399.899376 kJ/mol
# Density = 1.923121 g / cm^3
# Si number density = 19.275078 Si / 1000 Ang^3
#
#
#
# Elastic Constant Matrix: (Units=GPa)
#
#
# Indices 1 2 3 4 5 6 
#
# 1 125.8788 32.5627 55.5234 0.0000 12.4215 0.0000
# 2 32.5627 42.1735 34.5779 0.0000 7.6720 0.0000
# 3 55.5234 34.5779 115.1882 0.0000 10.6463 0.0000
# 4 0.0000 0.0000 0.0000 17.4408 0.0000 2.7886
# 5 12.4215 7.6720 10.6463 0.0000 40.9463 0.0000
# 6 0.0000 0.0000 0.0000 2.7886 0.0000 25.1335
#
#
#
# Elastic Compliance Matrix: (Units=1/GPa)
#
#
# Indices 1 2 3 4 5 6 
#
# 1 0.011047 -0.005323 -0.003596 0.000000 -0.001419 0.000000
# 2 -0.005323 0.034522 -0.007529 0.000000 -0.002896 0.000000
# 3 -0.003596 -0.007529 0.012750 0.000000 -0.000814 0.000000
# 4 0.000000 0.000000 0.000000 0.058372 0.000000 -0.006476
# 5 -0.001419 -0.002896 -0.000814 0.000000 0.025607 0.000000
# 6 0.000000 0.000000 0.000000 -0.006476 0.000000 0.040506
#
#
# Mechanical properties :
#
#
# Convention : Reuss Voigt Hill
#
# Bulk Modulus (GPa) = 39.33592 58.72983 49.03287
# Shear Modulus (GPa) = 22.30392 27.40924 24.85658
#
# Velocity S-wave (km/s) = 3.40536 3.77504 3.59496
# Velocity P-wave (km/s) = 5.99283 7.03823 6.53646
#
# Compressibility (1/GPa) = 0.02542206
#
# Stress axis : x y z
#
# Youngs Moduli (GPa) = 90.51946 28.96710 78.43033
#
# Poissons Ratio (x) = 0.15420 0.28203
# Poissons Ratio (y) = 0.48187 0.59053
# Poissons Ratio (z) = 0.32550 0.21810
#
# Static dielectric constant tensor:
#      x y z
#    x 3.810310 0.000000 0.385040 
#    y 0.000000 3.247770 0.000000 
#    z 0.385040 0.000000 6.389500 
# 
# 
# High freq. dielectric constant tensor:
#      x y z
#    x 1.762020 0.000000 0.000530 
#    y 0.000000 1.713670 0.000000 
#    z 0.000530 0.000000 1.760600 
# 
# From -- ./inp_files/249753.got.cif
#   From: 2010.06.25/outbox.cif.g09.slc.cpg/sg12_125_cif.got.tgz:249753.got - 2010.06.28 00:19:55.
