data_PCOD8087475
_publ_section_title
;
Structure prediction by ZEFSAII (Michael W. Deem and Ramdas Pophale) SiO2 
 PCOD8087475
Probable space group: C 2/M
;
_chemical_formula_sum "Si O2"
_cell_formula_units_Z 52
_cell_length_a 26.850614
_cell_length_b 9.920481
_cell_length_c 11.228286
_cell_angle_alpha 90.000000
_cell_angle_beta 72.693905
_cell_angle_gamma 90.000000
_cell_volume 2855.489742
_symmetry_space_group_name_H-M "C 2/M"
_symmetry_group_IT_number 12
_symmetry_cell_setting 'monoclinic'
loop_
_space_group_symop_operation_xyz
x,y,z
-x,y,-z
-x,-y,-z
x,-y,z
1/2+x,1/2+y,z
1/2-x,1/2+y,-z
1/2-x,1/2-y,-z
1/2+x,1/2-y,z
loop_
_atom_site_type_symbol
_atom_site_label
_atom_site_fract_x
_atom_site_fract_y
_atom_site_fract_z
Si Si1 0.238052 0.656064 0.619909
Si Si2 0.000000 0.745294 0.500000
Si Si3 0.050133 0.656375 0.030191
Si Si4 0.122230 0.345352 0.767670
Si Si5 0.084941 0.149269 0.602933
Si Si6 0.916917 0.346442 0.738513
Si Si7 0.842077 0.152676 0.665383
O O1 0.238941 0.500000 0.577037
O O2 0.250000 0.750000 0.500000
O O3 0.182632 0.696128 0.716498
O O4 0.280411 0.679720 0.694373
O O5 0.968561 0.840394 0.432435
O O6 0.960140 0.653963 0.603738
O O7 0.037267 0.500000 0.056133
O O8 0.059549 0.715465 0.155711
O O9 0.102380 0.680297 0.915763
O O10 0.000000 0.724267 0.000000
O O11 0.113603 0.500000 0.736061
O O12 0.086165 0.258501 0.706035
O O13 0.133833 0.175874 0.482257
O O14 0.088160 0.000000 0.656580
O O15 0.897658 0.500000 0.769703
O O16 0.866727 0.256287 0.741539
O O17 0.853349 0.000000 0.701306
#
# Coordination Sequence:
#
# PCOD8087475 Si02
#       7
#     8   4   8   8   8   8   8
#     4  10  19  33  53  79 107 138 173 215 263 311
#     4  10  20  32  50  76 104 132 174 214 268 310
#     4   9  18  34  53  75 106 139 171 215 266 309
#     4  10  20  33  54  79 103 135 177 218 258 307
#     4  10  19  32  50  73 104 139 170 207 261 317
#     4  10  20  34  54  77 102 134 177 222 260 307
#     4   9  19  34  50  72 107 139 164 208 269 317
#
# _framework density 18.210536000000001
#
# number of rings (size 3 to 8) (size 9 to 14) (size 15 to 20)
#    0.000    2.308    1.538    1.385    0.000    5.538 
#    0.000    1.538    0.000    1.846    0.000    0.000 
#    0.000    0.000    0.000    0.000    0.000    0.000 
#
# Total GULP energy -322368.576460 kJ/mol
# GULP energy per Si atom -12398.791402 kJ/mol
# Density = 1.816909 g / cm^3
# Si number density = 18.210536 Si / 1000 Ang^3
#
#
#
# Elastic Constant Matrix: (Units=GPa)
#
#
# Indices 1 2 3 4 5 6 
#
# 1 118.6578 39.3877 50.9445 0.0000 6.9688 0.0000
# 2 39.3877 72.5497 39.8245 0.0000 11.4839 0.0000
# 3 50.9445 39.8245 92.5776 0.0000 11.7891 0.0000
# 4 0.0000 0.0000 0.0000 18.2477 0.0000 7.0530
# 5 6.9688 11.4839 11.7891 0.0000 29.9270 0.0000
# 6 0.0000 0.0000 0.0000 7.0530 0.0000 25.2595
#
#
#
# Elastic Compliance Matrix: (Units=1/GPa)
#
#
# Indices 1 2 3 4 5 6 
#
# 1 0.011761 -0.003784 -0.004927 0.000000 0.000654 0.000000
# 2 -0.003784 0.019746 -0.005853 0.000000 -0.004390 0.000000
# 3 -0.004927 -0.005853 0.016423 0.000000 -0.003076 0.000000
# 4 0.000000 0.000000 0.000000 0.061431 0.000000 -0.017153
# 5 0.000654 -0.004390 -0.003076 0.000000 0.036159 0.000000
# 6 0.000000 0.000000 0.000000 -0.017153 0.000000 0.044379
#
#
# Mechanical properties :
#
#
# Convention : Reuss Voigt Hill
#
# Bulk Modulus (GPa) = 53.18869 60.45538 56.82203
# Shear Modulus (GPa) = 22.19334 24.92873 23.56103
#
# Velocity S-wave (km/s) = 3.49479 3.70390 3.60086
# Velocity P-wave (km/s) = 6.74950 7.18067 6.96842
#
# Compressibility (1/GPa) = 0.01880099
#
# Stress axis : x y z
#
# Youngs Moduli (GPa) = 85.02894 50.64418 60.89120
#
# Poissons Ratio (x) = 0.19162 0.30004
# Poissons Ratio (y) = 0.32173 0.35639
# Poissons Ratio (z) = 0.41898 0.29641
#
# Static dielectric constant tensor:
#      x y z
#    x 3.531360 0.000000 -0.015420 
#    y 0.000000 3.203960 0.000000 
#    z -0.015420 0.000000 3.235150 
# 
# 
# High freq. dielectric constant tensor:
#      x y z
#    x 1.714380 0.000000 0.000990 
#    y 0.000000 1.689600 0.000000 
#    z 0.000990 0.000000 1.684210 
# 
# From -- ./inp_files/179944.got.cif
#   From: 2010.06.25/outbox.cif.g09.slc.cpg/sg12_90_cif.got.tgz:179944.got - 2010.06.28 00:19:55.
