data_PCOD8087338
_publ_section_title
;
Structure prediction by ZEFSAII (Michael W. Deem and Ramdas Pophale) SiO2 
 PCOD8087338
Probable space group: C 2/M
;
_chemical_formula_sum "Si O2"
_cell_formula_units_Z 48
_cell_length_a 26.342175
_cell_length_b 25.371906
_cell_length_c 11.125507
_cell_angle_alpha 90.000000
_cell_angle_beta 22.528351
_cell_angle_gamma 90.000000
_cell_volume 2848.935654
_symmetry_space_group_name_H-M "C 2/M"
_symmetry_group_IT_number 12
_symmetry_cell_setting 'monoclinic'
loop_
_space_group_symop_operation_xyz
x,y,z
-x,y,-z
-x,-y,-z
x,-y,z
1/2+x,1/2+y,z
1/2-x,1/2+y,-z
1/2-x,1/2-y,-z
1/2+x,1/2-y,z
loop_
_atom_site_type_symbol
_atom_site_label
_atom_site_fract_x
_atom_site_fract_y
_atom_site_fract_z
Si Si1 0.317035 0.675680 0.129019
Si Si2 0.652063 0.701415 0.194113
Si Si3 0.896504 0.849989 0.452806
Si Si4 0.143794 0.060551 0.628692
Si Si5 0.645013 0.874212 0.703521
Si Si6 0.278940 0.781257 0.317127
O O1 0.193136 0.654394 0.475650
O O2 0.344539 0.739079 0.083448
O O3 0.294662 0.667208 0.035657
O O4 0.445663 0.645300 0.893982
O O5 0.500000 0.719928 0.500000
O O6 0.659052 0.662755 0.293423
O O7 0.750000 0.750000 0.000000
O O8 0.841927 0.906232 0.525935
O O9 0.854630 0.803954 0.451360
O O10 0.254959 0.079147 0.480510
O O11 0.168346 0.000000 0.542628
O O12 0.000000 0.070173 0.000000
O O13 0.630539 0.831144 0.843247
O O14 0.500000 0.898745 0.000000
O O15 0.250000 0.750000 0.500000
#
# Coordination Sequence:
#
# PCOD8087338 Si02
#       6
#     8   8   8   8   8   8
#     4  10  19  32  49  72 113 144 174 210 255 320
#     4  10  20  33  51  75 109 150 178 208 253 310
#     4  10  19  34  51  76 105 137 185 216 253 316
#     4  10  20  38  60  76  99 139 181 229 279 315
#     4  10  21  32  50  81 106 134 175 219 273 317
#     4   9  19  26  45  70 106 141 167 200 257 310
#
# _framework density 16.848396999999999
#
# number of rings (size 3 to 8) (size 9 to 14) (size 15 to 20)
#    0.000    2.167    3.333    0.000    4.667    0.333 
#    0.000    0.000    0.000    5.500    0.000    1.167 
#    0.000    0.000    0.000    0.000    0.000    0.000 
#
# Total GULP energy -297425.951063 kJ/mol
# GULP energy per Si atom -12392.747961 kJ/mol
# Density = 1.681005 g / cm^3
# Si number density = 16.848397 Si / 1000 Ang^3
#
#
#
# Elastic Constant Matrix: (Units=GPa)
#
#
# Indices 1 2 3 4 5 6 
#
# 1 120.5347 50.5470 50.1762 0.0031 0.7128 -0.0007
# 2 50.5470 99.3578 35.8788 0.0019 -1.0422 -0.0006
# 3 50.1762 35.8788 87.9539 0.0056 -8.2204 -0.0035
# 4 0.0031 0.0019 0.0056 18.7394 -0.0037 0.1833
# 5 0.7128 -1.0422 -8.2204 -0.0037 29.2291 0.0024
# 6 -0.0007 -0.0006 -0.0035 0.1833 0.0024 16.1438
#
#
#
# Elastic Compliance Matrix: (Units=1/GPa)
#
#
# Indices 1 2 3 4 5 6 
#
# 1 0.012424 -0.004356 -0.005498 0.000000 -0.002005 -0.000001
# 2 -0.004356 0.013357 -0.002988 0.000000 -0.000258 0.000000
# 3 -0.005498 -0.002988 0.016152 -0.000003 0.004570 0.000003
# 4 0.000000 0.000000 -0.000003 0.053370 0.000006 -0.000606
# 5 -0.002005 -0.000258 0.004570 0.000006 0.035538 -0.000004
# 6 -0.000001 0.000000 0.000003 -0.000606 -0.000004 0.061950
#
#
# Mechanical properties :
#
#
# Convention : Reuss Voigt Hill
#
# Bulk Modulus (GPa) = 61.54131 64.56113 63.05122
# Shear Modulus (GPa) = 22.33247 24.23873 23.28560
#
# Velocity S-wave (km/s) = 3.64468 3.79705 3.72165
# Velocity P-wave (km/s) = 7.37004 7.59115 7.48141
#
# Compressibility (1/GPa) = 0.01624925
#
# Stress axis : x y z
#
# Youngs Moduli (GPa) = 80.49192 74.86770 61.91216
#
# Poissons Ratio (x) = 0.32613 0.34038
# Poissons Ratio (y) = 0.35063 0.18497
# Poissons Ratio (z) = 0.44253 0.22368
#
# Static dielectric constant tensor:
#      x y z
#    x 3.455310 0.000000 0.036530 
#    y 0.000000 3.046300 0.000010 
#    z 0.036530 0.000010 3.049410 
# 
# 
# High freq. dielectric constant tensor:
#      x y z
#    x 1.662420 0.000000 -0.007550 
#    y 0.000000 1.618180 0.000000 
#    z -0.007550 0.000000 1.633850 
# 
# From -- ./inp_files/122061.got.cif
#   From: 2010.06.25/outbox.cif.g09.slc.cpg/sg12_62_cif.got.tgz:122061.got - 2010.06.28 00:19:55.
