data_PCOD8087342
_publ_section_title
;
Structure prediction by ZEFSAII (Michael W. Deem and Ramdas Pophale) SiO2 
 PCOD8087342
Probable space group: C 2/M
;
_chemical_formula_sum "Si O2"
_cell_formula_units_Z 48
_cell_length_a 27.343043
_cell_length_b 8.867019
_cell_length_c 11.988384
_cell_angle_alpha 90.000000
_cell_angle_beta 106.634368
_cell_angle_gamma 90.000000
_cell_volume 2784.960909
_symmetry_space_group_name_H-M "C 2/M"
_symmetry_group_IT_number 12
_symmetry_cell_setting 'monoclinic'
loop_
_space_group_symop_operation_xyz
x,y,z
-x,y,-z
-x,-y,-z
x,-y,z
1/2+x,1/2+y,z
1/2-x,1/2+y,-z
1/2-x,1/2-y,-z
1/2+x,1/2-y,z
loop_
_atom_site_type_symbol
_atom_site_label
_atom_site_fract_x
_atom_site_fract_y
_atom_site_fract_z
Si Si1 0.787562 0.170319 0.884720
Si Si2 0.635131 0.822828 0.914644
Si Si3 0.694770 0.179673 0.488758
Si Si4 0.818178 0.678564 0.272183
Si Si5 0.367604 0.671019 0.741170
Si Si6 0.441932 0.179240 0.952976
O O1 0.734012 0.243930 0.814033
O O2 0.822218 0.175030 0.798558
O O3 0.782014 0.000000 0.925432
O O4 0.811438 0.269889 0.998145
O O5 0.635601 0.774550 0.783125
O O6 0.633397 0.000000 0.923287
O O7 0.587155 0.759060 0.954201
O O8 0.750000 0.250000 0.500000
O O9 0.674758 0.236493 0.597255
O O10 0.650704 0.235763 0.377799
O O11 0.700133 0.000000 0.485160
O O12 0.812427 0.500000 0.272855
O O13 0.380957 0.500000 0.714977
O O14 0.417811 0.748078 0.826484
O O15 0.437829 0.000000 0.939259
O O16 0.500000 0.233769 0.000000
#
# Coordination Sequence:
#
# PCOD8087342 Si02
#       6
#     8   8   8   8   8   8
#     4   9  16  28  43  63  95 126 152 191 234 275
#     4   9  17  29  46  68  92 122 157 192 237 287
#     4  11  20  32  48  68  98 134 167 197 231 275
#     4   9  17  29  44  64  95 129 158 191 230 275
#     4  10  19  32  49  72  99 127 163 200 237 282
#     4   9  18  33  53  76  98 120 154 203 250 289
#
# _framework density 17.235429
#
# number of rings (size 3 to 8) (size 9 to 14) (size 15 to 20)
#    0.000    2.500    1.667    1.500    0.000    1.000 
#    0.000    1.667    0.000    1.000    0.000    7.000 
#    0.000    0.000    0.000    0.000    0.000    0.000 
#
# Total GULP energy -297411.985166 kJ/mol
# GULP energy per Si atom -12392.166049 kJ/mol
# Density = 1.719620 g / cm^3
# Si number density = 17.235429 Si / 1000 Ang^3
#
#
#
# Elastic Constant Matrix: (Units=GPa)
#
#
# Indices 1 2 3 4 5 6 
#
# 1 86.8803 29.1195 72.0265 0.0000 9.7655 0.0000
# 2 29.1195 36.6086 35.0662 0.0000 -1.8898 0.0000
# 3 72.0265 35.0662 141.9802 0.0000 -9.6863 0.0000
# 4 0.0000 0.0000 0.0000 23.0927 0.0000 4.2963
# 5 9.7655 -1.8898 -9.6863 0.0000 22.7240 0.0000
# 6 0.0000 0.0000 0.0000 4.2963 0.0000 16.9628
#
#
#
# Elastic Compliance Matrix: (Units=1/GPa)
#
#
# Indices 1 2 3 4 5 6 
#
# 1 0.027589 -0.010859 -0.012549 0.000000 -0.018108 0.000000
# 2 -0.010859 0.040070 -0.003957 0.000000 0.006312 0.000000
# 3 -0.012549 -0.003957 0.015173 0.000000 0.011532 0.000000
# 4 0.000000 0.000000 0.000000 0.045445 0.000000 -0.011510
# 5 -0.018108 0.006312 0.011532 0.000000 0.057229 0.000000
# 6 0.000000 0.000000 0.000000 -0.011510 0.000000 0.061868
#
#
# Mechanical properties :
#
#
# Convention : Reuss Voigt Hill
#
# Bulk Modulus (GPa) = 35.58540 59.76591 47.67566
# Shear Modulus (GPa) = 16.05281 21.17301 18.61291
#
# Velocity S-wave (km/s) = 3.05517 3.50874 3.28978
# Velocity P-wave (km/s) = 5.75647 7.15307 6.49243
#
# Compressibility (1/GPa) = 0.02810141
#
# Stress axis : x y z
#
# Youngs Moduli (GPa) = 36.24649 24.95648 65.90457
#
# Poissons Ratio (x) = 0.27101 0.82705
# Poissons Ratio (y) = 0.39361 0.26078
# Poissons Ratio (z) = 0.45487 0.09875
#
# Static dielectric constant tensor:
#      x y z
#    x 3.247710 0.000000 -0.250070 
#    y 0.000000 3.132850 0.000000 
#    z -0.250070 0.000000 3.445990 
# 
# 
# High freq. dielectric constant tensor:
#      x y z
#    x 1.641410 0.000000 -0.016010 
#    y 0.000000 1.652020 0.000000 
#    z -0.016010 0.000000 1.665460 
# 
# From -- ./inp_files/179165.got.cif
#   From: 2010.06.25/outbox.cif.g09.slc.cpg/sg12_90_cif.got.tgz:179165.got - 2010.06.28 00:19:55.
