data_PCOD8087017
_publ_section_title
;
Structure prediction by ZEFSAII (Michael W. Deem and Ramdas Pophale) SiO2 
 PCOD8087017
Probable space group: C 2/M
;
_chemical_formula_sum "Si O2"
_cell_formula_units_Z 40
_cell_length_a 11.096974
_cell_length_b 15.054895
_cell_length_c 11.827639
_cell_angle_alpha 90.000000
_cell_angle_beta 108.271062
_cell_angle_gamma 90.000000
_cell_volume 1876.349441
_symmetry_space_group_name_H-M "C 2/M"
_symmetry_group_IT_number 12
_symmetry_cell_setting 'monoclinic'
loop_
_space_group_symop_operation_xyz
x,y,z
-x,y,-z
-x,-y,-z
x,-y,z
1/2+x,1/2+y,z
1/2-x,1/2+y,-z
1/2-x,1/2-y,-z
1/2+x,1/2-y,z
loop_
_atom_site_type_symbol
_atom_site_label
_atom_site_fract_x
_atom_site_fract_y
_atom_site_fract_z
Si Si1 0.434421 0.605971 0.149412
Si Si2 0.810835 0.894455 0.889982
Si Si3 0.822143 0.342020 0.536697
Si Si4 0.588536 0.897386 0.672675
Si Si5 0.101423 0.100494 0.614075
O O1 0.431044 0.500000 0.150627
O O2 0.573364 0.640720 0.153703
O O3 0.399485 0.646603 0.262251
O O4 0.330854 0.638201 0.025281
O O5 0.676236 0.860817 0.800872
O O6 0.811621 0.000000 0.883394
O O7 0.750000 0.250000 0.500000
O O8 0.829937 0.391063 0.418606
O O9 0.740773 0.398891 0.601535
O O10 0.964146 0.334957 0.630286
O O11 0.547758 0.000000 0.677695
O O12 0.000000 0.148853 0.500000
O O13 0.055036 0.000000 0.617956
#
# Coordination Sequence:
#
# PCOD8087017 Si02
#       5
#     8   8   8   8   8
#     4   8  14  26  49  84 116 136 173 230 276 316
#     4   8  14  28  52  82 110 140 179 225 271 319
#     4  11  23  35  52  76 110 145 179 225 279 330
#     4  10  20  38  60  80 105 147 193 228 268 333
#     4  10  19  31  52  82 110 138 176 227 276 322
#
# _framework density 21.317990000000002
#
# number of rings (size 3 to 8) (size 9 to 14) (size 15 to 20)
#    0.000    2.600    0.000    4.800    2.800    3.200 
#    0.000    1.000    0.000    6.000    5.200    0.000 
#    0.000    0.000    0.000    0.000    0.000    0.000 
#
# Total GULP energy -247849.916975 kJ/mol
# GULP energy per Si atom -12392.495849 kJ/mol
# Density = 2.126947 g / cm^3
# Si number density = 21.317990 Si / 1000 Ang^3
#
#
#
# Elastic Constant Matrix: (Units=GPa)
#
#
# Indices 1 2 3 4 5 6 
#
# 1 131.9583 17.5134 105.3948 0.0000 8.9676 0.0000
# 2 17.5134 34.9045 13.7434 0.0000 13.4327 0.0000
# 3 105.3948 13.7434 219.6607 0.0000 16.1825 0.0000
# 4 0.0000 0.0000 0.0000 7.4421 0.0000 8.6316
# 5 8.9676 13.4327 16.1825 0.0000 47.6825 0.0000
# 6 0.0000 0.0000 0.0000 8.6316 0.0000 21.3934
#
#
#
# Elastic Compliance Matrix: (Units=1/GPa)
#
#
# Indices 1 2 3 4 5 6 
#
# 1 0.012870 -0.004439 -0.005960 0.000000 0.000853 0.000000
# 2 -0.004439 0.034076 0.000660 0.000000 -0.008989 0.000000
# 3 -0.005960 0.000660 0.007489 0.000000 -0.001607 0.000000
# 4 0.000000 0.000000 0.000000 0.252560 0.000000 -0.101900
# 5 0.000853 -0.008989 -0.001607 0.000000 0.023889 0.000000
# 6 0.000000 0.000000 0.000000 -0.101900 0.000000 0.087857
#
#
# Mechanical properties :
#
#
# Convention : Reuss Voigt Hill
#
# Bulk Modulus (GPa) = 28.60638 73.31407 50.96023
# Shear Modulus (GPa) = 11.11429 31.96170 21.53799
#
# Velocity S-wave (km/s) = 2.28580 3.87626 3.18200
# Velocity P-wave (km/s) = 4.51825 7.38236 6.12020
#
# Compressibility (1/GPa) = 0.03495724
#
# Stress axis : x y z
#
# Youngs Moduli (GPa) = 77.70270 29.34597 133.52542
#
# Poissons Ratio (x) = 0.13026 0.79581
# Poissons Ratio (y) = 0.34491 -0.08812
# Poissons Ratio (z) = 0.46311 -0.01937
#
# Static dielectric constant tensor:
#      x y z
#    x 3.977250 0.000000 0.129640 
#    y 0.000000 3.278760 0.000000 
#    z 0.129640 0.000000 4.467220 
# 
# 
# High freq. dielectric constant tensor:
#      x y z
#    x 1.825870 0.000000 0.008210 
#    y 0.000000 1.789770 0.000000 
#    z 0.008210 0.000000 1.847950 
# 
# From -- ./inp_files/129825.got.cif
#   From: 2010.06.25/outbox.cif.g09.slc.cpg/sg12_65_cif.got.tgz:129825.got - 2010.06.28 00:19:55.
