data_PCOD8087009
_publ_section_title
;
Structure prediction by ZEFSAII (Michael W. Deem and Ramdas Pophale) SiO2 
 PCOD8087009
Probable space group: C 2/M
;
_chemical_formula_sum "Si O2"
_cell_formula_units_Z 48
_cell_length_a 23.865684
_cell_length_b 10.287090
_cell_length_c 12.739213
_cell_angle_alpha 90.000000
_cell_angle_beta 126.670595
_cell_angle_gamma 90.000000
_cell_volume 2508.579847
_symmetry_space_group_name_H-M "C 2/M"
_symmetry_group_IT_number 12
_symmetry_cell_setting 'monoclinic'
loop_
_space_group_symop_operation_xyz
x,y,z
-x,y,-z
-x,-y,-z
x,-y,z
1/2+x,1/2+y,z
1/2-x,1/2+y,-z
1/2-x,1/2-y,-z
1/2+x,1/2-y,z
loop_
_atom_site_type_symbol
_atom_site_label
_atom_site_fract_x
_atom_site_fract_y
_atom_site_fract_z
Si Si1 0.182342 0.848371 0.592870
Si Si2 0.579879 0.352697 0.290348
Si Si3 0.666855 0.217995 0.014960
Si Si4 0.320383 0.641457 0.178896
Si Si5 0.301329 0.646817 0.743677
Si Si6 0.982625 0.355690 0.098453
O O1 0.121218 0.821236 0.442808
O O2 0.153265 0.813156 0.676590
O O3 0.246699 0.752971 0.639076
O O4 0.207094 0.000000 0.615119
O O5 0.550282 0.500000 0.259900
O O6 0.628769 0.333229 0.244507
O O7 0.516209 0.251162 0.213235
O O8 0.735982 0.130605 0.087629
O O9 0.680961 0.334588 0.113487
O O10 0.650889 0.266114 0.879371
O O11 0.600568 0.136413 0.978507
O O12 0.350717 0.500000 0.187978
O O13 0.272133 0.500000 0.695359
O O14 0.013023 0.500000 0.155455
O O15 0.000000 0.313188 0.000000
#
# Coordination Sequence:
#
# PCOD8087009 Si02
#       6
#     8   8   8   8   8   8
#     4   9  19  35  54  78 109 146 186 224 268 321
#     4  10  21  36  53  78 112 147 182 223 271 326
#     4  10  19  34  54  81 112 141 180 227 275 322
#     4   9  18  33  56  80 106 142 183 225 268 319
#     4  10  19  31  52  81 110 141 181 230 278 320
#     4  11  23  38  57  82 112 146 182 222 274 332
#
# _framework density 19.134331
#
# number of rings (size 3 to 8) (size 9 to 14) (size 15 to 20)
#    0.000    2.167    1.667    1.500    0.000    3.667 
#    0.000    1.667    0.000    4.000    0.000    0.000 
#    0.000    0.000    0.000    0.000    0.000    0.000 
#
# Total GULP energy -297513.421082 kJ/mol
# GULP energy per Si atom -12396.392545 kJ/mol
# Density = 1.909078 g / cm^3
# Si number density = 19.134331 Si / 1000 Ang^3
#
#
#
# Elastic Constant Matrix: (Units=GPa)
#
#
# Indices 1 2 3 4 5 6 
#
# 1 68.1890 15.1941 29.1240 0.0000 -8.2942 0.0000
# 2 15.1941 98.4924 45.1919 0.0000 6.1487 0.0000
# 3 29.1240 45.1919 89.5177 0.0000 -7.6991 0.0000
# 4 0.0000 0.0000 0.0000 28.1338 0.0000 6.2708
# 5 -8.2942 6.1487 -7.6991 0.0000 27.0462 0.0000
# 6 0.0000 0.0000 0.0000 6.2708 0.0000 13.1427
#
#
#
# Elastic Compliance Matrix: (Units=1/GPa)
#
#
# Indices 1 2 3 4 5 6 
#
# 1 0.017439 -0.000654 -0.004993 0.000000 0.004075 0.000000
# 2 -0.000654 0.013940 -0.007293 0.000000 -0.005446 0.000000
# 3 -0.004993 -0.007293 0.016902 0.000000 0.004938 0.000000
# 4 0.000000 0.000000 0.000000 0.039774 0.000000 -0.018977
# 5 0.004075 -0.005446 0.004938 0.000000 0.040867 0.000000
# 6 0.000000 0.000000 0.000000 -0.018977 0.000000 0.085143
#
#
# Mechanical properties :
#
#
# Convention : Reuss Voigt Hill
#
# Bulk Modulus (GPa) = 44.64036 48.35766 46.49901
# Shear Modulus (GPa) = 20.20912 24.77716 22.49314
#
# Velocity S-wave (km/s) = 3.25340 3.60238 3.43233
# Velocity P-wave (km/s) = 6.12319 6.52920 6.32945
#
# Compressibility (1/GPa) = 0.02240125
#
# Stress axis : x y z
#
# Youngs Moduli (GPa) = 57.34240 71.73450 59.16406
#
# Poissons Ratio (x) = 0.04689 0.29542
# Poissons Ratio (y) = 0.03748 0.43150
# Poissons Ratio (z) = 0.28632 0.52318
#
# Static dielectric constant tensor:
#      x y z
#    x 3.325550 0.000000 -0.220660 
#    y 0.000000 3.448220 0.000000 
#    z -0.220660 0.000000 3.457400 
# 
# 
# High freq. dielectric constant tensor:
#      x y z
#    x 1.728300 0.000000 -0.019510 
#    y 0.000000 1.744450 0.000000 
#    z -0.019510 0.000000 1.737510 
# 
# From -- ./inp_files/164715.got.cif
#   From: 2010.06.25/outbox.cif.g09.slc.cpg/sg12_83_cif.got.tgz:164715.got - 2010.06.28 00:19:55.
