data_PCOD8087492
_publ_section_title
;
Structure prediction by ZEFSAII (Michael W. Deem and Ramdas Pophale) SiO2 
 PCOD8087492
Probable space group: C 2/M
;
_chemical_formula_sum "Si O2"
_cell_formula_units_Z 56
_cell_length_a 17.248748
_cell_length_b 11.822930
_cell_length_c 16.890369
_cell_angle_alpha 90.000000
_cell_angle_beta 120.965993
_cell_angle_gamma 90.000000
_cell_volume 2953.535582
_symmetry_space_group_name_H-M "C 2/M"
_symmetry_group_IT_number 12
_symmetry_cell_setting 'monoclinic'
loop_
_space_group_symop_operation_xyz
x,y,z
-x,y,-z
-x,-y,-z
x,-y,z
1/2+x,1/2+y,z
1/2-x,1/2+y,-z
1/2-x,1/2-y,-z
1/2+x,1/2-y,z
loop_
_atom_site_type_symbol
_atom_site_label
_atom_site_fract_x
_atom_site_fract_y
_atom_site_fract_z
Si Si1 0.879646 0.871479 0.582098
Si Si2 0.042871 0.262171 0.602654
Si Si3 0.054523 0.374511 0.768860
Si Si4 0.590643 0.371481 0.086238
Si Si5 0.617147 0.758253 0.260154
Si Si6 0.205607 0.127396 0.624250
Si Si7 0.745190 0.867703 0.946886
O O1 0.849026 0.812940 0.646882
O O2 0.804255 0.849556 0.475104
O O3 0.977200 0.834935 0.600635
O O4 0.888985 0.000000 0.610295
O O5 0.050630 0.359229 0.672247
O O6 0.141779 0.210973 0.640150
O O7 0.000000 0.314814 0.500000
O O8 0.023113 0.500000 0.771833
O O9 0.155263 0.350513 0.849505
O O10 0.985599 0.296183 0.780552
O O11 0.570266 0.500000 0.100011
O O12 0.620640 0.308558 0.180721
O O13 0.669530 0.362224 0.064595
O O14 0.500000 0.317662 0.000000
O O15 0.690489 0.858680 0.293871
O O16 0.175231 0.000000 0.627563
O O17 0.744009 0.000000 0.984656
O O18 0.750000 0.750000 0.000000
#
# Coordination Sequence:
#
# PCOD8087492 Si02
#       7
#     8   8   8   8   8   8   8
#     4   9  18  32  51  75 103 137 176 218 261 307
#     4   9  18  33  53  75 101 137 181 221 259 308
#     4  10  21  36  53  76 109 144 175 214 267 322
#     4  10  21  37  58  82 106 133 171 222 272 316
#     4  11  20  33  53  77 107 139 174 210 260 322
#     4  10  19  32  50  74 105 138 175 220 264 305
#     4  10  21  40  62  83 110 143 179 223 274 327
#
# _framework density 18.960325999999998
#
# number of rings (size 3 to 8) (size 9 to 14) (size 15 to 20)
#    0.000    2.143    0.000    3.429    0.000    2.000 
#    0.000    7.143    0.000    4.714    0.000    0.000 
#    0.000    0.000    0.000    0.000    0.000    0.000 
#
# Total GULP energy -346952.357657 kJ/mol
# GULP energy per Si atom -12391.155631 kJ/mol
# Density = 1.891717 g / cm^3
# Si number density = 18.960326 Si / 1000 Ang^3
#
#
#
# Elastic Constant Matrix: (Units=GPa)
#
#
# Indices 1 2 3 4 5 6 
#
# 1 72.2269 20.3162 42.1968 0.0000 9.7720 0.0000
# 2 20.3162 87.9500 44.9537 0.0000 -5.7757 0.0000
# 3 42.1968 44.9537 95.1798 0.0000 7.6302 0.0000
# 4 0.0000 0.0000 0.0000 28.8771 0.0000 -1.1042
# 5 9.7720 -5.7757 7.6302 0.0000 36.0153 0.0000
# 6 0.0000 0.0000 0.0000 -1.1042 0.0000 19.1797
#
#
#
# Elastic Compliance Matrix: (Units=1/GPa)
#
#
# Indices 1 2 3 4 5 6 
#
# 1 0.019121 -0.000619 -0.007895 0.000000 -0.003615 0.000000
# 2 -0.000619 0.015588 -0.007428 0.000000 0.004241 0.000000
# 3 -0.007895 -0.007428 0.017740 0.000000 -0.002807 0.000000
# 4 0.000000 0.000000 0.000000 0.034706 0.000000 0.001998
# 5 -0.003615 0.004241 -0.002807 0.000000 0.030022 0.000000
# 6 0.000000 0.000000 0.000000 0.001998 0.000000 0.052253
#
#
# Mechanical properties :
#
#
# Convention : Reuss Voigt Hill
#
# Bulk Modulus (GPa) = 48.62564 52.25447 50.44006
# Shear Modulus (GPa) = 24.01898 26.67376 25.34637
#
# Velocity S-wave (km/s) = 3.56308 3.75483 3.66021
# Velocity P-wave (km/s) = 6.52909 6.81308 6.67260
#
# Compressibility (1/GPa) = 0.02056528
#
# Stress axis : x y z
#
# Youngs Moduli (GPa) = 52.29908 64.15079 56.37023
#
# Poissons Ratio (x) = 0.03971 0.44504
# Poissons Ratio (y) = 0.03237 0.41872
# Poissons Ratio (z) = 0.41289 0.47651
#
# Static dielectric constant tensor:
#      x y z
#    x 3.432900 0.000000 0.078320 
#    y 0.000000 3.595060 0.000000 
#    z 0.078320 0.000000 3.570220 
# 
# 
# High freq. dielectric constant tensor:
#      x y z
#    x 1.742140 0.000000 0.011000 
#    y 0.000000 1.731710 0.000000 
#    z 0.011000 0.000000 1.736310 
# 
# From -- ./inp_files/276684.got.cif
#   From: 2010.06.25/outbox.cif.g09.slc.cpg/sg12_139_cif.got.tgz:276684.got - 2010.06.28 00:19:55.
