data_PCOD8087733
_publ_section_title
;
Structure prediction by ZEFSAII (Michael W. Deem and Ramdas Pophale) SiO2 
 PCOD8087733
Probable space group: C 2/M
;
_chemical_formula_sum "Si O2"
_cell_formula_units_Z 48
_cell_length_a 26.606205
_cell_length_b 9.372408
_cell_length_c 19.614868
_cell_angle_alpha 90.000000
_cell_angle_beta 32.754021
_cell_angle_gamma 90.000000
_cell_volume 2646.327932
_symmetry_space_group_name_H-M "C 2/M"
_symmetry_group_IT_number 12
_symmetry_cell_setting 'monoclinic'
loop_
_space_group_symop_operation_xyz
x,y,z
-x,y,-z
-x,-y,-z
x,-y,z
1/2+x,1/2+y,z
1/2-x,1/2+y,-z
1/2-x,1/2-y,-z
1/2+x,1/2-y,z
loop_
_atom_site_type_symbol
_atom_site_label
_atom_site_fract_x
_atom_site_fract_y
_atom_site_fract_z
Si Si1 0.519244 0.654775 0.257069
Si Si2 0.806750 0.835369 0.490872
Si Si3 0.315037 0.170140 0.979014
Si Si4 0.279451 0.160104 0.801462
Si Si5 0.819457 0.342728 0.605235
Si Si6 0.017983 0.753864 0.405215
O O1 0.552794 0.500000 0.191225
O O2 0.415174 0.684880 0.350826
O O3 0.579877 0.782363 0.156520
O O4 0.524685 0.639648 0.333434
O O5 0.750000 0.750000 0.500000
O O6 0.784842 0.773086 0.590575
O O7 0.776640 0.000000 0.524572
O O8 0.305790 0.000000 0.983440
O O9 0.250000 0.250000 0.000000
O O10 0.283952 0.222081 0.089079
O O11 0.268787 0.194765 0.733832
O O12 0.386896 0.165227 0.701682
O O13 0.244254 0.000000 0.858376
O O14 0.790043 0.500000 0.613355
O O15 0.930673 0.348393 0.489708
O O16 0.000000 0.830480 0.500000
#
# Coordination Sequence:
#
# PCOD8087733 Si02
#       6
#     8   8   8   8   8   8
#     4  10  21  36  53  77 108 140 179 222 265 315
#     4  10  21  37  59  84 109 137 173 223 274 324
#     4  12  24  35  51  74 107 149 188 223 260 309
#     4  10  19  32  51  75 108 146 182 217 259 313
#     4   9  18  32  52  79 108 140 176 218 267 321
#     4   9  17  28  48  76 107 142 177 213 257 312
#
# _framework density 18.138342000000002
#
# number of rings (size 3 to 8) (size 9 to 14) (size 15 to 20)
#    0.000    2.000    1.667    2.500    0.000    6.333 
#    0.000    3.333    0.000    1.000    0.000    7.000 
#    0.000    0.000    0.000    0.000    0.000    0.000 
#
# Total GULP energy -297445.910891 kJ/mol
# GULP energy per Si atom -12393.579620 kJ/mol
# Density = 1.809706 g / cm^3
# Si number density = 18.138342 Si / 1000 Ang^3
#
#
#
# Elastic Constant Matrix: (Units=GPa)
#
#
# Indices 1 2 3 4 5 6 
#
# 1 107.0563 64.3403 43.7278 0.0020 4.0215 -0.0011
# 2 64.3403 156.9776 60.2401 0.0041 9.1538 -0.0031
# 3 43.7278 60.2401 87.6276 0.0026 16.8786 -0.0030
# 4 0.0020 0.0041 0.0026 27.4587 -0.0022 5.1472
# 5 4.0215 9.1538 16.8786 -0.0022 20.4650 0.0010
# 6 -0.0011 -0.0031 -0.0030 5.1472 0.0010 24.8046
#
#
#
# Elastic Compliance Matrix: (Units=1/GPa)
#
#
# Indices 1 2 3 4 5 6 
#
# 1 0.013462 -0.003932 -0.004570 0.000000 0.002883 -0.000001
# 2 -0.003932 0.009828 -0.004870 -0.000001 0.000393 0.000001
# 3 -0.004570 -0.004870 0.019554 -0.000002 -0.013051 0.000003
# 4 0.000000 -0.000001 -0.000002 0.037892 0.000007 -0.007863
# 5 0.002883 0.000393 -0.013051 0.000007 0.058885 -0.000005
# 6 -0.000001 0.000001 0.000003 -0.007863 -0.000005 0.041947
#
#
# Mechanical properties :
#
#
# Convention : Reuss Voigt Hill
#
# Bulk Modulus (GPa) = 62.10994 76.47535 69.29265
# Shear Modulus (GPa) = 23.39953 26.76922 25.08438
#
# Velocity S-wave (km/s) = 3.59564 3.84583 3.72283
# Velocity P-wave (km/s) = 7.18017 7.87238 7.53423
#
# Compressibility (1/GPa) = 0.01610048
#
# Stress axis : x y z
#
# Youngs Moduli (GPa) = 74.28045 101.75177 51.14041
#
# Poissons Ratio (x) = 0.40011 0.23371
# Poissons Ratio (y) = 0.29209 0.24904
# Poissons Ratio (z) = 0.33947 0.49550
#
# Static dielectric constant tensor:
#      x y z
#    x 3.260200 0.000000 0.229280 
#    y 0.000000 3.275950 0.000000 
#    z 0.229280 0.000000 3.443400 
# 
# 
# High freq. dielectric constant tensor:
#      x y z
#    x 1.682190 0.000000 0.018290 
#    y 0.000000 1.702640 0.000000 
#    z 0.018290 0.000000 1.692280 
# 
# From -- ./inp_files/327170.got.cif
#   From: 2010.06.25/outbox.cif.g09.slc.cpg/sg12_164_cif.got.tgz:327170.got - 2010.06.28 00:19:55.
