data_PCOD8087350
_publ_section_title
;
Structure prediction by ZEFSAII (Michael W. Deem and Ramdas Pophale) SiO2 
 PCOD8087350
Probable space group: C 2/M
;
_chemical_formula_sum "Si O2"
_cell_formula_units_Z 64
_cell_length_a 26.905090
_cell_length_b 17.418007
_cell_length_c 22.177133
_cell_angle_alpha 90.000000
_cell_angle_beta 159.476704
_cell_angle_gamma 90.000000
_cell_volume 3643.641166
_symmetry_space_group_name_H-M "C 2/M"
_symmetry_group_IT_number 12
_symmetry_cell_setting 'monoclinic'
loop_
_space_group_symop_operation_xyz
x,y,z
-x,y,-z
-x,-y,-z
x,-y,z
1/2+x,1/2+y,z
1/2-x,1/2+y,-z
1/2-x,1/2-y,-z
1/2+x,1/2-y,z
loop_
_atom_site_type_symbol
_atom_site_label
_atom_site_fract_x
_atom_site_fract_y
_atom_site_fract_z
Si Si1 0.533099 0.590069 0.363691
Si Si2 0.067545 0.201811 0.512376
Si Si3 0.725821 0.584838 0.015579
Si Si4 0.386275 0.714328 0.625592
Si Si5 0.646120 0.719731 0.141088
Si Si6 0.545248 0.351933 0.908985
Si Si7 0.509516 0.172517 0.356468
Si Si8 0.289210 0.588404 0.694959
O O1 0.571402 0.500000 0.411972
O O2 0.542551 0.628648 0.440501
O O3 0.376304 0.603452 0.157271
O O4 0.641311 0.631801 0.439250
O O5 0.235407 0.216237 0.712313
O O6 0.000000 0.182635 0.500000
O O7 0.001188 0.280694 0.410187
O O8 0.787825 0.500000 0.078541
O O9 0.644405 0.586856 0.987501
O O10 0.856748 0.642073 0.165143
O O11 0.250000 0.750000 0.500000
O O12 0.500883 0.709707 0.808472
O O13 0.447408 0.767674 0.644334
O O14 0.675643 0.639161 0.207330
O O15 0.500000 0.755911 0.000000
O O16 0.634413 0.697184 0.058065
O O17 0.404150 0.393328 0.773777
O O18 0.628320 0.105838 0.491585
O O19 0.300550 0.500000 0.726745
#
# Coordination Sequence:
#
# PCOD8087350 Si02
#       8
#     8   8   8   8   8   8   8   8
#     4   9  21  37  56  79 110 140 177 222 272 322
#     4  10  20  35  57  77 102 138 184 222 263 318
#     4  10  20  34  51  78 110 140 171 216 267 319
#     4  10  19  35  56  81 104 135 177 218 265 318
#     4   9  20  33  49  77 105 137 178 224 261 303
#     4  10  19  32  53  73 103 138 181 211 261 317
#     4  10  20  34  53  78 109 135 177 223 264 309
#     4  10  19  32  49  73 106 144 176 210 256 314
#
# _framework density 17.564847
#
# number of rings (size 3 to 8) (size 9 to 14) (size 15 to 20)
#    0.000    2.250    1.250    1.500    1.750    9.000 
#    0.000    0.000    0.000    4.500    0.000    0.000 
#    0.000    0.000    0.000    0.000    0.000    0.000 
#
# Total GULP energy -396632.748485 kJ/mol
# GULP energy per Si atom -12394.773390 kJ/mol
# Density = 1.752487 g / cm^3
# Si number density = 17.564847 Si / 1000 Ang^3
#
#
#
# Elastic Constant Matrix: (Units=GPa)
#
#
# Indices 1 2 3 4 5 6 
#
# 1 103.0451 46.1467 48.2944 -0.0011 -9.6429 -0.0024
# 2 46.1467 91.5054 49.9629 -0.0043 2.2969 -0.0070
# 3 48.2944 49.9629 95.0899 0.0010 -2.7482 0.0004
# 4 -0.0011 -0.0043 0.0010 20.4176 0.0005 -4.5948
# 5 -9.6429 2.2969 -2.7482 0.0005 31.1474 0.0001
# 6 -0.0024 -0.0070 0.0004 -4.5948 0.0001 12.0911
#
#
#
# Elastic Compliance Matrix: (Units=1/GPa)
#
#
# Indices 1 2 3 4 5 6 
#
# 1 0.014489 -0.004866 -0.004674 0.000000 0.004432 0.000000
# 2 -0.004866 0.017066 -0.006592 0.000006 -0.003347 0.000011
# 3 -0.004674 -0.006592 0.016368 -0.000004 0.000483 -0.000007
# 4 0.000000 0.000006 -0.000004 0.053558 -0.000002 0.020353
# 5 0.004432 -0.003347 0.000483 -0.000002 0.033767 -0.000002
# 6 0.000000 0.000011 -0.000007 0.020353 -0.000002 0.090440
#
#
# Mechanical properties :
#
#
# Convention : Reuss Voigt Hill
#
# Bulk Modulus (GPa) = 63.86375 64.27203 64.06789
# Shear Modulus (GPa) = 18.99909 22.41364 20.70636
#
# Velocity S-wave (km/s) = 3.29242 3.57606 3.43717
# Velocity P-wave (km/s) = 7.13380 7.32951 7.23232
#
# Compressibility (1/GPa) = 0.01565834
#
# Stress axis : x y z
#
# Youngs Moduli (GPa) = 69.01839 58.59710 61.09602
#
# Poissons Ratio (x) = 0.28514 0.28555
# Poissons Ratio (y) = 0.33586 0.40275
# Poissons Ratio (z) = 0.32257 0.38628
#
# Static dielectric constant tensor:
#      x y z
#    x 3.406640 0.000000 -0.012700 
#    y 0.000000 3.201680 0.000000 
#    z -0.012700 0.000000 3.421650 
# 
# 
# High freq. dielectric constant tensor:
#      x y z
#    x 1.682040 0.000000 -0.007700 
#    y 0.000000 1.663910 0.000000 
#    z -0.007700 0.000000 1.682290 
# 
# From -- ./inp_files/328681.got.cif
#   From: 2010.06.25/outbox.cif.g09.slc.cpg/sg12_165_cif.got.tgz:328681.got - 2010.06.28 00:19:55.
