data_PCOD8087616
_publ_section_title
;
Structure prediction by ZEFSAII (Michael W. Deem and Ramdas Pophale) SiO2 
 PCOD8087616
Probable space group: C 2/M
;
_chemical_formula_sum "Si O2"
_cell_formula_units_Z 48
_cell_length_a 18.297044
_cell_length_b 9.093974
_cell_length_c 18.043254
_cell_angle_alpha 90.000000
_cell_angle_beta 119.869535
_cell_angle_gamma 90.000000
_cell_volume 2603.452038
_symmetry_space_group_name_H-M "C 2/M"
_symmetry_group_IT_number 12
_symmetry_cell_setting 'monoclinic'
loop_
_space_group_symop_operation_xyz
x,y,z
-x,y,-z
-x,-y,-z
x,-y,z
1/2+x,1/2+y,z
1/2-x,1/2+y,-z
1/2-x,1/2-y,-z
1/2+x,1/2-y,z
loop_
_atom_site_type_symbol
_atom_site_label
_atom_site_fract_x
_atom_site_fract_y
_atom_site_fract_z
Si Si1 0.170649 0.171436 0.495352
Si Si2 0.077724 0.673168 0.332622
Si Si3 0.765096 0.670487 0.682706
Si Si4 0.092892 0.326903 0.835079
Si Si5 0.580061 0.174400 0.996638
Si Si6 0.750326 0.824855 0.160507
O O1 0.250000 0.250000 0.500000
O O2 0.087529 0.246903 0.418007
O O3 0.181198 0.195103 0.589563
O O4 0.171043 0.000000 0.475764
O O5 0.087540 0.500000 0.350153
O O6 0.150694 0.734188 0.314207
O O7 0.987784 0.716089 0.254445
O O8 0.783407 0.500000 0.704416
O O9 0.749999 0.740307 0.755870
O O10 0.110576 0.500000 0.841888
O O11 0.076762 0.271464 0.910356
O O12 0.172349 0.242588 0.844009
O O13 0.575925 0.000000 0.997818
O O14 0.500000 0.241297 0.000000
O O15 0.665291 0.230494 0.078191
O O16 0.758895 0.000000 0.163110
#
# Coordination Sequence:
#
# PCOD8087616 Si02
#       6
#     8   8   8   8   8   8
#     4   9  16  28  48  73  99 125 159 204 247 284
#     4   9  17  31  50  70  95 128 166 204 239 280
#     4   8  15  29  49  71  93 122 162 203 237 275
#     4  10  20  33  49  72 102 130 157 197 246 288
#     4   9  17  31  54  78  95 121 164 204 236 280
#     4  10  19  32  51  73  98 128 161 196 238 292
#
# _framework density 18.437059000000001
#
# number of rings (size 3 to 8) (size 9 to 14) (size 15 to 20)
#    0.000    2.833    0.000    3.000    0.000    4.667 
#    0.000    5.000    0.000    9.000    0.000    0.000 
#    0.000    0.000    0.000    0.000    0.000    0.000 
#
# Total GULP energy -297461.944293 kJ/mol
# GULP energy per Si atom -12394.247679 kJ/mol
# Density = 1.839510 g / cm^3
# Si number density = 18.437059 Si / 1000 Ang^3
#
#
#
# Elastic Constant Matrix: (Units=GPa)
#
#
# Indices 1 2 3 4 5 6 
#
# 1 120.2996 29.1627 73.7405 0.0000 15.8067 0.0000
# 2 29.1627 36.8798 46.2558 0.0000 5.7943 0.0000
# 3 73.7405 46.2558 175.1168 0.0000 21.1496 0.0000
# 4 0.0000 0.0000 0.0000 24.6650 0.0000 2.5316
# 5 15.8067 5.7943 21.1496 0.0000 16.1913 0.0000
# 6 0.0000 0.0000 0.0000 2.5316 0.0000 24.8728
#
#
#
# Elastic Compliance Matrix: (Units=1/GPa)
#
#
# Indices 1 2 3 4 5 6 
#
# 1 0.012190 -0.004736 -0.003146 0.000000 -0.006096 0.000000
# 2 -0.004736 0.042394 -0.009415 0.000000 0.001750 0.000000
# 3 -0.003146 -0.009415 0.010382 0.000000 -0.007121 0.000000
# 4 0.000000 0.000000 0.000000 0.040971 0.000000 -0.004170
# 5 -0.006096 0.001750 -0.007121 0.000000 0.076389 0.000000
# 6 0.000000 0.000000 0.000000 -0.004170 0.000000 0.040629
#
#
# Mechanical properties :
#
#
# Convention : Reuss Voigt Hill
#
# Bulk Modulus (GPa) = 32.92487 70.06823 51.49655
# Shear Modulus (GPa) = 18.67955 25.35497 22.01726
#
# Velocity S-wave (km/s) = 3.18646 3.71242 3.45945
# Velocity P-wave (km/s) = 5.60667 7.51416 6.62938
#
# Compressibility (1/GPa) = 0.03037218
#
# Stress axis : x y z
#
# Youngs Moduli (GPa) = 82.03453 23.58846 96.31871
#
# Poissons Ratio (x) = 0.11171 0.30301
# Poissons Ratio (y) = 0.38849 0.90686
# Poissons Ratio (z) = 0.25808 0.22209
#
# Static dielectric constant tensor:
#      x y z
#    x 3.411840 0.000000 0.147620 
#    y 0.000000 3.109660 0.000000 
#    z 0.147620 0.000000 4.272880 
# 
# 
# High freq. dielectric constant tensor:
#      x y z
#    x 1.694230 0.000000 0.001940 
#    y 0.000000 1.675870 0.000000 
#    z 0.001940 0.000000 1.741360 
# 
# From -- ./inp_files/274589.got.cif
#   From: 2010.06.25/outbox.cif.g09.slc.cpg/sg12_138_cif.got.tgz:274589.got - 2010.06.28 00:19:55.
