data_PCOD8087924
_publ_section_title
;
Structure prediction by ZEFSAII (Michael W. Deem and Ramdas Pophale) SiO2 
 PCOD8087924
Probable space group: C 2/M
;
_chemical_formula_sum "Si O2"
_cell_formula_units_Z 48
_cell_length_a 27.380355
_cell_length_b 9.222571
_cell_length_c 15.514609
_cell_angle_alpha 90.000000
_cell_angle_beta 139.226933
_cell_angle_gamma 90.000000
_cell_volume 2558.515903
_symmetry_space_group_name_H-M "C 2/M"
_symmetry_group_IT_number 12
_symmetry_cell_setting 'monoclinic'
loop_
_space_group_symop_operation_xyz
x,y,z
-x,y,-z
-x,-y,-z
x,-y,z
1/2+x,1/2+y,z
1/2-x,1/2+y,-z
1/2-x,1/2-y,-z
1/2+x,1/2-y,z
loop_
_atom_site_type_symbol
_atom_site_label
_atom_site_fract_x
_atom_site_fract_y
_atom_site_fract_z
Si Si1 0.960091 0.327936 0.361901
Si Si2 0.219141 0.330518 0.541304
Si Si3 0.298487 0.328001 0.818709
Si Si4 0.532295 0.670406 0.950373
Si Si5 0.454674 0.830649 0.692531
Si Si6 0.289178 0.171991 0.130732
O O1 0.966161 0.500000 0.372466
O O2 0.874691 0.276487 0.247470
O O3 0.000000 0.262415 0.500000
O O4 0.000989 0.269212 0.331051
O O5 0.234689 0.500000 0.549738
O O6 0.250000 0.250000 0.500000
O O7 0.262438 0.267876 0.682502
O O8 0.132104 0.298353 0.438515
O O9 0.297432 0.500000 0.813513
O O10 0.249859 0.272951 0.834090
O O11 0.382961 0.270590 0.941830
O O12 0.528574 0.500000 0.927697
O O13 0.481552 0.748325 0.812737
O O14 0.500000 0.710670 0.000000
O O15 0.470376 0.000000 0.726827
O O16 0.281990 0.000000 0.109731
O O17 0.250000 0.250000 0.000000
#
# Coordination Sequence:
#
# PCOD8087924 Si02
#       6
#     8   8   8   8   8   8
#     4   9  17  31  52  76 100 129 166 203 243 295
#     4  10  20  35  54  75 100 130 166 206 246 291
#     4   9  18  33  52  73  98 132 171 204 240 292
#     4  10  20  34  52  72  98 135 172 203 240 293
#     4  10  20  33  52  78 103 127 160 207 254 290
#     4  10  19  32  52  75 100 131 165 204 247 292
#
# _framework density 18.760876
#
# number of rings (size 3 to 8) (size 9 to 14) (size 15 to 20)
#    0.000    2.333    0.000    3.000    0.000    6.333 
#    0.000    1.667    0.000    4.000    0.000    0.000 
#    0.000    0.000    0.000    0.000    0.000    0.000 
#
# Total GULP energy -297654.131341 kJ/mol
# GULP energy per Si atom -12402.255473 kJ/mol
# Density = 1.871817 g / cm^3
# Si number density = 18.760876 Si / 1000 Ang^3
#
#
#
# Elastic Constant Matrix: (Units=GPa)
#
#
# Indices 1 2 3 4 5 6 
#
# 1 132.8812 30.5375 37.3879 0.0000 -3.7273 0.0000
# 2 30.5375 24.6733 33.6958 0.0000 -3.7424 0.0000
# 3 37.3879 33.6958 123.0649 0.0000 -12.3329 0.0000
# 4 0.0000 0.0000 0.0000 27.5048 0.0000 0.4612
# 5 -3.7273 -3.7424 -12.3329 0.0000 39.5971 0.0000
# 6 0.0000 0.0000 0.0000 0.4612 0.0000 14.4521
#
#
#
# Elastic Compliance Matrix: (Units=1/GPa)
#
#
# Indices 1 2 3 4 5 6 
#
# 1 0.010544 -0.013860 0.000578 0.000000 -0.000137 0.000000
# 2 -0.013860 0.082971 -0.018427 0.000000 0.000798 0.000000
# 3 0.000578 -0.018427 0.013240 0.000000 0.002437 0.000000
# 4 0.000000 0.000000 0.000000 0.036377 0.000000 -0.001161
# 5 -0.000137 0.000798 0.002437 0.000000 0.026076 0.000000
# 6 0.000000 0.000000 0.000000 -0.001161 0.000000 0.069231
#
#
# Mechanical properties :
#
#
# Convention : Reuss Voigt Hill
#
# Bulk Modulus (GPa) = 23.07568 53.76242 38.41905
# Shear Modulus (GPa) = 15.80764 28.24403 22.02583
#
# Velocity S-wave (km/s) = 2.90588 3.88425 3.43013
# Velocity P-wave (km/s) = 4.85649 6.98824 6.01751
#
# Compressibility (1/GPa) = 0.04333567
#
# Stress axis : x y z
#
# Youngs Moduli (GPa) = 94.83753 12.05245 75.52969
#
# Poissons Ratio (x) = 0.16705 -0.04365
# Poissons Ratio (y) = 1.31449 1.39179
# Poissons Ratio (z) = -0.05480 0.22209
#
# Static dielectric constant tensor:
#      x y z
#    x 3.776460 0.000000 0.057630 
#    y 0.000000 3.057570 0.000000 
#    z 0.057630 0.000000 3.646360 
# 
# 
# High freq. dielectric constant tensor:
#      x y z
#    x 1.750390 0.000000 0.001470 
#    y 0.000000 1.681530 0.000000 
#    z 0.001470 0.000000 1.747570 
# 
# From -- ./inp_files/174396.got.cif
#   From: 2010.06.25/outbox.cif.g09.slc.cpg/sg12_88_cif.got.tgz:174396.got - 2010.06.28 00:19:55.
