data_PCOD8087596
_publ_section_title
;
Structure prediction by ZEFSAII (Michael W. Deem and Ramdas Pophale) SiO2 
 PCOD8087596
Probable space group: C 2/M
;
_chemical_formula_sum "Si O2"
_cell_formula_units_Z 48
_cell_length_a 33.412878
_cell_length_b 8.669737
_cell_length_c 18.513298
_cell_angle_alpha 90.000000
_cell_angle_beta 150.103456
_cell_angle_gamma 90.000000
_cell_volume 2673.083480
_symmetry_space_group_name_H-M "C 2/M"
_symmetry_group_IT_number 12
_symmetry_cell_setting 'monoclinic'
loop_
_space_group_symop_operation_xyz
x,y,z
-x,y,-z
-x,-y,-z
x,-y,z
1/2+x,1/2+y,z
1/2-x,1/2+y,-z
1/2-x,1/2-y,-z
1/2+x,1/2-y,z
loop_
_atom_site_type_symbol
_atom_site_label
_atom_site_fract_x
_atom_site_fract_y
_atom_site_fract_z
Si Si1 0.915785 0.315936 0.601522
Si Si2 0.263417 0.315534 0.942402
Si Si3 0.664554 0.831833 0.660741
Si Si4 0.766426 0.817624 0.447860
Si Si5 0.594186 0.818324 0.923777
Si Si6 0.674822 0.329252 0.179355
O O1 0.902161 0.500000 0.581021
O O2 0.899693 0.250893 0.493772
O O3 0.853491 0.240132 0.558889
O O4 0.004356 0.268245 0.763121
O O5 0.261875 0.500000 0.940267
O O6 0.190390 0.249570 0.776550
O O7 0.250000 0.250000 0.000000
O O8 0.348651 0.261121 0.045475
O O9 0.745576 0.846949 0.742329
O O10 0.630243 0.000000 0.627171
O O11 0.750000 0.750000 0.500000
O O12 0.694291 0.762750 0.282853
O O13 0.766213 0.000000 0.450276
O O14 0.607119 0.000000 0.939405
O O15 0.609502 0.762438 0.029529
O O16 0.641514 0.500000 0.146329
#
# Coordination Sequence:
#
# PCOD8087596 Si02
#       6
#     8   8   8   8   8   8
#     4   9  18  34  54  76 103 133 168 210 256 306
#     4  10  19  32  51  73 100 134 173 216 260 306
#     4   7  13  28  49  69  91 127 167 201 243 297
#     4  11  21  34  54  78 104 134 171 212 254 301
#     4  10  19  32  53  79 104 132 168 210 256 306
#     4   9  17  32  52  73 101 135 170 206 248 302
#
# _framework density 17.956790999999999
#
# number of rings (size 3 to 8) (size 9 to 14) (size 15 to 20)
#    0.000    2.667    0.000    5.000    0.000    1.333 
#    0.000    2.500    0.000   10.000    0.000    0.000 
#    0.000    0.000    0.000    0.000    0.000    0.000 
#
# Total GULP energy -297357.152844 kJ/mol
# GULP energy per Si atom -12389.881369 kJ/mol
# Density = 1.791592 g / cm^3
# Si number density = 17.956791 Si / 1000 Ang^3
#
#
#
# Elastic Constant Matrix: (Units=GPa)
#
#
# Indices 1 2 3 4 5 6 
#
# 1 119.5129 45.9157 79.2721 0.0000 -32.0369 0.0000
# 2 45.9157 91.5027 52.2455 0.0000 -9.5570 0.0000
# 3 79.2721 52.2455 169.9078 0.0000 -30.2936 0.0000
# 4 0.0000 0.0000 0.0000 25.6395 0.0000 -3.8161
# 5 -32.0369 -9.5570 -30.2936 0.0000 28.2850 0.0000
# 6 0.0000 0.0000 0.0000 -3.8161 0.0000 28.5819
#
#
#
# Elastic Compliance Matrix: (Units=1/GPa)
#
#
# Indices 1 2 3 4 5 6 
#
# 1 0.016006 -0.004530 -0.003851 0.000000 0.012474 0.000000
# 2 -0.004530 0.014539 -0.002961 0.000000 -0.003390 0.000000
# 3 -0.003851 -0.002961 0.009439 0.000000 0.004748 0.000000
# 4 0.000000 0.000000 0.000000 0.039793 0.000000 0.005313
# 5 0.012474 -0.003390 0.004748 0.000000 0.053422 0.000000
# 6 0.000000 0.000000 0.000000 0.005313 0.000000 0.035697
#
#
# Mechanical properties :
#
#
# Convention : Reuss Voigt Hill
#
# Bulk Modulus (GPa) = 57.80639 81.75443 69.78041
# Shear Modulus (GPa) = 25.33625 30.06729 27.70177
#
# Velocity S-wave (km/s) = 3.76034 4.09641 3.93197
# Velocity P-wave (km/s) = 7.14950 8.24630 7.71741
#
# Compressibility (1/GPa) = 0.01729912
#
# Stress axis : x y z
#
# Youngs Moduli (GPa) = 62.47828 68.78227 105.94203
#
# Poissons Ratio (x) = 0.31159 0.40793
# Poissons Ratio (y) = 0.28304 0.31374
# Poissons Ratio (z) = 0.24057 0.20369
#
# Static dielectric constant tensor:
#      x y z
#    x 3.248660 0.000000 -0.509870 
#    y 0.000000 3.319860 0.000000 
#    z -0.509870 0.000000 3.773330 
# 
# 
# High freq. dielectric constant tensor:
#      x y z
#    x 1.672130 0.000000 -0.032330 
#    y 0.000000 1.689550 0.000000 
#    z -0.032330 0.000000 1.701540 
# 
# From -- ./inp_files/273621.got.cif
#   From: 2010.06.25/outbox.cif.g09.slc.cpg/sg12_137_cif.got.tgz:273621.got - 2010.06.28 00:19:55.
