data_PCOD8087407
_publ_section_title
;
Structure prediction by ZEFSAII (Michael W. Deem and Ramdas Pophale) SiO2 
 PCOD8087407
Probable space group: C 2/M
;
_chemical_formula_sum "Si O2"
_cell_formula_units_Z 64
_cell_length_a 19.284018
_cell_length_b 9.079880
_cell_length_c 33.409758
_cell_angle_alpha 90.000000
_cell_angle_beta 143.122967
_cell_angle_gamma 90.000000
_cell_volume 3510.543197
_symmetry_space_group_name_H-M "C 2/M"
_symmetry_group_IT_number 12
_symmetry_cell_setting 'monoclinic'
loop_
_space_group_symop_operation_xyz
x,y,z
-x,y,-z
-x,-y,-z
x,-y,z
1/2+x,1/2+y,z
1/2-x,1/2+y,-z
1/2-x,1/2-y,-z
1/2+x,1/2-y,z
loop_
_atom_site_type_symbol
_atom_site_label
_atom_site_fract_x
_atom_site_fract_y
_atom_site_fract_z
Si Si1 0.742045 0.167165 0.938294
Si Si2 0.495206 0.664937 0.705469
Si Si3 0.067623 0.829604 0.910709
Si Si4 0.909960 0.335167 0.547279
Si Si5 0.392070 0.662563 0.329068
Si Si6 0.789217 0.670834 0.167038
Si Si7 0.331916 0.825289 0.817267
Si Si8 0.792921 0.665920 0.579735
O O1 0.645010 0.279056 0.909038
O O2 0.763137 0.191877 0.901185
O O3 0.701006 0.000000 0.928286
O O4 0.863369 0.198301 0.016233
O O5 0.480741 0.500000 0.716324
O O6 0.542892 0.656489 0.682927
O O7 0.583682 0.756979 0.773554
O O8 0.370986 0.745410 0.647667
O O9 0.954012 0.730986 0.858474
O O10 0.034274 0.000000 0.889883
O O11 0.918224 0.500000 0.534267
O O12 0.852822 0.333204 0.564350
O O13 0.832873 0.240649 0.481063
O O14 0.039937 0.270245 0.609497
O O15 0.391465 0.500000 0.348167
O O16 0.261652 0.717565 0.260264
O O17 0.800768 0.500000 0.184360
O O18 0.700369 0.748954 0.155855
O O19 0.332736 0.000000 0.824636
O O20 0.777202 0.500000 0.588166
#
# Coordination Sequence:
#
# PCOD8087407 Si02
#       8
#     8   8   8   8   8   8   8   8
#     4   9  20  37  54  73  98 127 158 197 243 289
#     4   9  16  26  39  58  86 117 152 193 236 279
#     4  10  20  35  55  75  96 125 161 199 240 288
#     4   9  15  21  32  51  76 109 149 191 230 271
#     4   8  15  26  38  54  81 117 151 186 230 278
#     4  10  19  32  50  71  97 128 162 198 240 290
#     4  10  20  33  49  71 100 130 161 199 242 287
#     4   9  15  22  33  50  76 113 153 188 227 277
#
# _framework density 18.230796999999999
#
# number of rings (size 3 to 8) (size 9 to 14) (size 15 to 20)
#    0.000    2.750    0.000    3.000    0.000    8.500 
#    0.000    2.500    0.000    0.000    0.000    0.000 
#    0.000    1.000    0.000   10.500    0.000   13.500 
#
# Total GULP energy -396754.175690 kJ/mol
# GULP energy per Si atom -12398.567990 kJ/mol
# Density = 1.818930 g / cm^3
# Si number density = 18.230797 Si / 1000 Ang^3
#
#
#
# Elastic Constant Matrix: (Units=GPa)
#
#
# Indices 1 2 3 4 5 6 
#
# 1 28.8895 24.1683 25.0373 0.0000 15.7975 0.0001
# 2 24.1683 125.6384 45.2661 -0.0001 21.1450 0.0002
# 3 25.0373 45.2661 79.8799 0.0000 34.5786 0.0001
# 4 0.0000 -0.0001 0.0000 32.7991 0.0000 7.3320
# 5 15.7975 21.1450 34.5786 0.0000 18.2767 -0.0001
# 6 0.0001 0.0002 0.0001 7.3320 -0.0001 20.6496
#
#
#
# Elastic Compliance Matrix: (Units=1/GPa)
#
#
# Indices 1 2 3 4 5 6 
#
# 1 0.076823 -0.005926 0.027929 0.000000 -0.112386 -0.000001
# 2 -0.005926 0.010532 -0.005820 0.000000 0.003949 0.000000
# 3 0.027929 -0.005820 0.080649 0.000000 -0.169990 -0.000001
# 4 0.000000 0.000000 0.000000 0.033117 -0.000001 -0.011759
# 5 -0.112386 0.003949 -0.169990 -0.000001 0.468899 0.000003
# 6 -0.000001 0.000000 -0.000001 -0.011759 0.000003 0.052602
#
#
# Mechanical properties :
#
#
# Convention : Reuss Voigt Hill
#
# Bulk Modulus (GPa) = 4.99079 47.03903 26.01491
# Shear Modulus (GPa) = 6.60462 23.67416 15.13939
#
# Velocity S-wave (km/s) = 1.90543 3.60749 2.88484
# Velocity P-wave (km/s) = 2.75397 6.57343 5.03956
#
# Compressibility (1/GPa) = 0.20036914
#
# Stress axis : x y z
#
# Youngs Moduli (GPa) = 13.01699 94.95279 12.39945
#
# Poissons Ratio (x) = 0.56267 -0.34630
# Poissons Ratio (y) = 0.07714 0.07216
# Poissons Ratio (z) = -0.36355 0.55262
#
# Static dielectric constant tensor:
#      x y z
#    x 2.729360 0.000000 0.195540 
#    y 0.000000 3.593900 0.000000 
#    z 0.195540 0.000000 3.543770 
# 
# 
# High freq. dielectric constant tensor:
#      x y z
#    x 1.638990 0.000000 0.019890 
#    y 0.000000 1.723430 0.000000 
#    z 0.019890 0.000000 1.714300 
# 
# From -- ./inp_files/378324.got.cif
#   From: 2010.06.25/outbox.cif.g09.slc.cpg/sg12_190_cif.got.tgz:378324.got - 2010.06.28 00:19:55.
