data_PCOD8087978
_publ_section_title
;
Structure prediction by ZEFSAII (Michael W. Deem and Ramdas Pophale) SiO2 
 PCOD8087978
Probable space group: C 2/M
;
_chemical_formula_sum "Si O2"
_cell_formula_units_Z 56
_cell_length_a 18.961879
_cell_length_b 9.008915
_cell_length_c 29.933385
_cell_angle_alpha 90.000000
_cell_angle_beta 142.985258
_cell_angle_gamma 90.000000
_cell_volume 3078.371036
_symmetry_space_group_name_H-M "C 2/M"
_symmetry_group_IT_number 12
_symmetry_cell_setting 'monoclinic'
loop_
_space_group_symop_operation_xyz
x,y,z
-x,y,-z
-x,-y,-z
x,-y,z
1/2+x,1/2+y,z
1/2-x,1/2+y,-z
1/2-x,1/2-y,-z
1/2+x,1/2-y,z
loop_
_atom_site_type_symbol
_atom_site_label
_atom_site_fract_x
_atom_site_fract_y
_atom_site_fract_z
Si Si1 0.291099 0.326072 0.565654
Si Si2 0.868480 0.672842 0.431313
Si Si3 0.093014 0.672015 0.142769
Si Si4 0.483045 0.174596 0.717365
Si Si5 0.177836 0.673350 0.281433
Si Si6 0.230372 0.827545 0.848243
Si Si7 0.588884 0.333003 0.004130
O O1 0.309683 0.500000 0.567373
O O2 0.250000 0.250000 0.500000
O O3 0.192814 0.292055 0.552783
O O4 0.413874 0.254734 0.642476
O O5 0.869865 0.500000 0.421001
O O6 0.799781 0.750091 0.356123
O O7 0.000000 0.736930 0.500000
O O8 0.058008 0.500000 0.127578
O O9 0.137547 0.732697 0.212839
O O10 0.194825 0.698724 0.158462
O O11 0.975511 0.761579 0.071046
O O12 0.423094 0.213654 0.734239
O O13 0.613196 0.235272 0.783460
O O14 0.483834 0.000000 0.708427
O O15 0.203027 0.500000 0.292417
O O16 0.202579 0.000000 0.842020
O O17 0.298741 0.765400 0.926073
O O18 0.629338 0.500000 0.012823
O O19 0.500000 0.333225 0.000000
#
# Coordination Sequence:
#
# PCOD8087978 Si02
#       7
#     8   8   8   8   8   8   8
#     4  10  20  35  54  75 101 132 166 204 247 295
#     4   9  19  35  53  74 100 130 164 203 247 293
#     4   9  18  33  52  75 101 129 165 207 250 295
#     4  10  20  35  53  73 101 134 167 204 246 294
#     4   9  19  35  53  73  99 132 166 202 246 294
#     4  10  19  32  52  76 102 132 166 206 250 295
#     4   9  17  30  49  74 102 131 165 205 249 294
#
# _framework density 18.19144
#
# number of rings (size 3 to 8) (size 9 to 14) (size 15 to 20)
#    0.000    2.571    0.000    1.714    0.000    5.429 
#    0.000    3.571    0.000    0.000    0.000    0.000 
#    0.000    0.000    0.000    0.000    0.000    0.000 
#
# Total GULP energy -347266.295746 kJ/mol
# GULP energy per Si atom -12402.367705 kJ/mol
# Density = 1.815004 g / cm^3
# Si number density = 18.191440 Si / 1000 Ang^3
#
#
#
# Elastic Constant Matrix: (Units=GPa)
#
#
# Indices 1 2 3 4 5 6 
#
# 1 43.4906 34.4117 59.3972 0.0000 -2.8041 0.0000
# 2 34.4117 86.2389 68.7903 0.0000 -3.4485 -0.0001
# 3 59.3972 68.7903 183.0845 0.0000 -11.4035 0.0000
# 4 0.0000 0.0000 0.0000 41.8012 0.0000 3.3211
# 5 -2.8041 -3.4485 -11.4035 0.0000 31.6751 0.0000
# 6 0.0000 -0.0001 0.0000 3.3211 0.0000 21.1540
#
#
#
# Elastic Compliance Matrix: (Units=1/GPa)
#
#
# Indices 1 2 3 4 5 6 
#
# 1 0.045911 -0.009179 -0.011513 0.000000 -0.001080 0.000000
# 2 -0.009179 0.018400 -0.003950 0.000000 -0.000231 0.000000
# 3 -0.011513 -0.003950 0.010834 0.000000 0.002451 0.000000
# 4 0.000000 0.000000 0.000000 0.024225 0.000000 -0.003803
# 5 -0.001080 -0.000231 0.002451 0.000000 0.032332 0.000000
# 6 0.000000 0.000000 0.000000 -0.003803 0.000000 0.047870
#
#
# Mechanical properties :
#
#
# Convention : Reuss Voigt Hill
#
# Bulk Modulus (GPa) = 38.66930 70.89029 54.77980
# Shear Modulus (GPa) = 21.05484 28.94037 24.99761
#
# Velocity S-wave (km/s) = 3.40575 3.99291 3.71096
# Velocity P-wave (km/s) = 6.06371 7.76604 6.96706
#
# Compressibility (1/GPa) = 0.02586031
#
# Stress axis : x y z
#
# Youngs Moduli (GPa) = 21.78142 54.34821 92.30410
#
# Poissons Ratio (x) = 0.49888 1.06269
# Poissons Ratio (y) = 0.19994 0.36458
# Poissons Ratio (z) = 0.25077 0.21466
#
# Static dielectric constant tensor:
#      x y z
#    x 3.196540 0.000000 -0.023980 
#    y 0.000000 3.449520 0.000000 
#    z -0.023980 0.000000 3.637880 
# 
# 
# High freq. dielectric constant tensor:
#      x y z
#    x 1.680640 0.000000 0.001110 
#    y 0.000000 1.712230 0.000000 
#    z 0.001110 0.000000 1.719110 
# 
# From -- ./inp_files/237847.got.cif
#   From: 2010.06.25/outbox.cif.g09.slc.cpg/sg12_119_cif.got.tgz:237847.got - 2010.06.28 00:19:55.
