data_PCOD8087320
_publ_section_title
;
Structure prediction by ZEFSAII (Michael W. Deem and Ramdas Pophale) SiO2 
 PCOD8087320
Probable space group: C 2/M
;
_chemical_formula_sum "Si O2"
_cell_formula_units_Z 56
_cell_length_a 31.933967
_cell_length_b 9.115184
_cell_length_c 11.943382
_cell_angle_alpha 90.000000
_cell_angle_beta 56.909859
_cell_angle_gamma 90.000000
_cell_volume 2912.678570
_symmetry_space_group_name_H-M "C 2/M"
_symmetry_group_IT_number 12
_symmetry_cell_setting 'monoclinic'
loop_
_space_group_symop_operation_xyz
x,y,z
-x,y,-z
-x,-y,-z
x,-y,z
1/2+x,1/2+y,z
1/2-x,1/2+y,-z
1/2-x,1/2-y,-z
1/2+x,1/2-y,z
loop_
_atom_site_type_symbol
_atom_site_label
_atom_site_fract_x
_atom_site_fract_y
_atom_site_fract_z
Si Si1 0.314649 0.167131 0.143497
Si Si2 0.397585 0.824803 0.404678
Si Si3 0.589009 0.174728 0.132169
Si Si4 0.505702 0.824856 0.865155
Si Si5 0.619758 0.826508 0.325896
Si Si6 0.801914 0.666664 0.416358
Si Si7 0.766822 0.326573 0.863053
O O1 0.325925 0.175444 0.258215
O O2 0.267150 0.269404 0.188756
O O3 0.302999 0.000000 0.123000
O O4 0.362382 0.228717 0.006639
O O5 0.442991 0.763584 0.263263
O O6 0.405389 0.770556 0.521753
O O7 0.344265 0.765722 0.436501
O O8 0.396907 0.000000 0.399296
O O9 0.539732 0.237335 0.143789
O O10 0.591763 0.235802 0.256077
O O11 0.587522 0.000000 0.133098
O O12 0.505384 0.000000 0.865514
O O13 0.500000 0.765374 0.000000
O O14 0.677052 0.776348 0.243672
O O15 0.616771 0.000000 0.325083
O O16 0.790336 0.500000 0.467553
O O17 0.750000 0.750000 0.500000
O O18 0.761789 0.500000 0.882375
O O19 0.750000 0.250000 0.000000
#
# Coordination Sequence:
#
# PCOD8087320 Si02
#       7
#     8   8   8   8   8   8   8
#     4  10  19  32  49  71 100 133 168 207 253 299
#     4   9  17  29  44  67  97 129 164 202 250 298
#     4   9  16  27  43  65  93 125 162 204 250 298
#     4   9  16  26  42  64  92 127 165 204 249 298
#     4   9  17  28  43  64  95 129 159 199 249 297
#     4  10  20  33  50  71 100 134 169 210 251 299
#     4  11  20  32  50  73 103 136 168 205 249 298
#
# _framework density 19.226288
#
# number of rings (size 3 to 8) (size 9 to 14) (size 15 to 20)
#    0.000    2.429    1.429    2.143    0.000    5.714 
#    0.000    2.857    0.000    0.000    0.000    1.000 
#    0.000    4.571    0.000    0.000    0.000    0.000 
#
# Total GULP energy -347110.845896 kJ/mol
# GULP energy per Si atom -12396.815925 kJ/mol
# Density = 1.918253 g / cm^3
# Si number density = 19.226288 Si / 1000 Ang^3
#
#
#
# Elastic Constant Matrix: (Units=GPa)
#
#
# Indices 1 2 3 4 5 6 
#
# 1 170.7965 17.8476 78.0749 0.0000 2.6409 0.0000
# 2 17.8476 23.5717 13.7698 0.0000 -2.5940 0.0000
# 3 78.0749 13.7698 155.1650 0.0000 3.9551 0.0000
# 4 0.0000 0.0000 0.0000 14.7688 0.0000 -0.9535
# 5 2.6409 -2.5940 3.9551 0.0000 33.8817 0.0000
# 6 0.0000 0.0000 0.0000 -0.9535 0.0000 18.8152
#
#
#
# Elastic Compliance Matrix: (Units=1/GPa)
#
#
# Indices 1 2 3 4 5 6 
#
# 1 0.007934 -0.003941 -0.003630 0.000000 -0.000496 0.000000
# 2 -0.003941 0.047221 -0.002314 0.000000 0.004193 0.000000
# 3 -0.003630 -0.002314 0.008499 0.000000 -0.000886 0.000000
# 4 0.000000 0.000000 0.000000 0.067932 0.000000 0.003443
# 5 -0.000496 0.004193 -0.000886 0.000000 0.029978 0.000000
# 6 0.000000 0.000000 0.000000 0.003443 0.000000 0.053323
#
#
# Mechanical properties :
#
#
# Convention : Reuss Voigt Hill
#
# Bulk Modulus (GPa) = 22.78757 63.21309 43.00033
# Shear Modulus (GPa) = 20.05736 29.48255 24.76995
#
# Velocity S-wave (km/s) = 3.23340 3.92018 3.59324
# Velocity P-wave (km/s) = 5.08113 7.31028 6.29516
#
# Compressibility (1/GPa) = 0.04388357
#
# Stress axis : x y z
#
# Youngs Moduli (GPa) = 126.04607 21.17688 117.66077
#
# Poissons Ratio (x) = 0.08347 0.42706
# Poissons Ratio (y) = 0.49680 0.27229
# Poissons Ratio (z) = 0.45749 0.04901
#
# Static dielectric constant tensor:
#      x y z
#    x 3.725660 0.000000 0.250640 
#    y 0.000000 2.967600 0.000000 
#    z 0.250640 0.000000 3.651800 
# 
# 
# High freq. dielectric constant tensor:
#      x y z
#    x 1.760160 0.000000 0.010100 
#    y 0.000000 1.670790 0.000000 
#    z 0.010100 0.000000 1.762520 
# 
# From -- ./inp_files/181938.got.cif
#   From: 2010.06.25/outbox.cif.g09.slc.cpg/sg12_91_cif.got.tgz:181938.got - 2010.06.28 00:19:55.
