data_PCOD8087418
_publ_section_title
;
Structure prediction by ZEFSAII (Michael W. Deem and Ramdas Pophale) SiO2 
 PCOD8087418
Probable space group: C 2/M
;
_chemical_formula_sum "Si O2"
_cell_formula_units_Z 56
_cell_length_a 27.577693
_cell_length_b 8.674874
_cell_length_c 23.878120
_cell_angle_alpha 90.000000
_cell_angle_beta 149.971555
_cell_angle_gamma 90.000000
_cell_volume 2858.672971
_symmetry_space_group_name_H-M "C 2/M"
_symmetry_group_IT_number 12
_symmetry_cell_setting 'monoclinic'
loop_
_space_group_symop_operation_xyz
x,y,z
-x,y,-z
-x,-y,-z
x,-y,z
1/2+x,1/2+y,z
1/2-x,1/2+y,-z
1/2-x,1/2-y,-z
1/2+x,1/2-y,z
loop_
_atom_site_type_symbol
_atom_site_label
_atom_site_fract_x
_atom_site_fract_y
_atom_site_fract_z
Si Si1 0.713420 0.816636 0.236747
Si Si2 0.857476 0.316837 0.953083
Si Si3 0.071961 0.816100 0.524141
Si Si4 0.285312 0.316798 0.093340
Si Si5 0.073458 0.682925 0.195813
Si Si6 0.645815 0.682314 0.383449
Si Si7 0.499489 0.683366 0.666718
O O1 0.676164 0.749312 0.140370
O O2 0.820634 0.752082 0.356282
O O3 0.641491 0.760647 0.213358
O O4 0.715218 0.000000 0.236106
O O5 0.855118 0.500000 0.948446
O O6 0.785139 0.254806 0.928363
O O7 0.965372 0.259285 0.074409
O O8 0.036591 0.751554 0.428977
O O9 0.000000 0.753438 0.500000
O O10 0.072241 0.000000 0.524109
O O11 0.283357 0.500000 0.088333
O O12 0.392823 0.254314 0.213597
O O13 0.250000 0.250000 0.000000
O O14 0.078816 0.500000 0.209492
O O15 0.108851 0.764922 0.286703
O O16 0.652347 0.500000 0.392303
O O17 0.750000 0.750000 0.500000
O O18 0.571698 0.745276 0.356236
O O19 0.499901 0.500000 0.665779
#
# Coordination Sequence:
#
# PCOD8087418 Si02
#       7
#     8   8   8   8   8   8   8
#     4   9  16  27  46  72 100 129 163 205 249 292
#     4   9  17  29  48  75 103 132 167 206 246 292
#     4   9  15  24  41  66  95 124 157 200 248 291
#     4  10  19  32  50  72 100 131 166 205 246 294
#     4  10  19  32  51  75 103 132 165 205 249 295
#     4  11  22  36  53  73 100 132 167 205 248 297
#     4   9  18  31  47  70  99 129 159 198 247 293
#
# _framework density 19.589510000000001
#
# number of rings (size 3 to 8) (size 9 to 14) (size 15 to 20)
#    0.000    2.429    0.000    3.429    0.000    7.429 
#    0.000    0.714    0.000    2.571    0.000    0.000 
#    0.000    6.857    0.000    0.000    0.000    0.000 
#
# Total GULP energy -347228.600380 kJ/mol
# GULP energy per Si atom -12401.021442 kJ/mol
# Density = 1.954492 g / cm^3
# Si number density = 19.589510 Si / 1000 Ang^3
#
#
#
# Elastic Constant Matrix: (Units=GPa)
#
#
# Indices 1 2 3 4 5 6 
#
# 1 224.6404 21.5062 126.3398 0.0000 2.5237 0.0000
# 2 21.5062 17.3742 19.7137 0.0000 -0.0109 0.0000
# 3 126.3398 19.7137 223.4031 0.0000 1.9325 0.0000
# 4 0.0000 0.0000 0.0000 22.8326 0.0000 -6.2162
# 5 2.5237 -0.0109 1.9325 0.0000 50.4506 0.0000
# 6 0.0000 0.0000 0.0000 -6.2162 0.0000 17.0930
#
#
#
# Elastic Compliance Matrix: (Units=1/GPa)
#
#
# Indices 1 2 3 4 5 6 
#
# 1 0.006836 -0.004531 -0.003464 0.000000 -0.000210 0.000000
# 2 -0.004531 0.066967 -0.003350 0.000000 0.000369 0.000000
# 3 -0.003464 -0.003350 0.006732 0.000000 -0.000085 0.000000
# 4 0.000000 0.000000 0.000000 0.048610 0.000000 0.017678
# 5 -0.000210 0.000369 -0.000085 0.000000 0.019835 0.000000
# 6 0.000000 0.000000 0.000000 0.017678 0.000000 0.064932
#
#
# Mechanical properties :
#
#
# Convention : Reuss Voigt Hill
#
# Bulk Modulus (GPa) = 17.28803 88.94854 53.11829
# Shear Modulus (GPa) = 19.54010 37.93244 28.73627
#
# Velocity S-wave (km/s) = 3.16171 4.40519 3.83420
# Velocity P-wave (km/s) = 4.70881 8.44861 6.83930
#
# Compressibility (1/GPa) = 0.05784350
#
# Stress axis : x y z
#
# Youngs Moduli (GPa) = 146.28285 14.93279 148.55072
#
# Poissons Ratio (x) = 0.06766 0.51462
# Poissons Ratio (y) = 0.66284 0.49765
# Poissons Ratio (z) = 0.50677 0.05003
#
# Static dielectric constant tensor:
#      x y z
#    x 3.927700 0.000000 0.097480 
#    y 0.000000 2.936800 0.000000 
#    z 0.097480 0.000000 3.819450 
# 
# 
# High freq. dielectric constant tensor:
#      x y z
#    x 1.785620 0.000000 0.000800 
#    y 0.000000 1.694520 0.000000 
#    z 0.000800 0.000000 1.785630 
# 
# From -- ./inp_files/327616.got.cif
#   From: 2010.06.25/outbox.cif.g09.slc.cpg/sg12_164_cif.got.tgz:327616.got - 2010.06.28 00:19:55.
