data_PCOD8087739
_publ_section_title
;
Structure prediction by ZEFSAII (Michael W. Deem and Ramdas Pophale) SiO2 
 PCOD8087739
Probable space group: C 2/M
;
_chemical_formula_sum "Si O2"
_cell_formula_units_Z 64
_cell_length_a 23.757157
_cell_length_b 9.180219
_cell_length_c 19.881373
_cell_angle_alpha 90.000000
_cell_angle_beta 58.285884
_cell_angle_gamma 90.000000
_cell_volume 3688.594664
_symmetry_space_group_name_H-M "C 2/M"
_symmetry_group_IT_number 12
_symmetry_cell_setting 'monoclinic'
loop_
_space_group_symop_operation_xyz
x,y,z
-x,y,-z
-x,-y,-z
x,-y,z
1/2+x,1/2+y,z
1/2-x,1/2+y,-z
1/2-x,1/2-y,-z
1/2+x,1/2-y,z
loop_
_atom_site_type_symbol
_atom_site_label
_atom_site_fract_x
_atom_site_fract_y
_atom_site_fract_z
Si Si1 0.922934 0.172006 0.903138
Si Si2 0.691008 0.832078 0.732920
Si Si3 0.422288 0.327752 0.754396
Si Si4 0.716752 0.329935 0.205558
Si Si5 0.305688 0.827845 0.422402
Si Si6 0.215924 0.172752 0.958792
Si Si7 0.565529 0.663175 0.658535
Si Si8 0.934826 0.838291 0.180952
O O1 0.908908 0.237815 0.837394
O O2 0.993932 0.228523 0.887696
O O3 0.930514 0.000000 0.890511
O O4 0.862398 0.211854 0.990078
O O5 0.755158 0.797739 0.737879
O O6 0.705933 0.780099 0.647754
O O7 0.626829 0.755947 0.805937
O O8 0.672902 0.000000 0.743746
O O9 0.427438 0.500000 0.756743
O O10 0.360564 0.282441 0.745877
O O11 0.493366 0.275236 0.679657
O O12 0.724375 0.500000 0.181152
O O13 0.756867 0.233927 0.127659
O O14 0.250000 0.750000 0.500000
O O15 0.377190 0.771325 0.403036
O O16 0.301578 0.000000 0.435525
O O17 0.227849 0.000000 0.956278
O O18 0.250000 0.250000 0.000000
O O19 0.579351 0.500000 0.621674
O O20 0.563520 0.658697 0.739857
O O21 0.924377 0.000000 0.158027
#
# Coordination Sequence:
#
# PCOD8087739 Si02
#       8
#     8   8   8   8   8   8   8   8
#     4   8  14  26  45  67  89 118 160 205 241 277
#     4   9  19  33  49  71  99 126 155 194 241 289
#     4   8  13  25  47  69  90 121 159 196 234 276
#     4  10  19  33  50  68  96 132 162 196 243 290
#     4  10  19  32  51  76 101 124 153 191 235 284
#     4  11  20  31  47  69  97 127 165 209 248 287
#     4   8  14  26  47  73  94 117 154 195 232 273
#     4   8  14  27  48  67  87 120 160 199 237 278
#
# _framework density 17.350781999999999
#
# number of rings (size 3 to 8) (size 9 to 14) (size 15 to 20)
#    0.000    3.000    1.250    2.250    0.000    1.000 
#    0.000    2.500    0.000    4.500    0.000    5.250 
#    0.000    0.000    0.000    0.000    0.000    0.000 
#
# Total GULP energy -396516.427867 kJ/mol
# GULP energy per Si atom -12391.138371 kJ/mol
# Density = 1.731129 g / cm^3
# Si number density = 17.350782 Si / 1000 Ang^3
#
#
#
# Elastic Constant Matrix: (Units=GPa)
#
#
# Indices 1 2 3 4 5 6 
#
# 1 123.2097 37.8164 61.0943 0.0000 -30.3444 0.0001
# 2 37.8164 57.0376 42.3168 -0.0004 -11.4890 0.0012
# 3 61.0943 42.3168 97.2148 0.0000 -31.0749 0.0001
# 4 0.0000 -0.0004 0.0000 24.2065 0.0000 -5.1537
# 5 -30.3444 -11.4890 -31.0749 0.0000 30.6018 0.0000
# 6 0.0001 0.0012 0.0001 -5.1537 0.0000 21.9135
#
#
#
# Elastic Compliance Matrix: (Units=1/GPa)
#
#
# Indices 1 2 3 4 5 6 
#
# 1 0.013294 -0.004252 -0.004146 0.000000 0.007375 0.000000
# 2 -0.004252 0.027391 -0.010825 0.000000 -0.004926 -0.000001
# 3 -0.004146 -0.010825 0.022195 0.000000 0.014363 0.000001
# 4 0.000000 0.000000 0.000000 0.043489 0.000000 0.010228
# 5 0.007375 -0.004926 0.014363 0.000000 0.052727 0.000000
# 6 0.000000 -0.000001 0.000001 0.010228 0.000000 0.048039
#
#
# Mechanical properties :
#
#
# Convention : Reuss Voigt Hill
#
# Bulk Modulus (GPa) = 40.92783 62.21301 51.57042
# Shear Modulus (GPa) = 19.70634 24.42667 22.06651
#
# Velocity S-wave (km/s) = 3.37376 3.75616 3.57008
# Velocity P-wave (km/s) = 6.23025 7.39902 6.83965
#
# Compressibility (1/GPa) = 0.02443325
#
# Stress axis : x y z
#
# Youngs Moduli (GPa) = 75.22464 36.50875 45.05489
#
# Poissons Ratio (x) = 0.15525 0.18678
# Poissons Ratio (y) = 0.31988 0.48772
# Poissons Ratio (z) = 0.31186 0.39521
#
# Static dielectric constant tensor:
#      x y z
#    x 3.543830 0.000000 -0.409670 
#    y 0.000000 3.104210 0.000000 
#    z -0.409670 0.000000 3.219160 
# 
# 
# High freq. dielectric constant tensor:
#      x y z
#    x 1.667380 0.000000 -0.032850 
#    y 0.000000 1.645550 0.000000 
#    z -0.032850 0.000000 1.645790 
# 
# From -- ./inp_files/348524.got.cif
#   From: 2010.06.25/outbox.cif.g09.slc.cpg/sg12_175_cif.got.tgz:348524.got - 2010.06.28 00:19:55.
