data_PCOD8087811
_publ_section_title
;
Structure prediction by ZEFSAII (Michael W. Deem and Ramdas Pophale) SiO2 
 PCOD8087811
Probable space group: C 2/M
;
_chemical_formula_sum "Si O2"
_cell_formula_units_Z 60
_cell_length_a 15.535748
_cell_length_b 16.070775
_cell_length_c 12.737707
_cell_angle_alpha 90.000000
_cell_angle_beta 82.100127
_cell_angle_gamma 90.000000
_cell_volume 3150.061308
_symmetry_space_group_name_H-M "C 2/M"
_symmetry_group_IT_number 12
_symmetry_cell_setting 'monoclinic'
loop_
_space_group_symop_operation_xyz
x,y,z
-x,y,-z
-x,-y,-z
x,-y,z
1/2+x,1/2+y,z
1/2-x,1/2+y,-z
1/2-x,1/2-y,-z
1/2+x,1/2-y,z
loop_
_atom_site_type_symbol
_atom_site_label
_atom_site_fract_x
_atom_site_fract_y
_atom_site_fract_z
Si Si1 0.568811 0.222817 0.303642
Si Si2 0.705875 0.905458 0.355464
Si Si3 0.813152 0.097593 0.535561
Si Si4 0.819705 0.831945 0.168257
Si Si5 0.500000 0.686882 0.500000
Si Si6 0.770855 0.834673 0.756916
Si Si7 0.830551 0.096326 0.949157
Si Si8 0.508582 0.288785 0.113273
O O1 0.617215 0.141620 0.339139
O O2 0.496962 0.253061 0.398883
O O3 0.634506 0.297656 0.275195
O O4 0.526343 0.214068 0.194322
O O5 0.752531 0.867448 0.451143
O O6 0.774922 0.899531 0.250037
O O7 0.678310 0.000000 0.378988
O O8 0.756406 0.116439 0.650070
O O9 0.910688 0.134563 0.514403
O O10 0.825995 0.000000 0.520442
O O11 0.796392 0.738923 0.208905
O O12 0.922823 0.839729 0.159970
O O13 0.788768 0.853631 0.054660
O O14 0.767780 0.895968 0.858055
O O15 0.921161 0.138223 0.903515
O O16 0.844079 0.000000 0.976153
O O17 0.500000 0.245440 0.000000
#
# Coordination Sequence:
#
# PCOD8087811 Si02
#       8
#     8   8   8   8   4   8   8   8
#     4   9  19  34  51  73 100 135 175 209 253 308
#     4  10  21  35  52  74 103 137 174 217 258 300
#     4  10  20  34  53  80 109 135 167 211 261 305
#     4  10  19  32  52  75 100 133 175 211 250 305
#     4  10  19  32  55  80 104 136 168 206 253 308
#     4   9  19  33  51  73 103 139 172 205 246 306
#     4  10  19  32  51  77 108 136 164 207 261 309
#     4   9  19  33  51  76 103 133 169 213 259 309
#
# _framework density 19.047248
#
# number of rings (size 3 to 8) (size 9 to 14) (size 15 to 20)
#    0.000    2.400    0.000    2.200    0.000    9.867 
#    0.000    3.667    0.000    2.000    0.000    0.000 
#    0.000    0.000    0.000    0.000    0.000    0.000 
#
# Total GULP energy -371705.349912 kJ/mol
# GULP energy per Si atom -12390.178330 kJ/mol
# Density = 1.900390 g / cm^3
# Si number density = 19.047248 Si / 1000 Ang^3
#
#
#
# Elastic Constant Matrix: (Units=GPa)
#
#
# Indices 1 2 3 4 5 6 
#
# 1 40.3054 35.7966 40.7953 0.0000 12.5591 0.0000
# 2 35.7966 75.7152 46.1368 0.0000 8.0083 0.0000
# 3 40.7953 46.1368 132.9208 0.0000 14.6451 0.0000
# 4 0.0000 0.0000 0.0000 28.7525 0.0000 0.8349
# 5 12.5591 8.0083 14.6451 0.0000 32.5947 0.0000
# 6 0.0000 0.0000 0.0000 0.8349 0.0000 22.1815
#
#
#
# Elastic Compliance Matrix: (Units=1/GPa)
#
#
# Indices 1 2 3 4 5 6 
#
# 1 0.054489 -0.019141 -0.008716 0.000000 -0.012376 0.000000
# 2 -0.019141 0.023552 -0.002604 0.000000 0.002759 0.000000
# 3 -0.008716 -0.002604 0.011217 0.000000 -0.001042 0.000000
# 4 0.000000 0.000000 0.000000 0.034818 0.000000 -0.001311
# 5 -0.012376 0.002759 -0.001042 0.000000 0.035239 0.000000
# 6 0.000000 0.000000 0.000000 -0.001311 0.000000 0.045132
#
#
# Mechanical properties :
#
#
# Convention : Reuss Voigt Hill
#
# Bulk Modulus (GPa) = 35.29172 54.93319 45.11246
# Shear Modulus (GPa) = 18.19420 25.11993 21.65706
#
# Velocity S-wave (km/s) = 3.09401 3.63550 3.37563
# Velocity P-wave (km/s) = 5.59755 6.82097 6.23932
#
# Compressibility (1/GPa) = 0.02833526
#
# Stress axis : x y z
#
# Youngs Moduli (GPa) = 18.35250 42.45942 89.15048
#
# Poissons Ratio (x) = 0.81272 0.77702
# Poissons Ratio (y) = 0.35129 0.23216
# Poissons Ratio (z) = 0.15996 0.11057
#
# Static dielectric constant tensor:
#      x y z
#    x 3.364250 0.000000 0.251630 
#    y 0.000000 3.132200 0.000000 
#    z 0.251630 0.000000 4.215290 
# 
# 
# High freq. dielectric constant tensor:
#      x y z
#    x 1.718790 0.000000 0.007640 
#    y 0.000000 1.710880 0.000000 
#    z 0.007640 0.000000 1.769360 
# 
# From -- ./inp_files/156581.got.cif
#   From: 2010.06.25/outbox.cif.g09.slc.cpg/sg12_79_cif.got.tgz:156581.got - 2010.06.28 00:19:55.
