data_PCOD8087926
_publ_section_title
;
Structure prediction by ZEFSAII (Michael W. Deem and Ramdas Pophale) SiO2 
 PCOD8087926
Probable space group: C 2/M
;
_chemical_formula_sum "Si O2"
_cell_formula_units_Z 64
_cell_length_a 30.843712
_cell_length_b 8.980228
_cell_length_c 14.505330
_cell_angle_alpha 90.000000
_cell_angle_beta 117.781646
_cell_angle_gamma 90.000000
_cell_volume 3554.614699
_symmetry_space_group_name_H-M "C 2/M"
_symmetry_group_IT_number 12
_symmetry_cell_setting 'monoclinic'
loop_
_space_group_symop_operation_xyz
x,y,z
-x,y,-z
-x,-y,-z
x,-y,z
1/2+x,1/2+y,z
1/2-x,1/2+y,-z
1/2-x,1/2-y,-z
1/2+x,1/2-y,z
loop_
_atom_site_type_symbol
_atom_site_label
_atom_site_fract_x
_atom_site_fract_y
_atom_site_fract_z
Si Si1 0.021969 0.837877 0.621869
Si Si2 0.611695 0.824693 0.070877
Si Si3 0.481183 0.666061 0.084101
Si Si4 0.306840 0.326736 0.957129
Si Si5 0.425069 0.174901 0.764737
Si Si6 0.390390 0.172614 0.364622
Si Si7 0.918293 0.824040 0.578255
Si Si8 0.805568 0.671276 0.143125
O O1 0.066790 0.722374 0.664013
O O2 0.000000 0.859129 0.500000
O O3 0.976263 0.780955 0.637416
O O4 0.040932 0.000000 0.675445
O O5 0.664326 0.763139 0.092955
O O6 0.603763 0.783702 0.170341
O O7 0.608215 0.000000 0.051742
O O8 0.571113 0.747796 0.965511
O O9 0.476106 0.500000 0.121877
O O10 0.519801 0.761750 0.179929
O O11 0.500000 0.654256 0.000000
O O12 0.319332 0.500000 0.960650
O O13 0.249865 0.292195 0.882678
O O14 0.322341 0.272171 0.074128
O O15 0.396576 0.249984 0.649957
O O16 0.427668 0.000000 0.752471
O O17 0.390981 0.261059 0.461217
O O18 0.338881 0.206406 0.264613
O O19 0.397823 0.000000 0.394048
O O20 0.909978 0.000000 0.571406
O O21 0.810961 0.500000 0.117372
#
# Coordination Sequence:
#
# PCOD8087926 Si02
#       8
#     8   8   8   8   8   8   8   8
#     4   8  16  30  45  65  95 128 162 200 240 282
#     4  10  20  34  52  75 104 135 169 211 255 300
#     4   9  17  30  48  70  97 130 168 206 243 288
#     4  10  20  35  56  78 100 129 165 206 255 310
#     4  10  20  33  50  73 103 139 174 209 251 296
#     4  10  19  32  52  75 100 131 167 207 251 301
#     4  10  20  33  49  71 103 139 173 210 247 290
#     4   9  20  37  54  76 104 130 160 205 260 311
#
# _framework density 18.004764999999999
#
# number of rings (size 3 to 8) (size 9 to 14) (size 15 to 20)
#    0.000    2.500    0.000    3.000    0.000    8.250 
#    0.000    2.500    0.000    0.750    0.000    0.000 
#    0.000    0.000    0.000    0.000    0.000    0.000 
#
# Total GULP energy -396725.539367 kJ/mol
# GULP energy per Si atom -12397.673105 kJ/mol
# Density = 1.796379 g / cm^3
# Si number density = 18.004765 Si / 1000 Ang^3
#
#
#
# Elastic Constant Matrix: (Units=GPa)
#
#
# Indices 1 2 3 4 5 6 
#
# 1 86.7378 49.1523 48.3807 0.0000 -3.2350 0.0000
# 2 49.1523 107.7386 55.3715 0.0000 -3.5135 0.0000
# 3 48.3807 55.3715 99.7143 0.0000 -4.0893 0.0000
# 4 0.0000 0.0000 0.0000 22.8806 0.0000 2.2123
# 5 -3.2350 -3.5135 -4.0893 0.0000 21.4465 0.0000
# 6 0.0000 0.0000 0.0000 2.2123 0.0000 27.6878
#
#
#
# Elastic Compliance Matrix: (Units=1/GPa)
#
#
# Indices 1 2 3 4 5 6 
#
# 1 0.017613 -0.005087 -0.005691 0.000000 0.000738 0.000000
# 2 -0.005087 0.014470 -0.005545 0.000000 0.000546 0.000000
# 3 -0.005691 -0.005545 0.015921 0.000000 0.001269 0.000000
# 4 0.000000 0.000000 0.000000 0.044045 0.000000 -0.003519
# 5 0.000738 0.000546 0.001269 0.000000 0.047070 0.000000
# 6 0.000000 0.000000 0.000000 -0.003519 0.000000 0.036398
#
#
# Mechanical properties :
#
#
# Convention : Reuss Voigt Hill
#
# Bulk Modulus (GPa) = 65.10666 66.66664 65.88665
# Shear Modulus (GPa) = 23.44308 23.82206 23.63257
#
# Velocity S-wave (km/s) = 3.61231 3.64139 3.62688
# Velocity P-wave (km/s) = 7.32377 7.40184 7.36291
#
# Compressibility (1/GPa) = 0.01535941
#
# Stress axis : x y z
#
# Youngs Moduli (GPa) = 56.77519 69.10945 62.81051
#
# Poissons Ratio (x) = 0.35153 0.35745
# Poissons Ratio (y) = 0.28879 0.34827
# Poissons Ratio (z) = 0.32311 0.38319
#
# Static dielectric constant tensor:
#      x y z
#    x 3.445070 0.000000 -0.132890 
#    y 0.000000 3.450110 0.000000 
#    z -0.132890 0.000000 3.256000 
# 
# 
# High freq. dielectric constant tensor:
#      x y z
#    x 1.676390 0.000000 -0.011020 
#    y 0.000000 1.710640 0.000000 
#    z -0.011020 0.000000 1.686630 
# 
# From -- ./inp_files/249168.got.cif
#   From: 2010.06.25/outbox.cif.g09.slc.cpg/sg12_125_cif.got.tgz:249168.got - 2010.06.28 00:19:55.
