data_PCOD8087830
_publ_section_title
;
Structure prediction by ZEFSAII (Michael W. Deem and Ramdas Pophale) SiO2 
 PCOD8087830
Probable space group: C 2/M
;
_chemical_formula_sum "Si O2"
_cell_formula_units_Z 64
_cell_length_a 29.705884
_cell_length_b 9.274715
_cell_length_c 15.478157
_cell_angle_alpha 90.000000
_cell_angle_beta 132.207584
_cell_angle_gamma 90.000000
_cell_volume 3158.739694
_symmetry_space_group_name_H-M "C 2/M"
_symmetry_group_IT_number 12
_symmetry_cell_setting 'monoclinic'
loop_
_space_group_symop_operation_xyz
x,y,z
-x,y,-z
-x,-y,-z
x,-y,z
1/2+x,1/2+y,z
1/2-x,1/2+y,-z
1/2-x,1/2-y,-z
1/2+x,1/2-y,z
loop_
_atom_site_type_symbol
_atom_site_label
_atom_site_fract_x
_atom_site_fract_y
_atom_site_fract_z
Si Si1 0.706615 0.668557 0.598698
Si Si2 0.118643 0.334099 0.605849
Si Si3 0.974622 0.833182 0.615743
Si Si4 0.591525 0.840678 0.762694
Si Si5 0.175153 0.331878 0.157015
Si Si6 0.710330 0.162063 0.016240
Si Si7 0.930227 0.171916 0.895550
Si Si8 0.114703 0.166176 0.344051
O O1 0.690096 0.500000 0.589556
O O2 0.674503 0.754310 0.633782
O O3 0.778878 0.695183 0.702099
O O4 0.678835 0.720996 0.469792
O O5 0.117721 0.500000 0.575033
O O6 0.054838 0.259576 0.498928
O O7 0.127053 0.316349 0.718807
O O8 0.938725 0.803407 0.657491
O O9 0.043017 0.782923 0.718212
O O10 0.973481 0.000000 0.588086
O O11 0.639872 0.829976 0.900808
O O12 0.560721 0.000000 0.722278
O O13 0.157704 0.500000 0.127386
O O14 0.113513 0.240645 0.088415
O O15 0.210917 0.281647 0.116201
O O16 0.735756 0.000000 0.044993
O O17 0.750000 0.250000 0.000000
O O18 0.904901 0.237874 0.771939
O O19 0.926025 0.000000 0.896452
O O20 0.000000 0.221548 0.000000
O O21 0.121450 0.000000 0.330984
#
# Coordination Sequence:
#
# PCOD8087830 Si02
#       8
#     8   8   8   8   8   8   8   8
#     4   9  18  35  58  80 110 146 183 230 281 336
#     4  10  19  32  51  77 111 146 182 226 278 329
#     4  10  20  33  53  78 107 143 185 230 277 332
#     4  10  21  34  49  73 108 146 182 230 281 330
#     4  10  22  39  59  86 116 149 188 236 291 338
#     4  10  22  39  57  81 114 148 188 235 282 336
#     4  10  22  39  60  83 112 149 190 236 284 340
#     4   8  17  35  55  79 109 141 180 231 280 325
#
# _framework density 20.261244000000001
#
# number of rings (size 3 to 8) (size 9 to 14) (size 15 to 20)
#    0.000    2.375    0.000    2.625    1.750    4.750 
#    0.000    3.125    0.000    0.000    0.000    0.000 
#    0.000    0.000    0.000    0.000    0.000    0.000 
#
# Total GULP energy -396655.863194 kJ/mol
# GULP energy per Si atom -12395.495725 kJ/mol
# Density = 2.021513 g / cm^3
# Si number density = 20.261244 Si / 1000 Ang^3
#
#
#
# Elastic Constant Matrix: (Units=GPa)
#
#
# Indices 1 2 3 4 5 6 
#
# 1 86.5018 38.4889 47.9962 0.0000 11.5970 0.0000
# 2 38.4889 67.8563 30.6398 0.0000 5.5531 0.0000
# 3 47.9962 30.6398 115.7714 0.0000 -1.6334 0.0000
# 4 0.0000 0.0000 0.0000 21.7309 0.0000 3.2538
# 5 11.5970 5.5531 -1.6334 0.0000 29.1569 0.0000
# 6 0.0000 0.0000 0.0000 3.2538 0.0000 31.3262
#
#
#
# Elastic Compliance Matrix: (Units=1/GPa)
#
#
# Indices 1 2 3 4 5 6 
#
# 1 0.019163 -0.007619 -0.006020 0.000000 -0.006508 0.000000
# 2 -0.007619 0.020118 -0.002179 0.000000 -0.000923 0.000000
# 3 -0.006020 -0.002179 0.011759 0.000000 0.003468 0.000000
# 4 0.000000 0.000000 0.000000 0.046744 0.000000 -0.004855
# 5 -0.006508 -0.000923 0.003468 0.000000 0.037256 0.000000
# 6 0.000000 0.000000 0.000000 -0.004855 0.000000 0.032426
#
#
# Mechanical properties :
#
#
# Convention : Reuss Voigt Hill
#
# Bulk Modulus (GPa) = 51.53345 56.04215 53.78780
# Shear Modulus (GPa) = 24.32253 26.64311 25.48282
#
# Velocity S-wave (km/s) = 3.46850 3.63020 3.55027
# Velocity P-wave (km/s) = 6.44441 6.72985 6.58868
#
# Compressibility (1/GPa) = 0.01940487
#
# Stress axis : x y z
#
# Youngs Moduli (GPa) = 52.18317 49.70713 85.04058
#
# Poissons Ratio (x) = 0.37870 0.51196
# Poissons Ratio (y) = 0.39757 0.18529
# Poissons Ratio (z) = 0.31415 0.10830
#
# Static dielectric constant tensor:
#      x y z
#    x 3.406580 0.000000 -0.021620 
#    y 0.000000 3.506870 0.000000 
#    z -0.021620 0.000000 4.008900 
# 
# 
# High freq. dielectric constant tensor:
#      x y z
#    x 1.777700 0.000000 0.000840 
#    y 0.000000 1.773380 0.000000 
#    z 0.000840 0.000000 1.805690 
# 
# From -- ./inp_files/250080.got.cif
#   From: 2010.06.25/outbox.cif.g09.slc.cpg/sg12_126_cif.got.tgz:250080.got - 2010.06.28 00:19:55.
