data_PCOD8087622
_publ_section_title
;
Structure prediction by ZEFSAII (Michael W. Deem and Ramdas Pophale) SiO2 
 PCOD8087622
Probable space group: C 2/M
;
_chemical_formula_sum "Si O2"
_cell_formula_units_Z 56
_cell_length_a 28.047649
_cell_length_b 9.582964
_cell_length_c 12.048251
_cell_angle_alpha 90.000000
_cell_angle_beta 97.609552
_cell_angle_gamma 90.000000
_cell_volume 3209.805838
_symmetry_space_group_name_H-M "C 2/M"
_symmetry_group_IT_number 12
_symmetry_cell_setting 'monoclinic'
loop_
_space_group_symop_operation_xyz
x,y,z
-x,y,-z
-x,-y,-z
x,-y,z
1/2+x,1/2+y,z
1/2-x,1/2+y,-z
1/2-x,1/2-y,-z
1/2+x,1/2-y,z
loop_
_atom_site_type_symbol
_atom_site_label
_atom_site_fract_x
_atom_site_fract_y
_atom_site_fract_z
Si Si1 0.646903 0.662135 0.442231
Si Si2 0.428933 0.658900 0.767647
Si Si3 0.332202 0.163220 0.344175
Si Si4 0.223530 0.165467 0.290844
Si Si5 0.379688 0.838236 0.125200
Si Si6 0.011051 0.336896 0.878124
Si Si7 0.153093 0.837229 0.083178
O O1 0.653043 0.500000 0.475620
O O2 0.599044 0.685517 0.355466
O O3 0.641354 0.752985 0.550801
O O4 0.693165 0.718333 0.387648
O O5 0.446635 0.500000 0.779886
O O6 0.475354 0.757360 0.784108
O O7 0.394744 0.693324 0.860964
O O8 0.277818 0.220588 0.314246
O O9 0.361048 0.194637 0.241699
O O10 0.332249 0.000000 0.373658
O O11 0.198984 0.216105 0.168556
O O12 0.220528 0.000000 0.289468
O O13 0.435092 0.792534 0.136345
O O14 0.373498 0.000000 0.092039
O O15 0.347851 0.750265 0.029804
O O16 0.002232 0.500000 0.858464
O O17 0.000000 0.290312 0.000000
O O18 0.157373 0.000000 0.054813
#
# Coordination Sequence:
#
# PCOD8087622 Si02
#       7
#     8   8   8   8   8   8   8
#     4   9  18  34  54  75 100 126 162 208 245 282
#     4   9  18  32  52  77  99 123 160 207 249 287
#     4  10  20  34  51  71 100 136 167 197 240 293
#     4   8  16  32  53  75  99 128 162 203 246 286
#     4  10  21  34  47  71 105 133 161 201 246 290
#     4  10  19  32  51  73  99 130 163 202 245 288
#     4   9  17  31  51  74  99 128 162 199 244 295
#
# _framework density 17.446538
#
# number of rings (size 3 to 8) (size 9 to 14) (size 15 to 20)
#    0.000    2.714    1.429    2.143    0.000    2.571 
#    0.000    3.571    0.000    4.286    0.000    0.000 
#    0.000    0.000    0.000    0.000    0.000    0.000 
#
# Total GULP energy -347221.082597 kJ/mol
# GULP energy per Si atom -12400.752950 kJ/mol
# Density = 1.740683 g / cm^3
# Si number density = 17.446538 Si / 1000 Ang^3
#
#
#
# Elastic Constant Matrix: (Units=GPa)
#
#
# Indices 1 2 3 4 5 6 
#
# 1 67.5016 29.5101 53.7240 0.0000 2.4717 0.0000
# 2 29.5101 52.9536 59.6105 0.0000 3.1595 0.0000
# 3 53.7240 59.6105 125.2941 0.0000 0.0182 0.0000
# 4 0.0000 0.0000 0.0000 32.5037 0.0000 3.5068
# 5 2.4717 3.1595 0.0182 0.0000 22.4684 0.0000
# 6 0.0000 0.0000 0.0000 3.5068 0.0000 19.9975
#
#
#
# Elastic Compliance Matrix: (Units=1/GPa)
#
#
# Indices 1 2 3 4 5 6 
#
# 1 0.022906 -0.003419 -0.008195 0.000000 -0.002032 0.000000
# 2 -0.003419 0.041916 -0.018476 0.000000 -0.005503 0.000000
# 3 -0.008195 -0.018476 0.020284 0.000000 0.003483 0.000000
# 4 0.000000 0.000000 0.000000 0.031359 0.000000 -0.005499
# 5 -0.002032 -0.005503 0.003483 0.000000 0.045502 0.000000
# 6 0.000000 0.000000 0.000000 -0.005499 0.000000 0.050971
#
#
# Mechanical properties :
#
#
# Convention : Reuss Voigt Hill
#
# Bulk Modulus (GPa) = 40.11510 59.04872 49.58191
# Shear Modulus (GPa) = 17.76673 21.85424 19.81048
#
# Velocity S-wave (km/s) = 3.19463 3.54311 3.37337
# Velocity P-wave (km/s) = 6.05397 7.11738 6.60711
#
# Compressibility (1/GPa) = 0.02492827
#
# Stress axis : x y z
#
# Youngs Moduli (GPa) = 43.65754 23.85712 49.29876
#
# Poissons Ratio (x) = 0.08156 0.40399
# Poissons Ratio (y) = 0.14925 0.91082
# Poissons Ratio (z) = 0.35776 0.44077
#
# Static dielectric constant tensor:
#      x y z
#    x 3.267060 0.000000 0.089300 
#    y 0.000000 3.017700 0.000000 
#    z 0.089300 0.000000 3.144370 
# 
# 
# High freq. dielectric constant tensor:
#      x y z
#    x 1.668320 0.000000 0.009970 
#    y 0.000000 1.657390 0.000000 
#    z 0.009970 0.000000 1.672720 
# 
# From -- ./inp_files/186869.got.cif
#   From: 2010.06.25/outbox.cif.g09.slc.cpg/sg12_94_cif.got.tgz:186869.got - 2010.06.28 00:19:55.
