data_PCOD8087645
_publ_section_title
;
Structure prediction by ZEFSAII (Michael W. Deem and Ramdas Pophale) SiO2 
 PCOD8087645
Probable space group: C 2/M
;
_chemical_formula_sum "Si O2"
_cell_formula_units_Z 56
_cell_length_a 37.167026
_cell_length_b 9.236137
_cell_length_c 23.226123
_cell_angle_alpha 90.000000
_cell_angle_beta 156.034808
_cell_angle_gamma 90.000000
_cell_volume 3238.509086
_symmetry_space_group_name_H-M "C 2/M"
_symmetry_group_IT_number 12
_symmetry_cell_setting 'monoclinic'
loop_
_space_group_symop_operation_xyz
x,y,z
-x,y,-z
-x,-y,-z
x,-y,z
1/2+x,1/2+y,z
1/2-x,1/2+y,-z
1/2-x,1/2-y,-z
1/2+x,1/2-y,z
loop_
_atom_site_type_symbol
_atom_site_label
_atom_site_fract_x
_atom_site_fract_y
_atom_site_fract_z
Si Si1 0.941638 0.169760 0.718854
Si Si2 0.744553 0.667605 0.932948
Si Si3 0.180267 0.835749 0.362640
Si Si4 0.097398 0.828093 0.632736
Si Si5 0.706439 0.170081 0.572830
Si Si6 0.720929 0.668008 0.712457
Si Si7 0.621324 0.835042 0.969914
O O1 0.915680 0.197556 0.748922
O O2 0.874903 0.251711 0.578248
O O3 0.939063 0.000000 0.699755
O O4 0.040206 0.226246 0.855419
O O5 0.729806 0.500000 0.924930
O O6 0.661251 0.732334 0.775973
O O7 0.833069 0.690754 0.025091
O O8 0.750000 0.750000 0.000000
O O9 0.250000 0.750000 0.500000
O O10 0.198991 0.802018 0.322506
O O11 0.204606 0.000000 0.410186
O O12 0.135855 0.786203 0.626402
O O13 0.000000 0.760868 0.500000
O O14 0.095952 0.000000 0.635508
O O15 0.720622 0.232406 0.656480
O O16 0.684489 0.000000 0.544730
O O17 0.715115 0.500000 0.686017
O O18 0.809839 0.698040 0.878413
O O19 0.587483 0.000000 0.925303
#
# Coordination Sequence:
#
# PCOD8087645 Si02
#       7
#     8   8   8   8   8   8   8
#     4  10  19  32  52  75  96 124 168 209 239 285
#     4   9  18  32  50  72  98 127 158 196 241 288
#     4   8  16  30  47  69  96 125 157 198 245 289
#     4   8  15  30  51  71  92 122 159 196 235 278
#     4  10  19  32  51  74 101 129 157 197 251 298
#     4   9  18  33  51  71  98 131 165 199 236 287
#     4   9  19  35  50  68 101 137 164 198 246 290
#
# _framework density 17.291907999999999
#
# number of rings (size 3 to 8) (size 9 to 14) (size 15 to 20)
#    0.000    3.000    0.000    2.571    0.000    3.429 
#    0.000    4.286    0.000    5.143    0.000    0.000 
#    0.000    0.000    0.000    0.000    0.000    0.000 
#
# Total GULP energy -346907.890365 kJ/mol
# GULP energy per Si atom -12389.567513 kJ/mol
# Density = 1.725255 g / cm^3
# Si number density = 17.291908 Si / 1000 Ang^3
#
#
#
# Elastic Constant Matrix: (Units=GPa)
#
#
# Indices 1 2 3 4 5 6 
#
# 1 148.1452 64.8009 64.0352 0.0000 -2.6656 0.0000
# 2 64.8009 77.0980 44.6028 0.0000 1.4603 0.0000
# 3 64.0352 44.6028 75.4078 0.0000 8.8595 0.0000
# 4 0.0000 0.0000 0.0000 27.5248 0.0000 -2.7420
# 5 -2.6656 1.4603 8.8595 0.0000 20.8294 0.0000
# 6 0.0000 0.0000 0.0000 -2.7420 0.0000 32.3290
#
#
#
# Elastic Compliance Matrix: (Units=1/GPa)
#
#
# Indices 1 2 3 4 5 6 
#
# 1 0.013151 -0.006571 -0.007929 0.000000 0.005516 0.000000
# 2 -0.006571 0.023285 -0.008318 0.000000 0.001065 0.000000
# 3 -0.007929 -0.008318 0.026279 0.000000 -0.011609 0.000000
# 4 0.000000 0.000000 0.000000 0.036640 0.000000 0.003108
# 5 0.005516 0.001065 -0.011609 0.000000 0.053578 0.000000
# 6 0.000000 0.000000 0.000000 0.003108 0.000000 0.031196
#
#
# Mechanical properties :
#
#
# Convention : Reuss Voigt Hill
#
# Bulk Modulus (GPa) = 58.55318 71.94764 65.25041
# Shear Modulus (GPa) = 21.23524 24.61745 22.92635
#
# Velocity S-wave (km/s) = 3.50815 3.77721 3.64516
# Velocity P-wave (km/s) = 7.09539 7.79237 7.45204
#
# Compressibility (1/GPa) = 0.01707849
#
# Stress axis : x y z
#
# Youngs Moduli (GPa) = 76.04116 42.94562 38.05373
#
# Poissons Ratio (x) = 0.28218 0.30173
# Poissons Ratio (y) = 0.49963 0.31655
# Poissons Ratio (z) = 0.60294 0.35724
#
# Static dielectric constant tensor:
#      x y z
#    x 3.704120 0.000000 0.329060 
#    y 0.000000 3.096360 0.000000 
#    z 0.329060 0.000000 3.194140 
# 
# 
# High freq. dielectric constant tensor:
#      x y z
#    x 1.681540 0.000000 0.011800 
#    y 0.000000 1.658870 0.000000 
#    z 0.011800 0.000000 1.647870 
# 
# From -- ./inp_files/329625.got.cif
#   From: 2010.06.25/outbox.cif.g09.slc.cpg/sg12_165_cif.got.tgz:329625.got - 2010.06.28 00:19:55.
