data_PCOD8087091
_publ_section_title
;
Structure prediction by ZEFSAII (Michael W. Deem and Ramdas Pophale) SiO2 
 PCOD8087091
Probable space group: C 2/M
;
_chemical_formula_sum "Si O2"
_cell_formula_units_Z 56
_cell_length_a 19.406418
_cell_length_b 9.038228
_cell_length_c 21.085912
_cell_angle_alpha 90.000000
_cell_angle_beta 125.513888
_cell_angle_gamma 90.000000
_cell_volume 3010.453962
_symmetry_space_group_name_H-M "C 2/M"
_symmetry_group_IT_number 12
_symmetry_cell_setting 'monoclinic'
loop_
_space_group_symop_operation_xyz
x,y,z
-x,y,-z
-x,-y,-z
x,-y,z
1/2+x,1/2+y,z
1/2-x,1/2+y,-z
1/2-x,1/2-y,-z
1/2+x,1/2-y,z
loop_
_atom_site_type_symbol
_atom_site_label
_atom_site_fract_x
_atom_site_fract_y
_atom_site_fract_z
Si Si1 0.577888 0.324731 0.500583
Si Si2 0.143535 0.830392 0.204232
Si Si3 0.263735 0.825328 0.638751
Si Si4 0.401321 0.334196 0.958691
Si Si5 0.339240 0.173186 0.044602
Si Si6 0.595777 0.674204 0.367571
Si Si7 0.022522 0.830566 0.808432
O O1 0.500000 0.257045 0.500000
O O2 0.570059 0.500000 0.496007
O O3 0.666756 0.274682 0.578333
O O4 0.573931 0.266709 0.426011
O O5 0.208430 0.726250 0.276425
O O6 0.149070 0.794591 0.132715
O O7 0.048027 0.800610 0.175977
O O8 0.167565 0.000000 0.231873
O O9 0.320451 0.753196 0.614028
O O10 0.273775 0.000000 0.638528
O O11 0.375658 0.500000 0.967813
O O12 0.500000 0.329491 0.000000
O O13 0.379979 0.212619 0.999112
O O14 0.397265 0.228259 0.133869
O O15 0.327850 0.000000 0.044940
O O16 0.250000 0.250000 0.000000
O O17 0.615323 0.500000 0.377170
O O18 0.515008 0.711333 0.280400
O O19 0.052850 0.000000 0.826547
#
# Coordination Sequence:
#
# PCOD8087091 Si02
#       7
#     8   8   8   8   8   8   8
#     4   9  18  34  54  78 109 143 179 220 268 322
#     4   9  18  34  58  83 111 145 178 220 275 333
#     4  10  19  31  53  83 112 138 178 231 267 310
#     4  10  19  37  62  83 109 146 186 226 274 329
#     4  12  25  39  56  80 113 150 188 231 276 327
#     4   9  18  34  58  80 103 143 184 218 268 328
#     4   9  17  34  56  80 107 142 186 225 271 327
#
# _framework density 18.601845999999998
#
# number of rings (size 3 to 8) (size 9 to 14) (size 15 to 20)
#    0.000    2.286    1.429    3.000    0.000    3.143 
#    2.571    0.714    0.000    3.857    0.000    0.000 
#    0.000    0.000    0.000    0.000    0.000    0.000 
#
# Total GULP energy -347193.102226 kJ/mol
# GULP energy per Si atom -12399.753651 kJ/mol
# Density = 1.855951 g / cm^3
# Si number density = 18.601846 Si / 1000 Ang^3
#
#
#
# Elastic Constant Matrix: (Units=GPa)
#
#
# Indices 1 2 3 4 5 6 
#
# 1 91.5658 42.1604 72.3947 0.0000 11.3776 0.0000
# 2 42.1604 85.5383 53.1933 0.0000 13.3874 0.0000
# 3 72.3947 53.1933 135.6334 0.0000 9.1765 0.0000
# 4 0.0000 0.0000 0.0000 26.0213 0.0000 3.5134
# 5 11.3776 13.3874 9.1765 0.0000 26.8614 0.0000
# 6 0.0000 0.0000 0.0000 3.5134 0.0000 25.0044
#
#
#
# Elastic Compliance Matrix: (Units=1/GPa)
#
#
# Indices 1 2 3 4 5 6 
#
# 1 0.020320 -0.003780 -0.009119 0.000000 -0.003608 0.000000
# 2 -0.003780 0.017090 -0.004317 0.000000 -0.005442 0.000000
# 3 -0.009119 -0.004317 0.013846 0.000000 0.001284 0.000000
# 4 0.000000 0.000000 0.000000 0.039173 0.000000 -0.005504
# 5 -0.003608 -0.005442 0.001284 0.000000 0.041030 0.000000
# 6 0.000000 0.000000 0.000000 -0.005504 0.000000 0.040766
#
#
# Mechanical properties :
#
#
# Convention : Reuss Voigt Hill
#
# Bulk Modulus (GPa) = 59.43756 72.02604 65.73180
# Shear Modulus (GPa) = 23.55551 25.24335 24.39943
#
# Velocity S-wave (km/s) = 3.56237 3.68779 3.62562
# Velocity P-wave (km/s) = 6.99589 7.54566 7.27597
#
# Compressibility (1/GPa) = 0.01682438
#
# Stress axis : x y z
#
# Youngs Moduli (GPa) = 49.21345 58.51479 72.22112
#
# Poissons Ratio (x) = 0.22116 0.65860
# Poissons Ratio (y) = 0.18601 0.31176
# Poissons Ratio (z) = 0.44879 0.25259
#
# Static dielectric constant tensor:
#      x y z
#    x 3.271900 0.000000 -0.017490 
#    y 0.000000 3.321200 0.000000 
#    z -0.017490 0.000000 3.631660 
# 
# 
# High freq. dielectric constant tensor:
#      x y z
#    x 1.703700 0.000000 -0.001130 
#    y 0.000000 1.702350 0.000000 
#    z -0.001130 0.000000 1.739520 
# 
# From -- ./inp_files/314367.got.cif
#   From: 2010.06.25/outbox.cif.g09.slc.cpg/sg12_158_cif.got.tgz:314367.got - 2010.06.28 00:19:55.
