data_PCOD8087952
_publ_section_title
;
Structure prediction by ZEFSAII (Michael W. Deem and Ramdas Pophale) SiO2 
 PCOD8087952
Probable space group: C 2/M
;
_chemical_formula_sum "Si O2"
_cell_formula_units_Z 64
_cell_length_a 25.000583
_cell_length_b 9.244205
_cell_length_c 17.232774
_cell_angle_alpha 90.000000
_cell_angle_beta 77.970020
_cell_angle_gamma 90.000000
_cell_volume 3895.210446
_symmetry_space_group_name_H-M "C 2/M"
_symmetry_group_IT_number 12
_symmetry_cell_setting 'monoclinic'
loop_
_space_group_symop_operation_xyz
x,y,z
-x,y,-z
-x,-y,-z
x,-y,z
1/2+x,1/2+y,z
1/2-x,1/2+y,-z
1/2-x,1/2-y,-z
1/2+x,1/2-y,z
loop_
_atom_site_type_symbol
_atom_site_label
_atom_site_fract_x
_atom_site_fract_y
_atom_site_fract_z
Si Si1 0.468677 0.666732 0.341157
Si Si2 0.758645 0.666967 0.076468
Si Si3 0.932229 0.668595 0.904207
Si Si4 0.041393 0.170728 0.833313
Si Si5 0.089401 0.834644 0.357526
Si Si6 0.937634 0.663557 0.492216
Si Si7 0.877953 0.332888 0.086139
Si Si8 0.353865 0.666524 0.813346
O O1 0.456906 0.500000 0.362290
O O2 0.452910 0.709391 0.258852
O O3 0.532356 0.704104 0.333039
O O4 0.430996 0.758094 0.411447
O O5 0.761978 0.500000 0.052242
O O6 0.814628 0.714383 0.100894
O O7 0.709359 0.699647 0.150438
O O8 0.750000 0.750000 0.000000
O O9 0.942294 0.500000 0.884586
O O10 0.891943 0.729631 0.851576
O O11 0.989586 0.750542 0.886448
O O12 0.905653 0.695430 0.995305
O O13 0.095642 0.229545 0.857824
O O14 0.034992 0.000000 0.848316
O O15 0.099726 0.738279 0.430701
O O16 0.136892 0.802903 0.280686
O O17 0.089550 0.000000 0.385298
O O18 0.917779 0.500000 0.488775
O O19 0.000000 0.675842 0.500000
O O20 0.884587 0.500000 0.109076
O O21 0.369424 0.500000 0.828228
#
# Coordination Sequence:
#
# PCOD8087952 Si02
#       8
#     8   8   8   8   8   8   8   8
#     4   9  17  30  46  66  95 128 160 195 239 288
#     4  10  20  35  54  73  98 129 168 211 251 294
#     4  11  21  33  50  71 101 134 164 205 254 297
#     4  11  22  35  51  73  98 131 173 208 241 294
#     4   9  16  29  46  67  97 128 159 197 240 286
#     4   9  17  27  42  68  97 126 159 190 232 293
#     4  10  22  37  49  70 100 133 168 207 255 296
#     4  10  19  32  52  75  98 131 171 206 242 292
#
# _framework density 16.430433000000001
#
# number of rings (size 3 to 8) (size 9 to 14) (size 15 to 20)
#    0.000    2.125    2.500    1.500    0.000    6.000 
#    0.000    0.000    0.000    0.000    0.000    0.875 
#    0.000    0.000    0.000    0.000    0.000    0.000 
#
# Total GULP energy -396862.418096 kJ/mol
# GULP energy per Si atom -12401.950565 kJ/mol
# Density = 1.639304 g / cm^3
# Si number density = 16.430433 Si / 1000 Ang^3
#
#
#
# Elastic Constant Matrix: (Units=GPa)
#
#
# Indices 1 2 3 4 5 6 
#
# 1 84.8518 33.2249 37.4838 0.0000 -15.0306 0.0000
# 2 33.2249 71.6926 45.7588 0.0000 -15.0168 0.0000
# 3 37.4838 45.7588 100.1784 0.0000 -26.6193 0.0000
# 4 0.0000 0.0000 0.0000 26.9961 0.0000 4.3352
# 5 -15.0306 -15.0168 -26.6193 0.0000 6.0419 0.0000
# 6 0.0000 0.0000 0.0000 4.3352 0.0000 21.7145
#
#
#
# Elastic Compliance Matrix: (Units=1/GPa)
#
#
# Indices 1 2 3 4 5 6 
#
# 1 0.012458 -0.006399 -0.013303 0.000000 -0.043520 0.000000
# 2 -0.006399 0.020319 -0.013489 0.000000 -0.024847 0.000000
# 3 -0.013303 -0.013489 -0.020030 0.000000 -0.154869 0.000000
# 4 0.000000 0.000000 0.000000 0.038269 0.000000 -0.007640
# 5 -0.043520 -0.024847 -0.154869 0.000000 -0.686828 0.000000
# 6 0.000000 0.000000 0.000000 -0.007640 0.000000 0.047578
#
#
# Mechanical properties :
#
#
# Convention : Reuss Voigt Hill
#
# Bulk Modulus (GPa) = -18.64452 54.40643 17.88096
# Shear Modulus (GPa) = -9.26389 20.30086 5.51848
#
# Velocity S-wave (km/s) = -2.37708 3.51887 1.83466
# Velocity P-wave (km/s) = 4.34812 7.04947 3.92357
#
# Compressibility (1/GPa) = -0.05363507
#
# Stress axis : x y z
#
# Youngs Moduli (GPa) = 80.26828 49.21486 -49.92445
#
# Poissons Ratio (x) = 0.31491 -0.66414
# Poissons Ratio (y) = 0.51361 -0.67345
# Poissons Ratio (z) = 1.06781 0.66388
#
# Static dielectric constant tensor:
#      x y z
#    x 2.961550 0.000000 -0.112880 
#    y 0.000000 3.179800 0.000000 
#    z -0.112880 0.000000 3.189470 
# 
# 
# High freq. dielectric constant tensor:
#      x y z
#    x 1.596590 0.000000 -0.007690 
#    y 0.000000 1.639610 0.000000 
#    z -0.007690 0.000000 1.636330 
# 
# From -- ./inp_files/287544.got.cif
#   From: 2010.06.25/outbox.cif.g09.slc.cpg/sg12_144_cif.got.tgz:287544.got - 2010.06.28 00:19:55.
