data_PCOD8087762
_publ_section_title
;
Structure prediction by ZEFSAII (Michael W. Deem and Ramdas Pophale) SiO2 
 PCOD8087762
Probable space group: C 2/M
;
_chemical_formula_sum "Si O2"
_cell_formula_units_Z 40
_cell_length_a 18.896958
_cell_length_b 8.888073
_cell_length_c 20.239515
_cell_angle_alpha 90.000000
_cell_angle_beta 135.570447
_cell_angle_gamma 90.000000
_cell_volume 2379.673436
_symmetry_space_group_name_H-M "C 2/M"
_symmetry_group_IT_number 12
_symmetry_cell_setting 'monoclinic'
loop_
_space_group_symop_operation_xyz
x,y,z
-x,y,-z
-x,-y,-z
x,-y,z
1/2+x,1/2+y,z
1/2-x,1/2+y,-z
1/2-x,1/2-y,-z
1/2+x,1/2-y,z
loop_
_atom_site_type_symbol
_atom_site_label
_atom_site_fract_x
_atom_site_fract_y
_atom_site_fract_z
Si Si1 0.938180 0.829054 0.397484
Si Si2 0.857753 0.821969 0.085344
Si Si3 0.523535 0.676066 0.089862
Si Si4 0.774974 0.670323 0.783101
Si Si5 0.376345 0.177702 0.232941
O O1 0.817033 0.826301 0.332003
O O2 0.956705 0.731466 0.342947
O O3 0.000000 0.757947 0.500000
O O4 0.975340 0.000000 0.409591
O O5 0.906306 0.755314 0.184312
O O6 0.931873 0.775415 0.075441
O O7 0.846154 0.000000 0.083631
O O8 0.750000 0.750000 0.000000
O O9 0.544078 0.500000 0.106938
O O10 0.625421 0.757970 0.182331
O O11 0.500000 0.730020 0.000000
O O12 0.796882 0.500000 0.820662
O O13 0.736864 0.766513 0.821690
O O14 0.377482 0.000000 0.225535
#
# Coordination Sequence:
#
# PCOD8087762 Si02
#       5
#     8   8   8   8   8
#     4   8  16  32  54  80 107 134 169 216 266 310
#     4  11  22  35  52  75 105 140 176 214 264 312
#     4  10  21  35  51  73 103 137 172 215 263 309
#     4   9  18  32  52  77 102 133 171 211 259 308
#     4  10  19  32  51  76 106 136 174 215 253 304
#
# _framework density 16.80903
#
# number of rings (size 3 to 8) (size 9 to 14) (size 15 to 20)
#    1.200    1.200    0.000    3.600    0.000    4.000 
#    0.000    0.000    0.000    1.200    0.000    0.000 
#    0.000    0.000    0.000    0.000    0.000    0.000 
#
# Total GULP energy -247841.557892 kJ/mol
# GULP energy per Si atom -12392.077895 kJ/mol
# Density = 1.677077 g / cm^3
# Si number density = 16.809030 Si / 1000 Ang^3
#
#
#
# Elastic Constant Matrix: (Units=GPa)
#
#
# Indices 1 2 3 4 5 6 
#
# 1 112.2052 55.6702 59.8966 0.0000 -9.2574 0.0000
# 2 55.6702 88.4061 43.4494 0.0000 -6.3161 0.0000
# 3 59.8966 43.4494 115.3593 0.0000 -13.3816 0.0000
# 4 0.0000 0.0000 0.0000 25.9910 0.0000 1.7645
# 5 -9.2574 -6.3161 -13.3816 0.0000 24.1862 0.0000
# 6 0.0000 0.0000 0.0000 1.7645 0.0000 26.8280
#
#
#
# Elastic Compliance Matrix: (Units=1/GPa)
#
#
# Indices 1 2 3 4 5 6 
#
# 1 0.015208 -0.006969 -0.005137 0.000000 0.001159 0.000000
# 2 -0.006969 0.017088 -0.002789 0.000000 0.000252 0.000000
# 3 -0.005137 -0.002789 0.012901 0.000000 0.004444 0.000000
# 4 0.000000 0.000000 0.000000 0.038647 0.000000 -0.002542
# 5 0.001159 0.000252 0.004444 0.000000 0.044314 0.000000
# 6 0.000000 0.000000 0.000000 -0.002542 0.000000 0.037442
#
#
# Mechanical properties :
#
#
# Convention : Reuss Voigt Hill
#
# Bulk Modulus (GPa) = 64.89820 70.44480 67.67150
# Shear Modulus (GPa) = 24.93451 25.86466 25.39959
#
# Velocity S-wave (km/s) = 3.85567 3.92693 3.89146
# Velocity P-wave (km/s) = 7.64948 7.90955 7.78060
#
# Compressibility (1/GPa) = 0.01540875
#
# Stress axis : x y z
#
# Youngs Moduli (GPa) = 65.75670 58.51924 77.51066
#
# Poissons Ratio (x) = 0.40782 0.39816
# Poissons Ratio (y) = 0.45826 0.21614
# Poissons Ratio (z) = 0.33778 0.16319
#
# Static dielectric constant tensor:
#      x y z
#    x 3.007810 0.000000 -0.056590 
#    y 0.000000 3.112850 0.000000 
#    z -0.056590 0.000000 3.129730 
# 
# 
# High freq. dielectric constant tensor:
#      x y z
#    x 1.621770 0.000000 -0.001510 
#    y 0.000000 1.656950 0.000000 
#    z -0.001510 0.000000 1.636210 
# 
# From -- ./inp_files/267378.got.cif
#   From: 2010.06.25/outbox.cif.g09.slc.cpg/sg12_134_cif.got.tgz:267378.got - 2010.06.28 00:19:55.
