data_PCOD8087196
_publ_section_title
;
Structure prediction by ZEFSAII (Michael W. Deem and Ramdas Pophale) SiO2 
 PCOD8087196
Probable space group: C 2/M
;
_chemical_formula_sum "Si O2"
_cell_formula_units_Z 64
_cell_length_a 31.047859
_cell_length_b 17.994815
_cell_length_c 10.119623
_cell_angle_alpha 90.000000
_cell_angle_beta 138.082504
_cell_angle_gamma 90.000000
_cell_volume 3777.102081
_symmetry_space_group_name_H-M "C 2/M"
_symmetry_group_IT_number 12
_symmetry_cell_setting 'monoclinic'
loop_
_space_group_symop_operation_xyz
x,y,z
-x,y,-z
-x,-y,-z
x,-y,z
1/2+x,1/2+y,z
1/2-x,1/2+y,-z
1/2-x,1/2-y,-z
1/2+x,1/2-y,z
loop_
_atom_site_type_symbol
_atom_site_label
_atom_site_fract_x
_atom_site_fract_y
_atom_site_fract_z
Si Si1 0.236986 0.412494 0.267231
Si Si2 0.282844 0.806544 0.253438
Si Si3 0.923018 0.807946 0.327693
Si Si4 0.736561 0.586157 0.373286
Si Si5 0.973273 0.080415 0.798957
Si Si6 0.174092 0.309139 0.934761
Si Si7 0.360721 0.667819 0.462167
Si Si8 0.100634 0.086113 0.951756
O O1 0.227752 0.500000 0.237337
O O2 0.240855 0.386409 0.429605
O O3 0.300540 0.388195 0.332472
O O4 0.177201 0.373306 0.053943
O O5 0.273140 0.870006 0.340416
O O6 0.305101 0.840364 0.162605
O O7 0.338120 0.751868 0.438802
O O8 0.218922 0.759262 0.081791
O O9 0.898291 0.724161 0.239055
O O10 0.895523 0.837740 0.401667
O O11 0.888161 0.865387 0.151181
O O12 0.000000 0.809173 0.500000
O O13 0.754194 0.500000 0.394184
O O14 0.659612 0.599106 0.188475
O O15 0.915640 0.139360 0.687105
O O16 0.032550 0.114670 0.852501
O O17 0.949828 0.000000 0.685439
O O18 0.000000 0.060663 0.000000
O O19 0.096896 0.000000 0.903911
#
# Coordination Sequence:
#
# PCOD8087196 Si02
#       8
#     8   8   8   8   8   8   8   8
#     4  10  21  35  53  77 102 133 169 211 258 304
#     4   9  18  34  50  73 102 133 169 209 256 296
#     4  11  20  35  51  72 103 135 172 211 247 294
#     4  10  20  35  53  76 105 134 169 209 254 303
#     4  10  19  32  46  66 102 140 172 208 244 288
#     4   9  19  34  52  73 102 132 168 213 254 299
#     4  10  20  32  50  72 102 136 170 208 247 298
#     4  10  20  31  48  72 101 138 174 203 238 294
#
# _framework density 16.944206999999999
#
# number of rings (size 3 to 8) (size 9 to 14) (size 15 to 20)
#    0.000    2.125    2.500    1.875    0.000    5.750 
#    2.250    0.000    0.000    0.375    0.000    0.000 
#    0.000    8.500    0.000    0.000    0.000    0.000 
#
# Total GULP energy -396523.237630 kJ/mol
# GULP energy per Si atom -12391.351176 kJ/mol
# Density = 1.690564 g / cm^3
# Si number density = 16.944207 Si / 1000 Ang^3
#
#
#
# Elastic Constant Matrix: (Units=GPa)
#
#
# Indices 1 2 3 4 5 6 
#
# 1 72.9821 34.9660 28.1243 0.0000 -10.9599 0.0000
# 2 34.9660 65.9012 43.4731 0.0000 -9.0628 0.0000
# 3 28.1243 43.4731 79.3752 0.0000 -10.2610 0.0000
# 4 0.0000 0.0000 0.0000 34.8773 0.0000 -0.3128
# 5 -10.9599 -9.0628 -10.2610 0.0000 18.5042 0.0000
# 6 0.0000 0.0000 0.0000 -0.3128 0.0000 29.6148
#
#
#
# Elastic Compliance Matrix: (Units=1/GPa)
#
#
# Indices 1 2 3 4 5 6 
#
# 1 0.019236 -0.008407 -0.001369 0.000000 0.006517 0.000000
# 2 -0.008407 0.027828 -0.012005 0.000000 0.001993 0.000000
# 3 -0.001369 -0.012005 0.020245 0.000000 0.004536 0.000000
# 4 0.000000 0.000000 0.000000 0.028675 0.000000 0.000303
# 5 0.006517 0.001993 0.004536 0.000000 0.061393 0.000000
# 6 0.000000 0.000000 0.000000 0.000303 0.000000 0.033770
#
#
# Mechanical properties :
#
#
# Convention : Reuss Voigt Hill
#
# Bulk Modulus (GPa) = 42.10981 47.93172 45.02076
# Shear Modulus (GPa) = 20.60803 24.04559 22.32681
#
# Velocity S-wave (km/s) = 3.49123 3.77119 3.63391
# Velocity P-wave (km/s) = 6.41542 6.87836 6.65092
#
# Compressibility (1/GPa) = 0.02374744
#
# Stress axis : x y z
#
# Youngs Moduli (GPa) = 51.98589 35.93477 49.39577
#
# Poissons Ratio (x) = 0.30211 0.06761
# Poissons Ratio (y) = 0.43705 0.59299
# Poissons Ratio (z) = 0.07116 0.43139
#
# Static dielectric constant tensor:
#      x y z
#    x 3.359810 0.000000 -0.069090 
#    y 0.000000 3.104660 0.000000 
#    z -0.069090 0.000000 3.331730 
# 
# 
# High freq. dielectric constant tensor:
#      x y z
#    x 1.648250 0.000000 -0.012480 
#    y 0.000000 1.634390 0.000000 
#    z -0.012480 0.000000 1.649210 
# 
# From -- ./inp_files/112857.got.cif
#   From: 2010.06.25/outbox.cif.g09.slc.cpg/sg12_57_cif.got.tgz:112857.got - 2010.06.28 00:19:55.
