data_PCOD8087819
_publ_section_title
;
Structure prediction by ZEFSAII (Michael W. Deem and Ramdas Pophale) SiO2 
 PCOD8087819
Probable space group: C 2/M
;
_chemical_formula_sum "Si O2"
_cell_formula_units_Z 56
_cell_length_a 29.031555
_cell_length_b 9.034478
_cell_length_c 21.480296
_cell_angle_alpha 90.000000
_cell_angle_beta 148.296815
_cell_angle_gamma 90.000000
_cell_volume 2960.751802
_symmetry_space_group_name_H-M "C 2/M"
_symmetry_group_IT_number 12
_symmetry_cell_setting 'monoclinic'
loop_
_space_group_symop_operation_xyz
x,y,z
-x,y,-z
-x,-y,-z
x,-y,z
1/2+x,1/2+y,z
1/2-x,1/2+y,-z
1/2-x,1/2-y,-z
1/2+x,1/2-y,z
loop_
_atom_site_type_symbol
_atom_site_label
_atom_site_fract_x
_atom_site_fract_y
_atom_site_fract_z
Si Si1 0.883307 0.672888 0.640947
Si Si2 0.434934 0.669970 0.145340
Si Si3 0.125895 0.829035 0.789735
Si Si4 0.539251 0.331622 0.477143
Si Si5 0.271888 0.327995 0.879109
Si Si6 0.748707 0.826891 0.402185
Si Si7 0.720047 0.174803 0.683768
O O1 0.879907 0.500000 0.621395
O O2 0.839157 0.759796 0.533029
O O3 0.831768 0.710054 0.645047
O O4 0.982581 0.722971 0.764576
O O5 0.467608 0.500000 0.183136
O O6 0.377740 0.703022 0.141070
O O7 0.371945 0.703180 0.014342
O O8 0.206693 0.744825 0.852977
O O9 0.033800 0.775753 0.655131
O O10 0.140108 0.000000 0.790163
O O11 0.500000 0.320401 0.500000
O O12 0.569717 0.500000 0.497557
O O13 0.619165 0.220137 0.562362
O O14 0.249645 0.500000 0.855270
O O15 0.258798 0.267160 0.794045
O O16 0.726196 0.752640 0.310038
O O17 0.763113 0.000000 0.409830
O O18 0.729831 0.000000 0.688161
#
# Coordination Sequence:
#
# PCOD8087819 Si02
#       7
#     8   8   8   8   8   8   8
#     4  10  21  38  61  89 112 136 177 226 275 328
#     4  10  21  37  56  79 110 149 188 227 275 327
#     4  10  20  34  54  78 104 143 189 229 276 330
#     4  10  19  32  51  77 109 142 180 228 282 334
#     4  10  22  37  52  76 112 150 189 231 272 319
#     4  10  21  38  61  86 113 142 174 220 279 337
#     4  11  22  35  54  81 112 148 189 230 276 324
#
# _framework density 18.914114000000001
#
# number of rings (size 3 to 8) (size 9 to 14) (size 15 to 20)
#    0.000    1.857    1.429    2.571    0.000    5.429 
#    0.000    0.714    0.000    4.286    0.000    0.000 
#    0.000    0.000    0.000    0.000    0.000    0.000 
#
# Total GULP energy -347306.495197 kJ/mol
# GULP energy per Si atom -12403.803400 kJ/mol
# Density = 1.887107 g / cm^3
# Si number density = 18.914114 Si / 1000 Ang^3
#
#
#
# Elastic Constant Matrix: (Units=GPa)
#
#
# Indices 1 2 3 4 5 6 
#
# 1 86.1112 36.9579 42.7162 0.0000 -5.8505 0.0000
# 2 36.9579 67.5121 35.6200 0.0000 1.4627 0.0000
# 3 42.7162 35.6200 94.1755 0.0000 -6.6875 0.0000
# 4 0.0000 0.0000 0.0000 36.7975 0.0000 -3.9342
# 5 -5.8505 1.4627 -6.6875 0.0000 22.8484 0.0000
# 6 0.0000 0.0000 0.0000 -3.9342 0.0000 39.5086
#
#
#
# Elastic Compliance Matrix: (Units=1/GPa)
#
#
# Indices 1 2 3 4 5 6 
#
# 1 0.017280 -0.006903 -0.004985 0.000000 0.003408 0.000000
# 2 -0.006903 0.021510 -0.005339 0.000000 -0.004707 0.000000
# 3 -0.004985 -0.005339 0.015147 0.000000 0.003499 0.000000
# 4 0.000000 0.000000 0.000000 0.027468 0.000000 0.002735
# 5 0.003408 -0.004707 0.003499 0.000000 0.045965 0.000000
# 6 0.000000 0.000000 0.000000 0.002735 0.000000 0.025583
#
#
# Mechanical properties :
#
#
# Convention : Reuss Voigt Hill
#
# Bulk Modulus (GPa) = 51.32591 53.15413 52.24002
# Shear Modulus (GPa) = 25.78626 28.66456 27.22541
#
# Velocity S-wave (km/s) = 3.69634 3.89718 3.79809
# Velocity P-wave (km/s) = 6.73888 6.95806 6.84934
#
# Compressibility (1/GPa) = 0.01948334
#
# Stress axis : x y z
#
# Youngs Moduli (GPa) = 57.87030 46.49006 66.01860
#
# Poissons Ratio (x) = 0.32094 0.32909
# Poissons Ratio (y) = 0.39950 0.35246
# Poissons Ratio (z) = 0.28848 0.24820
#
# Static dielectric constant tensor:
#      x y z
#    x 4.012130 0.000000 0.340840 
#    y 0.000000 3.422540 0.000000 
#    z 0.340840 0.000000 4.203630 
# 
# 
# High freq. dielectric constant tensor:
#      x y z
#    x 1.737690 0.000000 -0.012220 
#    y 0.000000 1.733940 0.000000 
#    z -0.012220 0.000000 1.732090 
# 
# From -- ./inp_files/237381.got.cif
#   From: 2010.06.25/outbox.cif.g09.slc.cpg/sg12_119_cif.got.tgz:237381.got - 2010.06.28 00:19:55.
