data_PCOD8087202
_publ_section_title
;
Structure prediction by ZEFSAII (Michael W. Deem and Ramdas Pophale) SiO2 
 PCOD8087202
Probable space group: C 2/M
;
_chemical_formula_sum "Si O2"
_cell_formula_units_Z 56
_cell_length_a 24.064706
_cell_length_b 8.888594
_cell_length_c 25.116279
_cell_angle_alpha 90.000000
_cell_angle_beta 39.300708
_cell_angle_gamma 90.000000
_cell_volume 3402.831380
_symmetry_space_group_name_H-M "C 2/M"
_symmetry_group_IT_number 12
_symmetry_cell_setting 'monoclinic'
loop_
_space_group_symop_operation_xyz
x,y,z
-x,y,-z
-x,-y,-z
x,-y,z
1/2+x,1/2+y,z
1/2-x,1/2+y,-z
1/2-x,1/2-y,-z
1/2+x,1/2-y,z
loop_
_atom_site_type_symbol
_atom_site_label
_atom_site_fract_x
_atom_site_fract_y
_atom_site_fract_z
Si Si1 0.882985 0.166954 0.401634
Si Si2 0.162484 0.323542 0.724833
Si Si3 0.094187 0.826484 0.994961
Si Si4 0.340462 0.822053 0.950124
Si Si5 0.778162 0.332713 0.559642
Si Si6 0.493781 0.321157 0.223396
Si Si7 0.889910 0.173056 0.136182
O O1 0.866068 0.272622 0.465176
O O2 0.799811 0.166819 0.424677
O O3 0.965915 0.221183 0.304741
O O4 0.899647 0.000000 0.411451
O O5 0.149969 0.500000 0.726576
O O6 0.251507 0.272238 0.629080
O O7 0.169068 0.279109 0.782200
O O8 0.078284 0.237508 0.764451
O O9 0.141033 0.719212 0.002401
O O10 0.135004 0.792803 0.906589
O O11 0.109706 0.000000 0.999479
O O12 0.991566 0.790011 0.070353
O O13 0.336619 0.000000 0.946597
O O14 0.250000 0.750000 0.000000
O O15 0.414195 0.756522 0.856255
O O16 0.797414 0.500000 0.566586
O O17 0.500630 0.500000 0.210802
O O18 0.870152 0.000000 0.164495
#
# Coordination Sequence:
#
# PCOD8087202 Si02
#       7
#     8   8   8   8   8   8   8
#     4   8  15  26  40  58  82 114 149 187 227 271
#     4  11  19  26  41  66  94 123 156 191 226 274
#     4   9  18  33  51  69  91 121 155 193 237 282
#     4  12  24  36  51  70  93 123 159 200 238 277
#     4   9  16  25  38  57  85 120 152 185 224 270
#     4  10  19  32  47  63  88 120 155 193 235 280
#     4   9  17  30  49  69  93 124 154 189 235 283
#
# _framework density 16.456883999999999
#
# number of rings (size 3 to 8) (size 9 to 14) (size 15 to 20)
#    0.000    2.286    1.429    5.143    0.000    4.571 
#    0.000    1.429    0.000    0.000    0.000    0.000 
#    0.000    1.143    0.000   12.000    0.000    5.429 
#
# Total GULP energy -347117.100926 kJ/mol
# GULP energy per Si atom -12397.039319 kJ/mol
# Density = 1.641943 g / cm^3
# Si number density = 16.456884 Si / 1000 Ang^3
#
#
#
# Elastic Constant Matrix: (Units=GPa)
#
#
# Indices 1 2 3 4 5 6 
#
# 1 45.2749 32.8853 40.5925 0.0002 2.1981 0.0006
# 2 32.8853 117.6382 65.4406 0.0038 7.1590 -0.0018
# 3 40.5925 65.4406 137.2974 0.0003 18.3061 -0.0005
# 4 0.0002 0.0038 0.0003 31.8928 -0.0002 4.4728
# 5 2.1981 7.1590 18.3061 -0.0002 16.2910 0.0004
# 6 0.0006 -0.0018 -0.0005 4.4728 0.0004 19.2966
#
#
#
# Elastic Compliance Matrix: (Units=1/GPa)
#
#
# Indices 1 2 3 4 5 6 
#
# 1 0.032770 -0.005004 -0.008242 0.000001 0.007039 -0.000002
# 2 -0.005004 0.012356 -0.004441 -0.000002 0.000236 0.000002
# 3 -0.008242 -0.004441 0.013442 0.000000 -0.012042 0.000000
# 4 0.000001 -0.000002 0.000000 0.032409 0.000001 -0.007512
# 5 0.007039 0.000236 -0.012042 0.000001 0.073861 -0.000002
# 6 -0.000002 0.000002 0.000000 -0.007512 -0.000002 0.053564
#
#
# Mechanical properties :
#
#
# Convention : Reuss Voigt Hill
#
# Bulk Modulus (GPa) = 43.11514 64.22747 53.67131
# Shear Modulus (GPa) = 19.11996 24.24890 21.68443
#
# Velocity S-wave (km/s) = 3.41225 3.84276 3.63388
# Velocity P-wave (km/s) = 6.46377 7.66821 7.09161
#
# Compressibility (1/GPa) = 0.02319371
#
# Stress axis : x y z
#
# Youngs Moduli (GPa) = 30.51595 80.93432 74.39099
#
# Poissons Ratio (x) = 0.40501 0.61312
# Poissons Ratio (y) = 0.15271 0.33038
# Poissons Ratio (z) = 0.25151 0.35944
#
# Static dielectric constant tensor:
#      x y z
#    x 2.681280 0.000010 0.251720 
#    y 0.000010 3.167540 0.000000 
#    z 0.251720 0.000000 3.465420 
# 
# 
# High freq. dielectric constant tensor:
#      x y z
#    x 1.564220 0.000000 0.029060 
#    y 0.000000 1.641800 0.000000 
#    z 0.029060 0.000000 1.645340 
# 
# From -- ./inp_files/348454.got.cif
#   From: 2010.06.25/outbox.cif.g09.slc.cpg/sg12_175_cif.got.tgz:348454.got - 2010.06.28 00:19:55.
