data_PCOD8087237
_publ_section_title
;
Structure prediction by ZEFSAII (Michael W. Deem and Ramdas Pophale) SiO2 
 PCOD8087237
Probable space group: C 2/M
;
_chemical_formula_sum "Si O2"
_cell_formula_units_Z 64
_cell_length_a 29.841686
_cell_length_b 8.930888
_cell_length_c 14.014559
_cell_angle_alpha 90.000000
_cell_angle_beta 90.809516
_cell_angle_gamma 90.000000
_cell_volume 3734.685943
_symmetry_space_group_name_H-M "C 2/M"
_symmetry_group_IT_number 12
_symmetry_cell_setting 'monoclinic'
loop_
_space_group_symop_operation_xyz
x,y,z
-x,y,-z
-x,-y,-z
x,-y,z
1/2+x,1/2+y,z
1/2-x,1/2+y,-z
1/2-x,1/2-y,-z
1/2+x,1/2-y,z
loop_
_atom_site_type_symbol
_atom_site_label
_atom_site_fract_x
_atom_site_fract_y
_atom_site_fract_z
Si Si1 0.735085 0.674826 0.301789
Si Si2 0.701201 0.674773 0.991050
Si Si3 0.183307 0.169703 0.776634
Si Si4 0.048662 0.823365 0.478052
Si Si5 0.688792 0.168375 0.459267
Si Si6 0.663045 0.822717 0.166192
Si Si7 0.898514 0.666395 0.673973
Si Si8 0.869048 0.829035 0.398989
O O1 0.724055 0.500000 0.297133
O O2 0.785145 0.707239 0.270285
O O3 0.728061 0.734756 0.409973
O O4 0.704821 0.764049 0.226905
O O5 0.707570 0.500000 0.012880
O O6 0.665400 0.745275 0.063140
O O7 0.750000 0.750000 0.000000
O O8 0.677949 0.704045 0.888089
O O9 0.136009 0.184101 0.716621
O O10 0.202190 0.000000 0.763798
O O11 0.064666 0.773416 0.372987
O O12 0.083354 0.765442 0.560989
O O13 0.000000 0.753185 0.500000
O O14 0.045135 0.000000 0.477082
O O15 0.646916 0.168036 0.387085
O O16 0.673164 0.241717 0.557429
O O17 0.706011 0.000000 0.480050
O O18 0.616125 0.782304 0.219190
O O19 0.667977 0.000000 0.154949
O O20 0.919107 0.500000 0.677100
O O21 0.865576 0.000000 0.433676
#
# Coordination Sequence:
#
# PCOD8087237 Si02
#       8
#     8   8   8   8   8   8   8   8
#     4  11  20  29  45  66  88 122 164 200 237 279
#     4  11  21  32  48  68  91 124 167 210 248 280
#     4  10  21  34  46  62  90 125 161 200 237 277
#     4   9  17  30  51  78 102 121 146 185 232 285
#     4   9  17  30  46  64  91 123 157 197 234 272
#     4  10  19  32  48  67  95 125 160 206 246 279
#     4   8  16  29  46  69  95 124 153 186 231 280
#     4   9  18  33  49  66  92 125 156 188 232 285
#
# _framework density 17.136648000000001
#
# number of rings (size 3 to 8) (size 9 to 14) (size 15 to 20)
#    0.000    2.375    1.250    3.000    0.000    5.250 
#    0.000    0.000    0.000    0.000    0.000    0.875 
#    0.000    7.000    0.000    0.000    0.000    0.000 
#
# Total GULP energy -396594.261671 kJ/mol
# GULP energy per Si atom -12393.570677 kJ/mol
# Density = 1.709764 g / cm^3
# Si number density = 17.136648 Si / 1000 Ang^3
#
#
#
# Elastic Constant Matrix: (Units=GPa)
#
#
# Indices 1 2 3 4 5 6 
#
# 1 63.4125 25.5860 51.0540 0.0000 -11.4047 0.0000
# 2 25.5860 69.6488 41.3719 0.0000 -4.7384 0.0000
# 3 51.0540 41.3719 133.5466 0.0000 -5.0018 0.0000
# 4 0.0000 0.0000 0.0000 26.4322 0.0000 -6.9578
# 5 -11.4047 -4.7384 -5.0018 0.0000 19.9559 0.0000
# 6 0.0000 0.0000 0.0000 -6.9578 0.0000 14.5097
#
#
#
# Elastic Compliance Matrix: (Units=1/GPa)
#
#
# Indices 1 2 3 4 5 6 
#
# 1 0.026225 -0.003836 -0.008389 0.000000 0.011974 0.000000
# 2 -0.003836 0.018318 -0.004166 0.000000 0.001113 0.000000
# 3 -0.008389 -0.004166 0.011881 0.000000 -0.002806 0.000000
# 4 0.000000 0.000000 0.000000 0.043298 0.000000 0.020763
# 5 0.011974 0.001113 -0.002806 0.000000 0.056514 0.000000
# 6 0.000000 0.000000 0.000000 0.020763 0.000000 0.078876
#
#
# Mechanical properties :
#
#
# Convention : Reuss Voigt Hill
#
# Bulk Modulus (GPa) = 42.30060 55.84798 49.07429
# Shear Modulus (GPa) = 18.13075 22.08596 20.10835
#
# Velocity S-wave (km/s) = 3.25624 3.59390 3.42923
# Velocity P-wave (km/s) = 6.23501 7.06272 6.66173
#
# Compressibility (1/GPa) = 0.02364033
#
# Stress axis : x y z
#
# Youngs Moduli (GPa) = 38.13156 54.59218 84.17077
#
# Poissons Ratio (x) = 0.20944 0.70608
# Poissons Ratio (y) = 0.14629 0.35069
# Poissons Ratio (z) = 0.31987 0.22745
#
# Static dielectric constant tensor:
#      x y z
#    x 2.996630 0.000000 -0.108640 
#    y 0.000000 3.255030 0.000000 
#    z -0.108640 0.000000 3.496650 
# 
# 
# High freq. dielectric constant tensor:
#      x y z
#    x 1.612420 0.000000 -0.003750 
#    y 0.000000 1.666870 0.000000 
#    z -0.003750 0.000000 1.662710 
# 
# From -- ./inp_files/248310.got.cif
#   From: 2010.06.25/outbox.cif.g09.slc.cpg/sg12_125_cif.got.tgz:248310.got - 2010.06.28 00:19:55.
