data_PCOD8087927
_publ_section_title
;
Structure prediction by ZEFSAII (Michael W. Deem and Ramdas Pophale) SiO2 
 PCOD8087927
Probable space group: C 2/M
;
_chemical_formula_sum "Si O2"
_cell_formula_units_Z 56
_cell_length_a 21.859565
_cell_length_b 9.345028
_cell_length_c 20.061079
_cell_angle_alpha 90.000000
_cell_angle_beta 49.568737
_cell_angle_gamma 90.000000
_cell_volume 3119.366305
_symmetry_space_group_name_H-M "C 2/M"
_symmetry_group_IT_number 12
_symmetry_cell_setting 'monoclinic'
loop_
_space_group_symop_operation_xyz
x,y,z
-x,y,-z
-x,-y,-z
x,-y,z
1/2+x,1/2+y,z
1/2-x,1/2+y,-z
1/2-x,1/2-y,-z
1/2+x,1/2-y,z
loop_
_atom_site_type_symbol
_atom_site_label
_atom_site_fract_x
_atom_site_fract_y
_atom_site_fract_z
Si Si1 0.585703 0.339803 0.456093
Si Si2 0.184665 0.336636 0.133804
Si Si3 0.300569 0.660923 0.748812
Si Si4 0.730719 0.328426 0.444362
Si Si5 0.664043 0.830892 0.752749
Si Si6 0.006140 0.339237 0.074308
Si Si7 0.637848 0.663111 0.046490
O O1 0.500000 0.259625 0.500000
O O2 0.564896 0.500000 0.494647
O O3 0.632168 0.341996 0.354447
O O4 0.644502 0.276111 0.473122
O O5 0.156155 0.500000 0.156410
O O6 0.169302 0.266051 0.215540
O O7 0.130183 0.253523 0.119364
O O8 0.276777 0.320847 0.048577
O O9 0.286865 0.500000 0.787190
O O10 0.219418 0.726807 0.774070
O O11 0.730283 0.500000 0.454864
O O12 0.750000 0.250000 0.500000
O O13 0.802303 0.280807 0.342989
O O14 0.573379 0.781538 0.831356
O O15 0.672385 0.000000 0.750180
O O16 0.026637 0.500000 0.085267
O O17 0.075097 0.226577 0.039412
O O18 0.000000 0.342645 0.000000
O O19 0.617405 0.500000 0.077791
#
# Coordination Sequence:
#
# PCOD8087927 Si02
#       7
#     8   8   8   8   8   8   8
#     4   8  15  30  52  77 103 131 167 213 256 301
#     4  10  20  34  51  71  98 131 164 203 252 299
#     4   9  16  30  54  76  96 129 170 205 242 296
#     4   9  17  32  53  74 101 138 174 210 257 307
#     4   8  16  31  50  73 101 134 169 203 245 301
#     4  10  19  32  52  75 100 132 168 205 250 303
#     4  10  21  35  50  70  98 131 168 208 247 293
#
# _framework density 17.952363999999999
#
# number of rings (size 3 to 8) (size 9 to 14) (size 15 to 20)
#    0.000    2.857    0.000    3.429    0.000    3.143 
#    2.571    4.286    0.000    0.857    0.000    0.000 
#    0.000    0.000    0.000    0.000    0.000    0.000 
#
# Total GULP energy -346968.190699 kJ/mol
# GULP energy per Si atom -12391.721096 kJ/mol
# Density = 1.791150 g / cm^3
# Si number density = 17.952364 Si / 1000 Ang^3
#
#
#
# Elastic Constant Matrix: (Units=GPa)
#
#
# Indices 1 2 3 4 5 6 
#
# 1 100.8986 49.0551 33.5439 0.0001 9.6612 -0.0008
# 2 49.0551 75.2903 29.7664 -0.0001 1.8013 -0.0009
# 3 33.5439 29.7664 49.3163 0.0000 11.0975 -0.0004
# 4 0.0001 -0.0001 0.0000 20.9256 0.0001 7.0224
# 5 9.6612 1.8013 11.0975 0.0001 27.2278 0.0002
# 6 -0.0008 -0.0009 -0.0004 7.0224 0.0002 27.6735
#
#
#
# Elastic Compliance Matrix: (Units=1/GPa)
#
#
# Indices 1 2 3 4 5 6 
#
# 1 0.015938 -0.008266 -0.005177 0.000000 -0.002998 0.000000
# 2 -0.008266 0.022032 -0.008816 0.000000 0.005069 0.000000
# 3 -0.005177 -0.008816 0.031461 0.000000 -0.010403 0.000000
# 4 0.000000 0.000000 0.000000 0.052237 0.000000 -0.013256
# 5 -0.002998 0.005069 -0.010403 0.000000 0.041696 0.000000
# 6 0.000000 0.000000 0.000000 -0.013256 0.000000 0.039499
#
#
# Mechanical properties :
#
#
# Convention : Reuss Voigt Hill
#
# Bulk Modulus (GPa) = 40.14068 50.02624 45.08346
# Shear Modulus (GPa) = 19.55540 22.70804 21.13172
#
# Velocity S-wave (km/s) = 3.30403 3.56041 3.43461
# Velocity P-wave (km/s) = 6.07976 6.69542 6.39500
#
# Compressibility (1/GPa) = 0.02491239
#
# Stress axis : x y z
#
# Youngs Moduli (GPa) = 62.74414 45.38893 31.78580
#
# Poissons Ratio (x) = 0.37518 0.16455
# Poissons Ratio (y) = 0.51863 0.28024
# Poissons Ratio (z) = 0.32481 0.40017
#
# Static dielectric constant tensor:
#      x y z
#    x 3.468970 0.000000 -0.138670 
#    y 0.000000 3.112250 0.000000 
#    z -0.138670 0.000000 3.365490 
# 
# 
# High freq. dielectric constant tensor:
#      x y z
#    x 1.700360 0.000000 0.002440 
#    y 0.000000 1.663160 0.000000 
#    z 0.002440 0.000000 1.688400 
# 
# From -- ./inp_files/287917.got.cif
#   From: 2010.06.25/outbox.cif.g09.slc.cpg/sg12_144_cif.got.tgz:287917.got - 2010.06.28 00:19:55.
