data_PCOD8087747
_publ_section_title
;
Structure prediction by ZEFSAII (Michael W. Deem and Ramdas Pophale) SiO2 
 PCOD8087747
Probable space group: C 2/M
;
_chemical_formula_sum "Si O2"
_cell_formula_units_Z 56
_cell_length_a 28.829192
_cell_length_b 8.842224
_cell_length_c 18.978271
_cell_angle_alpha 90.000000
_cell_angle_beta 41.906261
_cell_angle_gamma 90.000000
_cell_volume 3231.254013
_symmetry_space_group_name_H-M "C 2/M"
_symmetry_group_IT_number 12
_symmetry_cell_setting 'monoclinic'
loop_
_space_group_symop_operation_xyz
x,y,z
-x,y,-z
-x,-y,-z
x,-y,z
1/2+x,1/2+y,z
1/2-x,1/2+y,-z
1/2-x,1/2-y,-z
1/2+x,1/2-y,z
loop_
_atom_site_type_symbol
_atom_site_label
_atom_site_fract_x
_atom_site_fract_y
_atom_site_fract_z
Si Si1 0.203151 0.679473 0.992808
Si Si2 0.110755 0.674385 0.390247
Si Si3 0.392541 0.178922 0.117981
Si Si4 0.945963 0.177456 0.817428
Si Si5 0.007150 0.320885 0.877960
Si Si6 0.984567 0.324155 0.631107
Si Si7 0.253609 0.178639 0.210262
O O1 0.204691 0.500000 0.997747
O O2 0.233852 0.735547 0.883558
O O3 0.250000 0.750000 0.000000
O O4 0.124653 0.733255 0.089024
O O5 0.130698 0.500000 0.364219
O O6 0.073970 0.722466 0.359173
O O7 0.180727 0.766825 0.322947
O O8 0.060181 0.706980 0.512842
O O9 0.422030 0.228081 0.161187
O O10 0.315176 0.242687 0.191221
O O11 0.393196 0.000000 0.114086
O O12 0.442666 0.233921 0.998618
O O13 0.003429 0.230351 0.809106
O O14 0.976146 0.216677 0.707088
O O15 0.932135 0.000000 0.838250
O O16 0.005183 0.500000 0.865319
O O17 0.976714 0.500000 0.660960
O O18 0.254688 0.000000 0.210468
#
# Coordination Sequence:
#
# PCOD8087747 Si02
#       7
#     8   8   8   8   8   8   8
#     4  11  22  35  50  72 106 142 173 205 250 305
#     4   9  19  35  55  77  98 129 173 217 257 300
#     4   8  15  30  53  76  97 131 176 209 247 308
#     4  12  23  33  49  77 108 136 170 211 258 305
#     4   9  16  32  55  73  97 135 175 211 248 304
#     4   9  19  37  56  72  97 135 178 215 251 301
#     4  10  19  32  51  76 104 133 165 206 254 307
#
# _framework density 17.330732000000001
#
# number of rings (size 3 to 8) (size 9 to 14) (size 15 to 20)
#    0.000    2.286    1.429    4.286    0.000    4.571 
#    0.000    3.571    0.000    0.857    0.000    0.000 
#    0.000    0.000    0.000    0.000    0.000    0.000 
#
# Total GULP energy -347153.364159 kJ/mol
# GULP energy per Si atom -12398.334434 kJ/mol
# Density = 1.729129 g / cm^3
# Si number density = 17.330732 Si / 1000 Ang^3
#
#
#
# Elastic Constant Matrix: (Units=GPa)
#
#
# Indices 1 2 3 4 5 6 
#
# 1 118.3961 31.5280 40.2682 -0.0135 -15.7399 0.0052
# 2 31.5280 43.2295 20.7372 -0.0427 2.9654 0.0203
# 3 40.2682 20.7372 69.8601 -0.0142 -10.3986 0.0093
# 4 -0.0135 -0.0427 -0.0142 25.9322 0.0029 -3.4406
# 5 -15.7399 2.9654 -10.3986 0.0029 26.3282 -0.0005
# 6 0.0052 0.0203 0.0093 -3.4406 -0.0005 24.3511
#
#
#
# Elastic Compliance Matrix: (Units=1/GPa)
#
#
# Indices 1 2 3 4 5 6 
#
# 1 0.012852 -0.007927 -0.004014 -0.000009 0.006991 0.000004
# 2 -0.007927 0.032982 -0.006884 0.000045 -0.011173 -0.000017
# 3 -0.004014 -0.006884 0.019581 -0.000004 0.006109 -0.000001
# 4 -0.000009 0.000045 -0.000004 0.039299 -0.000016 0.005553
# 5 0.006991 -0.011173 0.006109 -0.000016 0.045833 0.000004
# 6 0.000004 -0.000017 -0.000001 0.005553 0.000004 0.041851
#
#
# Mechanical properties :
#
#
# Convention : Reuss Voigt Hill
#
# Bulk Modulus (GPa) = 36.01771 46.28362 41.15066
# Shear Modulus (GPa) = 20.89398 24.58578 22.73988
#
# Velocity S-wave (km/s) = 3.47595 3.77055 3.62624
# Velocity P-wave (km/s) = 6.07761 6.76166 6.42874
#
# Compressibility (1/GPa) = 0.02776412
#
# Stress axis : x y z
#
# Youngs Moduli (GPa) = 77.81020 30.31916 51.06949
#
# Poissons Ratio (x) = 0.24034 0.20501
# Poissons Ratio (y) = 0.61679 0.35158
# Poissons Ratio (z) = 0.31236 0.20873
#
# Static dielectric constant tensor:
#      x y z
#    x 3.629970 -0.000040 -0.062740 
#    y -0.000040 2.998000 0.000050 
#    z -0.062740 0.000050 3.165290 
# 
# 
# High freq. dielectric constant tensor:
#      x y z
#    x 1.678380 0.000000 -0.001250 
#    y 0.000000 1.652550 0.000000 
#    z -0.001250 0.000000 1.650520 
# 
# From -- ./inp_files/295061.got.cif
#   From: 2010.06.25/outbox.cif.g09.slc.cpg/sg12_148_cif.got.tgz:295061.got - 2010.06.28 00:19:55.
