data_PCOD8087653
_publ_section_title
;
Structure prediction by ZEFSAII (Michael W. Deem and Ramdas Pophale) SiO2 
 PCOD8087653
Probable space group: C 2/M
;
_chemical_formula_sum "Si O2"
_cell_formula_units_Z 48
_cell_length_a 18.239756
_cell_length_b 8.900195
_cell_length_c 15.590033
_cell_angle_alpha 90.000000
_cell_angle_beta 88.267979
_cell_angle_gamma 90.000000
_cell_volume 2529.688910
_symmetry_space_group_name_H-M "C 2/M"
_symmetry_group_IT_number 12
_symmetry_cell_setting 'monoclinic'
loop_
_space_group_symop_operation_xyz
x,y,z
-x,y,-z
-x,-y,-z
x,-y,z
1/2+x,1/2+y,z
1/2-x,1/2+y,-z
1/2-x,1/2-y,-z
1/2+x,1/2-y,z
loop_
_atom_site_type_symbol
_atom_site_label
_atom_site_fract_x
_atom_site_fract_y
_atom_site_fract_z
Si Si1 0.345508 0.321799 0.666458
Si Si2 0.328744 0.824109 0.499446
Si Si3 0.671136 0.822583 0.009306
Si Si4 0.579351 0.822401 0.177145
Si Si5 0.820492 0.675485 0.312267
Si Si6 0.085165 0.321291 0.846713
O O1 0.348671 0.500000 0.661520
O O2 0.374552 0.255115 0.574101
O O3 0.398660 0.262658 0.737745
O O4 0.262716 0.260475 0.686474
O O5 0.250000 0.750000 0.500000
O O6 0.361274 0.795503 0.402503
O O7 0.322458 0.000000 0.519158
O O8 0.634006 0.773744 0.099507
O O9 0.679842 0.000000 0.002888
O O10 0.750000 0.750000 0.000000
O O11 0.620771 0.762162 0.933460
O O12 0.498391 0.765929 0.154745
O O13 0.581518 0.000000 0.193184
O O14 0.813563 0.500000 0.295131
O O15 0.869044 0.748420 0.234891
O O16 0.086734 0.500000 0.843690
#
# Coordination Sequence:
#
# PCOD8087653 Si02
#       6
#     8   8   8   8   8   8
#     4  10  19  32  51  74 101 134 170 209 255 302
#     4   9  16  28  48  75 103 131 169 213 254 297
#     4  10  20  34  54  79 103 130 165 204 248 298
#     4  10  20  33  51  75 101 131 168 208 249 295
#     4   8  15  28  49  74  96 126 168 208 247 291
#     4   9  17  32  52  73 100 132 166 205 248 298
#
# _framework density 18.974665000000002
#
# number of rings (size 3 to 8) (size 9 to 14) (size 15 to 20)
#    0.000    2.667    0.000    3.500    0.000    4.000 
#    0.000    1.667    0.000   14.000    0.000    0.000 
#    0.000    0.000    0.000    0.000    0.000    0.000 
#
# Total GULP energy -297480.752900 kJ/mol
# GULP energy per Si atom -12395.031371 kJ/mol
# Density = 1.893148 g / cm^3
# Si number density = 18.974665 Si / 1000 Ang^3
#
#
#
# Elastic Constant Matrix: (Units=GPa)
#
#
# Indices 1 2 3 4 5 6 
#
# 1 96.3346 20.9014 43.7596 0.0000 23.8104 0.0000
# 2 20.9014 44.4321 36.9898 0.0000 10.0643 0.0000
# 3 43.7596 36.9898 139.0099 0.0000 33.6300 0.0000
# 4 0.0000 0.0000 0.0000 23.2224 0.0000 3.7182
# 5 23.8104 10.0643 33.6300 0.0000 27.0965 0.0000
# 6 0.0000 0.0000 0.0000 3.7182 0.0000 21.6860
#
#
#
# Elastic Compliance Matrix: (Units=1/GPa)
#
#
# Indices 1 2 3 4 5 6 
#
# 1 0.014034 -0.003447 -0.001182 0.000000 -0.009585 0.000000
# 2 -0.003447 0.029812 -0.007005 0.000000 0.000650 0.000000
# 3 -0.001182 -0.007005 0.012217 0.000000 -0.011523 0.000000
# 4 0.000000 0.000000 0.000000 0.044277 0.000000 -0.007592
# 5 -0.009585 0.000650 -0.011523 0.000000 0.059388 0.000000
# 6 0.000000 0.000000 0.000000 -0.007592 0.000000 0.047414
#
#
# Mechanical properties :
#
#
# Convention : Reuss Voigt Hill
#
# Bulk Modulus (GPa) = 30.49109 53.67536 42.08322
# Shear Modulus (GPa) = 20.71734 26.27602 23.49668
#
# Velocity S-wave (km/s) = 3.30789 3.72532 3.52279
# Velocity P-wave (km/s) = 5.54019 6.84495 6.22684
#
# Compressibility (1/GPa) = 0.03279646
#
# Stress axis : x y z
#
# Youngs Moduli (GPa) = 71.25390 33.54325 81.84989
#
# Poissons Ratio (x) = 0.11562 0.09673
# Poissons Ratio (y) = 0.24561 0.57337
# Poissons Ratio (z) = 0.08421 0.23497
#
# Static dielectric constant tensor:
#      x y z
#    x 3.422250 0.000000 -0.057940 
#    y 0.000000 3.209640 0.000000 
#    z -0.057940 0.000000 4.071380 
# 
# 
# High freq. dielectric constant tensor:
#      x y z
#    x 1.715880 0.000000 0.005020 
#    y 0.000000 1.703380 0.000000 
#    z 0.005020 0.000000 1.762470 
# 
# From -- ./inp_files/221609.got.cif
#   From: 2010.06.25/outbox.cif.g09.slc.cpg/sg12_111_cif.got.tgz:221609.got - 2010.06.28 00:19:55.
