data_PCOD8087356
_publ_section_title
;
Structure prediction by ZEFSAII (Michael W. Deem and Ramdas Pophale) SiO2 
 PCOD8087356
Probable space group: C 2/M
;
_chemical_formula_sum "Si O2"
_cell_formula_units_Z 56
_cell_length_a 18.786171
_cell_length_b 20.642016
_cell_length_c 12.707585
_cell_angle_alpha 90.000000
_cell_angle_beta 43.287398
_cell_angle_gamma 90.000000
_cell_volume 3378.789380
_symmetry_space_group_name_H-M "C 2/M"
_symmetry_group_IT_number 12
_symmetry_cell_setting 'monoclinic'
loop_
_space_group_symop_operation_xyz
x,y,z
-x,y,-z
-x,-y,-z
x,-y,z
1/2+x,1/2+y,z
1/2-x,1/2+y,-z
1/2-x,1/2-y,-z
1/2+x,1/2-y,z
loop_
_atom_site_type_symbol
_atom_site_label
_atom_site_fract_x
_atom_site_fract_y
_atom_site_fract_z
Si Si1 0.120634 0.429805 0.891802
Si Si2 0.309299 0.241856 0.675280
Si Si3 0.893179 0.702434 0.178696
Si Si4 0.533402 0.234707 0.672900
Si Si5 0.788624 0.571762 0.980798
Si Si6 0.915721 0.372240 0.668993
Si Si7 0.331988 0.698466 0.866522
O O1 0.171945 0.500000 0.805487
O O2 0.160727 0.368563 0.780836
O O3 0.139675 0.415132 0.994589
O O4 0.000000 0.435319 0.000000
O O5 0.187900 0.244093 0.775565
O O6 0.379758 0.261466 0.499917
O O7 0.333359 0.169187 0.689090
O O8 0.335844 0.294226 0.736516
O O9 0.910533 0.712177 0.282415
O O10 0.000000 0.708928 0.000000
O O11 0.473296 0.174856 0.687549
O O12 0.446863 0.289675 0.790560
O O13 0.738535 0.500000 0.039860
O O14 0.858265 0.573987 0.800087
O O15 0.698863 0.625451 0.070411
O O16 0.000000 0.405104 0.500000
O O17 0.250000 0.750000 0.000000
#
# Coordination Sequence:
#
# PCOD8087356 Si02
#       7
#     8   8   8   8   8   8   8
#     4   9  18  29  44  69 102 133 164 203 252 303
#     4  10  19  32  49  74 106 130 165 214 262 299
#     4  11  19  29  50  77 102 129 168 215 250 305
#     4  10  20  31  50  75 103 134 167 208 266 298
#     4  11  20  31  51  77 103 136 174 212 253 305
#     4   9  18  32  48  70 103 138 162 206 259 309
#     4  11  18  33  54  73 100 135 170 216 249 298
#
# _framework density 16.573982999999998
#
# number of rings (size 3 to 8) (size 9 to 14) (size 15 to 20)
#    0.000    1.857    4.286    4.286    0.000    0.286 
#    0.000    0.000    0.000    3.429    0.000    2.000 
#    0.000    0.000    0.000    0.000    0.000    0.000 
#
# Total GULP energy -347037.088646 kJ/mol
# GULP energy per Si atom -12394.181737 kJ/mol
# Density = 1.653626 g / cm^3
# Si number density = 16.573983 Si / 1000 Ang^3
#
#
#
# Elastic Constant Matrix: (Units=GPa)
#
#
# Indices 1 2 3 4 5 6 
#
# 1 87.0634 36.7613 33.6265 0.0000 7.6772 0.0000
# 2 36.7613 90.3741 45.0165 0.0000 3.8681 0.0000
# 3 33.6265 45.0165 98.7470 0.0000 10.8815 0.0000
# 4 0.0000 0.0000 0.0000 17.2475 0.0000 1.4925
# 5 7.6772 3.8681 10.8815 0.0000 26.7601 0.0000
# 6 0.0000 0.0000 0.0000 1.4925 0.0000 17.9940
#
#
#
# Elastic Compliance Matrix: (Units=1/GPa)
#
#
# Indices 1 2 3 4 5 6 
#
# 1 0.014639 -0.004530 -0.002648 0.000000 -0.002468 0.000000
# 2 -0.004530 0.015727 -0.005779 0.000000 0.001376 0.000000
# 3 -0.002648 -0.005779 0.014120 0.000000 -0.004147 0.000000
# 4 0.000000 0.000000 0.000000 0.058399 0.000000 -0.004844
# 5 -0.002468 0.001376 -0.004147 0.000000 0.039564 0.000000
# 6 0.000000 0.000000 0.000000 -0.004844 0.000000 0.055976
#
#
# Mechanical properties :
#
#
# Convention : Reuss Voigt Hill
#
# Bulk Modulus (GPa) = 53.84207 56.33257 55.08732
# Shear Modulus (GPa) = 21.68917 23.11898 22.40408
#
# Velocity S-wave (km/s) = 3.62142 3.73888 3.68062
# Velocity P-wave (km/s) = 7.07408 7.25957 7.16743
#
# Compressibility (1/GPa) = 0.01857284
#
# Stress axis : x y z
#
# Youngs Moduli (GPa) = 68.31073 63.58332 70.82187
#
# Poissons Ratio (x) = 0.28804 0.18753
# Poissons Ratio (y) = 0.30945 0.40926
# Poissons Ratio (z) = 0.18088 0.36743
#
# Static dielectric constant tensor:
#      x y z
#    x 3.165510 0.000000 0.072960 
#    y 0.000000 3.249680 0.000000 
#    z 0.072960 0.000000 3.254010 
# 
# 
# High freq. dielectric constant tensor:
#      x y z
#    x 1.635430 0.000000 0.013660 
#    y 0.000000 1.614070 0.000000 
#    z 0.013660 0.000000 1.632810 
# 
# From -- ./inp_files/159185.got.cif
#   From: 2010.06.25/outbox.cif.g09.slc.cpg/sg12_80_cif.got.tgz:159185.got - 2010.06.28 00:19:55.
