data_PCOD8087330
_publ_section_title
;
Structure prediction by ZEFSAII (Michael W. Deem and Ramdas Pophale) SiO2 
 PCOD8087330
Probable space group: C 2/M
;
_chemical_formula_sum "Si O2"
_cell_formula_units_Z 48
_cell_length_a 22.882080
_cell_length_b 7.679707
_cell_length_c 35.242858
_cell_angle_alpha 90.000000
_cell_angle_beta 154.297855
_cell_angle_gamma 90.000000
_cell_volume 2685.922647
_symmetry_space_group_name_H-M "C 2/M"
_symmetry_group_IT_number 12
_symmetry_cell_setting 'monoclinic'
loop_
_space_group_symop_operation_xyz
x,y,z
-x,y,-z
-x,-y,-z
x,-y,z
1/2+x,1/2+y,z
1/2-x,1/2+y,-z
1/2-x,1/2-y,-z
1/2+x,1/2-y,z
loop_
_atom_site_type_symbol
_atom_site_label
_atom_site_fract_x
_atom_site_fract_y
_atom_site_fract_z
Si Si1 0.863651 0.807289 0.234918
Si Si2 0.024475 0.000000 0.075771
Si Si3 0.715579 0.500000 0.115370
Si Si4 0.334757 0.204486 0.586322
Si Si5 0.348700 0.706819 0.453513
Si Si6 0.351076 0.293789 0.370715
Si Si7 0.816089 0.701876 0.798032
O O1 0.809589 0.670935 0.172164
O O2 0.799568 0.769664 0.238421
O O3 0.023230 0.799734 0.333044
O O4 0.822459 0.000000 0.196780
O O5 0.112067 0.000000 0.089199
O O6 0.056029 0.824347 0.117944
O O7 0.866505 0.000000 0.972235
O O8 0.250000 0.250000 0.500000
O O9 0.255607 0.280233 0.576621
O O10 0.359503 0.000000 0.604149
O O11 0.352132 0.500000 0.458045
O O12 0.498896 0.780226 0.549803
O O13 0.302971 0.766306 0.384497
O O14 0.358985 0.500000 0.373159
O O15 0.245322 0.228371 0.277517
O O16 0.863215 0.500000 0.823772
#
# Coordination Sequence:
#
# PCOD8087330 Si02
#       7
#     8   4   4   8   8   8   8
#     4  10  19  32  49  71  99 131 163 194 238 290
#     4   9  18  30  50  73 102 122 158 197 245 299
#     4   9  18  34  48  72 100 131 154 198 243 293
#     4  11  20  30  45  69 100 133 170 199 233 280
#     4   8  15  26  44  67  94 131 169 199 236 282
#     4   8  13  26  46  68  95 126 163 202 241 283
#     4   9  17  29  49  73  98 127 159 196 248 291
#
# _framework density 17.870954999999999
#
# number of rings (size 3 to 8) (size 9 to 14) (size 15 to 20)
#    0.000    2.833    0.833    2.500    0.000    3.333 
#    0.000    3.333    3.667    1.000    0.000    1.167 
#    0.000    0.000    0.000    0.000    0.000    0.000 
#
# Total GULP energy -297494.680528 kJ/mol
# GULP energy per Si atom -12395.611689 kJ/mol
# Density = 1.783028 g / cm^3
# Si number density = 17.870955 Si / 1000 Ang^3
#
#
#
# Elastic Constant Matrix: (Units=GPa)
#
#
# Indices 1 2 3 4 5 6 
#
# 1 76.0605 23.4531 43.5351 -0.0136 -10.2842 0.0197
# 2 23.4531 81.6902 51.1500 -0.0181 -8.5744 0.0372
# 3 43.5351 51.1500 151.9319 0.0007 -19.1198 0.0051
# 4 -0.0136 -0.0181 0.0007 23.6816 0.0013 -2.3498
# 5 -10.2842 -8.5744 -19.1198 0.0013 21.6871 -0.0059
# 6 0.0197 0.0372 0.0051 -2.3498 -0.0059 10.4265
#
#
#
# Elastic Compliance Matrix: (Units=1/GPa)
#
#
# Indices 1 2 3 4 5 6 
#
# 1 0.016307 -0.002098 -0.003484 0.000006 0.003832 -0.000018
# 2 -0.002098 0.015838 -0.004576 0.000006 0.001233 -0.000048
# 3 -0.003484 -0.004576 0.009769 -0.000004 0.005151 0.000020
# 4 0.000006 0.000006 -0.000004 0.043193 0.000002 0.009734
# 5 0.003832 0.001233 0.005151 0.000002 0.052956 0.000016
# 6 -0.000018 -0.000048 0.000020 0.009734 0.000016 0.098104
#
#
# Mechanical properties :
#
#
# Convention : Reuss Voigt Hill
#
# Bulk Modulus (GPa) = 46.30011 60.66213 53.48112
# Shear Modulus (GPa) = 18.96228 23.92867 21.44547
#
# Velocity S-wave (km/s) = 3.26094 3.66316 3.46789
# Velocity P-wave (km/s) = 6.33581 7.20485 6.78426
#
# Compressibility (1/GPa) = 0.02159822
#
# Stress axis : x y z
#
# Youngs Moduli (GPa) = 61.32487 63.13825 102.36434
#
# Poissons Ratio (x) = 0.13246 0.35665
# Poissons Ratio (y) = 0.12865 0.46841
# Poissons Ratio (z) = 0.21366 0.28891
#
# Static dielectric constant tensor:
#      x y z
#    x 3.514450 0.000380 -0.039270 
#    y 0.000380 3.287610 0.000240 
#    z -0.039270 0.000240 3.491850 
# 
# 
# High freq. dielectric constant tensor:
#      x y z
#    x 1.659890 0.000000 -0.012440 
#    y 0.000000 1.688680 0.000000 
#    z -0.012440 0.000000 1.678620 
# 
# From -- ./inp_files/380265.got.cif
#   From: 2010.06.25/outbox.cif.g09.slc.cpg/sg12_191_cif.got.tgz:380265.got - 2010.06.28 00:19:55.
