data_PCOD8087650
_publ_section_title
;
Structure prediction by ZEFSAII (Michael W. Deem and Ramdas Pophale) SiO2 
 PCOD8087650
Probable space group: C 2/M
;
_chemical_formula_sum "Si O2"
_cell_formula_units_Z 60
_cell_length_a 14.395635
_cell_length_b 21.955284
_cell_length_c 15.765415
_cell_angle_alpha 90.000000
_cell_angle_beta 138.891751
_cell_angle_gamma 90.000000
_cell_volume 3276.123797
_symmetry_space_group_name_H-M "C 2/M"
_symmetry_group_IT_number 12
_symmetry_cell_setting 'monoclinic'
loop_
_space_group_symop_operation_xyz
x,y,z
-x,y,-z
-x,-y,-z
x,-y,z
1/2+x,1/2+y,z
1/2-x,1/2+y,-z
1/2-x,1/2-y,-z
1/2+x,1/2-y,z
loop_
_atom_site_type_symbol
_atom_site_label
_atom_site_fract_x
_atom_site_fract_y
_atom_site_fract_z
Si Si1 0.500000 0.654650 0.000000
Si Si2 0.950932 0.631396 0.375110
Si Si3 0.251789 0.929226 0.115069
Si Si4 0.842661 0.833209 0.408313
Si Si5 0.697653 0.071659 0.203870
Si Si6 0.889456 0.571750 0.038591
Si Si7 0.758926 0.320425 0.485618
Si Si8 0.705846 0.290052 0.269189
O O1 0.385185 0.610592 0.961905
O O2 0.433189 0.698917 0.882886
O O3 0.870021 0.577879 0.269454
O O4 0.844812 0.687800 0.314966
O O5 0.000000 0.605002 0.500000
O O6 0.080704 0.655572 0.408215
O O7 0.314279 0.902421 0.070332
O O8 0.209021 0.000000 0.079188
O O9 0.822340 0.892648 0.336473
O O10 0.822276 0.853778 0.492973
O O11 0.728852 0.781238 0.304843
O O12 0.000000 0.808178 0.500000
O O13 0.549977 0.095241 0.142069
O O14 0.721435 0.000000 0.233316
O O15 0.700474 0.089561 0.106424
O O16 0.899897 0.500000 0.051912
O O17 0.750000 0.250000 0.500000
O O18 0.687131 0.329224 0.343591
#
# Coordination Sequence:
#
# PCOD8087650 Si02
#       8
#     4   8   8   8   8   8   8   8
#     4  10  21  34  52  74 101 130 160 208 254 288
#     4   9  17  32  52  72  97 128 165 209 248 288
#     4  10  19  32  51  74 101 133 167 201 247 303
#     4  11  21  32  52  75  99 133 167 203 250 299
#     4   9  18  33  52  75 102 131 166 205 245 292
#     4   8  16  32  52  71  96 132 166 199 240 289
#     4   9  17  32  53  72  97 130 164 202 246 294
#     4   9  19  35  51  72  99 129 166 204 249 298
#
# _framework density 18.314326000000001
#
# number of rings (size 3 to 8) (size 9 to 14) (size 15 to 20)
#    0.000    2.667    0.000    3.800    0.000    2.667 
#    0.000    0.000    0.000   13.600    0.000    0.000 
#    0.000    0.000    0.000    0.000    0.000    0.000 
#
# Total GULP energy -371858.680792 kJ/mol
# GULP energy per Si atom -12395.289360 kJ/mol
# Density = 1.827264 g / cm^3
# Si number density = 18.314326 Si / 1000 Ang^3
#
#
#
# Elastic Constant Matrix: (Units=GPa)
#
#
# Indices 1 2 3 4 5 6 
#
# 1 124.0018 25.3235 55.7699 0.0000 -11.8707 0.0000
# 2 25.3235 58.6143 41.3989 0.0000 -3.4931 0.0000
# 3 55.7699 41.3989 129.3497 0.0000 -7.1315 0.0000
# 4 0.0000 0.0000 0.0000 29.6529 0.0000 -3.0046
# 5 -11.8707 -3.4931 -7.1315 0.0000 24.5233 0.0000
# 6 0.0000 0.0000 0.0000 -3.0046 0.0000 19.1937
#
#
#
# Elastic Compliance Matrix: (Units=1/GPa)
#
#
# Indices 1 2 3 4 5 6 
#
# 1 0.010454 -0.001623 -0.003782 0.000000 0.003729 0.000000
# 2 -0.001623 0.022325 -0.006416 0.000000 0.000529 0.000000
# 3 -0.003782 -0.006416 0.011448 0.000000 0.000584 0.000000
# 4 0.000000 0.000000 0.000000 0.034267 0.000000 0.005364
# 5 0.003729 0.000529 0.000584 0.000000 0.042828 0.000000
# 6 0.000000 0.000000 0.000000 0.005364 0.000000 0.052940
#
#
# Mechanical properties :
#
#
# Convention : Reuss Voigt Hill
#
# Bulk Modulus (GPa) = 48.58245 61.88337 55.23291
# Shear Modulus (GPa) = 24.41814 27.30555 25.86184
#
# Velocity S-wave (km/s) = 3.65537 3.86546 3.76188
# Velocity P-wave (km/s) = 6.66335 7.33385 7.00662
#
# Compressibility (1/GPa) = 0.02058357
#
# Stress axis : x y z
#
# Youngs Moduli (GPa) = 95.65820 44.79248 87.35502
#
# Poissons Ratio (x) = 0.07269 0.33040
# Poissons Ratio (y) = 0.15524 0.56051
# Poissons Ratio (z) = 0.36180 0.28741
#
# Static dielectric constant tensor:
#      x y z
#    x 4.275380 0.000000 -0.448570 
#    y 0.000000 3.003800 0.000000 
#    z -0.448570 0.000000 3.505900 
# 
# 
# High freq. dielectric constant tensor:
#      x y z
#    x 1.718110 0.000000 -0.013750 
#    y 0.000000 1.681090 0.000000 
#    z -0.013750 0.000000 1.707990 
# 
# From -- ./inp_files/217935.got.cif
#   From: 2010.06.25/outbox.cif.g09.slc.cpg/sg12_109_cif.got.tgz:217935.got - 2010.06.28 00:19:55.
