data_PCOD8087281
_publ_section_title
;
Structure prediction by ZEFSAII (Michael W. Deem and Ramdas Pophale) SiO2 
 PCOD8087281
Probable space group: C 2/M
;
_chemical_formula_sum "Si O2"
_cell_formula_units_Z 48
_cell_length_a 20.586937
_cell_length_b 9.475127
_cell_length_c 22.787918
_cell_angle_alpha 90.000000
_cell_angle_beta 40.900821
_cell_angle_gamma 90.000000
_cell_volume 2910.435782
_symmetry_space_group_name_H-M "C 2/M"
_symmetry_group_IT_number 12
_symmetry_cell_setting 'monoclinic'
loop_
_space_group_symop_operation_xyz
x,y,z
-x,y,-z
-x,-y,-z
x,-y,z
1/2+x,1/2+y,z
1/2-x,1/2+y,-z
1/2-x,1/2-y,-z
1/2+x,1/2-y,z
loop_
_atom_site_type_symbol
_atom_site_label
_atom_site_fract_x
_atom_site_fract_y
_atom_site_fract_z
Si Si1 0.273415 0.839778 0.406435
Si Si2 0.475806 0.334314 0.951353
Si Si3 0.443885 0.162191 0.759241
Si Si4 0.237554 0.835634 0.949471
Si Si5 0.595277 0.337842 0.597731
Si Si6 0.429899 0.840506 0.211807
O O1 0.327984 0.721627 0.407145
O O2 0.153411 0.820821 0.495127
O O3 0.314783 0.822989 0.311678
O O4 0.301592 0.000000 0.408705
O O5 0.492832 0.500000 0.933729
O O6 0.551982 0.261525 0.854922
O O7 0.500000 0.280959 0.000000
O O8 0.363201 0.290679 0.013884
O O9 0.327891 0.199981 0.843742
O O10 0.491893 0.252510 0.673046
O O11 0.497257 0.200053 0.784203
O O12 0.460100 0.000000 0.731951
O O13 0.238352 0.000000 0.965767
O O14 0.250000 0.750000 0.000000
O O15 0.571241 0.500000 0.627876
O O16 0.451617 0.000000 0.176507
#
# Coordination Sequence:
#
# PCOD8087281 Si02
#       6
#     8   8   8   8   8   8
#     4   8  15  26  38  57  89 120 146 180 224 269
#     4  10  21  34  47  67  94 121 152 192 233 271
#     4   9  17  28  42  63  91 119 147 184 227 268
#     4  10  19  32  49  67  91 122 154 189 231 275
#     4   9  15  23  38  61  88 118 147 180 222 268
#     4   9  16  28  45  64  88 119 152 185 223 271
#
# _framework density 16.492376
#
# number of rings (size 3 to 8) (size 9 to 14) (size 15 to 20)
#    0.000    2.833    1.667    1.500    0.000    4.333 
#    0.000    0.000    0.000    0.000    0.000    1.167 
#    0.000    9.333    0.000    0.000    0.000    0.000 
#
# Total GULP energy -297370.439348 kJ/mol
# GULP energy per Si atom -12390.434973 kJ/mol
# Density = 1.645484 g / cm^3
# Si number density = 16.492376 Si / 1000 Ang^3
#
#
#
# Elastic Constant Matrix: (Units=GPa)
#
#
# Indices 1 2 3 4 5 6 
#
# 1 59.8949 27.6912 47.5135 0.0000 -0.0945 0.0000
# 2 27.6912 64.3065 62.2427 0.0000 -0.3566 0.0000
# 3 47.5135 62.2427 165.7033 0.0000 -3.9440 0.0000
# 4 0.0000 0.0000 0.0000 34.0356 0.0000 1.3375
# 5 -0.0945 -0.3566 -3.9440 0.0000 13.4649 0.0000
# 6 0.0000 0.0000 0.0000 1.3375 0.0000 12.3031
#
#
#
# Elastic Compliance Matrix: (Units=1/GPa)
#
#
# Indices 1 2 3 4 5 6 
#
# 1 0.022800 -0.005448 -0.004522 0.000000 -0.001309 0.000000
# 2 -0.005448 0.025793 -0.008168 0.000000 -0.001748 0.000000
# 3 -0.004522 -0.008168 0.010467 0.000000 0.002818 0.000000
# 4 0.000000 0.000000 0.000000 0.029507 0.000000 -0.003208
# 5 -0.001309 -0.001748 0.002818 0.000000 0.075037 0.000000
# 6 0.000000 0.000000 0.000000 -0.003208 0.000000 0.081629
#
#
# Mechanical properties :
#
#
# Convention : Reuss Voigt Hill
#
# Bulk Modulus (GPa) = 43.89248 62.75550 53.32399
# Shear Modulus (GPa) = 17.29483 22.12452 19.70967
#
# Velocity S-wave (km/s) = 3.24181 3.66662 3.46074
# Velocity P-wave (km/s) = 6.37840 7.48728 6.95497
#
# Compressibility (1/GPa) = 0.02278294
#
# Stress axis : x y z
#
# Youngs Moduli (GPa) = 43.85929 38.77093 95.54050
#
# Poissons Ratio (x) = 0.21122 0.43207
# Poissons Ratio (y) = 0.23895 0.78036
# Poissons Ratio (z) = 0.19835 0.31667
#
# Static dielectric constant tensor:
#      x y z
#    x 2.642920 0.000000 -0.192250 
#    y 0.000000 3.140610 0.000000 
#    z -0.192250 0.000000 3.710380 
# 
# 
# High freq. dielectric constant tensor:
#      x y z
#    x 1.557030 0.000000 -0.012650 
#    y 0.000000 1.640680 0.000000 
#    z -0.012650 0.000000 1.662090 
# 
# From -- ./inp_files/236599.got.cif
#   From: 2010.06.25/outbox.cif.g09.slc.cpg/sg12_119_cif.got.tgz:236599.got - 2010.06.28 00:19:55.
