data_PCOD8087525
_publ_section_title
;
Structure prediction by ZEFSAII (Michael W. Deem and Ramdas Pophale) SiO2 
 PCOD8087525
Probable space group: C 2/M
;
_chemical_formula_sum "Si O2"
_cell_formula_units_Z 64
_cell_length_a 20.136696
_cell_length_b 9.445470
_cell_length_c 18.999308
_cell_angle_alpha 90.000000
_cell_angle_beta 92.570621
_cell_angle_gamma 90.000000
_cell_volume 3610.042533
_symmetry_space_group_name_H-M "C 2/M"
_symmetry_group_IT_number 12
_symmetry_cell_setting 'monoclinic'
loop_
_space_group_symop_operation_xyz
x,y,z
-x,y,-z
-x,-y,-z
x,-y,z
1/2+x,1/2+y,z
1/2-x,1/2+y,-z
1/2-x,1/2-y,-z
1/2+x,1/2-y,z
loop_
_atom_site_type_symbol
_atom_site_label
_atom_site_fract_x
_atom_site_fract_y
_atom_site_fract_z
Si Si1 0.267855 0.834232 0.706414
Si Si2 0.130250 0.833555 0.765338
Si Si3 0.951585 0.335532 0.561191
Si Si4 0.007267 0.832651 0.299254
Si Si5 0.126057 0.161615 0.206484
Si Si6 0.299573 0.164434 0.550816
Si Si7 0.187620 0.834711 0.911459
Si Si8 0.180717 0.838901 0.065853
O O1 0.191800 0.792114 0.718402
O O2 0.314052 0.756081 0.763618
O O3 0.286892 0.784265 0.629518
O O4 0.279864 0.000000 0.717084
O O5 0.141602 0.776143 0.845692
O O6 0.063811 0.768713 0.727824
O O7 0.119670 0.000000 0.768270
O O8 0.959607 0.500000 0.581889
O O9 0.969631 0.242782 0.629044
O O10 0.875934 0.303439 0.533979
O O11 0.000000 0.292287 0.500000
O O12 0.056812 0.792851 0.237981
O O13 0.005115 0.000000 0.313916
O O14 0.122493 0.181631 0.121243
O O15 0.142321 0.000000 0.227167
O O16 0.250000 0.250000 0.500000
O O17 0.282408 0.000000 0.541266
O O18 0.258666 0.761220 0.911465
O O19 0.201013 0.000000 0.899430
O O20 0.153138 0.804691 0.985841
O O21 0.207347 0.000000 0.068492
#
# Coordination Sequence:
#
# PCOD8087525 Si02
#       8
#     8   8   8   8   8   8   8   8
#     4  10  19  34  55  75  99 133 174 213 249 297
#     4   9  18  32  51  76 102 131 172 213 249 296
#     4  10  22  40  57  76 104 136 169 208 255 306
#     4  10  21  36  54  75 103 138 172 208 250 304
#     4  10  19  32  50  76 105 133 168 213 257 297
#     4  10  22  37  55  79 106 133 166 210 255 303
#     4   9  16  29  49  72 100 135 170 207 252 301
#     4   9  17  28  46  74 104 131 166 211 256 299
#
# _framework density 17.728323
#
# number of rings (size 3 to 8) (size 9 to 14) (size 15 to 20)
#    0.000    2.375    2.500    0.000    1.750    1.250 
#    0.000    1.875    0.000    3.750    0.000    0.000 
#    0.000    6.000    0.000    0.000    0.000    0.000 
#
# Total GULP energy -396692.605252 kJ/mol
# GULP energy per Si atom -12396.643914 kJ/mol
# Density = 1.768797 g / cm^3
# Si number density = 17.728323 Si / 1000 Ang^3
#
#
#
# Elastic Constant Matrix: (Units=GPa)
#
#
# Indices 1 2 3 4 5 6 
#
# 1 108.0841 28.0564 56.1144 0.0000 -10.9560 0.0000
# 2 28.0564 33.6131 31.9195 0.0000 -1.9308 0.0000
# 3 56.1144 31.9195 121.8635 0.0000 -19.1515 0.0000
# 4 0.0000 0.0000 0.0000 22.8908 0.0000 3.5134
# 5 -10.9560 -1.9308 -19.1515 0.0000 31.7904 0.0000
# 6 0.0000 0.0000 0.0000 3.5134 0.0000 19.1662
#
#
#
# Elastic Compliance Matrix: (Units=1/GPa)
#
#
# Indices 1 2 3 4 5 6 
#
# 1 0.013391 -0.007301 -0.003974 0.000000 0.001777 0.000000
# 2 -0.007301 0.044106 -0.009019 0.000000 -0.005271 0.000000
# 3 -0.003974 -0.009019 0.013362 0.000000 0.006132 0.000000
# 4 0.000000 0.000000 0.000000 0.044950 0.000000 -0.008240
# 5 0.001777 -0.005271 0.006132 0.000000 0.035443 0.000000
# 6 0.000000 0.000000 0.000000 -0.008240 0.000000 0.053686
#
#
# Mechanical properties :
#
#
# Convention : Reuss Voigt Hill
#
# Bulk Modulus (GPa) = 33.03585 55.08237 44.05911
# Shear Modulus (GPa) = 19.56055 24.60083 22.08069
#
# Velocity S-wave (km/s) = 3.32528 3.72917 3.53300
# Velocity P-wave (km/s) = 5.78085 7.04840 6.44586
#
# Compressibility (1/GPa) = 0.03027014
#
# Stress axis : x y z
#
# Youngs Moduli (GPa) = 74.67832 22.67261 74.83844
#
# Poissons Ratio (x) = 0.16553 0.29744
# Poissons Ratio (y) = 0.54521 0.67498
# Poissons Ratio (z) = 0.29681 0.20449
#
# Static dielectric constant tensor:
#      x y z
#    x 3.356730 0.000000 -0.145630 
#    y 0.000000 3.150860 0.000000 
#    z -0.145630 0.000000 3.635840 
# 
# 
# High freq. dielectric constant tensor:
#      x y z
#    x 1.673450 0.000000 -0.011980 
#    y 0.000000 1.668740 0.000000 
#    z -0.011980 0.000000 1.701410 
# 
# From -- ./inp_files/281376.got.cif
#   From: 2010.06.25/outbox.cif.g09.slc.cpg/sg12_141_cif.got.tgz:281376.got - 2010.06.28 00:19:55.
