data_PCOD8087163
_publ_section_title
;
Structure prediction by ZEFSAII (Michael W. Deem and Ramdas Pophale) SiO2 
 PCOD8087163
Probable space group: C 2/M
;
_chemical_formula_sum "Si O2"
_cell_formula_units_Z 64
_cell_length_a 20.501504
_cell_length_b 9.416496
_cell_length_c 22.185412
_cell_angle_alpha 90.000000
_cell_angle_beta 124.469979
_cell_angle_gamma 90.000000
_cell_volume 3530.958137
_symmetry_space_group_name_H-M "C 2/M"
_symmetry_group_IT_number 12
_symmetry_cell_setting 'monoclinic'
loop_
_space_group_symop_operation_xyz
x,y,z
-x,y,-z
-x,-y,-z
x,-y,z
1/2+x,1/2+y,z
1/2-x,1/2+y,-z
1/2-x,1/2-y,-z
1/2+x,1/2-y,z
loop_
_atom_site_type_symbol
_atom_site_label
_atom_site_fract_x
_atom_site_fract_y
_atom_site_fract_z
Si Si1 0.941617 0.165138 0.809913
Si Si2 0.537481 0.165243 0.957268
Si Si3 0.180446 0.166626 0.791203
Si Si4 0.998835 0.164927 0.707032
Si Si5 0.740719 0.838636 0.582160
Si Si6 0.778980 0.334680 0.957749
Si Si7 0.870233 0.336018 0.582270
Si Si8 0.759845 0.836670 0.727687
O O1 0.851602 0.208636 0.776021
O O2 0.999883 0.251997 0.882437
O O3 0.961370 0.203855 0.751665
O O4 0.956932 0.000000 0.830057
O O5 0.519332 0.000000 0.938271
O O6 0.500000 0.220128 0.000000
O O7 0.630037 0.198112 0.007910
O O8 0.090027 0.209913 0.754629
O O9 0.229806 0.219492 0.874576
O O10 0.211595 0.241182 0.748002
O O11 0.191409 0.000000 0.787595
O O12 0.953684 0.255617 0.632377
O O13 0.988393 0.000000 0.686122
O O14 0.807107 0.730533 0.594987
O O15 0.660085 0.817380 0.502205
O O16 0.722118 0.809674 0.642188
O O17 0.773464 0.000000 0.591114
O O18 0.763486 0.500000 0.961875
O O19 0.750000 0.250000 0.000000
O O20 0.881337 0.500000 0.605186
O O21 0.751090 0.000000 0.742327
#
# Coordination Sequence:
#
# PCOD8087163 Si02
#       8
#     8   8   8   8   8   8   8   8
#     4  10  20  35  57  80 103 139 182 220 266 323
#     4  10  21  36  54  78 108 138 170 221 278 319
#     4  10  22  38  57  79 108 147 184 222 271 325
#     4  10  20  37  56  77 110 146 178 222 273 319
#     4   9  18  35  55  79 113 147 178 218 271 323
#     4  10  21  38  58  79 105 141 182 223 271 323
#     4  10  19  31  55  86 110 139 182 227 267 314
#     4  10  20  36  57  80 109 145 180 222 272 320
#
# _framework density 18.125392000000002
#
# number of rings (size 3 to 8) (size 9 to 14) (size 15 to 20)
#    0.000    2.125    1.250    1.875    0.000    5.750 
#    0.000    0.625    0.000    3.750    0.000    0.000 
#    0.000    0.000    0.000    0.000    0.000    0.000 
#
# Total GULP energy -396912.225100 kJ/mol
# GULP energy per Si atom -12403.507034 kJ/mol
# Density = 1.808414 g / cm^3
# Si number density = 18.125392 Si / 1000 Ang^3
#
#
#
# Elastic Constant Matrix: (Units=GPa)
#
#
# Indices 1 2 3 4 5 6 
#
# 1 95.4268 46.2434 46.4029 0.0000 0.5707 0.0000
# 2 46.2434 65.7479 60.8676 0.0000 4.5825 0.0000
# 3 46.4029 60.8676 133.7397 0.0000 9.6914 0.0000
# 4 0.0000 0.0000 0.0000 35.8208 0.0000 0.5404
# 5 0.5707 4.5825 9.6914 0.0000 28.1906 0.0000
# 6 0.0000 0.0000 0.0000 0.5404 0.0000 32.3872
#
#
#
# Elastic Compliance Matrix: (Units=1/GPa)
#
#
# Indices 1 2 3 4 5 6 
#
# 1 0.016018 -0.010586 -0.000863 0.000000 0.001693 0.000000
# 2 -0.010586 0.033281 -0.011381 0.000000 -0.001283 0.000000
# 3 -0.000863 -0.011381 0.013148 0.000000 -0.002653 0.000000
# 4 0.000000 0.000000 0.000000 0.027924 0.000000 -0.000466
# 5 0.001693 -0.001283 -0.002653 0.000000 0.036559 0.000000
# 6 0.000000 0.000000 0.000000 -0.000466 0.000000 0.030884
#
#
# Mechanical properties :
#
#
# Convention : Reuss Voigt Hill
#
# Bulk Modulus (GPa) = 59.56352 66.88246 63.22299
# Shear Modulus (GPa) = 23.91553 28.70640 26.31096
#
# Velocity S-wave (km/s) = 3.63636 3.98397 3.81413
# Velocity P-wave (km/s) = 7.11084 7.62514 7.37248
#
# Compressibility (1/GPa) = 0.01678880
#
# Stress axis : x y z
#
# Youngs Moduli (GPa) = 62.42791 30.04762 76.05512
#
# Poissons Ratio (x) = 0.31808 0.06561
# Poissons Ratio (y) = 0.66085 0.86556
# Poissons Ratio (z) = 0.05386 0.34196
#
# Static dielectric constant tensor:
#      x y z
#    x 3.263350 0.000000 0.109580 
#    y 0.000000 3.325410 0.000000 
#    z 0.109580 0.000000 3.562230 
# 
# 
# High freq. dielectric constant tensor:
#      x y z
#    x 1.693740 0.000000 0.006940 
#    y 0.000000 1.699630 0.000000 
#    z 0.006940 0.000000 1.716230 
# 
# From -- ./inp_files/320172.got.cif
#   From: 2010.06.25/outbox.cif.g09.slc.cpg/sg12_161_cif.got.tgz:320172.got - 2010.06.28 00:19:55.
