data_PCOD8087809
_publ_section_title
;
Structure prediction by ZEFSAII (Michael W. Deem and Ramdas Pophale) SiO2 
 PCOD8087809
Probable space group: C 2/M
;
_chemical_formula_sum "Si O2"
_cell_formula_units_Z 64
_cell_length_a 24.468378
_cell_length_b 8.980615
_cell_length_c 28.871341
_cell_angle_alpha 90.000000
_cell_angle_beta 145.541331
_cell_angle_gamma 90.000000
_cell_volume 3589.633089
_symmetry_space_group_name_H-M "C 2/M"
_symmetry_group_IT_number 12
_symmetry_cell_setting 'monoclinic'
loop_
_space_group_symop_operation_xyz
x,y,z
-x,y,-z
-x,-y,-z
x,-y,z
1/2+x,1/2+y,z
1/2-x,1/2+y,-z
1/2-x,1/2-y,-z
1/2+x,1/2-y,z
loop_
_atom_site_type_symbol
_atom_site_label
_atom_site_fract_x
_atom_site_fract_y
_atom_site_fract_z
Si Si1 0.253685 0.675119 0.117218
Si Si2 0.515482 0.171980 0.628496
Si Si3 0.020778 0.672708 0.196744
Si Si4 0.220574 0.674174 0.294496
Si Si5 0.833043 0.823122 0.027075
Si Si6 0.786069 0.827202 0.241871
Si Si7 0.908003 0.674177 0.465472
Si Si8 0.047873 0.670383 0.752566
O O1 0.239836 0.500000 0.098759
O O2 0.235440 0.720890 0.158187
O O3 0.361883 0.720055 0.178055
O O4 0.177902 0.766511 0.033358
O O5 0.612128 0.250320 0.679118
O O6 0.427638 0.217118 0.533192
O O7 0.491045 0.209595 0.665144
O O8 0.537904 0.000000 0.637267
O O9 0.003298 0.500000 0.170984
O O10 0.121495 0.734382 0.247283
O O11 0.024100 0.692723 0.254721
O O12 0.937189 0.773394 0.117208
O O13 0.229369 0.500000 0.309162
O O14 0.217989 0.712755 0.237822
O O15 0.310995 0.745932 0.382883
O O16 0.822930 0.000000 0.022566
O O17 0.750000 0.750000 0.000000
O O18 0.809568 0.000000 0.255788
O O19 0.891780 0.500000 0.446835
O O20 0.000000 0.729303 0.500000
O O21 0.086496 0.500000 0.778028
#
# Coordination Sequence:
#
# PCOD8087809 Si02
#       8
#     8   8   8   8   8   8   8   8
#     4  10  19  32  53  80 107 134 172 221 265 310
#     4   9  17  30  50  76 103 134 174 223 270 312
#     4  10  21  37  55  77 107 142 179 219 264 317
#     4  10  21  36  54  77 108 144 179 218 268 319
#     4  12  23  36  56  82 109 138 175 218 263 311
#     4   9  18  32  51  77 106 137 174 218 266 312
#     4  10  19  32  51  77 107 138 179 225 269 317
#     4   9  17  31  52  75 102 137 176 218 266 314
#
# _framework density 17.829118999999999
#
# number of rings (size 3 to 8) (size 9 to 14) (size 15 to 20)
#    0.000    2.125    2.500    1.500    0.000    1.750 
#    0.000    1.250    0.000    3.750    0.000    0.000 
#    0.000    0.000    0.000    0.000    0.000    0.000 
#
# Total GULP energy -396724.397839 kJ/mol
# GULP energy per Si atom -12397.637432 kJ/mol
# Density = 1.778854 g / cm^3
# Si number density = 17.829119 Si / 1000 Ang^3
#
#
#
# Elastic Constant Matrix: (Units=GPa)
#
#
# Indices 1 2 3 4 5 6 
#
# 1 137.7668 45.3804 82.1064 0.0000 -6.0433 0.0000
# 2 45.3804 60.8816 44.9559 -0.0002 -1.7955 -0.0008
# 3 82.1064 44.9559 123.9742 0.0000 -6.5945 0.0000
# 4 0.0000 -0.0002 0.0000 30.7039 0.0000 -1.8290
# 5 -6.0433 -1.7955 -6.5945 0.0000 29.3741 0.0000
# 6 0.0000 -0.0008 0.0000 -1.8290 0.0000 19.7592
#
#
#
# Elastic Compliance Matrix: (Units=1/GPa)
#
#
# Indices 1 2 3 4 5 6 
#
# 1 0.012853 -0.004511 -0.006832 0.000000 0.000835 0.000000
# 2 -0.004511 0.024021 -0.005763 0.000000 -0.000754 0.000001
# 3 -0.006832 -0.005763 0.014764 0.000000 0.001557 0.000000
# 4 0.000000 0.000000 0.000000 0.032750 0.000000 0.003031
# 5 0.000835 -0.000754 0.001557 0.000000 0.034519 0.000000
# 6 0.000000 0.000001 0.000000 0.003031 0.000000 0.050890
#
#
# Mechanical properties :
#
#
# Convention : Reuss Voigt Hill
#
# Bulk Modulus (GPa) = 57.38792 74.16757 65.77775
# Shear Modulus (GPa) = 23.83026 25.97942 24.90484
#
# Velocity S-wave (km/s) = 3.65991 3.82138 3.74152
# Velocity P-wave (km/s) = 7.07937 7.82049 7.45914
#
# Compressibility (1/GPa) = 0.01742527
#
# Stress axis : x y z
#
# Youngs Moduli (GPa) = 77.80280 41.63010 67.73343
#
# Poissons Ratio (x) = 0.18779 0.46277
# Poissons Ratio (y) = 0.35096 0.39036
# Poissons Ratio (z) = 0.53157 0.23992
#
# Static dielectric constant tensor:
#      x y z
#    x 3.707820 0.000000 -0.386010 
#    y 0.000000 3.290770 0.000000 
#    z -0.386010 0.000000 3.341800 
# 
# 
# High freq. dielectric constant tensor:
#      x y z
#    x 1.688520 0.000000 -0.029970 
#    y 0.000000 1.687610 0.000000 
#    z -0.029970 0.000000 1.677220 
# 
# From -- ./inp_files/382419.got.cif
#   From: 2010.06.25/outbox.cif.g09.slc.cpg/sg12_192_cif.got.tgz:382419.got - 2010.06.28 00:19:55.
