data_PCOD8087370
_publ_section_title
;
Structure prediction by ZEFSAII (Michael W. Deem and Ramdas Pophale) SiO2 
 PCOD8087370
Probable space group: C 2/M
;
_chemical_formula_sum "Si O2"
_cell_formula_units_Z 44
_cell_length_a 9.314855
_cell_length_b 23.267560
_cell_length_c 12.358531
_cell_angle_alpha 90.000000
_cell_angle_beta 60.812907
_cell_angle_gamma 90.000000
_cell_volume 2338.427625
_symmetry_space_group_name_H-M "C 2/M"
_symmetry_group_IT_number 12
_symmetry_cell_setting 'monoclinic'
loop_
_space_group_symop_operation_xyz
x,y,z
-x,y,-z
-x,-y,-z
x,-y,z
1/2+x,1/2+y,z
1/2-x,1/2+y,-z
1/2-x,1/2-y,-z
1/2+x,1/2-y,z
loop_
_atom_site_type_symbol
_atom_site_label
_atom_site_fract_x
_atom_site_fract_y
_atom_site_fract_z
Si Si1 0.952168 0.733106 0.722418
Si Si2 0.251638 0.605319 0.686160
Si Si3 0.679249 0.000000 0.371368
Si Si4 0.500000 0.306345 0.500000
Si Si5 0.135152 0.297488 0.858856
Si Si6 0.527307 0.500000 0.365168
Si Si7 0.037189 0.391724 0.361062
O O1 0.032900 0.766054 0.591463
O O2 0.799828 0.765397 0.834190
O O3 0.900028 0.667640 0.713635
O O4 0.089121 0.733783 0.763999
O O5 0.345876 0.653198 0.580718
O O6 0.167204 0.635281 0.821328
O O7 0.366684 0.556973 0.698355
O O8 0.118150 0.582157 0.648980
O O9 0.500000 0.000000 0.500000
O O10 0.678339 0.941280 0.301100
O O11 0.848456 0.000000 0.376346
O O12 0.000000 0.291642 0.000000
O O13 0.500000 0.500000 0.500000
O O14 0.000000 0.379689 0.500000
#
# Coordination Sequence:
#
# PCOD8087370 Si02
#       7
#     8   8   4   4   8   4   8
#     4  10  21  33  59  79 114 149 183 234 286 332
#     4  10  22  33  57  80 115 149 183 229 279 337
#     4  10  22  32  50  76 115 147 174 219 270 344
#     4  10  20  33  52  89 112 144 180 230 286 344
#     4  10  22  39  55  82 113 153 197 231 271 327
#     4  12  20  36  55  80 114 149 185 221 287 345
#     4  10  19  32  49  80 112 144 179 221 279 335
#
# _framework density 18.816063
#
# number of rings (size 3 to 8) (size 9 to 14) (size 15 to 20)
#    0.000    1.818    1.818    3.273    2.545    3.636 
#    0.000    0.455    0.000    0.000    0.000    5.727 
#    0.000    0.000    0.000    0.000    0.000    0.000 
#
# Total GULP energy -272613.648286 kJ/mol
# GULP energy per Si atom -12391.529468 kJ/mol
# Density = 1.877324 g / cm^3
# Si number density = 18.816063 Si / 1000 Ang^3
#
#
#
# Elastic Constant Matrix: (Units=GPa)
#
#
# Indices 1 2 3 4 5 6 
#
# 1 117.9045 47.7686 6.2817 0.0000 0.3504 0.0000
# 2 47.7686 106.2482 20.6946 0.0000 1.0848 0.0000
# 3 6.2817 20.6946 65.2726 0.0000 -6.0599 0.0000
# 4 0.0000 0.0000 0.0000 16.7399 0.0000 -6.3897
# 5 0.3504 1.0848 -6.0599 0.0000 19.3919 0.0000
# 6 0.0000 0.0000 0.0000 -6.3897 0.0000 25.6079
#
#
#
# Elastic Compliance Matrix: (Units=1/GPa)
#
#
# Indices 1 2 3 4 5 6 
#
# 1 0.010388 -0.004778 0.000538 0.000000 0.000248 0.000000
# 2 -0.004778 0.012277 -0.003593 0.000000 -0.001723 0.000000
# 3 0.000538 -0.003593 0.016916 0.000000 0.005477 0.000000
# 4 0.000000 0.000000 0.000000 0.066026 0.000000 0.016475
# 5 0.000248 -0.001723 0.005477 0.000000 0.053372 0.000000
# 6 0.000000 0.000000 0.000000 0.016475 0.000000 0.043161
#
#
# Mechanical properties :
#
#
# Convention : Reuss Voigt Hill
#
# Bulk Modulus (GPa) = 41.81188 48.76834 45.29011
# Shear Modulus (GPa) = 22.14576 26.65996 24.40286
#
# Velocity S-wave (km/s) = 3.43441 3.76822 3.60518
# Velocity P-wave (km/s) = 6.16413 6.70130 6.43832
#
# Compressibility (1/GPa) = 0.02391665
#
# Stress axis : x y z
#
# Youngs Moduli (GPa) = 96.26811 81.45141 59.11507
#
# Poissons Ratio (x) = 0.38914 -0.03181
# Poissons Ratio (y) = 0.45993 0.21238
# Poissons Ratio (z) = -0.05180 0.29263
#
# Static dielectric constant tensor:
#      x y z
#    x 3.443870 0.000000 0.013560 
#    y 0.000000 3.794720 0.000000 
#    z 0.013560 0.000000 3.136980 
# 
# 
# High freq. dielectric constant tensor:
#      x y z
#    x 1.741790 0.000000 0.001650 
#    y 0.000000 1.746910 0.000000 
#    z 0.001650 0.000000 1.684630 
# 
# From -- ./inp_files/122389.got.cif
#   From: 2010.06.25/outbox.cif.g09.slc.cpg/sg12_62_cif.got.tgz:122389.got - 2010.06.28 00:19:55.
