data_PCOD8087432
_publ_section_title
;
Structure prediction by ZEFSAII (Michael W. Deem and Ramdas Pophale) SiO2 
 PCOD8087432
Probable space group: C 2/M
;
_chemical_formula_sum "Si O2"
_cell_formula_units_Z 48
_cell_length_a 23.328463
_cell_length_b 9.118889
_cell_length_c 13.596630
_cell_angle_alpha 90.000000
_cell_angle_beta 108.826192
_cell_angle_gamma 90.000000
_cell_volume 2737.668117
_symmetry_space_group_name_H-M "C 2/M"
_symmetry_group_IT_number 12
_symmetry_cell_setting 'monoclinic'
loop_
_space_group_symop_operation_xyz
x,y,z
-x,y,-z
-x,-y,-z
x,-y,z
1/2+x,1/2+y,z
1/2-x,1/2+y,-z
1/2-x,1/2-y,-z
1/2+x,1/2-y,z
loop_
_atom_site_type_symbol
_atom_site_label
_atom_site_fract_x
_atom_site_fract_y
_atom_site_fract_z
Si Si1 0.991569 0.331154 0.608955
Si Si2 0.259661 0.825051 0.108931
Si Si3 0.125092 0.667239 0.709788
Si Si4 0.683515 0.334691 0.577623
Si Si5 0.304400 0.172463 0.752176
Si Si6 0.116898 0.830448 0.348412
O O1 0.969795 0.500000 0.602748
O O2 0.944846 0.227726 0.638686
O O3 0.000000 0.284486 0.500000
O O4 0.055390 0.309195 0.702280
O O5 0.327278 0.777176 0.181674
O O6 0.209855 0.758215 0.155250
O O7 0.251615 0.000000 0.097022
O O8 0.250000 0.750000 0.000000
O O9 0.139777 0.500000 0.697191
O O10 0.134761 0.741658 0.610156
O O11 0.670327 0.500000 0.601677
O O12 0.751783 0.292930 0.644107
O O13 0.672011 0.309942 0.456023
O O14 0.365943 0.238175 0.739515
O O15 0.312579 0.000000 0.778160
O O16 0.108001 0.000000 0.314816
#
# Coordination Sequence:
#
# PCOD8087432 Si02
#       6
#     8   8   8   8   8   8
#     4  10  19  32  50  72 102 142 181 209 241 293
#     4  10  20  36  58  81 103 128 164 213 265 310
#     4   9  18  32  51  75 102 134 173 212 248 295
#     4   9  18  30  46  70 102 137 172 209 250 297
#     4  10  20  34  51  73 101 135 173 212 256 305
#     4  11  21  31  46  72 106 142 174 209 252 298
#
# _framework density 17.533169999999998
#
# number of rings (size 3 to 8) (size 9 to 14) (size 15 to 20)
#    0.000    2.167    1.667    2.000    0.000    3.000 
#    0.000    0.000    0.000    1.000    0.000    7.000 
#    0.000    0.000    0.000    0.000    0.000    0.000 
#
# Total GULP energy -297535.387260 kJ/mol
# GULP energy per Si atom -12397.307802 kJ/mol
# Density = 1.749326 g / cm^3
# Si number density = 17.533170 Si / 1000 Ang^3
#
#
#
# Elastic Constant Matrix: (Units=GPa)
#
#
# Indices 1 2 3 4 5 6 
#
# 1 98.3543 52.8483 44.3909 0.0000 -17.7630 0.0000
# 2 52.8483 89.9841 43.8391 0.0000 -15.6949 0.0000
# 3 44.3909 43.8391 78.6131 0.0000 -13.2917 0.0000
# 4 0.0000 0.0000 0.0000 26.2949 0.0000 -6.0799
# 5 -17.7630 -15.6949 -13.2917 0.0000 19.1311 0.0000
# 6 0.0000 0.0000 0.0000 -6.0799 0.0000 32.8390
#
#
#
# Elastic Compliance Matrix: (Units=1/GPa)
#
#
# Indices 1 2 3 4 5 6 
#
# 1 0.017122 -0.006423 -0.004860 0.000000 0.007251 0.000000
# 2 -0.006423 0.018677 -0.005899 0.000000 0.005260 0.000000
# 3 -0.004860 -0.005899 0.019459 0.000000 0.004167 0.000000
# 4 0.000000 0.000000 0.000000 0.039731 0.000000 0.007356
# 5 0.007251 0.005260 0.004167 0.000000 0.066214 0.000000
# 6 0.000000 0.000000 0.000000 0.007356 0.000000 0.031814
#
#
# Mechanical properties :
#
#
# Convention : Reuss Voigt Hill
#
# Bulk Modulus (GPa) = 47.86276 61.01202 54.43739
# Shear Modulus (GPa) = 21.33597 24.04453 22.69025
#
# Velocity S-wave (km/s) = 3.49218 3.70722 3.60131
# Velocity P-wave (km/s) = 6.60440 7.29371 6.95760
#
# Compressibility (1/GPa) = 0.02089307
#
# Stress axis : x y z
#
# Youngs Moduli (GPa) = 58.40473 53.54260 51.38943
#
# Poissons Ratio (x) = 0.34391 0.24977
# Poissons Ratio (y) = 0.37514 0.30314
# Poissons Ratio (z) = 0.28387 0.31584
#
# Static dielectric constant tensor:
#      x y z
#    x 3.203070 0.000000 0.089620 
#    y 0.000000 3.305750 0.000000 
#    z 0.089620 0.000000 3.143090 
# 
# 
# High freq. dielectric constant tensor:
#      x y z
#    x 1.672920 0.000000 -0.000480 
#    y 0.000000 1.687960 0.000000 
#    z -0.000480 0.000000 1.645800 
# 
# From -- ./inp_files/172130.got.cif
#   From: 2010.06.25/outbox.cif.g09.slc.cpg/sg12_87_cif.got.tgz:172130.got - 2010.06.28 00:19:55.
