data_PCOD8087314
_publ_section_title
;
Structure prediction by ZEFSAII (Michael W. Deem and Ramdas Pophale) SiO2 
 PCOD8087314
Probable space group: C 2/M
;
_chemical_formula_sum "Si O2"
_cell_formula_units_Z 64
_cell_length_a 24.772993
_cell_length_b 9.195883
_cell_length_c 17.630693
_cell_angle_alpha 90.000000
_cell_angle_beta 103.011437
_cell_angle_gamma 90.000000
_cell_volume 3913.318624
_symmetry_space_group_name_H-M "C 2/M"
_symmetry_group_IT_number 12
_symmetry_cell_setting 'monoclinic'
loop_
_space_group_symop_operation_xyz
x,y,z
-x,y,-z
-x,-y,-z
x,-y,z
1/2+x,1/2+y,z
1/2-x,1/2+y,-z
1/2-x,1/2-y,-z
1/2+x,1/2-y,z
loop_
_atom_site_type_symbol
_atom_site_label
_atom_site_fract_x
_atom_site_fract_y
_atom_site_fract_z
Si Si1 0.571041 0.169269 0.918656
Si Si2 0.237038 0.831541 0.072520
Si Si3 0.613976 0.327844 0.076044
Si Si4 0.652457 0.169103 0.812702
Si Si5 0.033876 0.831665 0.329377
Si Si6 0.050504 0.669561 0.183163
Si Si7 0.906802 0.832142 0.334133
Si Si8 0.441226 0.671633 0.501178
O O1 0.614834 0.226415 0.870354
O O2 0.510229 0.199424 0.868402
O O3 0.580511 0.000000 0.941235
O O4 0.577885 0.262397 0.996514
O O5 0.178031 0.783776 0.086676
O O6 0.283580 0.794928 0.149870
O O7 0.237970 0.000000 0.051904
O O8 0.250000 0.750000 0.000000
O O9 0.605035 0.500000 0.075652
O O10 0.594969 0.257435 0.148470
O O11 0.636815 0.244451 0.729390
O O12 0.640940 0.000000 0.798449
O O13 0.054456 0.727215 0.269780
O O14 0.072413 0.790563 0.415323
O O15 0.969558 0.801872 0.327291
O O16 0.042401 0.000000 0.309063
O O17 0.065358 0.500000 0.186627
O O18 0.898860 0.780895 0.420387
O O19 0.891824 0.000000 0.319426
O O20 0.500000 0.745129 0.500000
O O21 0.448177 0.500000 0.495936
#
# Coordination Sequence:
#
# PCOD8087314 Si02
#       8
#     8   8   8   8   8   8   8   8
#     4  10  20  34  50  68  96 131 159 188 238 292
#     4  10  21  36  53  70  91 121 160 202 243 284
#     4  11  23  36  51  71  91 120 166 209 238 273
#     4  10  19  32  49  70  98 129 156 191 241 288
#     4   9  16  28  47  69  97 130 161 193 229 273
#     4  11  22  34  48  69  99 132 161 190 234 290
#     4   9  16  27  46  72  99 126 160 195 229 277
#     4   7  12  24  42  66  96 128 156 187 230 276
#
# _framework density 16.354406000000001
#
# number of rings (size 3 to 8) (size 9 to 14) (size 15 to 20)
#    0.000    2.375    2.500    2.625    0.000    4.000 
#    0.000    0.625    0.000    2.250    0.000    0.875 
#    0.000    0.000    0.000    0.000    0.000    0.000 
#
# Total GULP energy -396640.770980 kJ/mol
# GULP energy per Si atom -12395.024093 kJ/mol
# Density = 1.631718 g / cm^3
# Si number density = 16.354406 Si / 1000 Ang^3
#
#
#
# Elastic Constant Matrix: (Units=GPa)
#
#
# Indices 1 2 3 4 5 6 
#
# 1 65.4965 32.0898 41.7655 0.0000 -8.5583 0.0000
# 2 32.0898 55.9526 52.4921 0.0000 -4.1322 0.0000
# 3 41.7655 52.4921 141.9773 0.0000 -1.3242 0.0000
# 4 0.0000 0.0000 0.0000 26.7973 0.0000 1.4554
# 5 -8.5583 -4.1322 -1.3242 0.0000 13.9110 0.0000
# 6 0.0000 0.0000 0.0000 1.4554 0.0000 18.5988
#
#
#
# Elastic Compliance Matrix: (Units=1/GPa)
#
#
# Indices 1 2 3 4 5 6 
#
# 1 0.023532 -0.009592 -0.003270 0.000000 0.011317 0.000000
# 2 -0.009592 0.032007 -0.008986 0.000000 0.002751 0.000000
# 3 -0.003270 -0.008986 0.011294 0.000000 -0.003606 0.000000
# 4 0.000000 0.000000 0.000000 0.037477 0.000000 -0.002933
# 5 0.011317 0.002751 -0.003606 0.000000 0.079322 0.000000
# 6 0.000000 0.000000 0.000000 -0.002933 0.000000 0.053996
#
#
# Mechanical properties :
#
#
# Convention : Reuss Voigt Hill
#
# Bulk Modulus (GPa) = 43.22334 57.34679 50.28507
# Shear Modulus (GPa) = 17.29879 21.00001 19.14940
#
# Velocity S-wave (km/s) = 3.25583 3.58726 3.42556
# Velocity P-wave (km/s) = 6.37342 7.23181 6.81614
#
# Compressibility (1/GPa) = 0.02313565
#
# Stress axis : x y z
#
# Youngs Moduli (GPa) = 42.49583 31.24292 88.54016
#
# Poissons Ratio (x) = 0.29968 0.28957
# Poissons Ratio (y) = 0.40762 0.79566
# Poissons Ratio (z) = 0.13898 0.28076
#
# Static dielectric constant tensor:
#      x y z
#    x 2.938800 0.000000 0.027280 
#    y 0.000000 2.975420 0.000000 
#    z 0.027280 0.000000 3.332460 
# 
# 
# High freq. dielectric constant tensor:
#      x y z
#    x 1.594080 0.000000 0.002600 
#    y 0.000000 1.620650 0.000000 
#    z 0.002600 0.000000 1.639550 
# 
# From -- ./inp_files/287746.got.cif
#   From: 2010.06.25/outbox.cif.g09.slc.cpg/sg12_144_cif.got.tgz:287746.got - 2010.06.28 00:19:55.
