data_PCOD8087288
_publ_section_title
;
Structure prediction by ZEFSAII (Michael W. Deem and Ramdas Pophale) SiO2 
 PCOD8087288
Probable space group: C 2/M
;
_chemical_formula_sum "Si O2"
_cell_formula_units_Z 60
_cell_length_a 26.194061
_cell_length_b 12.806061
_cell_length_c 14.711873
_cell_angle_alpha 90.000000
_cell_angle_beta 133.690374
_cell_angle_gamma 90.000000
_cell_volume 3568.409147
_symmetry_space_group_name_H-M "C 2/M"
_symmetry_group_IT_number 12
_symmetry_cell_setting 'monoclinic'
loop_
_space_group_symop_operation_xyz
x,y,z
-x,y,-z
-x,-y,-z
x,-y,z
1/2+x,1/2+y,z
1/2-x,1/2+y,-z
1/2-x,1/2-y,-z
1/2+x,1/2-y,z
loop_
_atom_site_type_symbol
_atom_site_label
_atom_site_fract_x
_atom_site_fract_y
_atom_site_fract_z
Si Si1 0.124170 0.379309 0.738438
Si Si2 0.000000 0.743630 0.500000
Si Si3 0.924469 0.122522 0.724228
Si Si4 0.081378 0.118840 0.930351
Si Si5 0.107530 0.121826 0.518452
Si Si6 0.230849 0.757203 0.753814
Si Si7 0.182909 0.279551 0.975354
Si Si8 0.336728 0.619745 0.784869
O O1 0.122637 0.500000 0.710507
O O2 0.185405 0.324688 0.755920
O O3 0.139656 0.367078 0.865899
O O4 0.048956 0.328904 0.622579
O O5 0.044764 0.816363 0.488769
O O6 0.891441 0.150334 0.586462
O O7 0.873405 0.167229 0.739776
O O8 0.003347 0.169457 0.829140
O O9 0.931076 0.000000 0.749306
O O10 0.132704 0.179166 0.924803
O O11 0.081265 0.000000 0.894846
O O12 0.106837 0.126379 0.064936
O O13 0.183254 0.153210 0.651584
O O14 0.094576 0.000000 0.519199
O O15 0.269067 0.691475 0.721912
O O16 0.288799 0.814762 0.890251
O O17 0.250000 0.250000 0.000000
O O18 0.311544 0.500000 0.739995
#
# Coordination Sequence:
#
# PCOD8087288 Si02
#       8
#     8   4   8   8   8   8   8   8
#     4  10  19  32  49  68  93 122 153 193 233 273
#     4  10  20  34  50  70  92 120 156 188 232 286
#     4   9  17  28  45  70  94 120 154 190 233 277
#     4   9  16  28  47  70  97 123 150 191 236 275
#     4  10  20  33  48  67  95 125 154 191 230 273
#     4   9  19  32  46  68  94 124 160 188 225 278
#     4   9  18  30  44  67  93 121 157 188 221 272
#     4   9  16  28  47  70  96 122 151 192 235 272
#
# _framework density 16.814214
#
# number of rings (size 3 to 8) (size 9 to 14) (size 15 to 20)
#    0.000    2.667    0.000    2.000    0.000    5.867 
#    0.000    6.667    0.000    0.000    0.000    3.733 
#    0.000   10.667    0.000    0.000    0.000    0.000 
#
# Total GULP energy -371905.547860 kJ/mol
# GULP energy per Si atom -12396.851595 kJ/mol
# Density = 1.677594 g / cm^3
# Si number density = 16.814214 Si / 1000 Ang^3
#
#
#
# Elastic Constant Matrix: (Units=GPa)
#
#
# Indices 1 2 3 4 5 6 
#
# 1 104.3089 30.3614 46.3405 0.0000 -0.4208 0.0000
# 2 30.3614 61.5256 42.3883 0.0000 -2.2747 0.0000
# 3 46.3405 42.3883 100.5691 0.0000 5.8671 0.0000
# 4 0.0000 0.0000 0.0000 19.4191 0.0000 0.9692
# 5 -0.4208 -2.2747 5.8671 0.0000 22.8108 0.0000
# 6 0.0000 0.0000 0.0000 0.9692 0.0000 24.6484
#
#
#
# Elastic Compliance Matrix: (Units=1/GPa)
#
#
# Indices 1 2 3 4 5 6 
#
# 1 0.012485 -0.002976 -0.004563 0.000000 0.001107 0.000000
# 2 -0.002976 0.024153 -0.009082 0.000000 0.004690 0.000000
# 3 -0.004563 -0.009082 0.016174 0.000000 -0.005150 0.000000
# 4 0.000000 0.000000 0.000000 0.051597 0.000000 -0.002029
# 5 0.001107 0.004690 -0.005150 0.000000 0.045652 0.000000
# 6 0.000000 0.000000 0.000000 -0.002029 0.000000 0.040650
#
#
# Mechanical properties :
#
#
# Convention : Reuss Voigt Hill
#
# Bulk Modulus (GPa) = 51.10102 56.06490 53.58296
# Shear Modulus (GPa) = 21.69419 23.19655 22.44537
#
# Velocity S-wave (km/s) = 3.59587 3.71830 3.65760
# Velocity P-wave (km/s) = 6.90637 7.20073 7.05508
#
# Compressibility (1/GPa) = 0.01956908
#
# Stress axis : x y z
#
# Youngs Moduli (GPa) = 80.09718 41.40324 61.82645
#
# Poissons Ratio (x) = 0.12323 0.28211
# Poissons Ratio (y) = 0.23840 0.56151
# Poissons Ratio (z) = 0.36547 0.37603
#
# Static dielectric constant tensor:
#      x y z
#    x 3.221130 0.000000 -0.013840 
#    y 0.000000 2.894170 0.000000 
#    z -0.013840 0.000000 3.423780 
# 
# 
# High freq. dielectric constant tensor:
#      x y z
#    x 1.648680 0.000000 0.002140 
#    y 0.000000 1.614240 0.000000 
#    z 0.002140 0.000000 1.659960 
# 
# From -- ./inp_files/239728.got.cif
#   From: 2010.06.25/outbox.cif.g09.slc.cpg/sg12_120_cif.got.tgz:239728.got - 2010.06.28 00:19:55.
