data_PCOD8087748
_publ_section_title
;
Structure prediction by ZEFSAII (Michael W. Deem and Ramdas Pophale) SiO2 
 PCOD8087748
Probable space group: C 2/M
;
_chemical_formula_sum "Si O2"
_cell_formula_units_Z 48
_cell_length_a 22.688456
_cell_length_b 8.712727
_cell_length_c 13.835891
_cell_angle_alpha 90.000000
_cell_angle_beta 102.185343
_cell_angle_gamma 90.000000
_cell_volume 2673.434713
_symmetry_space_group_name_H-M "C 2/M"
_symmetry_group_IT_number 12
_symmetry_cell_setting 'monoclinic'
loop_
_space_group_symop_operation_xyz
x,y,z
-x,y,-z
-x,-y,-z
x,-y,z
1/2+x,1/2+y,z
1/2-x,1/2+y,-z
1/2-x,1/2-y,-z
1/2+x,1/2-y,z
loop_
_atom_site_type_symbol
_atom_site_label
_atom_site_fract_x
_atom_site_fract_y
_atom_site_fract_z
Si Si1 0.635240 0.821284 0.817952
Si Si2 0.265733 0.674946 0.774743
Si Si3 0.297600 0.178652 0.588352
Si Si4 0.924731 0.681902 0.553562
Si Si5 0.450900 0.680807 0.361754
Si Si6 0.312272 0.677878 0.991079
O O1 0.699353 0.783865 0.790874
O O2 0.583425 0.725598 0.747482
O O3 0.635775 0.765797 0.930534
O O4 0.619588 0.000000 0.808523
O O5 0.266543 0.500000 0.738077
O O6 0.282148 0.785499 0.693271
O O7 0.316337 0.698596 0.876267
O O8 0.250000 0.250000 0.500000
O O9 0.364474 0.238092 0.586475
O O10 0.294667 0.000000 0.569914
O O11 0.934680 0.500000 0.563345
O O12 0.919899 0.730548 0.440022
O O13 0.979794 0.768058 0.624642
O O14 0.447344 0.500000 0.378937
O O15 0.313327 0.500000 0.020057
O O16 0.250000 0.750000 0.000000
#
# Coordination Sequence:
#
# PCOD8087748 Si02
#       6
#     8   8   8   8   8   8
#     4  10  19  32  51  76 104 135 167 205 251 298
#     4   9  19  33  50  73 104 136 165 201 249 295
#     4  11  23  35  52  75 101 134 169 202 244 295
#     4  10  21  37  52  71 101 135 167 204 250 298
#     4  11  21  33  53  78  99 128 168 210 251 295
#     4   9  17  30  48  73 102 133 167 206 250 296
#
# _framework density 17.954431
#
# number of rings (size 3 to 8) (size 9 to 14) (size 15 to 20)
#    0.000    2.000    0.000    6.500    0.000   10.667 
#    0.000    0.000    0.000    1.000    0.000    7.000 
#    0.000    0.000    0.000    0.000    0.000    0.000 
#
# Total GULP energy -297576.636613 kJ/mol
# GULP energy per Si atom -12399.026526 kJ/mol
# Density = 1.791357 g / cm^3
# Si number density = 17.954431 Si / 1000 Ang^3
#
#
#
# Elastic Constant Matrix: (Units=GPa)
#
#
# Indices 1 2 3 4 5 6 
#
# 1 73.2471 31.3378 40.4408 0.0000 3.8686 0.0000
# 2 31.3378 64.4833 26.4495 0.0000 4.7530 0.0000
# 3 40.4408 26.4495 118.8581 0.0000 18.3835 0.0000
# 4 0.0000 0.0000 0.0000 36.9347 0.0000 2.9971
# 5 3.8686 4.7530 18.3835 0.0000 25.2365 0.0000
# 6 0.0000 0.0000 0.0000 2.9971 0.0000 24.8779
#
#
#
# Elastic Compliance Matrix: (Units=1/GPa)
#
#
# Indices 1 2 3 4 5 6 
#
# 1 0.019739 -0.007551 -0.005396 0.000000 0.002327 0.000000
# 2 -0.007551 0.019960 -0.001657 0.000000 -0.001395 0.000000
# 3 -0.005396 -0.001657 0.011768 0.000000 -0.007433 0.000000
# 4 0.000000 0.000000 0.000000 0.027342 0.000000 -0.003294
# 5 0.002327 -0.001395 -0.007433 0.000000 0.044946 0.000000
# 6 0.000000 0.000000 0.000000 -0.003294 0.000000 0.040593
#
#
# Mechanical properties :
#
#
# Convention : Reuss Voigt Hill
#
# Bulk Modulus (GPa) = 44.92449 50.33830 47.63140
# Shear Modulus (GPa) = 24.87872 27.96716 26.42294
#
# Velocity S-wave (km/s) = 3.72648 3.95102 3.84039
# Velocity P-wave (km/s) = 6.60237 6.99369 6.80084
#
# Compressibility (1/GPa) = 0.02225958
#
# Stress axis : x y z
#
# Youngs Moduli (GPa) = 50.66041 50.10006 84.97954
#
# Poissons Ratio (x) = 0.37832 0.45852
# Poissons Ratio (y) = 0.38255 0.14079
# Poissons Ratio (z) = 0.27335 0.08300
#
# Static dielectric constant tensor:
#      x y z
#    x 3.295600 0.000000 0.026480 
#    y 0.000000 3.520830 0.000000 
#    z 0.026480 0.000000 3.737590 
# 
# 
# High freq. dielectric constant tensor:
#      x y z
#    x 1.660500 0.000000 0.015830 
#    y 0.000000 1.709730 0.000000 
#    z 0.015830 0.000000 1.705190 
# 
# From -- ./inp_files/236839.got.cif
#   From: 2010.06.25/outbox.cif.g09.slc.cpg/sg12_119_cif.got.tgz:236839.got - 2010.06.28 00:19:55.
