data_PCOD8087119
_publ_section_title
;
Structure prediction by ZEFSAII (Michael W. Deem and Ramdas Pophale) SiO2 
 PCOD8087119
Probable space group: C 2/M
;
_chemical_formula_sum "Si O2"
_cell_formula_units_Z 56
_cell_length_a 13.925678
_cell_length_b 13.486328
_cell_length_c 22.533296
_cell_angle_alpha 90.000000
_cell_angle_beta 131.496034
_cell_angle_gamma 90.000000
_cell_volume 3169.695370
_symmetry_space_group_name_H-M "C 2/M"
_symmetry_group_IT_number 12
_symmetry_cell_setting 'monoclinic'
loop_
_space_group_symop_operation_xyz
x,y,z
-x,y,-z
-x,-y,-z
x,-y,z
1/2+x,1/2+y,z
1/2-x,1/2+y,-z
1/2-x,1/2-y,-z
1/2+x,1/2-y,z
loop_
_atom_site_type_symbol
_atom_site_label
_atom_site_fract_x
_atom_site_fract_y
_atom_site_fract_z
Si Si1 0.169977 0.886817 0.434614
Si Si2 0.592967 0.615037 0.274124
Si Si3 0.932202 0.286524 0.534626
Si Si4 0.154528 0.613286 0.688392
Si Si5 0.327808 0.613921 0.866320
Si Si6 0.222123 0.385629 0.950695
Si Si7 0.556144 0.702743 0.889083
O O1 0.084899 0.865351 0.341031
O O2 0.121748 0.820436 0.469052
O O3 0.318561 0.865729 0.481658
O O4 0.155227 0.000000 0.448474
O O5 0.574246 0.500000 0.250193
O O6 0.732200 0.649691 0.308526
O O7 0.484215 0.675992 0.194722
O O8 0.000000 0.275057 0.500000
O O9 0.029526 0.321388 0.625502
O O10 0.118489 0.500000 0.659834
O O11 0.199330 0.627373 0.774667
O O12 0.376210 0.500000 0.882221
O O13 0.294374 0.643941 0.919426
O O14 0.441032 0.683700 0.888278
O O15 0.178577 0.500000 0.932943
O O16 0.095101 0.318724 0.906896
O O17 0.320965 0.364384 0.044313
#
# Coordination Sequence:
#
# PCOD8087119 Si02
#       7
#     8   8   8   8   8   8   8
#     4  10  22  36  52  77 105 134 169 210 255 302
#     4   9  17  32  53  77 102 131 169 214 253 295
#     4  11  21  34  55  77 101 134 170 210 255 304
#     4   9  17  30  53  79 101 130 168 213 254 294
#     4   9  18  33  53  77 103 133 171 213 253 297
#     4  10  20  33  52  79 105 135 172 210 254 300
#     4  10  19  31  54  78 104 136 170 212 253 299
#
# _framework density 17.667313
#
# number of rings (size 3 to 8) (size 9 to 14) (size 15 to 20)
#    0.000    2.286    1.429    3.000    2.000    2.000 
#    0.000    0.000    0.000   12.000    0.000    0.000 
#    0.000    0.000    0.000    0.000    0.000    0.000 
#
# Total GULP energy -347220.982404 kJ/mol
# GULP energy per Si atom -12400.749372 kJ/mol
# Density = 1.762710 g / cm^3
# Si number density = 17.667313 Si / 1000 Ang^3
#
#
#
# Elastic Constant Matrix: (Units=GPa)
#
#
# Indices 1 2 3 4 5 6 
#
# 1 60.0387 38.0474 25.0321 0.0000 10.3261 0.0000
# 2 38.0474 94.8208 45.5881 0.0000 9.5071 0.0000
# 3 25.0321 45.5881 106.6166 0.0000 9.7541 0.0000
# 4 0.0000 0.0000 0.0000 26.7437 0.0000 2.2897
# 5 10.3261 9.5071 9.7541 0.0000 15.7275 0.0000
# 6 0.0000 0.0000 0.0000 2.2897 0.0000 22.3481
#
#
#
# Elastic Compliance Matrix: (Units=1/GPa)
#
#
# Indices 1 2 3 4 5 6 
#
# 1 0.024002 -0.007995 -0.001290 0.000000 -0.010126 0.000000
# 2 -0.007995 0.016286 -0.004947 0.000000 -0.001527 0.000000
# 3 -0.001290 -0.004947 0.012135 0.000000 -0.003689 0.000000
# 4 0.000000 0.000000 0.000000 0.037723 0.000000 -0.003865
# 5 -0.010126 -0.001527 -0.003689 0.000000 0.073442 0.000000
# 6 0.000000 0.000000 0.000000 -0.003865 0.000000 0.045143
#
#
# Mechanical properties :
#
#
# Convention : Reuss Voigt Hill
#
# Bulk Modulus (GPa) = 41.73943 53.20127 47.47035
# Shear Modulus (GPa) = 20.39307 23.15108 21.77208
#
# Velocity S-wave (km/s) = 3.40116 3.62386 3.51427
# Velocity P-wave (km/s) = 6.25303 6.90565 6.58743
#
# Compressibility (1/GPa) = 0.02395816
#
# Stress axis : x y z
#
# Youngs Moduli (GPa) = 41.66284 61.40298 82.40654
#
# Poissons Ratio (x) = 0.49095 0.10633
# Poissons Ratio (y) = 0.33311 0.40764
# Poissons Ratio (z) = 0.05376 0.30374
#
# Static dielectric constant tensor:
#      x y z
#    x 3.024050 0.000000 -0.072360 
#    y 0.000000 3.114930 0.000000 
#    z -0.072360 0.000000 3.444130 
# 
# 
# High freq. dielectric constant tensor:
#      x y z
#    x 1.660490 0.000000 -0.009460 
#    y 0.000000 1.667900 0.000000 
#    z -0.009460 0.000000 1.699750 
# 
# From -- ./inp_files/263245.got.cif
#   From: 2010.06.25/outbox.cif.g09.slc.cpg/sg12_132_cif.got.tgz:263245.got - 2010.06.28 00:19:55.
