data_PCOD8087023
_publ_section_title
;
Structure prediction by ZEFSAII (Michael W. Deem and Ramdas Pophale) SiO2 
 PCOD8087023
Probable space group: C 2/M
;
_chemical_formula_sum "Si O2"
_cell_formula_units_Z 64
_cell_length_a 33.273061
_cell_length_b 8.887363
_cell_length_c 21.275776
_cell_angle_alpha 90.000000
_cell_angle_beta 145.749002
_cell_angle_gamma 90.000000
_cell_volume 3540.952377
_symmetry_space_group_name_H-M "C 2/M"
_symmetry_group_IT_number 12
_symmetry_cell_setting 'monoclinic'
loop_
_space_group_symop_operation_xyz
x,y,z
-x,y,-z
-x,-y,-z
x,-y,z
1/2+x,1/2+y,z
1/2-x,1/2+y,-z
1/2-x,1/2-y,-z
1/2+x,1/2-y,z
loop_
_atom_site_type_symbol
_atom_site_label
_atom_site_fract_x
_atom_site_fract_y
_atom_site_fract_z
Si Si1 0.358176 0.175033 0.657629
Si Si2 0.519863 0.675353 0.249015
Si Si3 0.727951 0.325997 0.826266
Si Si4 0.961577 0.675254 0.595461
Si Si5 0.244748 0.675506 0.591394
Si Si6 0.142099 0.824291 0.941498
Si Si7 0.623411 0.824560 0.785528
Si Si8 0.174856 0.173956 0.619560
O O1 0.436955 0.246458 0.751829
O O2 0.319779 0.253695 0.666757
O O3 0.314777 0.208050 0.537905
O O4 0.365110 0.000000 0.681332
O O5 0.537569 0.500000 0.273201
O O6 0.546550 0.746090 0.348223
O O7 0.436081 0.706754 0.131041
O O8 0.730436 0.500000 0.848688
O O9 0.662620 0.248375 0.777538
O O10 0.717209 0.303469 0.738644
O O11 0.802502 0.248412 0.939120
O O12 0.946083 0.500000 0.585426
O O13 0.902136 0.745488 0.472951
O O14 0.039296 0.704271 0.666430
O O15 0.255717 0.500000 0.617190
O O16 0.221988 0.752046 0.626423
O O17 0.151356 0.750246 0.885410
O O18 0.157686 0.000000 0.954136
O O19 0.641459 0.000000 0.812640
O O20 0.162174 0.000000 0.587532
#
# Coordination Sequence:
#
# PCOD8087023 Si02
#       8
#     8   8   8   8   8   8   8   8
#     4  10  19  31  52  82 113 143 176 214 262 314
#     4  10  19  32  54  82 111 140 174 219 269 317
#     4  11  24  39  55  77 105 143 185 223 269 321
#     4  10  20  34  53  79 108 141 178 216 268 321
#     4  10  20  33  52  79 111 145 178 215 260 314
#     4  10  21  37  58  82 107 139 179 226 273 315
#     4  10  21  37  58  81 107 138 176 227 274 318
#     4  11  23  37  54  76 109 147 180 219 266 320
#
# _framework density 18.074233
#
# number of rings (size 3 to 8) (size 9 to 14) (size 15 to 20)
#    0.000    1.750    1.250    3.375    0.000    6.500 
#    0.000    2.500    0.000    0.750    0.000    5.250 
#    0.000    0.000    0.000    0.000    0.000    0.000 
#
# Total GULP energy -396943.802900 kJ/mol
# GULP energy per Si atom -12404.493841 kJ/mol
# Density = 1.803310 g / cm^3
# Si number density = 18.074233 Si / 1000 Ang^3
#
#
#
# Elastic Constant Matrix: (Units=GPa)
#
#
# Indices 1 2 3 4 5 6 
#
# 1 123.4343 72.7721 49.4299 0.0000 11.5419 0.0000
# 2 72.7721 142.2861 51.3043 0.0000 1.5374 0.0000
# 3 49.4299 51.3043 74.7021 0.0000 0.9223 0.0000
# 4 0.0000 0.0000 0.0000 29.1614 0.0000 2.8166
# 5 11.5419 1.5374 0.9223 0.0000 19.6557 0.0000
# 6 0.0000 0.0000 0.0000 2.8166 0.0000 35.5988
#
#
#
# Elastic Compliance Matrix: (Units=1/GPa)
#
#
# Indices 1 2 3 4 5 6 
#
# 1 0.014100 -0.005049 -0.005768 0.000000 -0.007614 0.000000
# 2 -0.005049 0.011153 -0.004347 0.000000 0.002297 0.000000
# 3 -0.005768 -0.004347 0.020154 0.000000 0.002781 0.000000
# 4 0.000000 0.000000 0.000000 0.034556 0.000000 -0.002734
# 5 -0.007614 0.002297 0.002781 0.000000 0.055037 0.000000
# 6 0.000000 0.000000 0.000000 -0.002734 0.000000 0.028307
#
#
# Mechanical properties :
#
#
# Convention : Reuss Voigt Hill
#
# Bulk Modulus (GPa) = 66.31920 76.38169 71.35044
# Shear Modulus (GPa) = 25.16820 28.01092 26.58956
#
# Velocity S-wave (km/s) = 3.73566 3.94098 3.83969
# Velocity P-wave (km/s) = 7.44172 7.94105 7.69543
#
# Compressibility (1/GPa) = 0.01507859
#
# Stress axis : x y z
#
# Youngs Moduli (GPa) = 70.92040 89.66000 49.61695
#
# Poissons Ratio (x) = 0.45274 0.28620
# Poissons Ratio (y) = 0.35811 0.21569
# Poissons Ratio (z) = 0.40908 0.38975
#
# Static dielectric constant tensor:
#      x y z
#    x 3.372110 0.000000 0.222840 
#    y 0.000000 3.540770 0.000000 
#    z 0.222840 0.000000 3.162020 
# 
# 
# High freq. dielectric constant tensor:
#      x y z
#    x 1.703290 0.000000 0.019660 
#    y 0.000000 1.722630 0.000000 
#    z 0.019660 0.000000 1.674870 
# 
# From -- ./inp_files/295754.got.cif
#   From: 2010.06.25/outbox.cif.g09.slc.cpg/sg12_148_cif.got.tgz:295754.got - 2010.06.28 00:19:55.
