data_PCOD8087217
_publ_section_title
;
Structure prediction by ZEFSAII (Michael W. Deem and Ramdas Pophale) SiO2 
 PCOD8087217
Probable space group: C 2/M
;
_chemical_formula_sum "Si O2"
_cell_formula_units_Z 56
_cell_length_a 31.994937
_cell_length_b 9.187991
_cell_length_c 14.927572
_cell_angle_alpha 90.000000
_cell_angle_beta 134.379724
_cell_angle_gamma 90.000000
_cell_volume 3136.368420
_symmetry_space_group_name_H-M "C 2/M"
_symmetry_group_IT_number 12
_symmetry_cell_setting 'monoclinic'
loop_
_space_group_symop_operation_xyz
x,y,z
-x,y,-z
-x,-y,-z
x,-y,z
1/2+x,1/2+y,z
1/2-x,1/2+y,-z
1/2-x,1/2-y,-z
1/2+x,1/2-y,z
loop_
_atom_site_type_symbol
_atom_site_label
_atom_site_fract_x
_atom_site_fract_y
_atom_site_fract_z
Si Si1 0.931374 0.673661 0.074868
Si Si2 0.706508 0.833015 0.822436
Si Si3 0.677935 0.171392 0.976900
Si Si4 0.242434 0.669174 0.396171
Si Si5 0.608890 0.831145 0.174316
Si Si6 0.560581 0.827127 0.287883
Si Si7 0.161623 0.331488 0.567425
O O1 0.928482 0.500000 0.069395
O O2 0.880611 0.733980 0.064099
O O3 0.994445 0.729031 0.204727
O O4 0.922788 0.734973 0.960874
O O5 0.675034 0.785822 0.867499
O O6 0.659868 0.809571 0.672195
O O7 0.726499 0.000000 0.858101
O O8 0.764899 0.740702 0.892021
O O9 0.682671 0.000000 0.998936
O O10 0.256268 0.500000 0.430885
O O11 0.250000 0.750000 0.500000
O O12 0.177345 0.695117 0.263261
O O13 0.285212 0.735709 0.387462
O O14 0.585701 0.759859 0.232292
O O15 0.593705 0.000000 0.157232
O O16 0.601123 0.776277 0.431827
O O17 0.561160 0.000000 0.283004
O O18 0.172827 0.500000 0.558518
#
# Coordination Sequence:
#
# PCOD8087217 Si02
#       7
#     8   8   8   8   8   8   8
#     4   9  16  26  44  68  92 119 156 200 235 267
#     4   9  18  31  49  70  96 126 151 188 245 291
#     4   9  17  31  49  72  95 117 157 203 236 277
#     4  11  20  31  48  71  98 126 156 194 235 276
#     4   9  16  26  42  66  92 120 154 190 231 275
#     4   9  16  27  42  63  94 126 155 191 233 277
#     4  10  19  32  47  68  97 128 157 188 234 290
#
# _framework density 17.855043999999999
#
# number of rings (size 3 to 8) (size 9 to 14) (size 15 to 20)
#    0.000    2.571    1.429    1.714    0.000    3.429 
#    0.000    0.714    0.000    5.143    0.000    1.000 
#    0.000    5.714    0.000    0.000    0.000    0.000 
#
# Total GULP energy -347083.166586 kJ/mol
# GULP energy per Si atom -12395.827378 kJ/mol
# Density = 1.781441 g / cm^3
# Si number density = 17.855044 Si / 1000 Ang^3
#
#
#
# Elastic Constant Matrix: (Units=GPa)
#
#
# Indices 1 2 3 4 5 6 
#
# 1 114.3286 17.5361 78.2553 0.0000 5.6766 0.0000
# 2 17.5361 27.6717 23.5736 0.0000 2.5137 0.0000
# 3 78.2553 23.5736 150.3254 0.0000 -1.8575 0.0000
# 4 0.0000 0.0000 0.0000 16.3784 0.0000 0.8797
# 5 5.6766 2.5137 -1.8575 0.0000 24.5721 0.0000
# 6 0.0000 0.0000 0.0000 0.8797 0.0000 19.0941
#
#
#
# Elastic Compliance Matrix: (Units=1/GPa)
#
#
# Indices 1 2 3 4 5 6 
#
# 1 0.014097 -0.002685 -0.006961 0.000000 -0.003508 0.000000
# 2 -0.002685 0.042787 -0.005363 0.000000 -0.004162 0.000000
# 3 -0.006961 -0.005363 0.011154 0.000000 0.003000 0.000000
# 4 0.000000 0.000000 0.000000 0.061207 0.000000 -0.002820
# 5 -0.003508 -0.004162 0.003000 0.000000 0.042160 0.000000
# 6 0.000000 0.000000 0.000000 -0.002820 0.000000 0.052502
#
#
# Mechanical properties :
#
#
# Convention : Reuss Voigt Hill
#
# Bulk Modulus (GPa) = 26.30235 59.00618 42.65427
# Shear Modulus (GPa) = 18.75476 23.53965 21.14720
#
# Velocity S-wave (km/s) = 3.24449 3.63488 3.44522
# Velocity P-wave (km/s) = 5.36644 7.12289 6.30612
#
# Compressibility (1/GPa) = 0.03801942
#
# Stress axis : x y z
#
# Youngs Moduli (GPa) = 70.93500 23.37174 89.65315
#
# Poissons Ratio (x) = 0.06275 0.62408
# Poissons Ratio (y) = 0.19046 0.48084
# Poissons Ratio (z) = 0.49378 0.12535
#
# Static dielectric constant tensor:
#      x y z
#    x 3.437590 0.000000 -0.118290 
#    y 0.000000 3.105980 0.000000 
#    z -0.118290 0.000000 3.491460 
# 
# 
# High freq. dielectric constant tensor:
#      x y z
#    x 1.687080 0.000000 -0.005740 
#    y 0.000000 1.640490 0.000000 
#    z -0.005740 0.000000 1.700910 
# 
# From -- ./inp_files/237442.got.cif
#   From: 2010.06.25/outbox.cif.g09.slc.cpg/sg12_119_cif.got.tgz:237442.got - 2010.06.28 00:19:55.
