data_PCOD8087099
_publ_section_title
;
Structure prediction by ZEFSAII (Michael W. Deem and Ramdas Pophale) SiO2 
 PCOD8087099
Probable space group: C 2/M
;
_chemical_formula_sum "Si O2"
_cell_formula_units_Z 56
_cell_length_a 20.406429
_cell_length_b 9.205333
_cell_length_c 30.775267
_cell_angle_alpha 90.000000
_cell_angle_beta 32.314712
_cell_angle_gamma 90.000000
_cell_volume 3090.383796
_symmetry_space_group_name_H-M "C 2/M"
_symmetry_group_IT_number 12
_symmetry_cell_setting 'monoclinic'
loop_
_space_group_symop_operation_xyz
x,y,z
-x,y,-z
-x,-y,-z
x,-y,z
1/2+x,1/2+y,z
1/2-x,1/2+y,-z
1/2-x,1/2-y,-z
1/2+x,1/2-y,z
loop_
_atom_site_type_symbol
_atom_site_label
_atom_site_fract_x
_atom_site_fract_y
_atom_site_fract_z
Si Si1 0.927924 0.168548 0.665604
Si Si2 0.322118 0.668519 0.339467
Si Si3 0.584919 0.670169 0.226654
Si Si4 0.929274 0.331806 0.914113
Si Si5 0.331233 0.829794 0.490027
Si Si6 0.304395 0.169045 0.261994
Si Si7 0.760270 0.668694 0.926939
O O1 0.910999 0.209676 0.725143
O O2 0.802260 0.205674 0.711898
O O3 0.032288 0.267208 0.585964
O O4 0.965113 0.000000 0.639710
O O5 0.328505 0.500000 0.324496
O O6 0.455225 0.723882 0.280261
O O7 0.224251 0.700700 0.431699
O O8 0.277117 0.751429 0.322229
O O9 0.604653 0.500000 0.207645
O O10 0.694918 0.756399 0.142316
O O11 0.920380 0.500000 0.932314
O O12 0.861785 0.301259 0.906611
O O13 0.068633 0.278195 0.830729
O O14 0.868631 0.238384 0.986455
O O15 0.250000 0.750000 0.500000
O O16 0.332181 0.000000 0.478542
O O17 0.313207 0.000000 0.267941
O O18 0.739079 0.500000 0.930056
#
# Coordination Sequence:
#
# PCOD8087099 Si02
#       7
#     8   8   8   8   8   8   8
#     4  10  22  40  59  82 114 150 187 228 280 334
#     4  10  21  36  57  82 111 146 184 228 279 330
#     4  10  19  35  56  80 110 146 184 226 274 330
#     4   9  18  33  52  79 111 143 180 225 278 329
#     4  11  22  38  59  85 114 147 188 234 279 328
#     4  10  21  38  59  83 113 148 187 231 275 331
#     4  10  19  31  53  84 110 138 184 234 274 322
#
# _framework density 18.120726000000001
#
# number of rings (size 3 to 8) (size 9 to 14) (size 15 to 20)
#    0.000    2.000    2.857    0.857    0.000    4.000 
#    0.000    3.571    0.000    4.286    0.000    0.000 
#    0.000    0.000    0.000    0.000    0.000    0.000 
#
# Total GULP energy -347326.294442 kJ/mol
# GULP energy per Si atom -12404.510516 kJ/mol
# Density = 1.807948 g / cm^3
# Si number density = 18.120726 Si / 1000 Ang^3
#
#
#
# Elastic Constant Matrix: (Units=GPa)
#
#
# Indices 1 2 3 4 5 6 
#
# 1 81.1696 33.8915 51.9643 -0.0002 4.1894 -0.0076
# 2 33.8915 71.3066 69.2994 0.0012 7.0245 0.0014
# 3 51.9643 69.2994 153.4305 -0.0005 3.1225 0.0000
# 4 -0.0002 0.0012 -0.0005 37.2140 0.0007 2.4800
# 5 4.1894 7.0245 3.1225 0.0007 27.4193 -0.0026
# 6 -0.0076 0.0014 0.0000 2.4800 -0.0026 26.4222
#
#
#
# Elastic Compliance Matrix: (Units=1/GPa)
#
#
# Indices 1 2 3 4 5 6 
#
# 1 0.016461 -0.004143 -0.003683 0.000000 -0.001034 0.000005
# 2 -0.004143 0.026780 -0.010590 -0.000001 -0.005022 -0.000003
# 3 -0.003683 -0.010590 0.012511 0.000000 0.001851 0.000000
# 4 0.000000 -0.000001 0.000000 0.027041 -0.000001 -0.002538
# 5 -0.001034 -0.005022 0.001851 -0.000001 0.037704 0.000004
# 6 0.000005 -0.000003 0.000000 -0.002538 0.000004 0.038085
#
#
# Mechanical properties :
#
#
# Convention : Reuss Voigt Hill
#
# Bulk Modulus (GPa) = 52.85536 68.46856 60.66196
# Shear Modulus (GPa) = 24.78692 28.26120 26.52406
#
# Velocity S-wave (km/s) = 3.70249 3.95347 3.83004
# Velocity P-wave (km/s) = 6.89273 7.66202 7.28753
#
# Compressibility (1/GPa) = 0.01891956
#
# Stress axis : x y z
#
# Youngs Moduli (GPa) = 60.75078 37.34161 79.93258
#
# Poissons Ratio (x) = 0.15469 0.29438
# Poissons Ratio (y) = 0.25166 0.84651
# Poissons Ratio (z) = 0.22374 0.39546
#
# Static dielectric constant tensor:
#      x y z
#    x 3.182190 0.000000 -0.024690 
#    y 0.000000 3.340310 0.000000 
#    z -0.024690 0.000000 3.500260 
# 
# 
# High freq. dielectric constant tensor:
#      x y z
#    x 1.685860 0.000000 0.003340 
#    y 0.000000 1.701200 0.000000 
#    z 0.003340 0.000000 1.715030 
# 
# From -- ./inp_files/275009.got.cif
#   From: 2010.06.25/outbox.cif.g09.slc.cpg/sg12_138_cif.got.tgz:275009.got - 2010.06.28 00:19:55.
