data_PCOD8087708
_publ_section_title
;
Structure prediction by ZEFSAII (Michael W. Deem and Ramdas Pophale) SiO2 
 PCOD8087708
Probable space group: C 2/M
;
_chemical_formula_sum "Si O2"
_cell_formula_units_Z 56
_cell_length_a 14.596143
_cell_length_b 15.127424
_cell_length_c 14.755956
_cell_angle_alpha 90.000000
_cell_angle_beta 54.366798
_cell_angle_gamma 90.000000
_cell_volume 2648.100860
_symmetry_space_group_name_H-M "C 2/M"
_symmetry_group_IT_number 12
_symmetry_cell_setting 'monoclinic'
loop_
_space_group_symop_operation_xyz
x,y,z
-x,y,-z
-x,-y,-z
x,-y,z
1/2+x,1/2+y,z
1/2-x,1/2+y,-z
1/2-x,1/2-y,-z
1/2+x,1/2-y,z
loop_
_atom_site_type_symbol
_atom_site_label
_atom_site_fract_x
_atom_site_fract_y
_atom_site_fract_z
Si Si1 0.418623 0.719206 0.376223
Si Si2 0.131088 0.095431 0.446619
Si Si3 0.920340 0.099832 0.213808
Si Si4 0.735915 0.855040 0.188001
Si Si5 0.505211 0.099871 0.603479
Si Si6 0.322323 0.334259 0.760981
Si Si7 0.325167 0.601084 0.953051
O O1 0.341837 0.675683 0.499899
O O2 0.372337 0.675706 0.309734
O O3 0.417517 0.826663 0.388084
O O4 0.545569 0.685575 0.310214
O O5 0.201883 0.105497 0.312703
O O6 0.000000 0.097283 0.500000
O O7 0.163709 0.000000 0.470398
O O8 0.839130 0.092973 0.173978
O O9 0.044549 0.129100 0.110564
O O10 0.926123 0.000000 0.254236
O O11 0.619225 0.900959 0.282686
O O12 0.744095 0.755456 0.218139
O O13 0.748703 0.849643 0.071569
O O14 0.500000 0.125464 0.500000
O O15 0.555495 0.000000 0.586330
O O16 0.280603 0.380051 0.877344
O O17 0.308057 0.500000 0.985720
#
# Coordination Sequence:
#
# PCOD8087708 Si02
#       7
#     8   8   8   8   8   8   8
#     4   9  17  31  50  74 101 133 170 208 255 306
#     4   9  15  27  49  73  99 131 165 205 255 303
#     4  10  20  33  51  78 109 137 169 212 261 312
#     4  11  20  33  52  75 104 139 174 212 260 308
#     4  10  20  35  54  74 100 137 180 220 254 298
#     4   9  18  30  47  74 103 130 167 213 255 305
#     4  10  19  32  51  75 103 134 171 215 263 311
#
# _framework density 21.147231000000001
#
# number of rings (size 3 to 8) (size 9 to 14) (size 15 to 20)
#    0.000    2.286    0.000    5.143    0.000    4.571 
#    0.000    2.857    0.000    3.429    0.000    0.000 
#    0.000   12.571    0.000    0.000    0.000    0.000 
#
# Total GULP energy -346980.062178 kJ/mol
# GULP energy per Si atom -12392.145078 kJ/mol
# Density = 2.109910 g / cm^3
# Si number density = 21.147231 Si / 1000 Ang^3
#
#
#
# Elastic Constant Matrix: (Units=GPa)
#
#
# Indices 1 2 3 4 5 6 
#
# 1 25.8736 10.1564 21.4681 0.0000 6.6361 0.0000
# 2 10.1564 117.2619 39.7639 0.0000 13.4685 0.0000
# 3 21.4681 39.7639 149.3686 0.0000 21.7096 0.0000
# 4 0.0000 0.0000 0.0000 25.4718 0.0000 7.3446
# 5 6.6361 13.4685 21.7096 0.0000 20.4817 0.0000
# 6 0.0000 0.0000 0.0000 7.3446 0.0000 18.9509
#
#
#
# Elastic Compliance Matrix: (Units=1/GPa)
#
#
# Indices 1 2 3 4 5 6 
#
# 1 0.045466 -0.001269 -0.004938 0.000000 -0.008663 0.000000
# 2 -0.001269 0.009719 -0.001816 0.000000 -0.004056 0.000000
# 3 -0.004938 -0.001816 0.008844 0.000000 -0.006581 0.000000
# 4 0.000000 0.000000 0.000000 0.044198 0.000000 -0.017129
# 5 -0.008663 -0.004056 -0.006581 0.000000 0.061273 0.000000
# 6 0.000000 0.000000 0.000000 -0.017129 0.000000 0.059406
#
#
# Mechanical properties :
#
#
# Convention : Reuss Voigt Hill
#
# Bulk Modulus (GPa) = 20.83940 48.36454 34.60197
# Shear Modulus (GPa) = 19.16096 27.72194 23.44145
#
# Velocity S-wave (km/s) = 3.01337 3.62457 3.33301
# Velocity P-wave (km/s) = 4.68861 6.35898 5.58658
#
# Compressibility (1/GPa) = 0.04798603
#
# Stress axis : x y z
#
# Youngs Moduli (GPa) = 21.99430 102.88795 113.06653
#
# Poissons Ratio (x) = 0.13052 0.55831
# Poissons Ratio (y) = 0.02790 0.20528
# Poissons Ratio (z) = 0.10860 0.18680
#
# Static dielectric constant tensor:
#      x y z
#    x 3.257930 0.000000 0.185350 
#    y 0.000000 3.988750 0.000000 
#    z 0.185350 0.000000 3.986050 
# 
# 
# High freq. dielectric constant tensor:
#      x y z
#    x 1.774320 0.000000 0.015230 
#    y 0.000000 1.838700 0.000000 
#    z 0.015230 0.000000 1.834680 
# 
# From -- ./inp_files/225209.got.cif
#   From: 2010.06.25/outbox.cif.g09.slc.cpg/sg12_113_cif.got.tgz:225209.got - 2010.06.28 00:19:55.
