data_PCOD8087169
_publ_section_title
;
Structure prediction by ZEFSAII (Michael W. Deem and Ramdas Pophale) SiO2 
 PCOD8087169
Probable space group: C 2/M
;
_chemical_formula_sum "Si O2"
_cell_formula_units_Z 64
_cell_length_a 20.566707
_cell_length_b 8.529799
_cell_length_c 20.156951
_cell_angle_alpha 90.000000
_cell_angle_beta 66.669306
_cell_angle_gamma 90.000000
_cell_volume 3246.997350
_symmetry_space_group_name_H-M "C 2/M"
_symmetry_group_IT_number 12
_symmetry_cell_setting 'monoclinic'
loop_
_space_group_symop_operation_xyz
x,y,z
-x,y,-z
-x,-y,-z
x,-y,z
1/2+x,1/2+y,z
1/2-x,1/2+y,-z
1/2-x,1/2-y,-z
1/2+x,1/2-y,z
loop_
_atom_site_type_symbol
_atom_site_label
_atom_site_fract_x
_atom_site_fract_y
_atom_site_fract_z
Si Si1 0.581894 0.182364 0.469313
Si Si2 0.347214 0.816116 0.916590
Si Si3 0.647734 0.684934 0.312133
Si Si4 0.401689 0.815366 0.295890
Si Si5 0.945671 0.182074 0.775901
Si Si6 0.704137 0.185074 0.924350
Si Si7 0.326542 0.315905 0.452249
Si Si8 0.194503 0.313947 0.783414
O O1 0.500000 0.231260 0.500000
O O2 0.616414 0.216725 0.384886
O O3 0.619437 0.286392 0.509796
O O4 0.591012 0.000000 0.483630
O O5 0.421505 0.770890 0.852872
O O6 0.285045 0.735992 0.900265
O O7 0.335286 0.000000 0.919759
O O8 0.344433 0.755888 0.994531
O O9 0.642194 0.500000 0.329383
O O10 0.604024 0.732079 0.264679
O O11 0.727945 0.743030 0.270065
O O12 0.475081 0.726594 0.274762
O O13 0.351750 0.775733 0.377323
O O14 0.364128 0.751910 0.244147
O O15 0.415527 0.000000 0.287431
O O16 0.939948 0.000000 0.792906
O O17 0.676168 0.250842 0.864868
O O18 0.703944 0.000000 0.921109
O O19 0.322406 0.500000 0.439246
O O20 0.250000 0.250000 0.500000
O O21 0.194748 0.500000 0.783042
#
# Coordination Sequence:
#
# PCOD8087169 Si02
#       8
#     8   8   8   8   8   8   8   8
#     4  11  24  40  59  86 119 152 190 244 299 348
#     4  10  19  31  55  88 117 149 192 242 291 340
#     4  10  20  36  60  84 108 147 195 238 287 349
#     4  11  23  39  61  87 118 152 193 244 294 348
#     4  11  22  38  59  83 119 161 196 236 291 353
#     4   9  17  34  57  83 116 152 192 237 289 350
#     4  12  25  43  65  88 117 157 201 242 294 354
#     4   9  18  36  59  83 110 148 190 235 287 343
#
# _framework density 19.710518
#
# number of rings (size 3 to 8) (size 9 to 14) (size 15 to 20)
#    0.000    1.625    1.250    4.125    0.000    5.500 
#    0.000    2.500    0.000    3.750    0.000    0.000 
#    0.000    0.000    0.000    0.000    0.000    0.000 
#
# Total GULP energy -396857.988206 kJ/mol
# GULP energy per Si atom -12401.812131 kJ/mol
# Density = 1.966566 g / cm^3
# Si number density = 19.710518 Si / 1000 Ang^3
#
#
#
# Elastic Constant Matrix: (Units=GPa)
#
#
# Indices 1 2 3 4 5 6 
#
# 1 89.0414 14.9054 25.7678 -0.0002 9.6749 -0.0005
# 2 14.9054 5.8688 8.9596 -0.0005 15.1482 -0.0011
# 3 25.7678 8.9596 114.8053 -0.0001 18.5332 -0.0002
# 4 -0.0002 -0.0005 -0.0001 28.9738 0.0000 -0.5322
# 5 9.6749 15.1482 18.5332 0.0000 19.2276 -0.0002
# 6 -0.0005 -0.0011 -0.0002 -0.5322 -0.0002 26.3397
#
#
#
# Elastic Compliance Matrix: (Units=1/GPa)
#
#
# Indices 1 2 3 4 5 6 
#
# 1 0.010869 0.014008 -0.001028 0.000000 -0.015514 0.000001
# 2 0.014008 -0.138350 -0.010427 -0.000003 0.111999 -0.000005
# 3 -0.001028 -0.010427 0.009883 0.000000 -0.000794 0.000000
# 4 0.000000 -0.000003 0.000000 0.034527 0.000002 0.000698
# 5 -0.015514 0.111999 -0.000794 0.000002 -0.027657 0.000004
# 6 0.000001 -0.000005 0.000000 0.000698 0.000004 0.037980
#
#
# Mechanical properties :
#
#
# Convention : Reuss Voigt Hill
#
# Bulk Modulus (GPa) = -8.88943 34.33125 12.72091
# Shear Modulus (GPa) = -43.34605 25.58041 -8.88282
#
# Velocity S-wave (km/s) = -4.69458 3.60641 -2.12519
# Velocity P-wave (km/s) = 5.82282 5.89891 0.66782
#
# Compressibility (1/GPa) = -0.11249321
#
# Stress axis : x y z
#
# Youngs Moduli (GPa) = 92.00385 -7.22804 101.18266
#
# Poissons Ratio (x) = 0.10125 0.10405
# Poissons Ratio (y) = -1.28877 1.05504
# Poissons Ratio (z) = 0.09461 -0.07537
#
# Static dielectric constant tensor:
#      x y z
#    x 3.756590 0.000000 0.233770 
#    y 0.000000 3.430280 0.000000 
#    z 0.233770 0.000000 3.960660 
# 
# 
# High freq. dielectric constant tensor:
#      x y z
#    x 1.760190 0.000000 0.005110 
#    y 0.000000 1.758850 0.000000 
#    z 0.005110 0.000000 1.787540 
# 
# From -- ./inp_files/319847.got.cif
#   From: 2010.06.25/outbox.cif.g09.slc.cpg/sg12_160_cif.got.tgz:319847.got - 2010.06.28 00:19:55.
