data_PCOD8087614
_publ_section_title
;
Structure prediction by ZEFSAII (Michael W. Deem and Ramdas Pophale) SiO2 
 PCOD8087614
Probable space group: C 2/M
;
_chemical_formula_sum "Si O2"
_cell_formula_units_Z 56
_cell_length_a 19.350555
_cell_length_b 8.917270
_cell_length_c 27.320996
_cell_angle_alpha 90.000000
_cell_angle_beta 38.970496
_cell_angle_gamma 90.000000
_cell_volume 2964.949907
_symmetry_space_group_name_H-M "C 2/M"
_symmetry_group_IT_number 12
_symmetry_cell_setting 'monoclinic'
loop_
_space_group_symop_operation_xyz
x,y,z
-x,y,-z
-x,-y,-z
x,-y,z
1/2+x,1/2+y,z
1/2-x,1/2+y,-z
1/2-x,1/2-y,-z
1/2+x,1/2-y,z
loop_
_atom_site_type_symbol
_atom_site_label
_atom_site_fract_x
_atom_site_fract_y
_atom_site_fract_z
Si Si1 0.858096 0.825208 0.213054
Si Si2 0.160228 0.828479 0.203256
Si Si3 0.768342 0.823439 0.437232
Si Si4 0.438718 0.672965 0.483968
Si Si5 0.403628 0.826569 0.086486
Si Si6 0.450452 0.325909 0.263042
Si Si7 0.386499 0.828079 0.674121
O O1 0.905095 0.747829 0.138844
O O2 0.916198 0.754546 0.229527
O O3 0.727967 0.795568 0.290606
O O4 0.883461 0.000000 0.193068
O O5 0.288707 0.802885 0.120346
O O6 0.127426 0.707295 0.261437
O O7 0.080469 0.797625 0.200754
O O8 0.142495 0.000000 0.231747
O O9 0.750000 0.750000 0.500000
O O10 0.668483 0.776245 0.457212
O O11 0.878824 0.765035 0.348761
O O12 0.770960 0.000000 0.443880
O O13 0.500000 0.707783 0.500000
O O14 0.405038 0.500000 0.496526
O O15 0.519655 0.717211 0.395801
O O16 0.427464 0.000000 0.082719
O O17 0.500000 0.755801 0.000000
O O18 0.421533 0.500000 0.274547
O O19 0.423321 0.000000 0.647094
#
# Coordination Sequence:
#
# PCOD8087614 Si02
#       7
#     8   8   8   8   8   8   8
#     4   9  18  33  53  76 100 129 168 210 254 303
#     4   9  17  32  54  74  97 132 168 202 245 302
#     4  11  22  36  54  76 105 139 177 223 274 321
#     4  11  23  36  50  71 100 135 177 221 264 313
#     4   9  18  33  53  78 106 134 164 199 245 303
#     4   9  18  33  52  73  98 131 170 211 255 304
#     4  10  19  32  51  73  97 127 167 215 262 307
#
# _framework density 18.887335
#
# number of rings (size 3 to 8) (size 9 to 14) (size 15 to 20)
#    0.000    2.286    0.000    3.000    0.000    4.286 
#    0.000    3.571    0.000    0.000    0.000    0.000 
#    0.000    0.000    0.000    0.000    0.000    0.000 
#
# Total GULP energy -347116.660376 kJ/mol
# GULP energy per Si atom -12397.023585 kJ/mol
# Density = 1.884435 g / cm^3
# Si number density = 18.887335 Si / 1000 Ang^3
#
#
#
# Elastic Constant Matrix: (Units=GPa)
#
#
# Indices 1 2 3 4 5 6 
#
# 1 130.2740 29.2031 49.9587 0.0001 -8.3804 0.0004
# 2 29.2031 38.9118 22.8630 0.0004 -1.1629 0.0013
# 3 49.9587 22.8630 111.3096 -0.0001 -7.8451 0.0001
# 4 0.0001 0.0004 -0.0001 20.0274 0.0001 2.6082
# 5 -8.3804 -1.1629 -7.8451 0.0001 23.3225 -0.0003
# 6 0.0004 0.0013 0.0001 2.6082 -0.0003 26.2652
#
#
#
# Elastic Compliance Matrix: (Units=1/GPa)
#
#
# Indices 1 2 3 4 5 6 
#
# 1 0.010393 -0.005784 -0.003312 0.000000 0.002332 0.000000
# 2 -0.005784 0.032453 -0.004202 0.000000 -0.001874 -0.000001
# 3 -0.003312 -0.004202 0.011508 0.000000 0.002471 0.000000
# 4 0.000000 0.000000 0.000000 0.050586 0.000000 -0.005023
# 5 0.002332 -0.001874 0.002471 0.000000 0.044453 0.000001
# 6 0.000000 -0.000001 0.000000 -0.005023 0.000001 0.038572
#
#
# Mechanical properties :
#
#
# Convention : Reuss Voigt Hill
#
# Bulk Modulus (GPa) = 36.02641 53.83834 44.93237
# Shear Modulus (GPa) = 22.34007 25.82104 24.08056
#
# Velocity S-wave (km/s) = 3.44293 3.70145 3.57453
# Velocity P-wave (km/s) = 5.90938 6.84358 6.39356
#
# Compressibility (1/GPa) = 0.02775742
#
# Stress axis : x y z
#
# Youngs Moduli (GPa) = 96.21928 30.81388 86.89747
#
# Poissons Ratio (x) = 0.17823 0.28782
# Poissons Ratio (y) = 0.55653 0.36513
# Poissons Ratio (z) = 0.31870 0.12948
#
# Static dielectric constant tensor:
#      x y z
#    x 3.649660 0.000000 -0.134270 
#    y 0.000000 3.327440 0.000000 
#    z -0.134270 0.000000 3.499030 
# 
# 
# High freq. dielectric constant tensor:
#      x y z
#    x 1.741480 0.000000 -0.010080 
#    y 0.000000 1.719140 0.000000 
#    z -0.010080 0.000000 1.719110 
# 
# From -- ./inp_files/342311.got.cif
#   From: 2010.06.25/outbox.cif.g09.slc.cpg/sg12_172_cif.got.tgz:342311.got - 2010.06.28 00:19:55.
