data_PCOD8087304
_publ_section_title
;
Structure prediction by ZEFSAII (Michael W. Deem and Ramdas Pophale) SiO2 
 PCOD8087304
Probable space group: C 2/M
;
_chemical_formula_sum "Si O2"
_cell_formula_units_Z 56
_cell_length_a 14.395988
_cell_length_b 9.457239
_cell_length_c 24.215353
_cell_angle_alpha 90.000000
_cell_angle_beta 128.249220
_cell_angle_gamma 90.000000
_cell_volume 2589.084748
_symmetry_space_group_name_H-M "C 2/M"
_symmetry_group_IT_number 12
_symmetry_cell_setting 'monoclinic'
loop_
_space_group_symop_operation_xyz
x,y,z
-x,y,-z
-x,-y,-z
x,-y,z
1/2+x,1/2+y,z
1/2-x,1/2+y,-z
1/2-x,1/2-y,-z
1/2+x,1/2-y,z
loop_
_atom_site_type_symbol
_atom_site_label
_atom_site_fract_x
_atom_site_fract_y
_atom_site_fract_z
Si Si1 0.300485 0.666816 0.570224
Si Si2 0.493380 0.152759 0.879367
Si Si3 0.703557 0.846373 0.030747
Si Si4 0.575103 0.662969 0.689260
Si Si5 0.530938 0.159830 0.775467
Si Si6 0.613065 0.655425 0.081424
Si Si7 0.756297 0.663854 0.660181
O O1 0.270472 0.500000 0.556443
O O2 0.250000 0.750000 0.500000
O O3 0.441164 0.693129 0.621178
O O4 0.237080 0.734987 0.600383
O O5 0.569205 0.126159 0.962401
O O6 0.571895 0.194460 0.853937
O O7 0.408629 0.282555 0.864977
O O8 0.428834 0.000000 0.842871
O O9 0.768249 0.000000 0.059999
O O10 0.750000 0.750000 0.000000
O O11 0.709073 0.761492 0.090199
O O12 0.596207 0.500000 0.710210
O O13 0.597580 0.744294 0.755247
O O14 0.666098 0.713533 0.675257
O O15 0.390242 0.186202 0.729136
O O16 0.559241 0.000000 0.768466
O O17 0.669924 0.500000 0.109674
O O18 0.500000 0.641880 0.000000
O O19 0.731467 0.500000 0.634768
#
# Coordination Sequence:
#
# PCOD8087304 Si02
#       7
#     8   8   8   8   8   8   8
#     4  10  20  34  53  79 109 140 175 213 255 301
#     4   9  18  33  51  71  98 129 162 205 257 308
#     4  10  19  32  49  69  98 130 162 204 256 308
#     4   9  19  35  54  76 106 140 174 214 257 300
#     4   9  18  34  55  76 102 135 173 213 258 311
#     4   9  17  30  49  70  92 122 161 199 244 303
#     4   9  18  35  56  76 103 139 175 212 255 305
#
# _framework density 21.629265
#
# number of rings (size 3 to 8) (size 9 to 14) (size 15 to 20)
#    0.000    2.714    0.000    1.286    0.000    4.571 
#    2.571    2.857    0.000    0.000    0.000    0.000 
#    0.000    0.000    0.000    0.000    0.000    0.000 
#
# Total GULP energy -346896.864499 kJ/mol
# GULP energy per Si atom -12389.173732 kJ/mol
# Density = 2.158004 g / cm^3
# Si number density = 21.629265 Si / 1000 Ang^3
#
#
#
# Elastic Constant Matrix: (Units=GPa)
#
#
# Indices 1 2 3 4 5 6 
#
# 1 120.9963 54.7877 24.7508 0.0000 -41.7660 0.0000
# 2 54.7877 143.1158 19.1109 0.0000 -39.6440 0.0000
# 3 24.7508 19.1109 52.2815 0.0000 -35.3612 0.0000
# 4 0.0000 0.0000 0.0000 28.5090 0.0000 -18.7097
# 5 -41.7660 -39.6440 -35.3612 0.0000 37.3017 0.0000
# 6 0.0000 0.0000 0.0000 -18.7097 0.0000 33.3898
#
#
#
# Elastic Compliance Matrix: (Units=1/GPa)
#
#
# Indices 1 2 3 4 5 6 
#
# 1 0.016058 0.000817 0.013510 0.000000 0.031655 0.000000
# 2 0.000817 0.012119 0.012579 0.000000 0.025721 0.000000
# 3 0.013510 0.012579 0.076379 0.000000 0.100901 0.000000
# 4 0.000000 0.000000 0.000000 0.055478 0.000000 0.031087
# 5 0.031655 0.025721 0.100901 0.000000 0.185240 0.000000
# 6 0.000000 0.000000 0.000000 0.031087 0.000000 0.047369
#
#
# Mechanical properties :
#
#
# Convention : Reuss Voigt Hill
#
# Bulk Modulus (GPa) = 6.31437 57.07695 31.69566
# Shear Modulus (GPa) = 12.76746 34.35638 23.56192
#
# Velocity S-wave (km/s) = 2.43222 3.98982 3.30412
# Velocity P-wave (km/s) = 3.28835 6.90442 5.40760
#
# Compressibility (1/GPa) = 0.15836904
#
# Stress axis : x y z
#
# Youngs Moduli (GPa) = 62.27427 82.51227 13.09257
#
# Poissons Ratio (x) = -0.06744 -0.17687
# Poissons Ratio (y) = -0.05090 -0.16470
# Poissons Ratio (z) = -0.84130 -1.03795
#
# Static dielectric constant tensor:
#      x y z
#    x 3.991500 0.000000 -0.074580 
#    y 0.000000 4.202950 0.000000 
#    z -0.074580 0.000000 4.014850 
# 
# 
# High freq. dielectric constant tensor:
#      x y z
#    x 1.843090 0.000000 -0.019530 
#    y 0.000000 1.857660 0.000000 
#    z -0.019530 0.000000 1.829200 
# 
# From -- ./inp_files/338199.got.cif
#   From: 2010.06.25/outbox.cif.g09.slc.cpg/sg12_170_cif.got.tgz:338199.got - 2010.06.28 00:19:55.
