data_PCOD8087106
_publ_section_title
;
Structure prediction by ZEFSAII (Michael W. Deem and Ramdas Pophale) SiO2 
 PCOD8087106
Probable space group: C 2/M
;
_chemical_formula_sum "Si O2"
_cell_formula_units_Z 64
_cell_length_a 12.997254
_cell_length_b 23.113255
_cell_length_c 28.601625
_cell_angle_alpha 90.000000
_cell_angle_beta 155.869765
_cell_angle_gamma 90.000000
_cell_volume 3512.587678
_symmetry_space_group_name_H-M "C 2/M"
_symmetry_group_IT_number 12
_symmetry_cell_setting 'monoclinic'
loop_
_space_group_symop_operation_xyz
x,y,z
-x,y,-z
-x,-y,-z
x,-y,z
1/2+x,1/2+y,z
1/2-x,1/2+y,-z
1/2-x,1/2-y,-z
1/2+x,1/2-y,z
loop_
_atom_site_type_symbol
_atom_site_label
_atom_site_fract_x
_atom_site_fract_y
_atom_site_fract_z
Si Si1 0.616626 0.167717 0.437571
Si Si2 0.509097 0.829122 0.287495
Si Si3 0.491950 0.817565 0.862251
Si Si4 0.369094 0.721657 0.366759
Si Si5 0.221627 0.935282 0.626451
Si Si6 0.213185 0.065463 0.731431
Si Si7 0.520826 0.733537 0.060501
Si Si8 0.154042 0.565911 0.517919
O O1 0.487922 0.176082 0.334170
O O2 0.492436 0.215087 0.420374
O O3 0.559005 0.105321 0.435605
O O4 0.916883 0.175246 0.558069
O O5 0.748205 0.792539 0.367079
O O6 0.537813 0.895607 0.283768
O O7 0.256211 0.808822 0.158816
O O8 0.344897 0.782922 0.761264
O O9 0.417564 0.885969 0.831591
O O10 0.427573 0.788711 0.885255
O O11 0.787690 0.807545 0.977457
O O12 0.141507 0.929105 0.647022
O O13 0.000000 0.913998 0.500000
O O14 0.300670 0.000000 0.646177
O O15 0.952158 0.075140 0.651316
O O16 0.318052 0.000000 0.784938
O O17 0.500000 0.759454 0.000000
O O18 0.097941 0.500000 0.480011
O O19 0.000000 0.583519 0.500000
#
# Coordination Sequence:
#
# PCOD8087106 Si02
#       8
#     8   8   8   8   8   8   8   8
#     4  11  23  34  55  87 118 152 181 230 288 340
#     4  12  21  36  56  85 116 150 189 233 284 341
#     4  11  21  40  58  82 110 149 196 232 283 349
#     4  11  21  35  54  84 121 147 182 233 287 348
#     4  10  19  31  53  84 119 155 184 217 275 348
#     4  10  19  36  59  81 111 150 190 233 277 331
#     4  11  23  38  60  79 109 150 192 242 288 336
#     4  10  21  37  56  82 118 159 193 225 273 340
#
# _framework density 18.220185000000001
#
# number of rings (size 3 to 8) (size 9 to 14) (size 15 to 20)
#    0.000    1.250    5.000    1.875    0.000    4.500 
#    0.000    0.625    0.000    2.625    0.000    0.000 
#    0.000    0.000    0.000    0.000    0.000    0.000 
#
# Total GULP energy -396781.394933 kJ/mol
# GULP energy per Si atom -12399.418592 kJ/mol
# Density = 1.817871 g / cm^3
# Si number density = 18.220185 Si / 1000 Ang^3
#
#
#
# Elastic Constant Matrix: (Units=GPa)
#
#
# Indices 1 2 3 4 5 6 
#
# 1 90.7652 51.0834 25.3576 0.0029 -4.4682 0.0017
# 2 51.0834 117.8734 41.7704 0.0024 0.2096 -0.0026
# 3 25.3576 41.7704 70.8719 0.0300 0.9118 -0.0034
# 4 0.0029 0.0024 0.0300 26.5856 -0.0039 -4.2371
# 5 -4.4682 0.2096 0.9118 -0.0039 30.0682 0.0021
# 6 0.0017 -0.0026 -0.0034 -4.2371 0.0021 28.6466
#
#
#
# Elastic Compliance Matrix: (Units=1/GPa)
#
#
# Indices 1 2 3 4 5 6 
#
# 1 0.014934 -0.005779 -0.001967 0.000001 0.002319 -0.000002
# 2 -0.005779 0.012960 -0.005561 0.000006 -0.000780 0.000002
# 3 -0.001967 -0.005561 0.018101 -0.000020 -0.000802 -0.000001
# 4 0.000001 0.000006 -0.000020 0.038522 0.000005 0.005698
# 5 0.002319 -0.000780 -0.000802 0.000005 0.033632 -0.000002
# 6 -0.000002 0.000002 -0.000001 0.005698 -0.000002 0.035751
#
#
# Mechanical properties :
#
#
# Convention : Reuss Voigt Hill
#
# Bulk Modulus (GPa) = 51.59473 57.32592 54.46033
# Shear Modulus (GPa) = 26.74165 27.81336 27.27751
#
# Velocity S-wave (km/s) = 3.83521 3.91130 3.87344
# Velocity P-wave (km/s) = 6.92752 7.20617 7.06822
#
# Compressibility (1/GPa) = 0.01938182
#
# Stress axis : x y z
#
# Youngs Moduli (GPa) = 66.96329 77.16034 55.24426
#
# Poissons Ratio (x) = 0.44590 0.10867
# Poissons Ratio (y) = 0.38698 0.30719
# Poissons Ratio (z) = 0.13172 0.42906
#
# Static dielectric constant tensor:
#      x y z
#    x 3.482970 -0.000010 0.032750 
#    y -0.000010 3.500840 -0.000080 
#    z 0.032750 -0.000080 3.195110 
# 
# 
# High freq. dielectric constant tensor:
#      x y z
#    x 1.713200 0.000000 0.002640 
#    y 0.000000 1.710640 0.000000 
#    z 0.002640 0.000000 1.683210 
# 
# From -- ./inp_files/359138.got.cif
#   From: 2010.06.25/outbox.cif.g09.slc.cpg/sg12_180_cif.got.tgz:359138.got - 2010.06.28 00:19:55.
