data_PCOD8087937
_publ_section_title
;
Structure prediction by ZEFSAII (Michael W. Deem and Ramdas Pophale) SiO2 
 PCOD8087937
Probable space group: C 2/M
;
_chemical_formula_sum "Si O2"
_cell_formula_units_Z 64
_cell_length_a 23.919907
_cell_length_b 9.313227
_cell_length_c 18.656212
_cell_angle_alpha 90.000000
_cell_angle_beta 53.254738
_cell_angle_gamma 90.000000
_cell_volume 3330.274777
_symmetry_space_group_name_H-M "C 2/M"
_symmetry_group_IT_number 12
_symmetry_cell_setting 'monoclinic'
loop_
_space_group_symop_operation_xyz
x,y,z
-x,y,-z
-x,-y,-z
x,-y,z
1/2+x,1/2+y,z
1/2-x,1/2+y,-z
1/2-x,1/2-y,-z
1/2+x,1/2-y,z
loop_
_atom_site_type_symbol
_atom_site_label
_atom_site_fract_x
_atom_site_fract_y
_atom_site_fract_z
Si Si1 0.906512 0.839663 0.489443
Si Si2 0.946482 0.167006 0.681488
Si Si3 0.346053 0.834394 0.662622
Si Si4 0.815490 0.837321 0.422066
Si Si5 0.693507 0.328321 0.993903
Si Si6 0.398046 0.328050 0.221756
Si Si7 0.456509 0.330093 0.834272
Si Si8 0.194656 0.165652 0.832327
O O1 0.868917 0.726118 0.568595
O O2 0.877111 0.830351 0.432298
O O3 0.988572 0.805461 0.421200
O O4 0.895501 0.000000 0.529704
O O5 0.881323 0.253456 0.701421
O O6 0.962155 0.226415 0.748683
O O7 0.926483 0.000000 0.699943
O O8 0.263928 0.810937 0.732919
O O9 0.367254 0.000000 0.649999
O O10 0.750000 0.750000 0.500000
O O11 0.847244 0.772216 0.324401
O O12 0.790074 0.000000 0.429373
O O13 0.704450 0.500000 0.991878
O O14 0.701366 0.267609 0.906607
O O15 0.750000 0.250000 0.000000
O O16 0.616291 0.278864 0.076430
O O17 0.397118 0.500000 0.224886
O O18 0.477003 0.269215 0.172091
O O19 0.368503 0.270387 0.167916
O O20 0.460962 0.500000 0.831924
O O21 0.178555 0.000000 0.857879
#
# Coordination Sequence:
#
# PCOD8087937 Si02
#       8
#     8   8   8   8   8   8   8   8
#     4  10  20  34  51  73 101 136 178 219 260 308
#     4  10  19  34  53  75 102 135 175 220 262 307
#     4  11  22  34  49  74 106 141 175 213 264 319
#     4  10  19  32  52  75 103 140 178 217 261 309
#     4  10  20  35  56  83 109 136 172 213 258 315
#     4   9  16  31  53  77 105 136 170 216 265 306
#     4   9  17  31  55  81 103 133 178 220 258 309
#     4   9  19  33  50  76 110 138 165 209 267 314
#
# _framework density 19.217632999999999
#
# number of rings (size 3 to 8) (size 9 to 14) (size 15 to 20)
#    0.000    2.250    1.250    2.250    0.000    4.000 
#    0.000    3.125    0.000    1.500    0.000    0.875 
#    0.000    0.000    0.000    0.000    0.000    0.000 
#
# Total GULP energy -396725.541740 kJ/mol
# GULP energy per Si atom -12397.673179 kJ/mol
# Density = 1.917389 g / cm^3
# Si number density = 19.217633 Si / 1000 Ang^3
#
#
#
# Elastic Constant Matrix: (Units=GPa)
#
#
# Indices 1 2 3 4 5 6 
#
# 1 144.6381 31.2408 57.4152 0.0003 9.6992 -0.0004
# 2 31.2408 43.0725 32.3665 0.0011 -2.4374 -0.0013
# 3 57.4152 32.3665 110.6821 0.0001 9.7696 0.0001
# 4 0.0003 0.0011 0.0001 20.2916 -0.0001 -1.6399
# 5 9.6992 -2.4374 9.7696 -0.0001 32.4269 0.0000
# 6 -0.0004 -0.0013 0.0001 -1.6399 0.0000 21.1097
#
#
#
# Elastic Compliance Matrix: (Units=1/GPa)
#
#
# Indices 1 2 3 4 5 6 
#
# 1 0.009338 -0.004346 -0.003388 0.000000 -0.002099 0.000000
# 2 -0.004346 0.032585 -0.007813 -0.000001 0.006103 0.000002
# 3 -0.003388 -0.007813 0.013396 0.000000 -0.003610 -0.000001
# 4 0.000000 -0.000001 0.000000 0.049593 0.000000 0.003853
# 5 -0.002099 0.006103 -0.003610 0.000000 0.033013 0.000000
# 6 0.000000 0.000002 -0.000001 0.003853 0.000000 0.047671
#
#
# Mechanical properties :
#
#
# Convention : Reuss Voigt Hill
#
# Bulk Modulus (GPa) = 41.27941 60.04864 50.66402
# Shear Modulus (GPa) = 22.24551 26.59033 24.41792
#
# Velocity S-wave (km/s) = 3.40598 3.72377 3.56841
# Velocity P-wave (km/s) = 6.08229 7.05713 6.58776
#
# Compressibility (1/GPa) = 0.02422515
#
# Stress axis : x y z
#
# Youngs Moduli (GPa) = 107.08796 30.68872 74.65074
#
# Poissons Ratio (x) = 0.13337 0.25291
# Poissons Ratio (y) = 0.46540 0.58325
# Poissons Ratio (z) = 0.36280 0.23977
#
# Static dielectric constant tensor:
#      x y z
#    x 3.831730 0.000000 0.025960 
#    y 0.000000 3.131030 0.000000 
#    z 0.025960 0.000000 3.576750 
# 
# 
# High freq. dielectric constant tensor:
#      x y z
#    x 1.767370 0.000000 0.002530 
#    y 0.000000 1.694000 0.000000 
#    z 0.002530 0.000000 1.752770 
# 
# From -- ./inp_files/324197.got.cif
#   From: 2010.06.25/outbox.cif.g09.slc.cpg/sg12_163_cif.got.tgz:324197.got - 2010.06.28 00:19:55.
