data_PCOD8087704
_publ_section_title
;
Structure prediction by ZEFSAII (Michael W. Deem and Ramdas Pophale) SiO2 
 PCOD8087704
Probable space group: C 2/M
;
_chemical_formula_sum "Si O2"
_cell_formula_units_Z 56
_cell_length_a 25.307846
_cell_length_b 9.127217
_cell_length_c 19.040913
_cell_angle_alpha 90.000000
_cell_angle_beta 132.186124
_cell_angle_gamma 90.000000
_cell_volume 3258.969850
_symmetry_space_group_name_H-M "C 2/M"
_symmetry_group_IT_number 12
_symmetry_cell_setting 'monoclinic'
loop_
_space_group_symop_operation_xyz
x,y,z
-x,y,-z
-x,-y,-z
x,-y,z
1/2+x,1/2+y,z
1/2-x,1/2+y,-z
1/2-x,1/2-y,-z
1/2+x,1/2-y,z
loop_
_atom_site_type_symbol
_atom_site_label
_atom_site_fract_x
_atom_site_fract_y
_atom_site_fract_z
Si Si1 0.710721 0.172218 0.708922
Si Si2 0.356457 0.330596 0.598965
Si Si3 0.519123 0.671520 0.721159
Si Si4 0.066247 0.170347 0.608645
Si Si5 0.736444 0.330489 0.091106
Si Si6 0.739104 0.170469 0.380587
Si Si7 0.360885 0.171278 0.096102
O O1 0.631586 0.236056 0.638640
O O2 0.751226 0.209639 0.817156
O O3 0.756818 0.245048 0.688977
O O4 0.705273 0.000000 0.691388
O O5 0.349964 0.500000 0.615399
O O6 0.436888 0.283975 0.654578
O O7 0.328627 0.231501 0.637673
O O8 0.311347 0.300120 0.488452
O O9 0.530187 0.500000 0.742595
O O10 0.546288 0.720323 0.669061
O O11 0.563005 0.756599 0.819814
O O12 0.000000 0.204548 0.500000
O O13 0.087444 0.000000 0.624338
O O14 0.717779 0.500000 0.063365
O O15 0.807810 0.288735 0.112381
O O16 0.670019 0.236156 0.003911
O O17 0.727217 0.000000 0.355164
O O18 0.371796 0.000000 0.096186
#
# Coordination Sequence:
#
# PCOD8087704 Si02
#       7
#     8   8   8   8   8   8   8
#     4  11  21  34  52  76 106 138 172 213 258 308
#     4   9  19  36  55  76 103 138 179 216 254 304
#     4  10  19  32  52  75 104 139 171 209 258 309
#     4  10  20  33  49  73 106 141 173 207 251 305
#     4   9  19  34  50  72 103 136 172 211 255 309
#     4  10  20  35  55  78 104 136 178 220 257 302
#     4  10  19  32  51  75 103 133 172 215 255 307
#
# _framework density 17.183344000000002
#
# number of rings (size 3 to 8) (size 9 to 14) (size 15 to 20)
#    0.000    2.143    1.429    2.143    0.000    5.429 
#    0.000    1.429    0.000    0.857    0.000    6.000 
#    0.000    0.000    0.000    0.000    0.000    0.000 
#
# Total GULP energy -347326.530210 kJ/mol
# GULP energy per Si atom -12404.518936 kJ/mol
# Density = 1.714423 g / cm^3
# Si number density = 17.183344 Si / 1000 Ang^3
#
#
#
# Elastic Constant Matrix: (Units=GPa)
#
#
# Indices 1 2 3 4 5 6 
#
# 1 59.0148 30.3998 30.5679 0.0000 -14.1051 0.0000
# 2 30.3998 66.1021 42.8141 0.0000 -10.2684 0.0000
# 3 30.5679 42.8141 86.8646 0.0000 -9.0746 0.0000
# 4 0.0000 0.0000 0.0000 27.4264 0.0000 -0.0362
# 5 -14.1051 -10.2684 -9.0746 0.0000 24.5625 0.0000
# 6 0.0000 0.0000 0.0000 -0.0362 0.0000 30.7916
#
#
#
# Elastic Compliance Matrix: (Units=1/GPa)
#
#
# Indices 1 2 3 4 5 6 
#
# 1 0.025291 -0.007345 -0.004247 0.000000 0.009884 0.000000
# 2 -0.007345 0.025081 -0.009489 0.000000 0.002762 0.000000
# 3 -0.004247 -0.009489 0.017697 0.000000 0.000132 0.000000
# 4 0.000000 0.000000 0.000000 0.036461 0.000000 0.000043
# 5 0.009884 0.002762 0.000132 0.000000 0.047592 0.000000
# 6 0.000000 0.000000 0.000000 0.000043 0.000000 0.032476
#
#
# Mechanical properties :
#
#
# Convention : Reuss Voigt Hill
#
# Bulk Modulus (GPa) = 38.59894 46.61612 42.60753
# Shear Modulus (GPa) = 21.24088 23.76941 22.50515
#
# Velocity S-wave (km/s) = 3.51968 3.72329 3.62291
# Velocity P-wave (km/s) = 6.24734 6.75806 6.50771
#
# Compressibility (1/GPa) = 0.02590744
#
# Stress axis : x y z
#
# Youngs Moduli (GPa) = 39.54053 39.87126 56.50520
#
# Poissons Ratio (x) = 0.29284 0.23999
# Poissons Ratio (y) = 0.29041 0.53616
# Poissons Ratio (z) = 0.16794 0.37833
#
# Static dielectric constant tensor:
#      x y z
#    x 3.065660 0.000000 -0.046830 
#    y 0.000000 3.219450 0.000000 
#    z -0.046830 0.000000 3.212900 
# 
# 
# High freq. dielectric constant tensor:
#      x y z
#    x 1.646000 0.000000 -0.002440 
#    y 0.000000 1.668970 0.000000 
#    z -0.002440 0.000000 1.663290 
# 
# From -- ./inp_files/287390.got.cif
#   From: 2010.06.25/outbox.cif.g09.slc.cpg/sg12_144_cif.got.tgz:287390.got - 2010.06.28 00:19:55.
