data_PCOD8087802
_publ_section_title
;
Structure prediction by ZEFSAII (Michael W. Deem and Ramdas Pophale) SiO2 
 PCOD8087802
Probable space group: C 2/M
;
_chemical_formula_sum "Si O2"
_cell_formula_units_Z 64
_cell_length_a 30.533593
_cell_length_b 9.310684
_cell_length_c 14.367132
_cell_angle_alpha 90.000000
_cell_angle_beta 54.481806
_cell_angle_gamma 90.000000
_cell_volume 3324.430152
_symmetry_space_group_name_H-M "C 2/M"
_symmetry_group_IT_number 12
_symmetry_cell_setting 'monoclinic'
loop_
_space_group_symop_operation_xyz
x,y,z
-x,y,-z
-x,-y,-z
x,-y,z
1/2+x,1/2+y,z
1/2-x,1/2+y,-z
1/2-x,1/2-y,-z
1/2+x,1/2-y,z
loop_
_atom_site_type_symbol
_atom_site_label
_atom_site_fract_x
_atom_site_fract_y
_atom_site_fract_z
Si Si1 0.629013 0.834177 0.437589
Si Si2 0.790806 0.170960 0.016463
Si Si3 0.049089 0.665207 0.375730
Si Si4 0.296110 0.665175 0.393182
Si Si5 0.247659 0.333619 0.263048
Si Si6 0.093159 0.170033 0.654844
Si Si7 0.504259 0.669271 0.099409
Si Si8 0.586034 0.668954 0.152974
O O1 0.604044 0.817178 0.365950
O O2 0.689206 0.765985 0.359604
O O3 0.592906 0.746128 0.555112
O O4 0.629249 0.000000 0.469336
O O5 0.852064 0.219603 0.922249
O O6 0.785069 0.000000 0.013437
O O7 0.750000 0.250000 0.000000
O O8 0.774366 0.230108 0.137988
O O9 0.038655 0.500000 0.361053
O O10 0.053172 0.754919 0.275945
O O11 0.000000 0.722351 0.500000
O O12 0.287271 0.500000 0.428989
O O13 0.250000 0.750000 0.500000
O O14 0.291240 0.693694 0.289388
O O15 0.353933 0.718519 0.354531
O O16 0.235989 0.500000 0.260836
O O17 0.043835 0.228738 0.776905
O O18 0.089874 0.000000 0.643153
O O19 0.497547 0.500000 0.097712
O O20 0.559917 0.708109 0.084297
O O21 0.500000 0.736681 0.000000
O O22 0.581042 0.500000 0.176680
#
# Coordination Sequence:
#
# PCOD8087802 Si02
#       8
#     8   8   8   8   8   8   8   8
#     4  10  19  33  53  75 102 140 175 211 264 322
#     4  10  21  37  57  81 109 144 184 225 269 322
#     4  10  21  36  56  80 106 141 183 221 266 324
#     4  10  19  32  51  77 106 138 174 217 267 318
#     4   9  18  32  51  73 101 137 175 210 257 321
#     4  10  20  32  52  80 107 136 174 222 270 311
#     4   9  19  35  55  80 109 141 179 222 267 321
#     4  10  21  36  57  84 111 142 181 227 278 321
#
# _framework density 19.25142
#
# number of rings (size 3 to 8) (size 9 to 14) (size 15 to 20)
#    0.000    2.250    1.250    1.500    1.750    2.250 
#    0.000    1.250    0.000    1.500    0.000    0.000 
#    0.000    0.000    0.000    0.000    0.000    0.000 
#
# Total GULP energy -396753.722738 kJ/mol
# GULP energy per Si atom -12398.553836 kJ/mol
# Density = 1.920760 g / cm^3
# Si number density = 19.251420 Si / 1000 Ang^3
#
#
#
# Elastic Constant Matrix: (Units=GPa)
#
#
# Indices 1 2 3 4 5 6 
#
# 1 110.6173 26.9712 45.5553 0.0000 0.1047 0.0000
# 2 26.9712 31.3121 34.4211 0.0000 3.6759 0.0001
# 3 45.5553 34.4211 140.3974 0.0000 5.0705 0.0000
# 4 0.0000 0.0000 0.0000 25.2784 0.0000 -1.2809
# 5 0.1047 3.6759 5.0705 0.0000 36.0486 0.0000
# 6 0.0000 0.0001 0.0000 -1.2809 0.0000 21.0292
#
#
#
# Elastic Compliance Matrix: (Units=1/GPa)
#
#
# Indices 1 2 3 4 5 6 
#
# 1 0.011817 -0.008277 -0.001843 0.000000 0.001069 0.000000
# 2 -0.008277 0.049835 -0.009397 0.000000 -0.003736 0.000000
# 3 -0.001843 -0.009397 0.010041 0.000000 -0.000449 0.000000
# 4 0.000000 0.000000 0.000000 0.039682 0.000000 0.002417
# 5 0.001069 -0.003736 -0.000449 0.000000 0.028181 0.000000
# 6 0.000000 0.000000 0.000000 0.002417 0.000000 0.047700
#
#
# Mechanical properties :
#
#
# Convention : Reuss Voigt Hill
#
# Bulk Modulus (GPa) = 30.62180 55.13579 42.87879
# Shear Modulus (GPa) = 21.08119 28.16319 24.62219
#
# Velocity S-wave (km/s) = 3.31274 3.82896 3.58016
# Velocity P-wave (km/s) = 5.52929 6.94621 6.27786
#
# Compressibility (1/GPa) = 0.03265647
#
# Stress axis : x y z
#
# Youngs Moduli (GPa) = 84.62687 20.06605 99.59246
#
# Poissons Ratio (x) = 0.16610 0.18359
# Poissons Ratio (y) = 0.70050 0.93591
# Poissons Ratio (z) = 0.15600 0.18857
#
# Static dielectric constant tensor:
#      x y z
#    x 3.628850 0.000000 -0.032640 
#    y 0.000000 3.157330 0.000000 
#    z -0.032640 0.000000 3.424690 
# 
# 
# High freq. dielectric constant tensor:
#      x y z
#    x 1.767530 0.000000 0.000050 
#    y 0.000000 1.707120 0.000000 
#    z 0.000050 0.000000 1.754710 
# 
# From -- ./inp_files/248947.got.cif
#   From: 2010.06.25/outbox.cif.g09.slc.cpg/sg12_125_cif.got.tgz:248947.got - 2010.06.28 00:19:55.
