data_PCOD8087567
_publ_section_title
;
Structure prediction by ZEFSAII (Michael W. Deem and Ramdas Pophale) SiO2 
 PCOD8087567
Probable space group: C 2/M
;
_chemical_formula_sum "Si O2"
_cell_formula_units_Z 64
_cell_length_a 20.633307
_cell_length_b 8.907045
_cell_length_c 26.226342
_cell_angle_alpha 90.000000
_cell_angle_beta 134.615616
_cell_angle_gamma 90.000000
_cell_volume 3430.989030
_symmetry_space_group_name_H-M "C 2/M"
_symmetry_group_IT_number 12
_symmetry_cell_setting 'monoclinic'
loop_
_space_group_symop_operation_xyz
x,y,z
-x,y,-z
-x,-y,-z
x,-y,z
1/2+x,1/2+y,z
1/2-x,1/2+y,-z
1/2-x,1/2-y,-z
1/2+x,1/2-y,z
loop_
_atom_site_type_symbol
_atom_site_label
_atom_site_fract_x
_atom_site_fract_y
_atom_site_fract_z
Si Si1 0.158683 0.678287 0.969624
Si Si2 0.142935 0.178763 0.649226
Si Si3 0.476117 0.821947 0.815832
Si Si4 0.455381 0.678390 0.593582
Si Si5 0.319709 0.178800 0.803556
Si Si6 0.598352 0.821825 0.332859
Si Si7 0.898563 0.321494 0.951614
Si Si8 0.803589 0.178415 0.431976
O O1 0.167173 0.500000 0.972791
O O2 0.075261 0.734821 0.888210
O O3 0.250000 0.750000 0.000000
O O4 0.142734 0.737645 0.018261
O O5 0.222460 0.239151 0.730395
O O6 0.160406 0.242268 0.602081
O O7 0.046592 0.238008 0.616557
O O8 0.143271 0.000000 0.647950
O O9 0.399347 0.756203 0.811325
O O10 0.455768 0.767543 0.747245
O O11 0.471741 0.000000 0.816388
O O12 0.455801 0.500000 0.598420
O O13 0.451978 0.747955 0.647523
O O14 0.369562 0.736232 0.513232
O O15 0.335478 0.235073 0.870104
O O16 0.322002 0.000000 0.802468
O O17 0.702080 0.762298 0.386841
O O18 0.596324 0.000000 0.337521
O O19 0.903644 0.500000 0.955524
O O20 0.000000 0.256514 0.000000
O O21 0.803736 0.000000 0.429510
#
# Coordination Sequence:
#
# PCOD8087567 Si02
#       8
#     8   8   8   8   8   8   8   8
#     4  10  20  33  50  75 104 130 157 194 243 291
#     4   9  16  27  45  70  96 122 158 203 245 283
#     4   9  16  29  49  71  95 126 164 202 235 276
#     4  10  20  31  46  73 105 127 150 199 258 294
#     4   9  14  24  45  72  95 117 158 209 243 270
#     4  10  19  32  51  71  93 129 172 201 228 282
#     4   9  15  25  45  71  94 117 153 202 241 268
#     4   9  16  29  49  70  93 127 168 202 235 283
#
# _framework density 18.653513
#
# number of rings (size 3 to 8) (size 9 to 14) (size 15 to 20)
#    0.000    2.625    2.500    0.750    0.000    2.500 
#    0.000    1.875    0.000    2.625    0.000    0.000 
#    0.000    0.000    0.000    0.000    0.000    0.000 
#
# Total GULP energy -396730.865316 kJ/mol
# GULP energy per Si atom -12397.839541 kJ/mol
# Density = 1.861106 g / cm^3
# Si number density = 18.653513 Si / 1000 Ang^3
#
#
#
# Elastic Constant Matrix: (Units=GPa)
#
#
# Indices 1 2 3 4 5 6 
#
# 1 144.4710 16.1135 68.1970 0.0000 -8.4026 0.0000
# 2 16.1135 8.8515 13.9005 0.0000 -0.7920 0.0000
# 3 68.1970 13.9005 160.6412 0.0000 -10.5403 0.0000
# 4 0.0000 0.0000 0.0000 13.3974 0.0000 -2.4703
# 5 -8.4026 -0.7920 -10.5403 0.0000 38.2228 0.0000
# 6 0.0000 0.0000 0.0000 -2.4703 0.0000 22.9450
#
#
#
# Elastic Compliance Matrix: (Units=1/GPa)
#
#
# Indices 1 2 3 4 5 6 
#
# 1 0.009858 -0.013179 -0.002974 0.000000 0.001074 0.000000
# 2 -0.013179 0.148368 -0.007365 0.000000 -0.001854 0.000000
# 3 -0.002974 -0.007365 0.008221 0.000000 0.001461 0.000000
# 4 0.000000 0.000000 0.000000 0.076153 0.000000 0.008199
# 5 0.001074 -0.001854 0.001461 0.000000 0.026763 0.000000
# 6 0.000000 0.000000 0.000000 0.008199 0.000000 0.044465
#
#
# Mechanical properties :
#
#
# Convention : Reuss Voigt Hill
#
# Bulk Modulus (GPa) = 8.37450 56.70951 32.54200
# Shear Modulus (GPa) = 12.47912 29.29656 20.88784
#
# Velocity S-wave (km/s) = 2.58930 3.96734 3.34994
# Velocity P-wave (km/s) = 3.66586 7.17313 5.69616
#
# Compressibility (1/GPa) = 0.11941012
#
# Stress axis : x y z
#
# Youngs Moduli (GPa) = 101.43859 6.73998 121.64221
#
# Poissons Ratio (x) = 0.08883 0.36179
# Poissons Ratio (y) = 1.33690 0.89591
# Poissons Ratio (z) = 0.30170 0.04964
#
# Static dielectric constant tensor:
#      x y z
#    x 3.527850 0.000000 -0.025110 
#    y 0.000000 2.682140 0.000000 
#    z -0.025110 0.000000 3.812650 
# 
# 
# High freq. dielectric constant tensor:
#      x y z
#    x 1.732210 0.000000 -0.003410 
#    y 0.000000 1.645930 0.000000 
#    z -0.003410 0.000000 1.744470 
# 
# From -- ./inp_files/282558.got.cif
#   From: 2010.06.25/outbox.cif.g09.slc.cpg/sg12_142_cif.got.tgz:282558.got - 2010.06.28 00:19:55.
