data_PCOD8087977
_publ_section_title
;
Structure prediction by ZEFSAII (Michael W. Deem and Ramdas Pophale) SiO2 
 PCOD8087977
Probable space group: C 2/M
;
_chemical_formula_sum "Si O2"
_cell_formula_units_Z 56
_cell_length_a 14.332223
_cell_length_b 9.004411
_cell_length_c 27.669242
_cell_angle_alpha 90.000000
_cell_angle_beta 120.543994
_cell_angle_gamma 90.000000
_cell_volume 3075.317195
_symmetry_space_group_name_H-M "C 2/M"
_symmetry_group_IT_number 12
_symmetry_cell_setting 'monoclinic'
loop_
_space_group_symop_operation_xyz
x,y,z
-x,y,-z
-x,-y,-z
x,-y,z
1/2+x,1/2+y,z
1/2-x,1/2+y,-z
1/2-x,1/2-y,-z
1/2+x,1/2-y,z
loop_
_atom_site_type_symbol
_atom_site_label
_atom_site_fract_x
_atom_site_fract_y
_atom_site_fract_z
Si Si1 0.068426 0.175088 0.564313
Si Si2 0.214071 0.177435 0.351354
Si Si3 0.495990 0.325945 0.649104
Si Si4 0.182354 0.326906 0.048429
Si Si5 0.122083 0.674152 0.139272
Si Si6 0.410072 0.326379 0.063625
Si Si7 0.733964 0.675376 0.733061
O O1 0.181625 0.261706 0.592810
O O2 0.000000 0.224433 0.500000
O O3 0.999982 0.221493 0.593816
O O4 0.093591 0.000000 0.571148
O O5 0.108281 0.242270 0.351410
O O6 0.208474 0.239180 0.295557
O O7 0.218022 0.000000 0.351190
O O8 0.484002 0.500000 0.650250
O O9 0.608203 0.275166 0.704074
O O10 0.159235 0.500000 0.035438
O O11 0.168425 0.275578 0.099753
O O12 0.303853 0.283797 0.065808
O O13 0.096731 0.242248 0.991918
O O14 0.099966 0.500000 0.135394
O O15 0.208140 0.722855 0.202272
O O16 0.009705 0.757656 0.119415
O O17 0.426800 0.500000 0.062960
O O18 0.742541 0.500000 0.725057
#
# Coordination Sequence:
#
# PCOD8087977 Si02
#       7
#     8   8   8   8   8   8   8
#     4   9  18  34  54  75 102 136 170 200 235 289
#     4  10  19  32  52  76 102 131 163 205 252 288
#     4   8  16  32  52  72  98 133 166 197 241 293
#     4   9  19  35  52  71  98 132 165 195 240 304
#     4  10  20  34  53  73  95 129 168 203 242 293
#     4  10  20  33  51  75 101 127 158 202 250 293
#     4   9  19  36  53  70  96 131 170 205 240 292
#
# _framework density 18.209503999999999
#
# number of rings (size 3 to 8) (size 9 to 14) (size 15 to 20)
#    0.000    2.714    0.000    2.143    0.000    5.429 
#    0.000    8.571    0.000    0.000    0.000    0.000 
#    0.000    0.000    0.000    0.000    0.000    0.000 
#
# Total GULP energy -347196.637972 kJ/mol
# GULP energy per Si atom -12399.879928 kJ/mol
# Density = 1.816806 g / cm^3
# Si number density = 18.209504 Si / 1000 Ang^3
#
#
#
# Elastic Constant Matrix: (Units=GPa)
#
#
# Indices 1 2 3 4 5 6 
#
# 1 132.6155 33.4191 65.1260 0.0000 5.2044 0.0000
# 2 33.4191 39.2395 35.3798 0.0000 4.6596 0.0000
# 3 65.1260 35.3798 151.7020 0.0000 10.2146 0.0000
# 4 0.0000 0.0000 0.0000 27.2772 0.0000 3.6694
# 5 5.2044 4.6596 10.2146 0.0000 17.0582 0.0000
# 6 0.0000 0.0000 0.0000 3.6694 0.0000 27.4563
#
#
#
# Elastic Compliance Matrix: (Units=1/GPa)
#
#
# Indices 1 2 3 4 5 6 
#
# 1 0.010648 -0.006289 -0.003127 0.000000 0.000342 0.000000
# 2 -0.006289 0.036318 -0.005451 0.000000 -0.004738 0.000000
# 3 -0.003127 -0.005451 0.009421 0.000000 -0.003198 0.000000
# 4 0.000000 0.000000 0.000000 0.037332 0.000000 -0.004989
# 5 0.000342 -0.004738 -0.003198 0.000000 0.061728 0.000000
# 6 0.000000 0.000000 0.000000 -0.004989 0.000000 0.037088
#
#
# Mechanical properties :
#
#
# Convention : Reuss Voigt Hill
#
# Bulk Modulus (GPa) = 37.52096 65.71187 51.61641
# Shear Modulus (GPa) = 21.63052 27.00051 24.31552
#
# Velocity S-wave (km/s) = 3.45029 3.85485 3.65817
# Velocity P-wave (km/s) = 6.04339 7.48185 6.80076
#
# Compressibility (1/GPa) = 0.02665177
#
# Stress axis : x y z
#
# Youngs Moduli (GPa) = 93.91513 27.53419 106.14439
#
# Poissons Ratio (x) = 0.17317 0.33196
# Poissons Ratio (y) = 0.59066 0.57861
# Poissons Ratio (z) = 0.29371 0.15009
#
# Static dielectric constant tensor:
#      x y z
#    x 3.575950 0.000000 0.025240 
#    y 0.000000 3.159590 0.000000 
#    z 0.025240 0.000000 3.461520 
# 
# 
# High freq. dielectric constant tensor:
#      x y z
#    x 1.711780 0.000000 0.003180 
#    y 0.000000 1.688650 0.000000 
#    z 0.003180 0.000000 1.706880 
# 
# From -- ./inp_files/359661.got.cif
#   From: 2010.06.25/outbox.cif.g09.slc.cpg/sg12_180_cif.got.tgz:359661.got - 2010.06.28 00:19:55.
