data_PCOD8087664
_publ_section_title
;
Structure prediction by ZEFSAII (Michael W. Deem and Ramdas Pophale) SiO2 
 PCOD8087664
Probable space group: C 2/M
;
_chemical_formula_sum "Si O2"
_cell_formula_units_Z 64
_cell_length_a 30.881383
_cell_length_b 9.011599
_cell_length_c 15.522527
_cell_angle_alpha 90.000000
_cell_angle_beta 56.090421
_cell_angle_gamma 90.000000
_cell_volume 3585.062614
_symmetry_space_group_name_H-M "C 2/M"
_symmetry_group_IT_number 12
_symmetry_cell_setting 'monoclinic'
loop_
_space_group_symop_operation_xyz
x,y,z
-x,y,-z
-x,-y,-z
x,-y,z
1/2+x,1/2+y,z
1/2-x,1/2+y,-z
1/2-x,1/2-y,-z
1/2+x,1/2-y,z
loop_
_atom_site_type_symbol
_atom_site_label
_atom_site_fract_x
_atom_site_fract_y
_atom_site_fract_z
Si Si1 0.816458 0.671379 0.305633
Si Si2 0.908639 0.828223 0.120513
Si Si3 0.535327 0.672504 0.762217
Si Si4 0.279895 0.674366 0.845793
Si Si5 0.796307 0.173876 0.632284
Si Si6 0.826671 0.325754 0.949393
Si Si7 0.566764 0.824078 0.079675
Si Si8 0.629671 0.826926 0.576379
O O1 0.826373 0.500000 0.270243
O O2 0.850467 0.768738 0.202234
O O3 0.756406 0.714669 0.360236
O O4 0.831852 0.706154 0.386551
O O5 0.943950 0.801049 0.164636
O O6 0.905760 0.000000 0.098223
O O7 0.935498 0.738438 0.014222
O O8 0.528804 0.500000 0.748060
O O9 0.480202 0.754583 0.812993
O O10 0.575033 0.743447 0.649798
O O11 0.286255 0.500000 0.848242
O O12 0.290654 0.726178 0.736866
O O13 0.322089 0.750332 0.861126
O O14 0.221382 0.724132 0.936552
O O15 0.843761 0.264827 0.538998
O O16 0.808496 0.000000 0.611470
O O17 0.826849 0.500000 0.934529
O O18 0.879651 0.272193 0.935390
O O19 0.560938 0.000000 0.083288
O O20 0.618304 0.000000 0.578389
#
# Coordination Sequence:
#
# PCOD8087664 Si02
#       8
#     8   8   8   8   8   8   8   8
#     4   9  18  32  49  71 103 138 169 204 246 293
#     4  10  20  32  48  73 104 135 168 206 246 291
#     4  10  21  36  51  70 100 135 170 209 250 290
#     4   9  18  33  53  76 102 132 163 196 242 298
#     4  10  19  32  51  74 102 135 168 205 250 295
#     4   9  19  35  53  75 103 131 160 199 246 294
#     4  11  21  33  52  75 100 132 168 205 249 299
#     4  10  20  33  50  73 100 134 174 209 245 291
#
# _framework density 17.851851
#
# number of rings (size 3 to 8) (size 9 to 14) (size 15 to 20)
#    0.000    2.250    0.000    3.000    0.000    7.500 
#    0.000    2.500    0.000    0.750    0.000    5.250 
#    0.000    0.000    0.000    0.000    0.000    0.000 
#
# Total GULP energy -396935.745612 kJ/mol
# GULP energy per Si atom -12404.242050 kJ/mol
# Density = 1.781122 g / cm^3
# Si number density = 17.851851 Si / 1000 Ang^3
#
#
#
# Elastic Constant Matrix: (Units=GPa)
#
#
# Indices 1 2 3 4 5 6 
#
# 1 75.9721 40.6608 51.8440 0.0000 -13.5046 0.0001
# 2 40.6608 72.9478 49.9402 0.0000 -9.4265 0.0003
# 3 51.8440 49.9402 122.2556 0.0000 -10.9409 0.0000
# 4 0.0000 0.0000 0.0000 35.7069 0.0000 -3.3842
# 5 -13.5046 -9.4265 -10.9409 0.0000 24.3041 0.0000
# 6 0.0001 0.0003 0.0000 -3.3842 0.0000 26.8636
#
#
#
# Elastic Compliance Matrix: (Units=1/GPa)
#
#
# Indices 1 2 3 4 5 6 
#
# 1 0.022420 -0.007662 -0.005761 0.000000 0.006893 0.000000
# 2 -0.007662 0.022038 -0.005595 0.000000 0.001772 0.000000
# 3 -0.005761 -0.005595 0.012949 0.000000 0.000458 0.000000
# 4 0.000000 0.000000 0.000000 0.028344 0.000000 0.003571
# 5 0.006893 0.001772 0.000458 0.000000 0.045869 0.000000
# 6 0.000000 0.000000 0.000000 0.003571 0.000000 0.037675
#
#
# Mechanical properties :
#
#
# Convention : Reuss Voigt Hill
#
# Bulk Modulus (GPa) = 51.62098 61.78505 56.70302
# Shear Modulus (GPa) = 23.38769 25.95694 24.67232
#
# Velocity S-wave (km/s) = 3.62346 3.81730 3.72164
# Velocity P-wave (km/s) = 6.81799 7.35622 7.09222
#
# Compressibility (1/GPa) = 0.01937197
#
# Stress axis : x y z
#
# Youngs Moduli (GPa) = 44.60303 45.37526 77.22716
#
# Poissons Ratio (x) = 0.34768 0.44488
# Poissons Ratio (y) = 0.34177 0.43206
# Poissons Ratio (z) = 0.25694 0.25386
#
# Static dielectric constant tensor:
#      x y z
#    x 3.235370 0.000000 -0.089260 
#    y 0.000000 3.290490 0.000000 
#    z -0.089260 0.000000 3.267790 
# 
# 
# High freq. dielectric constant tensor:
#      x y z
#    x 1.673630 0.000000 -0.011250 
#    y 0.000000 1.695240 0.000000 
#    z -0.011250 0.000000 1.685730 
# 
# From -- ./inp_files/244181.got.cif
#   From: 2010.06.25/outbox.cif.g09.slc.cpg/sg12_123_cif.got.tgz:244181.got - 2010.06.28 00:19:55.
