data_PCOD8087378
_publ_section_title
;
Structure prediction by ZEFSAII (Michael W. Deem and Ramdas Pophale) SiO2 
 PCOD8087378
Probable space group: C 2/M
;
_chemical_formula_sum "Si O2"
_cell_formula_units_Z 48
_cell_length_a 28.144989
_cell_length_b 9.001356
_cell_length_c 11.313606
_cell_angle_alpha 90.000000
_cell_angle_beta 75.740211
_cell_angle_gamma 90.000000
_cell_volume 2777.911953
_symmetry_space_group_name_H-M "C 2/M"
_symmetry_group_IT_number 12
_symmetry_cell_setting 'monoclinic'
loop_
_space_group_symop_operation_xyz
x,y,z
-x,y,-z
-x,-y,-z
x,-y,z
1/2+x,1/2+y,z
1/2-x,1/2+y,-z
1/2-x,1/2-y,-z
1/2+x,1/2-y,z
loop_
_atom_site_type_symbol
_atom_site_label
_atom_site_fract_x
_atom_site_fract_y
_atom_site_fract_z
Si Si1 0.706131 0.173691 0.594613
Si Si2 0.177454 0.327215 0.110103
Si Si3 0.503589 0.163756 0.637925
Si Si4 0.732358 0.171701 0.839962
Si Si5 0.592447 0.324581 0.286311
Si Si6 0.608588 0.824307 0.525226
O O1 0.750000 0.250000 0.500000
O O2 0.707363 0.215366 0.731893
O O3 0.654470 0.229769 0.574491
O O4 0.711976 0.000000 0.571262
O O5 0.168449 0.500000 0.140242
O O6 0.219562 0.271482 0.173236
O O7 0.127589 0.237713 0.162626
O O8 0.192830 0.295024 0.965954
O O9 0.500000 0.155059 0.500000
O O10 0.463225 0.277380 0.712603
O O11 0.559384 0.216717 0.630383
O O12 0.493653 0.000000 0.698409
O O13 0.748906 0.000000 0.833151
O O14 0.595508 0.500000 0.289000
O O15 0.610281 0.259732 0.399944
O O16 0.609441 0.000000 0.498084
#
# Coordination Sequence:
#
# PCOD8087378 Si02
#       6
#     8   8   8   8   8   8
#     4  10  20  33  49  71  97 124 154 187 227 276
#     4  10  19  32  50  69  93 125 158 193 233 275
#     4   8  15  29  47  67  92 122 155 191 233 278
#     4   9  19  34  50  70  95 122 156 196 232 270
#     4  11  20  29  46  72  98 122 155 196 233 274
#     4   9  18  32  49  69  96 127 155 188 233 282
#
# _framework density 17.279164999999999
#
# number of rings (size 3 to 8) (size 9 to 14) (size 15 to 20)
#    0.000    2.500    0.000    4.000    0.000    7.667 
#    0.000    0.000    0.000    1.000    0.000    7.000 
#    0.000    0.000    0.000    0.000    0.000    0.000 
#
# Total GULP energy -297575.930492 kJ/mol
# GULP energy per Si atom -12398.997104 kJ/mol
# Density = 1.723984 g / cm^3
# Si number density = 17.279165 Si / 1000 Ang^3
#
#
#
# Elastic Constant Matrix: (Units=GPa)
#
#
# Indices 1 2 3 4 5 6 
#
# 1 153.8249 52.2421 62.2547 0.0000 -13.5846 0.0000
# 2 52.2421 80.4275 39.4990 0.0000 -13.1036 0.0000
# 3 62.2547 39.4990 78.6645 0.0000 -7.7280 0.0000
# 4 0.0000 0.0000 0.0000 21.1067 0.0000 -5.1311
# 5 -13.5846 -13.1036 -7.7280 0.0000 27.4586 0.0000
# 6 0.0000 0.0000 0.0000 -5.1311 0.0000 27.5062
#
#
#
# Elastic Compliance Matrix: (Units=1/GPa)
#
#
# Indices 1 2 3 4 5 6 
#
# 1 0.010355 -0.003320 -0.006356 0.000000 0.001750 0.000000
# 2 -0.003320 0.018483 -0.006118 0.000000 0.005456 0.000000
# 3 -0.006356 -0.006118 0.020794 0.000000 -0.000212 0.000000
# 4 0.000000 0.000000 0.000000 0.049629 0.000000 0.009258
# 5 0.001750 0.005456 -0.000212 0.000000 0.039828 0.000000
# 6 0.000000 0.000000 0.000000 0.009258 0.000000 0.038082
#
#
# Mechanical properties :
#
#
# Convention : Reuss Voigt Hill
#
# Bulk Modulus (GPa) = 55.41732 68.98984 62.20358
# Shear Modulus (GPa) = 23.28023 25.80905 24.54464
#
# Velocity S-wave (km/s) = 3.67454 3.86897 3.77301
# Velocity P-wave (km/s) = 7.08127 7.74415 7.42012
#
# Compressibility (1/GPa) = 0.01804490
#
# Stress axis : x y z
#
# Youngs Moduli (GPa) = 96.56834 54.10309 48.09148
#
# Poissons Ratio (x) = 0.17960 0.30569
# Poissons Ratio (y) = 0.32056 0.29421
# Poissons Ratio (z) = 0.61383 0.33099
#
# Static dielectric constant tensor:
#      x y z
#    x 3.633940 0.000000 -0.169470 
#    y 0.000000 3.222350 0.000000 
#    z -0.169470 0.000000 3.135570 
# 
# 
# High freq. dielectric constant tensor:
#      x y z
#    x 1.671910 0.000000 -0.018820 
#    y 0.000000 1.665530 0.000000 
#    z -0.018820 0.000000 1.640880 
# 
# From -- ./inp_files/179233.got.cif
#   From: 2010.06.25/outbox.cif.g09.slc.cpg/sg12_90_cif.got.tgz:179233.got - 2010.06.28 00:19:55.
