data_PCOD8087273
_publ_section_title
;
Structure prediction by ZEFSAII (Michael W. Deem and Ramdas Pophale) SiO2 
 PCOD8087273
Probable space group: C 2/M
;
_chemical_formula_sum "Si O2"
_cell_formula_units_Z 64
_cell_length_a 27.314379
_cell_length_b 9.406221
_cell_length_c 20.090934
_cell_angle_alpha 90.000000
_cell_angle_beta 48.668726
_cell_angle_gamma 90.000000
_cell_volume 3876.063839
_symmetry_space_group_name_H-M "C 2/M"
_symmetry_group_IT_number 12
_symmetry_cell_setting 'monoclinic'
loop_
_space_group_symop_operation_xyz
x,y,z
-x,y,-z
-x,-y,-z
x,-y,z
1/2+x,1/2+y,z
1/2-x,1/2+y,-z
1/2-x,1/2-y,-z
1/2+x,1/2-y,z
loop_
_atom_site_type_symbol
_atom_site_label
_atom_site_fract_x
_atom_site_fract_y
_atom_site_fract_z
Si Si1 0.562504 0.333460 0.903152
Si Si2 0.971831 0.666275 0.339730
Si Si3 0.198413 0.840398 0.650613
Si Si4 0.036219 0.163876 0.399227
Si Si5 0.339549 0.160321 0.522991
Si Si6 0.558267 0.660381 0.752195
Si Si7 0.828331 0.837952 0.664448
Si Si8 0.814058 0.334394 0.209014
O O1 0.574199 0.500000 0.902424
O O2 0.551682 0.294197 0.835360
O O3 0.625973 0.253473 0.876760
O O4 0.500000 0.280113 0.000000
O O5 0.988137 0.500000 0.321158
O O6 0.896185 0.701590 0.421386
O O7 0.985298 0.737456 0.255455
O O8 0.015267 0.736177 0.357761
O O9 0.268428 0.821966 0.550803
O O10 0.134781 0.826918 0.661173
O O11 0.194401 0.715814 0.707872
O O12 0.195854 0.000000 0.686112
O O13 0.114119 0.187028 0.334305
O O14 0.000000 0.209753 0.500000
O O15 0.018891 0.000000 0.398549
O O16 0.344891 0.249971 0.584581
O O17 0.350594 0.000000 0.536894
O O18 0.532656 0.500000 0.765275
O O19 0.757032 0.802287 0.761059
O O20 0.827649 0.000000 0.640631
O O21 0.832077 0.500000 0.189973
#
# Coordination Sequence:
#
# PCOD8087273 Si02
#       8
#     8   8   8   8   8   8   8   8
#     4   9  18  34  55  76  97 122 152 183 221 280
#     4  11  22  31  42  64  94 124 158 200 242 277
#     4   8  15  29  45  60  84 122 162 192 222 267
#     4  10  19  32  49  65  86 123 170 209 238 272
#     4   9  17  28  42  61  87 121 159 197 234 269
#     4   9  18  32  48  65  89 121 154 187 225 275
#     4   9  17  29  45  66  91 121 159 201 237 271
#     4   9  16  26  44  72 100 120 145 186 235 279
#
# _framework density 16.511596000000001
#
# number of rings (size 3 to 8) (size 9 to 14) (size 15 to 20)
#    0.000    2.750    1.250    1.500    0.000    4.500 
#    0.000    0.000    0.000    0.000    0.000    0.875 
#    0.000    0.000    0.000    0.000    0.000    0.000 
#
# Total GULP energy -396427.338006 kJ/mol
# GULP energy per Si atom -12388.354313 kJ/mol
# Density = 1.647401 g / cm^3
# Si number density = 16.511596 Si / 1000 Ang^3
#
#
#
# Elastic Constant Matrix: (Units=GPa)
#
#
# Indices 1 2 3 4 5 6 
#
# 1 91.0927 51.3815 45.7722 0.0000 -5.5794 -0.0003
# 2 51.3815 69.5756 37.8794 -0.0051 -4.9254 0.0034
# 3 45.7722 37.8794 63.7383 -0.0030 -13.5863 0.0022
# 4 0.0000 -0.0051 -0.0030 17.6722 0.0023 -2.9573
# 5 -5.5794 -4.9254 -13.5863 0.0023 21.0020 -0.0004
# 6 -0.0003 0.0034 0.0022 -2.9573 -0.0004 26.6922
#
#
#
# Elastic Compliance Matrix: (Units=1/GPa)
#
#
# Indices 1 2 3 4 5 6 
#
# 1 0.022010 -0.011097 -0.009882 -0.000004 -0.003148 0.000002
# 2 -0.011097 0.027093 -0.008591 0.000006 -0.002152 -0.000002
# 3 -0.009882 -0.008591 0.031205 0.000001 0.015547 -0.000001
# 4 -0.000004 0.000006 0.000001 0.057655 -0.000005 0.006388
# 5 -0.003148 -0.002152 0.015547 -0.000005 0.056331 -0.000001
# 6 0.000002 -0.000002 -0.000001 0.006388 -0.000001 0.038172
#
#
# Mechanical properties :
#
#
# Convention : Reuss Voigt Hill
#
# Bulk Modulus (GPa) = 47.24061 54.94143 51.09102
# Shear Modulus (GPa) = 16.74142 19.03151 17.88646
#
# Velocity S-wave (km/s) = 3.18766 3.39870 3.29487
# Velocity P-wave (km/s) = 6.49776 6.98199 6.74423
#
# Compressibility (1/GPa) = 0.02116823
#
# Stress axis : x y z
#
# Youngs Moduli (GPa) = 45.43419 36.91031 32.04619
#
# Poissons Ratio (x) = 0.40959 0.31668
# Poissons Ratio (y) = 0.50418 0.27530
# Poissons Ratio (z) = 0.44898 0.31708
#
# Static dielectric constant tensor:
#      x y z
#    x 3.151230 -0.000010 -0.399200 
#    y -0.000010 3.173650 0.000010 
#    z -0.399200 0.000010 2.961990 
# 
# 
# High freq. dielectric constant tensor:
#      x y z
#    x 1.623290 0.000000 -0.025490 
#    y 0.000000 1.644470 0.000000 
#    z -0.025490 0.000000 1.594170 
# 
# From -- ./inp_files/326881.got.cif
#   From: 2010.06.25/outbox.cif.g09.slc.cpg/sg12_164_cif.got.tgz:326881.got - 2010.06.28 00:19:55.
