data_PCOD8087504
_publ_section_title
;
Structure prediction by ZEFSAII (Michael W. Deem and Ramdas Pophale) SiO2 
 PCOD8087504
Probable space group: C 2/M
;
_chemical_formula_sum "Si O2"
_cell_formula_units_Z 56
_cell_length_a 14.448640
_cell_length_b 8.496476
_cell_length_c 25.104467
_cell_angle_alpha 90.000000
_cell_angle_beta 72.519559
_cell_angle_gamma 90.000000
_cell_volume 2939.564736
_symmetry_space_group_name_H-M "C 2/M"
_symmetry_group_IT_number 12
_symmetry_cell_setting 'monoclinic'
loop_
_space_group_symop_operation_xyz
x,y,z
-x,y,-z
-x,-y,-z
x,-y,z
1/2+x,1/2+y,z
1/2-x,1/2+y,-z
1/2-x,1/2-y,-z
1/2+x,1/2-y,z
loop_
_atom_site_type_symbol
_atom_site_label
_atom_site_fract_x
_atom_site_fract_y
_atom_site_fract_z
Si Si1 0.328321 0.315136 0.859057
Si Si2 0.622442 0.312701 0.265133
Si Si3 0.640672 0.816088 0.950496
Si Si4 0.572301 0.314024 0.648406
Si Si5 0.464216 0.686151 0.563343
Si Si6 0.453823 0.682497 0.935148
Si Si7 0.720576 0.813916 0.349957
O O1 0.313730 0.500000 0.855238
O O2 0.348664 0.241367 0.797425
O O3 0.230967 0.244514 0.902044
O O4 0.418668 0.277570 0.881850
O O5 0.624509 0.500000 0.264801
O O6 0.513967 0.252546 0.298114
O O7 0.699566 0.253545 0.295079
O O8 0.545703 0.791468 0.930857
O O9 0.654636 0.000000 0.960477
O O10 0.631238 0.722531 0.007803
O O11 0.578581 0.500000 0.650828
O O12 0.544983 0.262736 0.592841
O O13 0.675987 0.242973 0.648040
O O14 0.500000 0.747242 0.500000
O O15 0.448374 0.500000 0.566839
O O16 0.360997 0.764189 0.593718
O O17 0.482132 0.500000 0.936236
O O18 0.724795 0.000000 0.345553
#
# Coordination Sequence:
#
# PCOD8087504 Si02
#       7
#     8   8   8   8   8   8   8
#     4   9  19  33  52  73  95 126 165 204 245 291
#     4   9  18  36  54  69  94 131 169 202 239 292
#     4  10  19  33  50  72 100 129 159 200 250 293
#     4   8  16  31  51  71  97 131 161 195 242 288
#     4   9  18  34  54  75 100 134 172 201 233 289
#     4  10  19  33  51  73  97 127 164 199 241 300
#     4  10  19  32  50  75 103 130 161 202 250 287
#
# _framework density 19.050439000000001
#
# number of rings (size 3 to 8) (size 9 to 14) (size 15 to 20)
#    0.000    2.714    0.000    3.429    0.000    2.000 
#    0.000   12.143    0.000    0.000    0.000    0.000 
#    0.000    0.000    0.000    0.000    0.000    0.000 
#
# Total GULP energy -347128.795680 kJ/mol
# GULP energy per Si atom -12397.456989 kJ/mol
# Density = 1.900708 g / cm^3
# Si number density = 19.050439 Si / 1000 Ang^3
#
#
#
# Elastic Constant Matrix: (Units=GPa)
#
#
# Indices 1 2 3 4 5 6 
#
# 1 118.9369 8.6502 57.1023 0.0000 8.3048 0.0000
# 2 8.6502 27.3294 11.9738 0.0000 1.9301 0.0000
# 3 57.1023 11.9738 147.5243 0.0000 14.1473 0.0000
# 4 0.0000 0.0000 0.0000 22.2004 0.0000 2.1058
# 5 8.3048 1.9301 14.1473 0.0000 20.3833 0.0000
# 6 0.0000 0.0000 0.0000 2.1058 0.0000 22.8989
#
#
#
# Elastic Compliance Matrix: (Units=1/GPa)
#
#
# Indices 1 2 3 4 5 6 
#
# 1 0.010434 -0.001546 -0.003771 0.000000 -0.001488 0.000000
# 2 -0.001546 0.038215 -0.002375 0.000000 -0.001341 0.000000
# 3 -0.003771 -0.002375 0.008851 0.000000 -0.004382 0.000000
# 4 0.000000 0.000000 0.000000 0.045441 0.000000 -0.004179
# 5 -0.001488 -0.001341 -0.004382 0.000000 0.052834 0.000000
# 6 0.000000 0.000000 0.000000 -0.004179 0.000000 0.044055
#
#
# Mechanical properties :
#
#
# Convention : Reuss Voigt Hill
#
# Bulk Modulus (GPa) = 23.74271 49.91588 36.82930
# Shear Modulus (GPa) = 21.81007 27.50081 24.65544
#
# Velocity S-wave (km/s) = 3.38725 3.80357 3.60143
# Velocity P-wave (km/s) = 5.27144 6.74895 6.05543
#
# Compressibility (1/GPa) = 0.04211819
#
# Stress axis : x y z
#
# Youngs Moduli (GPa) = 95.83617 26.16772 112.98061
#
# Poissons Ratio (x) = 0.04044 0.42602
# Poissons Ratio (y) = 0.14812 0.26832
# Poissons Ratio (z) = 0.36137 0.06215
#
# Static dielectric constant tensor:
#      x y z
#    x 3.662290 0.000000 -0.021960 
#    y 0.000000 3.151190 0.000000 
#    z -0.021960 0.000000 3.773500 
# 
# 
# High freq. dielectric constant tensor:
#      x y z
#    x 1.745260 0.000000 0.002900 
#    y 0.000000 1.712600 0.000000 
#    z 0.002900 0.000000 1.742790 
# 
# From -- ./inp_files/337846.got.cif
#   From: 2010.06.25/outbox.cif.g09.slc.cpg/sg12_169_cif.got.tgz:337846.got - 2010.06.28 00:19:55.
