data_PCOD8087651
_publ_section_title
;
Structure prediction by ZEFSAII (Michael W. Deem and Ramdas Pophale) SiO2 
 PCOD8087651
Probable space group: C 2/M
;
_chemical_formula_sum "Si O2"
_cell_formula_units_Z 64
_cell_length_a 14.621208
_cell_length_b 9.307399
_cell_length_c 27.051650
_cell_angle_alpha 90.000000
_cell_angle_beta 106.068286
_cell_angle_gamma 90.000000
_cell_volume 3537.514522
_symmetry_space_group_name_H-M "C 2/M"
_symmetry_group_IT_number 12
_symmetry_cell_setting 'monoclinic'
loop_
_space_group_symop_operation_xyz
x,y,z
-x,y,-z
-x,-y,-z
x,-y,z
1/2+x,1/2+y,z
1/2-x,1/2+y,-z
1/2-x,1/2-y,-z
1/2+x,1/2-y,z
loop_
_atom_site_type_symbol
_atom_site_label
_atom_site_fract_x
_atom_site_fract_y
_atom_site_fract_z
Si Si1 0.346657 0.170464 0.999393
Si Si2 0.965621 0.168442 0.629309
Si Si3 0.533191 0.663191 0.745427
Si Si4 0.039901 0.329948 0.078187
Si Si5 0.146328 0.666380 0.626669
Si Si6 0.075895 0.330021 0.192814
Si Si7 0.230154 0.835775 0.447898
Si Si8 0.731839 0.334096 0.726300
O O1 0.380994 0.220912 0.949830
O O2 0.328500 0.000000 0.998936
O O3 0.250000 0.250000 0.000000
O O4 0.432337 0.218505 0.048786
O O5 0.969296 0.204049 0.688158
O O6 0.865095 0.219471 0.593145
O O7 0.044694 0.257667 0.612087
O O8 0.986305 0.000000 0.624329
O O9 0.513559 0.500000 0.758582
O O10 0.508724 0.765754 0.787134
O O11 0.643262 0.687913 0.749429
O O12 0.041547 0.500000 0.078144
O O13 0.067676 0.268147 0.136043
O O14 0.136659 0.500000 0.639950
O O15 0.183029 0.684950 0.576554
O O16 0.220214 0.739132 0.675554
O O17 0.065097 0.500000 0.191356
O O18 0.176137 0.280171 0.230446
O O19 0.250000 0.750000 0.500000
O O20 0.217257 0.000000 0.461412
O O21 0.740402 0.500000 0.711219
#
# Coordination Sequence:
#
# PCOD8087651 Si02
#       8
#     8   8   8   8   8   8   8   8
#     4   9  17  33  55  73  94 130 171 208 248 293
#     4   9  19  37  56  73  99 135 168 199 244 300
#     4   9  18  33  51  73 102 132 162 200 246 291
#     4   8  17  33  50  71 101 134 165 200 249 302
#     4  10  20  35  55  77 100 128 166 209 246 285
#     4  10  19  32  51  74 101 133 168 203 240 292
#     4  10  22  37  53  75 102 131 163 203 251 298
#     4   9  19  34  51  72 100 134 166 196 241 300
#
# _framework density 18.091799000000002
#
# number of rings (size 3 to 8) (size 9 to 14) (size 15 to 20)
#    0.000    2.750    0.000    2.625    0.000    6.500 
#    0.000    6.250    0.000    0.000    0.000    0.000 
#    0.000    0.000    0.000    0.000    0.000    0.000 
#
# Total GULP energy -396773.932840 kJ/mol
# GULP energy per Si atom -12399.185401 kJ/mol
# Density = 1.805062 g / cm^3
# Si number density = 18.091799 Si / 1000 Ang^3
#
#
#
# Elastic Constant Matrix: (Units=GPa)
#
#
# Indices 1 2 3 4 5 6 
#
# 1 89.3066 32.6068 38.4049 0.0000 -9.0853 0.0000
# 2 32.6068 47.5761 33.3226 0.0000 -8.1345 0.0000
# 3 38.4049 33.3226 98.2014 0.0000 -14.0417 0.0000
# 4 0.0000 0.0000 0.0000 25.2214 0.0000 -5.4201
# 5 -9.0853 -8.1345 -14.0417 0.0000 19.5232 0.0000
# 6 0.0000 0.0000 0.0000 -5.4201 0.0000 32.1548
#
#
#
# Elastic Compliance Matrix: (Units=1/GPa)
#
#
# Indices 1 2 3 4 5 6 
#
# 1 0.015738 -0.008343 -0.003092 0.000000 0.001624 0.000000
# 2 -0.008343 0.032497 -0.007115 0.000000 0.004540 0.000000
# 3 -0.003092 -0.007115 0.014687 0.000000 0.006160 0.000000
# 4 0.000000 0.000000 0.000000 0.041139 0.000000 0.006934
# 5 0.001624 0.004540 0.006160 0.000000 0.058299 0.000000
# 6 0.000000 0.000000 0.000000 0.006934 0.000000 0.032268
#
#
# Mechanical properties :
#
#
# Convention : Reuss Voigt Hill
#
# Bulk Modulus (GPa) = 38.72573 49.30587 44.01580
# Shear Modulus (GPa) = 20.80413 24.09654 22.45034
#
# Velocity S-wave (km/s) = 3.39473 3.65349 3.52648
# Velocity P-wave (km/s) = 6.06771 6.71637 6.40026
#
# Compressibility (1/GPa) = 0.02582262
#
# Stress axis : x y z
#
# Youngs Moduli (GPa) = 63.53909 30.77227 68.08538
#
# Poissons Ratio (x) = 0.25674 0.21049
# Poissons Ratio (y) = 0.53013 0.48443
# Poissons Ratio (z) = 0.19644 0.21894
#
# Static dielectric constant tensor:
#      x y z
#    x 3.344610 0.000000 0.072570 
#    y 0.000000 3.159890 0.000000 
#    z 0.072570 0.000000 3.532620 
# 
# 
# High freq. dielectric constant tensor:
#      x y z
#    x 1.707180 0.000000 0.000090 
#    y 0.000000 1.683630 0.000000 
#    z 0.000090 0.000000 1.699610 
# 
# From -- ./inp_files/359793.got.cif
#   From: 2010.06.25/outbox.cif.g09.slc.cpg/sg12_180_cif.got.tgz:359793.got - 2010.06.28 00:19:55.
