data_PCOD8087709
_publ_section_title
;
Structure prediction by ZEFSAII (Michael W. Deem and Ramdas Pophale) SiO2 
 PCOD8087709
Probable space group: C 2/M
;
_chemical_formula_sum "Si O2"
_cell_formula_units_Z 48
_cell_length_a 27.270870
_cell_length_b 8.535229
_cell_length_c 23.689131
_cell_angle_alpha 90.000000
_cell_angle_beta 150.017209
_cell_angle_gamma 90.000000
_cell_volume 2755.543645
_symmetry_space_group_name_H-M "C 2/M"
_symmetry_group_IT_number 12
_symmetry_cell_setting 'monoclinic'
loop_
_space_group_symop_operation_xyz
x,y,z
-x,y,-z
-x,-y,-z
x,-y,z
1/2+x,1/2+y,z
1/2-x,1/2+y,-z
1/2-x,1/2-y,-z
1/2+x,1/2-y,z
loop_
_atom_site_type_symbol
_atom_site_label
_atom_site_fract_x
_atom_site_fract_y
_atom_site_fract_z
Si Si1 0.852716 0.185418 0.377381
Si Si2 0.360629 0.182521 0.165312
Si Si3 0.538287 0.815234 0.618640
Si Si4 0.954485 0.681979 0.034144
Si Si5 0.358015 0.683640 0.831738
Si Si6 0.136345 0.181442 0.949079
O O1 0.882873 0.241327 0.345199
O O2 0.749963 0.260491 0.292284
O O3 0.931628 0.242052 0.502095
O O4 0.845007 0.000000 0.370448
O O5 0.430444 0.226886 0.286841
O O6 0.398193 0.279130 0.148811
O O7 0.365379 0.000000 0.155009
O O8 0.249636 0.230453 0.070186
O O9 0.535755 0.000000 0.605354
O O10 0.940101 0.500000 0.007030
O O11 0.928925 0.718783 0.073113
O O12 0.066690 0.729061 0.134614
O O13 0.881664 0.777174 0.920453
O O14 0.367848 0.500000 0.831794
O O15 0.119056 0.000000 0.944509
#
# Coordination Sequence:
#
# PCOD8087709 Si02
#       6
#     8   8   8   8   8   8
#     4  11  21  33  50  75 104 133 168 208 252 298
#     4   9  19  33  50  73 101 133 169 208 247 291
#     4  10  19  33  52  74 102 136 171 207 251 298
#     4  11  21  34  52  76 104 132 165 205 250 296
#     4  11  21  35  53  74 101 133 169 205 248 299
#     4  10  19  32  51  75 103 135 168 203 247 296
#
# _framework density 17.419429000000001
#
# number of rings (size 3 to 8) (size 9 to 14) (size 15 to 20)
#    0.000    1.667    0.000    8.500    0.000    3.333 
#    0.000    0.000    0.000    1.000    0.000    0.000 
#    0.000    0.000    0.000    0.000    0.000    0.000 
#
# Total GULP energy -297718.279914 kJ/mol
# GULP energy per Si atom -12404.928330 kJ/mol
# Density = 1.737978 g / cm^3
# Si number density = 17.419429 Si / 1000 Ang^3
#
#
#
# Elastic Constant Matrix: (Units=GPa)
#
#
# Indices 1 2 3 4 5 6 
#
# 1 102.9204 27.0235 46.8654 0.0000 -2.1423 0.0000
# 2 27.0235 79.5404 17.3123 0.0000 -2.0819 0.0000
# 3 46.8654 17.3123 99.3239 0.0000 -0.1598 0.0000
# 4 0.0000 0.0000 0.0000 28.0852 0.0000 0.0953
# 5 -2.1423 -2.0819 -0.1598 0.0000 25.2455 0.0000
# 6 0.0000 0.0000 0.0000 0.0953 0.0000 31.2288
#
#
#
# Elastic Compliance Matrix: (Units=1/GPa)
#
#
# Indices 1 2 3 4 5 6 
#
# 1 0.013147 -0.003217 -0.005641 0.000000 0.000815 0.000000
# 2 -0.003217 0.013884 -0.000901 0.000000 0.000866 0.000000
# 3 -0.005641 -0.000901 0.012886 0.000000 -0.000471 0.000000
# 4 0.000000 0.000000 0.000000 0.035606 0.000000 -0.000109
# 5 0.000815 0.000866 -0.000471 0.000000 0.039749 0.000000
# 6 0.000000 0.000000 0.000000 -0.000109 0.000000 0.032022
#
#
# Mechanical properties :
#
#
# Convention : Reuss Voigt Hill
#
# Bulk Modulus (GPa) = 49.02272 51.57635 50.29953
# Shear Modulus (GPa) = 28.79998 29.61745 29.20871
#
# Velocity S-wave (km/s) = 4.07052 4.12789 4.09930
# Velocity P-wave (km/s) = 7.09196 7.23824 7.16547
#
# Compressibility (1/GPa) = 0.02039871
#
# Stress axis : x y z
#
# Youngs Moduli (GPa) = 76.06481 72.02539 77.60369
#
# Poissons Ratio (x) = 0.23173 0.43777
# Poissons Ratio (y) = 0.24473 0.06988
# Poissons Ratio (z) = 0.42909 0.06486
#
# Static dielectric constant tensor:
#      x y z
#    x 3.134600 0.000000 0.006910 
#    y 0.000000 3.356590 0.000000 
#    z 0.006910 0.000000 3.184220 
# 
# 
# High freq. dielectric constant tensor:
#      x y z
#    x 1.662240 0.000000 0.000920 
#    y 0.000000 1.691690 0.000000 
#    z 0.000920 0.000000 1.662790 
# 
# From -- ./inp_files/351150.got.cif
#   From: 2010.06.25/outbox.cif.g09.slc.cpg/sg12_176_cif.got.tgz:351150.got - 2010.06.28 00:19:55.
