data_PCOD8087253
_publ_section_title
;
Structure prediction by ZEFSAII (Michael W. Deem and Ramdas Pophale) SiO2 
 PCOD8087253
Probable space group: C 2/M
;
_chemical_formula_sum "Si O2"
_cell_formula_units_Z 56
_cell_length_a 24.997457
_cell_length_b 9.061411
_cell_length_c 16.410298
_cell_angle_alpha 90.000000
_cell_angle_beta 56.694174
_cell_angle_gamma 90.000000
_cell_volume 3106.599783
_symmetry_space_group_name_H-M "C 2/M"
_symmetry_group_IT_number 12
_symmetry_cell_setting 'monoclinic'
loop_
_space_group_symop_operation_xyz
x,y,z
-x,y,-z
-x,-y,-z
x,-y,z
1/2+x,1/2+y,z
1/2-x,1/2+y,-z
1/2-x,1/2-y,-z
1/2+x,1/2-y,z
loop_
_atom_site_type_symbol
_atom_site_label
_atom_site_fract_x
_atom_site_fract_y
_atom_site_fract_z
Si Si1 0.653169 0.172991 0.078271
Si Si2 0.489699 0.824530 0.763800
Si Si3 0.242318 0.173790 0.880344
Si Si4 0.664595 0.169258 0.500452
Si Si5 0.526677 0.167861 0.558715
Si Si6 0.230254 0.828087 0.708984
Si Si7 0.885840 0.828084 0.300842
O O1 0.579701 0.224336 0.146769
O O2 0.691477 0.214464 0.129082
O O3 0.658052 0.000000 0.057912
O O4 0.682425 0.255722 0.976853
O O5 0.498135 0.761058 0.665041
O O6 0.546102 0.752281 0.770661
O O7 0.499398 0.000000 0.758264
O O8 0.243372 0.239749 0.787699
O O9 0.230564 0.000000 0.888560
O O10 0.602972 0.177774 0.493794
O O11 0.722455 0.239337 0.399245
O O12 0.654092 0.265411 0.589619
O O13 0.677611 0.000000 0.516441
O O14 0.500000 0.249724 0.500000
O O15 0.501905 0.000000 0.578062
O O16 0.156774 0.800400 0.744296
O O17 0.246939 0.000000 0.698811
O O18 0.898068 0.000000 0.305713
#
# Coordination Sequence:
#
# PCOD8087253 Si02
#       7
#     8   8   8   8   8   8   8
#     4   9  18  33  53  75  99 124 156 199 249 296
#     4   9  18  32  50  71  95 127 163 198 239 287
#     4   9  18  33  53  76  99 123 157 202 247 289
#     4   9  17  30  48  70  98 129 163 199 237 280
#     4   8  14  23  41  70  95 115 150 196 231 268
#     4   9  18  31  50  74  97 126 166 204 235 280
#     4  10  19  32  48  70 100 131 164 198 237 285
#
# _framework density 18.026140999999999
#
# number of rings (size 3 to 8) (size 9 to 14) (size 15 to 20)
#    0.000    3.000    0.000    1.714    2.000    0.571 
#    0.000    3.571    0.000   11.143    0.000    0.000 
#    0.000    0.000    0.000    0.000    0.000    0.000 
#
# Total GULP energy -347074.654398 kJ/mol
# GULP energy per Si atom -12395.523371 kJ/mol
# Density = 1.798511 g / cm^3
# Si number density = 18.026141 Si / 1000 Ang^3
#
#
#
# Elastic Constant Matrix: (Units=GPa)
#
#
# Indices 1 2 3 4 5 6 
#
# 1 98.5275 28.4375 61.5964 0.0000 -6.7102 0.0000
# 2 28.4375 35.6903 28.7289 -0.0001 -4.3285 -0.0002
# 3 61.5964 28.7289 102.8402 0.0000 -18.2621 0.0000
# 4 0.0000 -0.0001 0.0000 24.1285 0.0000 -3.5775
# 5 -6.7102 -4.3285 -18.2621 0.0000 31.6784 0.0000
# 6 0.0000 -0.0002 0.0000 -3.5775 0.0000 22.7159
#
#
#
# Elastic Compliance Matrix: (Units=1/GPa)
#
#
# Indices 1 2 3 4 5 6 
#
# 1 0.017688 -0.007112 -0.009040 0.000000 -0.002437 0.000000
# 2 -0.007112 0.039034 -0.006645 0.000000 -0.000004 0.000000
# 3 -0.009040 -0.006645 0.018374 0.000000 0.007770 0.000000
# 4 0.000000 0.000000 0.000000 0.042436 0.000000 0.006683
# 5 -0.002437 -0.000004 0.007770 0.000000 0.035530 0.000000
# 6 0.000000 0.000000 0.000000 0.006683 0.000000 0.045075
#
#
# Mechanical properties :
#
#
# Convention : Reuss Voigt Hill
#
# Bulk Modulus (GPa) = 33.89624 52.73151 43.31387
# Shear Modulus (GPa) = 19.71879 23.59090 21.65485
#
# Velocity S-wave (km/s) = 3.31100 3.62153 3.46974
# Velocity P-wave (km/s) = 5.78461 6.84131 6.33504
#
# Compressibility (1/GPa) = 0.02950180
#
# Stress axis : x y z
#
# Youngs Moduli (GPa) = 56.53623 25.61848 54.42337
#
# Poissons Ratio (x) = 0.18220 0.49199
# Poissons Ratio (y) = 0.40209 0.36166
# Poissons Ratio (z) = 0.51109 0.17024
#
# Static dielectric constant tensor:
#      x y z
#    x 3.486010 0.000000 0.007330 
#    y 0.000000 3.013120 0.000000 
#    z 0.007330 0.000000 3.348830 
# 
# 
# High freq. dielectric constant tensor:
#      x y z
#    x 1.706180 0.000000 -0.005510 
#    y 0.000000 1.661440 0.000000 
#    z -0.005510 0.000000 1.688120 
# 
# From -- ./inp_files/291829.got.cif
#   From: 2010.06.25/outbox.cif.g09.slc.cpg/sg12_146_cif.got.tgz:291829.got - 2010.06.28 00:19:55.
