data_PCOD8087954
_publ_section_title
;
Structure prediction by ZEFSAII (Michael W. Deem and Ramdas Pophale) SiO2 
 PCOD8087954
Probable space group: C 2/M
;
_chemical_formula_sum "Si O2"
_cell_formula_units_Z 28
_cell_length_a 19.457930
_cell_length_b 13.837976
_cell_length_c 6.416760
_cell_angle_alpha 90.000000
_cell_angle_beta 61.992341
_cell_angle_gamma 90.000000
_cell_volume 1525.418678
_symmetry_space_group_name_H-M "C 2/M"
_symmetry_group_IT_number 12
_symmetry_cell_setting 'monoclinic'
loop_
_space_group_symop_operation_xyz
x,y,z
-x,y,-z
-x,-y,-z
x,-y,z
1/2+x,1/2+y,z
1/2-x,1/2+y,-z
1/2-x,1/2-y,-z
1/2+x,1/2-y,z
loop_
_atom_site_type_symbol
_atom_site_label
_atom_site_fract_x
_atom_site_fract_y
_atom_site_fract_z
Si Si1 0.000000 0.185055 0.000000
Si Si2 0.256887 0.388700 0.340032
Si Si3 0.365510 0.732265 0.470260
Si Si4 0.387788 0.607703 0.828587
O O1 0.957364 0.116420 0.895256
O O2 0.063535 0.251333 0.791123
O O3 0.240085 0.500000 0.415638
O O4 0.303239 0.343631 0.468231
O O5 0.174613 0.334894 0.427570
O O6 0.305073 0.376285 0.058811
O O7 0.398824 0.687526 0.635396
O O8 0.392168 0.500000 0.726358
#
# Coordination Sequence:
#
# PCOD8087954 Si02
#       4
#     4   8   8   8
#     4  10  21  32  47  74 104 130 161 198 241 294
#     4   9  19  34  52  75  98 125 166 205 238 286
#     4  10  19  33  52  73 101 131 159 199 246 289
#     4  10  19  32  52  75  99 128 161 201 248 290
#
# _framework density 18.355616000000001
#
# number of rings (size 3 to 8) (size 9 to 14) (size 15 to 20)
#    0.000    2.286    0.000    3.000    0.000    4.571 
#    0.000    0.714    0.000    3.429    0.000    0.000 
#    0.000    0.000    0.000    0.000    0.000    0.000 
#
# Total GULP energy -173623.046520 kJ/mol
# GULP energy per Si atom -12401.646180 kJ/mol
# Density = 1.831384 g / cm^3
# Si number density = 18.355616 Si / 1000 Ang^3
#
#
#
# Elastic Constant Matrix: (Units=GPa)
#
#
# Indices 1 2 3 4 5 6 
#
# 1 88.5510 46.3834 48.5967 0.0000 -5.9178 0.0000
# 2 46.3834 105.2322 47.8668 0.0000 -12.4013 0.0000
# 3 48.5967 47.8668 89.1549 0.0000 -10.1913 0.0000
# 4 0.0000 0.0000 0.0000 21.1218 0.0000 2.3675
# 5 -5.9178 -12.4013 -10.1913 0.0000 36.8653 0.0000
# 6 0.0000 0.0000 0.0000 2.3675 0.0000 17.6189
#
#
#
# Elastic Compliance Matrix: (Units=1/GPa)
#
#
# Indices 1 2 3 4 5 6 
#
# 1 0.017597 -0.004551 -0.007229 0.000000 -0.000705 0.000000
# 2 -0.004551 0.013967 -0.004713 0.000000 0.002665 0.000000
# 3 -0.007229 -0.004713 0.017940 0.000000 0.002214 0.000000
# 4 0.000000 0.000000 0.000000 0.048068 0.000000 -0.006459
# 5 -0.000705 0.002665 0.002214 0.000000 0.028521 0.000000
# 6 0.000000 0.000000 0.000000 -0.006459 0.000000 0.057625
#
#
# Mechanical properties :
#
#
# Convention : Reuss Voigt Hill
#
# Bulk Modulus (GPa) = 60.54197 63.18132 61.86164
# Shear Modulus (GPa) = 22.50114 24.46062 23.48088
#
# Velocity S-wave (km/s) = 3.50501 3.65443 3.58050
# Velocity P-wave (km/s) = 7.03097 7.23201 7.13220
#
# Compressibility (1/GPa) = 0.01651747
#
# Stress axis : x y z
#
# Youngs Moduli (GPa) = 56.82824 71.59838 55.74030
#
# Poissons Ratio (x) = 0.32585 0.40294
# Poissons Ratio (y) = 0.25863 0.26273
# Poissons Ratio (z) = 0.41080 0.33747
#
# Static dielectric constant tensor:
#      x y z
#    x 3.328280 0.000000 -0.116520 
#    y 0.000000 3.151880 0.000000 
#    z -0.116520 0.000000 3.499600 
# 
# 
# High freq. dielectric constant tensor:
#      x y z
#    x 1.706550 0.000000 -0.001280 
#    y 0.000000 1.684430 0.000000 
#    z -0.001280 0.000000 1.721820 
# 
# From -- ./inp_files/14104.got.cif
#   From: 2010.06.25/outbox.cif.g09.slc.cpg/sg12_8_cif.got.tgz:14104.got - 2010.06.28 00:19:55.
