data_PCOD8087200
_publ_section_title
;
Structure prediction by ZEFSAII (Michael W. Deem and Ramdas Pophale) SiO2 
 PCOD8087200
Probable space group: C 2/M
;
_chemical_formula_sum "Si O2"
_cell_formula_units_Z 64
_cell_length_a 9.156765
_cell_length_b 26.844225
_cell_length_c 22.218625
_cell_angle_alpha 90.000000
_cell_angle_beta 133.662043
_cell_angle_gamma 90.000000
_cell_volume 3950.967328
_symmetry_space_group_name_H-M "C 2/M"
_symmetry_group_IT_number 12
_symmetry_cell_setting 'monoclinic'
loop_
_space_group_symop_operation_xyz
x,y,z
-x,y,-z
-x,-y,-z
x,-y,z
1/2+x,1/2+y,z
1/2-x,1/2+y,-z
1/2-x,1/2-y,-z
1/2+x,1/2-y,z
loop_
_atom_site_type_symbol
_atom_site_label
_atom_site_fract_x
_atom_site_fract_y
_atom_site_fract_z
Si Si1 0.286148 0.730807 0.443227
Si Si2 0.981621 0.195068 0.086030
Si Si3 0.348534 0.212489 0.340553
Si Si4 0.788554 0.654555 0.089686
Si Si5 0.791896 0.944615 0.131005
Si Si6 0.325129 0.212937 0.802231
Si Si7 0.014258 0.846776 0.786580
Si Si8 0.666082 0.055668 0.963183
O O1 0.500000 0.698788 0.500000
O O2 0.250000 0.750000 0.500000
O O3 0.332452 0.774651 0.407304
O O4 0.071143 0.702699 0.373432
O O5 0.902650 0.173014 0.126097
O O6 0.162870 0.159770 0.114861
O O7 0.072895 0.250444 0.119596
O O8 0.799685 0.192904 0.986071
O O9 0.235995 0.258093 0.275409
O O10 0.224889 0.161912 0.291412
O O11 0.763407 0.597042 0.063858
O O12 0.017602 0.669294 0.168659
O O13 0.940048 0.905428 0.205575
O O14 0.566162 0.934268 0.088178
O O15 0.862280 0.000000 0.169958
O O16 0.799806 0.938906 0.061241
O O17 0.125525 0.186297 0.768687
O O18 0.694956 0.000000 0.944278
#
# Coordination Sequence:
#
# PCOD8087200 Si02
#       8
#     8   8   8   8   8   8   8   8
#     4   9  18  33  53  71  99 134 155 180 213 272
#     4  10  22  31  40  64  92 124 166 207 241 285
#     4  10  19  32  46  76 102 129 158 183 229 284
#     4  11  20  33  43  62  89 124 171 211 246 283
#     4   9  17  31  48  67  84 117 170 216 251 282
#     4  11  21  31  46  63  96 135 162 191 237 280
#     4  11  19  31  49  68  93 129 159 202 246 280
#     4   9  17  31  49  62  80 116 172 225 254 283
#
# _framework density 16.198564999999999
#
# number of rings (size 3 to 8) (size 9 to 14) (size 15 to 20)
#    0.000    2.000    3.750    2.625    1.750    1.500 
#    0.000    1.875    0.000    0.000    0.000    0.000 
#    0.000    5.000    0.000    1.000    0.000    0.000 
#
# Total GULP energy -396456.220842 kJ/mol
# GULP energy per Si atom -12389.256901 kJ/mol
# Density = 1.616170 g / cm^3
# Si number density = 16.198565 Si / 1000 Ang^3
#
#
#
# Elastic Constant Matrix: (Units=GPa)
#
#
# Indices 1 2 3 4 5 6 
#
# 1 83.4020 23.7265 25.2369 0.0000 10.9966 0.0000
# 2 23.7265 93.0492 23.0547 0.0000 8.0734 0.0000
# 3 25.2369 23.0547 58.1497 0.0000 10.2671 0.0000
# 4 0.0000 0.0000 0.0000 10.6683 0.0000 2.4765
# 5 10.9966 8.0734 10.2671 0.0000 31.9103 0.0000
# 6 0.0000 0.0000 0.0000 2.4765 0.0000 16.2718
#
#
#
# Elastic Compliance Matrix: (Units=1/GPa)
#
#
# Indices 1 2 3 4 5 6 
#
# 1 0.014483 -0.002232 -0.004897 0.000000 -0.002851 0.000000
# 2 -0.002232 0.012338 -0.003719 0.000000 -0.001156 0.000000
# 3 -0.004897 -0.003719 0.021557 0.000000 -0.004308 0.000000
# 4 0.000000 0.000000 0.000000 0.097169 0.000000 -0.014789
# 5 -0.002851 -0.001156 -0.004308 0.000000 0.033998 0.000000
# 6 0.000000 0.000000 0.000000 -0.014789 0.000000 0.063707
#
#
# Mechanical properties :
#
#
# Convention : Reuss Voigt Hill
#
# Bulk Modulus (GPa) = 37.47905 42.07079 39.77492
# Shear Modulus (GPa) = 18.25869 22.60895 20.43382
#
# Velocity S-wave (km/s) = 3.36099 3.74001 3.55556
# Velocity P-wave (km/s) = 6.18459 6.68420 6.43924
#
# Compressibility (1/GPa) = 0.02668157
#
# Stress axis : x y z
#
# Youngs Moduli (GPa) = 69.04711 81.05121 46.38798
#
# Poissons Ratio (x) = 0.18093 0.22717
# Poissons Ratio (y) = 0.15413 0.17251
# Poissons Ratio (z) = 0.33814 0.30141
#
# Static dielectric constant tensor:
#      x y z
#    x 3.336360 0.000000 0.220800 
#    y 0.000000 2.918160 0.000000 
#    z 0.220800 0.000000 3.083730 
# 
# 
# High freq. dielectric constant tensor:
#      x y z
#    x 1.637880 0.000000 0.006230 
#    y 0.000000 1.588630 0.000000 
#    z 0.006230 0.000000 1.599040 
# 
# From -- ./inp_files/302569.got.cif
#   From: 2010.06.25/outbox.cif.g09.slc.cpg/sg12_152_cif.got.tgz:302569.got - 2010.06.28 00:19:55.
