data_PCOD8087139
_publ_section_title
;
Structure prediction by ZEFSAII (Michael W. Deem and Ramdas Pophale) SiO2 
 PCOD8087139
Probable space group: C 2/M
;
_chemical_formula_sum "Si O2"
_cell_formula_units_Z 64
_cell_length_a 22.741214
_cell_length_b 9.336761
_cell_length_c 16.291767
_cell_angle_alpha 90.000000
_cell_angle_beta 86.208830
_cell_angle_gamma 90.000000
_cell_volume 3451.649244
_symmetry_space_group_name_H-M "C 2/M"
_symmetry_group_IT_number 12
_symmetry_cell_setting 'monoclinic'
loop_
_space_group_symop_operation_xyz
x,y,z
-x,y,-z
-x,-y,-z
x,-y,z
1/2+x,1/2+y,z
1/2-x,1/2+y,-z
1/2-x,1/2-y,-z
1/2+x,1/2-y,z
loop_
_atom_site_type_symbol
_atom_site_label
_atom_site_fract_x
_atom_site_fract_y
_atom_site_fract_z
Si Si1 0.522812 0.670501 0.413786
Si Si2 0.343530 0.834618 0.267692
Si Si3 0.140543 0.830284 0.328155
Si Si4 0.245627 0.330455 0.586885
Si Si5 0.917011 0.168250 0.833945
Si Si6 0.228226 0.663317 0.885528
Si Si7 0.165106 0.665012 0.054937
Si Si8 0.461233 0.332241 0.256595
O O1 0.500000 0.740079 0.500000
O O2 0.524125 0.500000 0.418276
O O3 0.588522 0.728626 0.391564
O O4 0.478923 0.718339 0.345971
O O5 0.315028 0.794053 0.359009
O O6 0.295580 0.801593 0.202310
O O7 0.401340 0.746449 0.239292
O O8 0.361378 0.000000 0.264782
O O9 0.202081 0.773664 0.358420
O O10 0.126140 0.781506 0.236596
O O11 0.140004 0.000000 0.328573
O O12 0.251339 0.500000 0.570244
O O13 0.250000 0.250000 0.500000
O O14 0.895536 0.253729 0.916321
O O15 0.985081 0.208232 0.809406
O O16 0.911258 0.000000 0.850378
O O17 0.251986 0.500000 0.887842
O O18 0.281344 0.769685 0.898087
O O19 0.176252 0.685751 0.956984
O O20 0.158988 0.500000 0.079664
O O21 0.448857 0.500000 0.254158
#
# Coordination Sequence:
#
# PCOD8087139 Si02
#       8
#     8   8   8   8   8   8   8   8
#     4   8  14  25  46  74  95 117 161 215 256 290
#     4  10  21  37  54  71 102 143 175 206 257 318
#     4   8  15  29  48  69  94 127 167 203 242 300
#     4  10  21  34  50  73  98 130 168 205 252 306
#     4   9  17  33  54  76 104 137 171 209 256 309
#     4   9  19  36  55  77 105 140 174 207 253 311
#     4  10  19  31  54  85 108 128 168 219 261 300
#     4   9  19  33  52  78 101 131 177 220 256 300
#
# _framework density 18.541861999999998
#
# number of rings (size 3 to 8) (size 9 to 14) (size 15 to 20)
#    0.000    2.875    0.000    2.625    1.750    4.000 
#    0.000    2.500    0.000    4.875    0.000    0.000 
#    0.000    0.000    0.000    0.000    0.000    0.000 
#
# Total GULP energy -396643.548539 kJ/mol
# GULP energy per Si atom -12395.110892 kJ/mol
# Density = 1.849966 g / cm^3
# Si number density = 18.541862 Si / 1000 Ang^3
#
#
#
# Elastic Constant Matrix: (Units=GPa)
#
#
# Indices 1 2 3 4 5 6 
#
# 1 76.9259 37.3955 27.1229 0.0000 -14.1541 0.0000
# 2 37.3955 55.3935 34.4537 0.0000 -12.1689 0.0000
# 3 27.1229 34.4537 83.5700 0.0000 -23.5182 0.0000
# 4 0.0000 0.0000 0.0000 26.6650 0.0000 -3.0411
# 5 -14.1541 -12.1689 -23.5182 0.0000 28.2012 0.0000
# 6 0.0000 0.0000 0.0000 -3.0411 0.0000 28.5302
#
#
#
# Elastic Compliance Matrix: (Units=1/GPa)
#
#
# Indices 1 2 3 4 5 6 
#
# 1 0.019881 -0.012377 -0.000058 0.000000 0.004589 0.000000
# 2 -0.012377 0.032152 -0.009254 0.000000 -0.000056 0.000000
# 3 -0.000058 -0.009254 0.019166 0.000000 0.011961 0.000000
# 4 0.000000 0.000000 0.000000 0.037964 0.000000 0.004047
# 5 0.004589 -0.000056 0.011961 0.000000 0.047714 0.000000
# 6 0.000000 0.000000 0.000000 0.004047 0.000000 0.035482
#
#
# Mechanical properties :
#
#
# Convention : Reuss Voigt Hill
#
# Bulk Modulus (GPa) = 35.94496 45.98148 40.96322
# Shear Modulus (GPa) = 20.40722 24.47377 22.44049
#
# Velocity S-wave (km/s) = 3.32113 3.63701 3.48265
# Velocity P-wave (km/s) = 5.84247 6.51841 6.18968
#
# Compressibility (1/GPa) = 0.02782031
#
# Stress axis : x y z
#
# Youngs Moduli (GPa) = 50.29850 31.10231 52.17504
#
# Poissons Ratio (x) = 0.38496 0.00304
# Poissons Ratio (y) = 0.62256 0.48283
# Poissons Ratio (z) = 0.00293 0.28782
#
# Static dielectric constant tensor:
#      x y z
#    x 3.482520 0.000000 -0.220270 
#    y 0.000000 3.070650 0.000000 
#    z -0.220270 0.000000 3.551610 
# 
# 
# High freq. dielectric constant tensor:
#      x y z
#    x 1.718580 0.000000 -0.019350 
#    y 0.000000 1.684930 0.000000 
#    z -0.019350 0.000000 1.720670 
# 
# From -- ./inp_files/281394.got.cif
#   From: 2010.06.25/outbox.cif.g09.slc.cpg/sg12_141_cif.got.tgz:281394.got - 2010.06.28 00:19:55.
