data_PCOD8087581
_publ_section_title
;
Structure prediction by ZEFSAII (Michael W. Deem and Ramdas Pophale) SiO2 
 PCOD8087581
Probable space group: C 2/M
;
_chemical_formula_sum "Si O2"
_cell_formula_units_Z 56
_cell_length_a 19.325746
_cell_length_b 9.062400
_cell_length_c 26.998563
_cell_angle_alpha 90.000000
_cell_angle_beta 39.653501
_cell_angle_gamma 90.000000
_cell_volume 3017.437511
_symmetry_space_group_name_H-M "C 2/M"
_symmetry_group_IT_number 12
_symmetry_cell_setting 'monoclinic'
loop_
_space_group_symop_operation_xyz
x,y,z
-x,y,-z
-x,-y,-z
x,-y,z
1/2+x,1/2+y,z
1/2-x,1/2+y,-z
1/2-x,1/2-y,-z
1/2+x,1/2-y,z
loop_
_atom_site_type_symbol
_atom_site_label
_atom_site_fract_x
_atom_site_fract_y
_atom_site_fract_z
Si Si1 0.846334 0.824546 0.716875
Si Si2 0.831585 0.835944 0.315784
Si Si3 0.540642 0.167344 0.029991
Si Si4 0.371599 0.334787 0.179586
Si Si5 0.895609 0.324282 0.589125
Si Si6 0.774974 0.167931 0.935590
Si Si7 0.451186 0.676565 0.761893
O O1 0.723716 0.767610 0.789374
O O2 0.905546 0.752332 0.636955
O O3 0.911561 0.772654 0.729700
O O4 0.845657 0.000000 0.711464
O O5 0.874804 0.837352 0.236496
O O6 0.711172 0.762428 0.381648
O O7 0.926082 0.759076 0.296869
O O8 0.816859 0.000000 0.345088
O O9 0.487967 0.270380 0.100638
O O10 0.501597 0.000000 0.060599
O O11 0.500000 0.227212 0.000000
O O12 0.669636 0.179139 0.959117
O O13 0.355853 0.500000 0.167374
O O14 0.884164 0.500000 0.603993
O O15 0.000000 0.281205 0.500000
O O16 0.872339 0.237601 0.849026
O O17 0.802021 0.000000 0.934683
O O18 0.750000 0.250000 0.000000
O O19 0.450708 0.500000 0.765671
#
# Coordination Sequence:
#
# PCOD8087581 Si02
#       7
#     8   8   8   8   8   8   8
#     4  10  19  32  53  77 101 130 164 205 251 299
#     4   8  15  29  50  72  93 125 167 201 235 290
#     4  10  20  33  48  67  94 129 169 213 259 302
#     4  10  19  32  51  72  95 127 168 210 250 297
#     4   9  18  34  55  78 105 135 165 200 244 294
#     4  10  20  33  49  70  98 132 170 214 262 305
#     4   9  17  31  50  71  97 131 169 206 248 300
#
# _framework density 18.558793999999999
#
# number of rings (size 3 to 8) (size 9 to 14) (size 15 to 20)
#    0.000    2.571    0.000    3.429    0.000    4.571 
#    0.000    3.571    0.000    8.571    0.000    0.000 
#    0.000    0.000    0.000    0.000    0.000    0.000 
#
# Total GULP energy -347034.658395 kJ/mol
# GULP energy per Si atom -12394.094943 kJ/mol
# Density = 1.851655 g / cm^3
# Si number density = 18.558794 Si / 1000 Ang^3
#
#
#
# Elastic Constant Matrix: (Units=GPa)
#
#
# Indices 1 2 3 4 5 6 
#
# 1 119.3716 22.3993 42.7802 0.0000 -11.4950 -0.0002
# 2 22.3993 47.8439 25.9685 0.0001 1.5599 -0.0010
# 3 42.7802 25.9685 118.1860 0.0000 -9.3826 -0.0001
# 4 0.0000 0.0001 0.0000 24.6043 0.0000 3.3611
# 5 -11.4950 1.5599 -9.3826 0.0000 22.0490 0.0000
# 6 -0.0002 -0.0010 -0.0001 3.3611 0.0000 20.9264
#
#
#
# Elastic Compliance Matrix: (Units=1/GPa)
#
#
# Indices 1 2 3 4 5 6 
#
# 1 0.010435 -0.003613 -0.002620 0.000000 0.004581 0.000000
# 2 -0.003613 0.025334 -0.004710 0.000000 -0.005680 0.000001
# 3 -0.002620 -0.004710 0.010725 0.000000 0.003531 0.000000
# 4 0.000000 0.000000 0.000000 0.041555 0.000000 -0.006674
# 5 0.004581 -0.005680 0.003531 0.000000 0.049646 0.000000
# 6 0.000000 0.000001 0.000000 -0.006674 0.000000 0.048858
#
#
# Mechanical properties :
#
#
# Convention : Reuss Voigt Hill
#
# Bulk Modulus (GPa) = 40.63492 51.96640 46.30066
# Shear Modulus (GPa) = 23.07960 26.46619 24.77289
#
# Velocity S-wave (km/s) = 3.53029 3.78043 3.65750
# Velocity P-wave (km/s) = 6.20967 6.86421 6.54513
#
# Compressibility (1/GPa) = 0.02460938
#
# Stress axis : x y z
#
# Youngs Moduli (GPa) = 95.83021 39.47222 93.24281
#
# Poissons Ratio (x) = 0.14261 0.24427
# Poissons Ratio (y) = 0.34623 0.43915
# Poissons Ratio (z) = 0.25105 0.18590
#
# Static dielectric constant tensor:
#      x y z
#    x 3.582800 0.000000 -0.242260 
#    y 0.000000 3.185890 0.000000 
#    z -0.242260 0.000000 3.433150 
# 
# 
# High freq. dielectric constant tensor:
#      x y z
#    x 1.725770 0.000000 -0.014210 
#    y 0.000000 1.687940 0.000000 
#    z -0.014210 0.000000 1.714220 
# 
# From -- ./inp_files/377639.got.cif
#   From: 2010.06.25/outbox.cif.g09.slc.cpg/sg12_189_cif.got.tgz:377639.got - 2010.06.28 00:19:55.
