data_PCOD8087604
_publ_section_title
;
Structure prediction by ZEFSAII (Michael W. Deem and Ramdas Pophale) SiO2 
 PCOD8087604
Probable space group: C 2/M
;
_chemical_formula_sum "Si O2"
_cell_formula_units_Z 64
_cell_length_a 29.698903
_cell_length_b 9.102806
_cell_length_c 14.889658
_cell_angle_alpha 90.000000
_cell_angle_beta 78.550396
_cell_angle_gamma 90.000000
_cell_volume 3945.214922
_symmetry_space_group_name_H-M "C 2/M"
_symmetry_group_IT_number 12
_symmetry_cell_setting 'monoclinic'
loop_
_space_group_symop_operation_xyz
x,y,z
-x,y,-z
-x,-y,-z
x,-y,z
1/2+x,1/2+y,z
1/2-x,1/2+y,-z
1/2-x,1/2-y,-z
1/2+x,1/2-y,z
loop_
_atom_site_type_symbol
_atom_site_label
_atom_site_fract_x
_atom_site_fract_y
_atom_site_fract_z
Si Si1 0.210174 0.169308 0.215260
Si Si2 0.688136 0.668689 0.575140
Si Si3 0.351718 0.670587 0.929276
Si Si4 0.810743 0.325917 0.114836
Si Si5 0.455681 0.168720 0.135264
Si Si6 0.373253 0.670692 0.235405
Si Si7 0.787456 0.671766 0.604848
Si Si8 0.058836 0.331064 0.067191
O O1 0.171139 0.198230 0.157641
O O2 0.258917 0.222527 0.156905
O O3 0.196078 0.260359 0.308265
O O4 0.213305 0.000000 0.241883
O O5 0.691545 0.500000 0.543949
O O6 0.645034 0.697649 0.656878
O O7 0.734308 0.714786 0.609853
O O8 0.681688 0.765086 0.488480
O O9 0.351184 0.500000 0.956220
O O10 0.403923 0.726798 0.901229
O O11 0.323314 0.760235 0.013803
O O12 0.816870 0.500000 0.107837
O O13 0.843876 0.264292 0.177659
O O14 0.425774 0.273482 0.211465
O O15 0.508893 0.213508 0.124701
O O16 0.448578 0.000000 0.166374
O O17 0.439181 0.192622 0.040117
O O18 0.370129 0.500000 0.210192
O O19 0.795520 0.500000 0.606361
O O20 0.069682 0.500000 0.085987
#
# Coordination Sequence:
#
# PCOD8087604 Si02
#       8
#     8   8   8   8   8   8   8   8
#     4  10  22  36  49  68  98 135 169 204 245 286
#     4   9  19  33  48  70 101 129 157 200 248 290
#     4  11  22  34  49  71  98 130 170 209 243 284
#     4  11  21  33  48  67  97 137 172 200 237 284
#     4   9  18  32  50  71  98 128 162 200 244 296
#     4  11  20  31  49  75 102 129 162 201 244 290
#     4  10  19  32  51  73  95 126 167 205 240 286
#     4   9  18  33  50  70  96 129 164 201 245 291
#
# _framework density 16.222183999999999
#
# number of rings (size 3 to 8) (size 9 to 14) (size 15 to 20)
#    0.000    2.000    2.500    2.625    0.000    3.500 
#    0.000    1.250    0.000    0.000    0.000    0.875 
#    0.000    7.000    0.000    0.000    0.000    0.000 
#
# Total GULP energy -396896.677219 kJ/mol
# GULP energy per Si atom -12403.021163 kJ/mol
# Density = 1.618526 g / cm^3
# Si number density = 16.222184 Si / 1000 Ang^3
#
#
#
# Elastic Constant Matrix: (Units=GPa)
#
#
# Indices 1 2 3 4 5 6 
#
# 1 86.9386 41.4652 49.0029 0.0000 -8.6476 0.0000
# 2 41.4652 81.7557 60.9499 0.0000 -2.5037 0.0000
# 3 49.0029 60.9499 99.7540 0.0000 -5.4822 0.0000
# 4 0.0000 0.0000 0.0000 28.5246 0.0000 -1.4107
# 5 -8.6476 -2.5037 -5.4822 0.0000 21.7704 0.0000
# 6 0.0000 0.0000 0.0000 -1.4107 0.0000 27.2123
#
#
#
# Elastic Compliance Matrix: (Units=1/GPa)
#
#
# Indices 1 2 3 4 5 6 
#
# 1 0.017210 -0.004549 -0.005402 0.000000 0.004952 0.000000
# 2 -0.004549 0.023684 -0.012357 0.000000 -0.002195 0.000000
# 3 -0.005402 -0.012357 0.020313 0.000000 0.001548 0.000000
# 4 0.000000 0.000000 0.000000 0.035148 0.000000 0.001822
# 5 0.004952 -0.002195 0.001548 0.000000 0.048039 0.000000
# 6 0.000000 0.000000 0.000000 0.001822 0.000000 0.036842
#
#
# Mechanical properties :
#
#
# Convention : Reuss Voigt Hill
#
# Bulk Modulus (GPa) = 60.27559 63.47604 61.87581
# Shear Modulus (GPa) = 21.60928 23.30350 22.45639
#
# Velocity S-wave (km/s) = 3.65373 3.79426 3.72466
# Velocity P-wave (km/s) = 7.41867 7.64260 7.53146
#
# Compressibility (1/GPa) = 0.01659046
#
# Stress axis : x y z
#
# Youngs Moduli (GPa) = 58.10646 42.22310 49.22868
#
# Poissons Ratio (x) = 0.19209 0.26594
# Poissons Ratio (y) = 0.26436 0.60830
# Poissons Ratio (z) = 0.31390 0.52173
#
# Static dielectric constant tensor:
#      x y z
#    x 3.035620 0.000000 -0.160540 
#    y 0.000000 3.116750 0.000000 
#    z -0.160540 0.000000 2.966710 
# 
# 
# High freq. dielectric constant tensor:
#      x y z
#    x 1.607100 0.000000 -0.012860 
#    y 0.000000 1.633900 0.000000 
#    z -0.012860 0.000000 1.608680 
# 
# From -- ./inp_files/248284.got.cif
#   From: 2010.06.25/outbox.cif.g09.slc.cpg/sg12_125_cif.got.tgz:248284.got - 2010.06.28 00:19:55.
