data_PCOD8087142
_publ_section_title
;
Structure prediction by ZEFSAII (Michael W. Deem and Ramdas Pophale) SiO2 
 PCOD8087142
Probable space group: C 2/M
;
_chemical_formula_sum "Si O2"
_cell_formula_units_Z 48
_cell_length_a 20.570728
_cell_length_b 8.832170
_cell_length_c 27.181628
_cell_angle_alpha 90.000000
_cell_angle_beta 147.614782
_cell_angle_gamma 90.000000
_cell_volume 2645.089475
_symmetry_space_group_name_H-M "C 2/M"
_symmetry_group_IT_number 12
_symmetry_cell_setting 'monoclinic'
loop_
_space_group_symop_operation_xyz
x,y,z
-x,y,-z
-x,-y,-z
x,-y,z
1/2+x,1/2+y,z
1/2-x,1/2+y,-z
1/2-x,1/2-y,-z
1/2+x,1/2-y,z
loop_
_atom_site_type_symbol
_atom_site_label
_atom_site_fract_x
_atom_site_fract_y
_atom_site_fract_z
Si Si1 0.752861 0.324118 0.226656
Si Si2 0.379521 0.180007 0.571659
Si Si3 0.980720 0.324188 0.434087
Si Si4 0.508379 0.177553 0.062360
Si Si5 0.736319 0.177445 0.043769
Si Si6 0.901294 0.177645 0.237428
O O1 0.753088 0.500000 0.211752
O O2 0.841981 0.296045 0.329681
O O3 0.620275 0.268243 0.158022
O O4 0.796871 0.225951 0.208620
O O5 0.250000 0.250000 0.500000
O O6 0.428327 0.240602 0.549831
O O7 0.473864 0.232566 0.673917
O O8 0.371495 0.000000 0.567710
O O9 0.011095 0.500000 0.458157
O O10 0.000000 0.245981 0.500000
O O11 0.528889 0.000000 0.083648
O O12 0.500000 0.219032 0.000000
O O13 0.386961 0.238629 0.010421
O O14 0.852275 0.218113 0.151737
O O15 0.725683 0.000000 0.030540
O O16 0.750000 0.250000 0.000000
O O17 0.925651 0.000000 0.258985
#
# Coordination Sequence:
#
# PCOD8087142 Si02
#       6
#     8   8   8   8   8   8
#     4  10  19  31  54  86 108 135 181 227 267 314
#     4  10  20  35  57  83 108 140 183 226 269 322
#     4   8  16  33  54  76 106 138 171 215 265 314
#     4  10  19  36  57  77 106 143 181 218 265 326
#     4  10  22  38  56  78 108 146 180 222 276 326
#     4  10  19  36  58  78 106 146 184 221 272 327
#
# _framework density 18.146833999999998
#
# number of rings (size 3 to 8) (size 9 to 14) (size 15 to 20)
#    0.000    2.333    1.667    2.500    0.000    2.333 
#    3.000    0.000    0.000   17.000    0.000    0.000 
#    0.000    0.000    0.000    0.000    0.000    0.000 
#
# Total GULP energy -297572.834632 kJ/mol
# GULP energy per Si atom -12398.868110 kJ/mol
# Density = 1.810553 g / cm^3
# Si number density = 18.146834 Si / 1000 Ang^3
#
#
#
# Elastic Constant Matrix: (Units=GPa)
#
#
# Indices 1 2 3 4 5 6 
#
# 1 123.7082 34.8453 88.1711 0.0000 0.1851 -0.0001
# 2 34.8453 51.9906 49.0356 0.0000 0.2961 -0.0005
# 3 88.1711 49.0356 147.1179 0.0000 6.6334 -0.0001
# 4 0.0000 0.0000 0.0000 33.7624 0.0000 4.6977
# 5 0.1851 0.2961 6.6334 0.0000 37.5170 0.0000
# 6 -0.0001 -0.0005 -0.0001 4.6977 0.0000 26.3597
#
#
#
# Elastic Compliance Matrix: (Units=1/GPa)
#
#
# Indices 1 2 3 4 5 6 
#
# 1 0.014347 -0.002124 -0.007952 0.000000 0.001352 0.000000
# 2 -0.002124 0.028445 -0.008264 0.000000 0.001247 0.000000
# 3 -0.007952 -0.008264 0.014428 0.000000 -0.002447 0.000000
# 4 0.000000 0.000000 0.000000 0.030372 0.000000 -0.005413
# 5 0.001352 0.001247 -0.002447 0.000000 0.027071 0.000000
# 6 0.000000 0.000000 0.000000 -0.005413 0.000000 0.038901
#
#
# Mechanical properties :
#
#
# Convention : Reuss Voigt Hill
#
# Bulk Modulus (GPa) = 48.68444 74.10231 61.39338
# Shear Modulus (GPa) = 25.36901 29.57878 27.47390
#
# Velocity S-wave (km/s) = 3.74302 4.04167 3.89521
# Velocity P-wave (km/s) = 6.75030 7.91856 7.35765
#
# Compressibility (1/GPa) = 0.02054044
#
# Stress axis : x y z
#
# Youngs Moduli (GPa) = 69.70018 35.15521 69.31059
#
# Poissons Ratio (x) = 0.07466 0.55113
# Poissons Ratio (y) = 0.14803 0.57281
# Poissons Ratio (z) = 0.55423 0.29054
#
# Static dielectric constant tensor:
#      x y z
#    x 3.342760 0.000000 0.020700 
#    y 0.000000 3.209230 0.000000 
#    z 0.020700 0.000000 3.543320 
# 
# 
# High freq. dielectric constant tensor:
#      x y z
#    x 1.687980 0.000000 0.004430 
#    y 0.000000 1.692330 0.000000 
#    z 0.004430 0.000000 1.714580 
# 
# From -- ./inp_files/345706.got.cif
#   From: 2010.06.25/outbox.cif.g09.slc.cpg/sg12_173_cif.got.tgz:345706.got - 2010.06.28 00:19:55.
