data_PCOD8087262
_publ_section_title
;
Structure prediction by ZEFSAII (Michael W. Deem and Ramdas Pophale) SiO2 
 PCOD8087262
Probable space group: C 2/M
;
_chemical_formula_sum "Si O2"
_cell_formula_units_Z 56
_cell_length_a 19.362322
_cell_length_b 9.043491
_cell_length_c 28.651368
_cell_angle_alpha 90.000000
_cell_angle_beta 141.251998
_cell_angle_gamma 90.000000
_cell_volume 3140.084096
_symmetry_space_group_name_H-M "C 2/M"
_symmetry_group_IT_number 12
_symmetry_cell_setting 'monoclinic'
loop_
_space_group_symop_operation_xyz
x,y,z
-x,y,-z
-x,-y,-z
x,-y,z
1/2+x,1/2+y,z
1/2-x,1/2+y,-z
1/2-x,1/2-y,-z
1/2+x,1/2-y,z
loop_
_atom_site_type_symbol
_atom_site_label
_atom_site_fract_x
_atom_site_fract_y
_atom_site_fract_z
Si Si1 0.118303 0.324535 0.691274
Si Si2 0.907042 0.173819 0.056012
Si Si3 0.858739 0.831329 0.810486
Si Si4 0.181968 0.328288 0.900416
Si Si5 0.176834 0.829915 0.315326
Si Si6 0.515288 0.172382 0.733876
Si Si7 0.898645 0.171685 0.412500
O O1 0.124039 0.500000 0.684945
O O2 0.242856 0.259653 0.765855
O O3 0.041566 0.285035 0.694458
O O4 0.069339 0.247464 0.619690
O O5 0.872641 0.237146 0.087444
O O6 0.029485 0.238012 0.107255
O O7 0.919739 0.000000 0.070380
O O8 0.813948 0.209908 0.967838
O O9 0.872864 0.812086 0.762381
O O10 0.851459 0.000000 0.822116
O O11 0.165998 0.500000 0.903894
O O12 0.124081 0.286337 0.821313
O O13 0.291971 0.744300 0.380135
O O14 0.090774 0.764166 0.306859
O O15 0.198266 0.000000 0.339291
O O16 0.487587 0.000000 0.724622
O O17 0.000000 0.197988 0.500000
O O18 0.874504 0.000000 0.391113
#
# Coordination Sequence:
#
# PCOD8087262 Si02
#       7
#     8   8   8   8   8   8   8
#     4   9  19  34  52  74 104 139 170 206 251 302
#     4   9  15  26  43  65  94 129 174 219 255 295
#     4   8  14  27  46  68  93 126 171 214 247 288
#     4   9  17  26  41  67  98 132 169 214 260 294
#     4  10  19  32  54  79 102 133 172 208 246 299
#     4  10  19  32  48  73 108 139 172 213 255 295
#     4  10  21  38  59  82 105 127 158 203 250 300
#
# _framework density 17.833919000000002
#
# number of rings (size 3 to 8) (size 9 to 14) (size 15 to 20)
#    0.000    2.714    1.429    1.714    0.000    1.714 
#    0.000    1.429    0.000    4.286    0.000    0.000 
#    0.000    8.286    0.000    0.000    0.000    0.000 
#
# Total GULP energy -346972.703938 kJ/mol
# GULP energy per Si atom -12391.882284 kJ/mol
# Density = 1.779333 g / cm^3
# Si number density = 17.833919 Si / 1000 Ang^3
#
#
#
# Elastic Constant Matrix: (Units=GPa)
#
#
# Indices 1 2 3 4 5 6 
#
# 1 102.3216 45.7050 46.7094 0.0000 5.4318 0.0000
# 2 45.7050 62.4019 47.6187 0.0000 3.3911 -0.0001
# 3 46.7094 47.6187 102.9776 0.0000 9.6269 0.0000
# 4 0.0000 0.0000 0.0000 20.9747 0.0000 2.2000
# 5 5.4318 3.3911 9.6269 0.0000 20.9834 0.0000
# 6 0.0000 -0.0001 0.0000 2.2000 0.0000 25.3102
#
#
#
# Elastic Compliance Matrix: (Units=1/GPa)
#
#
# Indices 1 2 3 4 5 6 
#
# 1 0.015015 -0.008996 -0.002532 0.000000 -0.001271 0.000000
# 2 -0.008996 0.030188 -0.010073 0.000000 0.002071 0.000000
# 3 -0.002532 -0.010073 0.015989 0.000000 -0.005052 0.000000
# 4 0.000000 0.000000 0.000000 0.048115 0.000000 -0.004182
# 5 -0.001271 0.002071 -0.005052 0.000000 0.049969 0.000000
# 6 0.000000 0.000000 0.000000 -0.004182 0.000000 0.039873
#
#
# Mechanical properties :
#
#
# Convention : Reuss Voigt Hill
#
# Bulk Modulus (GPa) = 55.58285 60.86302 58.22293
# Shear Modulus (GPa) = 20.13310 21.96486 21.04898
#
# Velocity S-wave (km/s) = 3.36359 3.51327 3.43924
# Velocity P-wave (km/s) = 6.80585 7.11753 6.96343
#
# Compressibility (1/GPa) = 0.01799116
#
# Stress axis : x y z
#
# Youngs Moduli (GPa) = 66.60135 33.12575 62.54224
#
# Poissons Ratio (x) = 0.29801 0.15833
# Poissons Ratio (y) = 0.59916 0.62996
# Poissons Ratio (z) = 0.16861 0.33366
#
# Static dielectric constant tensor:
#      x y z
#    x 3.176540 0.000000 0.237850 
#    y 0.000000 3.200050 0.000000 
#    z 0.237850 0.000000 3.485190 
# 
# 
# High freq. dielectric constant tensor:
#      x y z
#    x 1.670400 0.000000 0.019670 
#    y 0.000000 1.674550 0.000000 
#    z 0.019670 0.000000 1.692400 
# 
# From -- ./inp_files/280314.got.cif
#   From: 2010.06.25/outbox.cif.g09.slc.cpg/sg12_141_cif.got.tgz:280314.got - 2010.06.28 00:19:55.
