data_PCOD8087921
_publ_section_title
;
Structure prediction by ZEFSAII (Michael W. Deem and Ramdas Pophale) SiO2 
 PCOD8087921
Probable space group: C 2/M
;
_chemical_formula_sum "Si O2"
_cell_formula_units_Z 56
_cell_length_a 12.376359
_cell_length_b 16.118266
_cell_length_c 15.475760
_cell_angle_alpha 90.000000
_cell_angle_beta 111.862186
_cell_angle_gamma 90.000000
_cell_volume 2865.165109
_symmetry_space_group_name_H-M "C 2/M"
_symmetry_group_IT_number 12
_symmetry_cell_setting 'monoclinic'
loop_
_space_group_symop_operation_xyz
x,y,z
-x,y,-z
-x,-y,-z
x,-y,z
1/2+x,1/2+y,z
1/2-x,1/2+y,-z
1/2-x,1/2-y,-z
1/2+x,1/2-y,z
loop_
_atom_site_type_symbol
_atom_site_label
_atom_site_fract_x
_atom_site_fract_y
_atom_site_fract_z
Si Si1 0.740126 0.593173 0.610464
Si Si2 0.775798 0.328947 0.272235
Si Si3 0.618081 0.815660 0.211336
Si Si4 0.329847 0.405204 0.598513
Si Si5 0.621641 0.096751 0.861734
Si Si6 0.361492 0.091111 0.947452
Si Si7 0.961696 0.798910 0.396633
O O1 0.762769 0.500000 0.646373
O O2 0.836984 0.648452 0.684678
O O3 0.749717 0.604898 0.510386
O O4 0.612572 0.619567 0.603255
O O5 0.653837 0.280593 0.220632
O O6 0.757102 0.388787 0.348088
O O7 0.795897 0.386050 0.194681
O O8 0.885972 0.267648 0.320283
O O9 0.482555 0.836398 0.170312
O O10 0.681218 0.850853 0.143319
O O11 0.378632 0.500000 0.618236
O O12 0.431176 0.334880 0.627807
O O13 0.578179 0.000000 0.846609
O O14 0.690939 0.113161 0.972936
O O15 0.320400 0.000000 0.907519
O O16 0.500000 0.095069 0.000000
O O17 0.000000 0.758382 0.500000
#
# Coordination Sequence:
#
# PCOD8087921 Si02
#       7
#     8   8   8   8   8   8   8
#     4   9  17  30  51  76  97 126 169 208 240 281
#     4  11  22  32  49  77 103 130 162 200 246 290
#     4  10  19  32  52  75 100 125 161 210 249 282
#     4  10  20  35  51  69 100 137 167 196 237 293
#     4  10  20  35  53  73 100 132 163 197 243 298
#     4   8  15  30  52  74  96 126 161 199 245 291
#     4   9  19  33  50  70  98 132 167 205 244 283
#
# _framework density 19.545121999999999
#
# number of rings (size 3 to 8) (size 9 to 14) (size 15 to 20)
#    0.000    2.429    0.000    3.857    0.000    8.571 
#    0.000    0.000    0.000    3.429    0.000    0.000 
#    0.000   28.571    0.000    0.000    0.000    0.000 
#
# Total GULP energy -346961.969297 kJ/mol
# GULP energy per Si atom -12391.498903 kJ/mol
# Density = 1.950064 g / cm^3
# Si number density = 19.545122 Si / 1000 Ang^3
#
#
#
# Elastic Constant Matrix: (Units=GPa)
#
#
# Indices 1 2 3 4 5 6 
#
# 1 50.3842 17.5418 28.7432 0.0000 -23.2543 0.0000
# 2 17.5418 60.9171 28.7018 0.0000 -8.9737 0.0000
# 3 28.7432 28.7018 89.8536 0.0000 -33.4780 0.0000
# 4 0.0000 0.0000 0.0000 24.6799 0.0000 -7.3392
# 5 -23.2543 -8.9737 -33.4780 0.0000 36.9502 0.0000
# 6 0.0000 0.0000 0.0000 -7.3392 0.0000 18.8378
#
#
#
# Elastic Compliance Matrix: (Units=1/GPa)
#
#
# Indices 1 2 3 4 5 6 
#
# 1 0.030207 -0.005407 -0.002026 0.000000 0.015862 0.000000
# 2 -0.005407 0.020337 -0.006332 0.000000 -0.004201 0.000000
# 3 -0.002026 -0.006332 0.019250 0.000000 0.014629 0.000000
# 4 0.000000 0.000000 0.000000 0.045828 0.000000 0.017855
# 5 0.015862 -0.004201 0.014629 0.000000 0.049280 0.000000
# 6 0.000000 0.000000 0.000000 0.017855 0.000000 0.060041
#
#
# Mechanical properties :
#
#
# Convention : Reuss Voigt Hill
#
# Bulk Modulus (GPa) = 23.66044 39.01428 31.33736
# Shear Modulus (GPa) = 18.75748 24.50478 21.63113
#
# Velocity S-wave (km/s) = 3.10127 3.54468 3.33036
# Velocity P-wave (km/s) = 4.99556 6.06280 5.55487
#
# Compressibility (1/GPa) = 0.04226464
#
# Stress axis : x y z
#
# Youngs Moduli (GPa) = 33.10545 49.17074 51.94770
#
# Poissons Ratio (x) = 0.26588 0.10523
# Poissons Ratio (y) = 0.17901 0.32892
# Poissons Ratio (z) = 0.06706 0.31133
#
# Static dielectric constant tensor:
#      x y z
#    x 3.224840 0.000000 -0.245720 
#    y 0.000000 3.486530 0.000000 
#    z -0.245720 0.000000 3.942430 
# 
# 
# High freq. dielectric constant tensor:
#      x y z
#    x 1.725690 0.000000 -0.024440 
#    y 0.000000 1.752950 0.000000 
#    z -0.024440 0.000000 1.770440 
# 
# From -- ./inp_files/206254.got.cif
#   From: 2010.06.25/outbox.cif.g09.slc.cpg/sg12_104_cif.got.tgz:206254.got - 2010.06.28 00:19:55.
