data_PCOD8087467
_publ_section_title
;
Structure prediction by ZEFSAII (Michael W. Deem and Ramdas Pophale) SiO2 
 PCOD8087467
Probable space group: C 2/M
;
_chemical_formula_sum "Si O2"
_cell_formula_units_Z 52
_cell_length_a 17.136443
_cell_length_b 11.070598
_cell_length_c 26.215009
_cell_angle_alpha 90.000000
_cell_angle_beta 34.314010
_cell_angle_gamma 90.000000
_cell_volume 2803.569989
_symmetry_space_group_name_H-M "C 2/M"
_symmetry_group_IT_number 12
_symmetry_cell_setting 'monoclinic'
loop_
_space_group_symop_operation_xyz
x,y,z
-x,y,-z
-x,-y,-z
x,-y,z
1/2+x,1/2+y,z
1/2-x,1/2+y,-z
1/2-x,1/2-y,-z
1/2+x,1/2-y,z
loop_
_atom_site_type_symbol
_atom_site_label
_atom_site_fract_x
_atom_site_fract_y
_atom_site_fract_z
Si Si1 0.203001 0.863486 0.180329
Si Si2 0.106157 0.864505 0.037241
Si Si3 0.797240 0.143460 0.512520
Si Si4 0.379002 0.360587 0.666784
Si Si5 0.801222 0.363867 0.325669
Si Si6 0.500000 0.219955 0.000000
Si Si7 0.096731 0.719345 0.143419
O O1 0.163921 0.801562 0.255638
O O2 0.120267 0.795705 0.181337
O O3 0.149268 0.000000 0.207909
O O4 0.367417 0.863028 0.081863
O O5 0.023901 0.801131 0.036474
O O6 0.067762 0.805572 0.111491
O O7 0.052430 0.000000 0.068184
O O8 0.271303 0.864278 0.939018
O O9 0.750000 0.250000 0.500000
O O10 0.726266 0.188208 0.603294
O O11 0.960581 0.155588 0.431173
O O12 0.760524 0.000000 0.517876
O O13 0.334567 0.500000 0.694387
O O14 0.290930 0.298016 0.668495
O O15 0.747668 0.500000 0.357093
O O16 0.962517 0.361897 0.224408
#
# Coordination Sequence:
#
# PCOD8087467 Si02
#       7
#     8   8   8   8   8   4   8
#     4  10  19  32  50  73 102 131 167 213 257 302
#     4  10  20  34  49  69 100 133 169 210 253 304
#     4  10  20  35  57  82 108 138 173 214 260 309
#     4   9  18  32  52  77 102 133 171 211 254 303
#     4  10  19  33  54  78 104 133 170 212 251 301
#     4  10  20  32  50  72  96 134 174 208 252 302
#     4  10  20  32  50  74  99 132 169 207 256 306
#
# _framework density 18.547781000000001
#
# number of rings (size 3 to 8) (size 9 to 14) (size 15 to 20)
#    0.000    2.154    0.000    3.692    0.000    1.846 
#    0.000    5.385    0.000    8.308    0.000    0.000 
#    0.000    0.000    0.000    0.000    0.000    0.000 
#
# Total GULP energy -322260.873580 kJ/mol
# GULP energy per Si atom -12394.648984 kJ/mol
# Density = 1.850556 g / cm^3
# Si number density = 18.547781 Si / 1000 Ang^3
#
#
#
# Elastic Constant Matrix: (Units=GPa)
#
#
# Indices 1 2 3 4 5 6 
#
# 1 131.5380 32.9713 46.6213 0.0000 22.2037 0.0000
# 2 32.9713 58.4865 8.6402 0.0000 11.1570 0.0000
# 3 46.6213 8.6402 82.8989 -0.0002 14.7689 0.0001
# 4 0.0000 0.0000 -0.0002 23.3063 0.0001 -0.3820
# 5 22.2037 11.1570 14.7689 0.0001 40.4526 0.0000
# 6 0.0000 0.0000 0.0001 -0.3820 0.0000 12.7635
#
#
#
# Elastic Compliance Matrix: (Units=1/GPa)
#
#
# Indices 1 2 3 4 5 6 
#
# 1 0.011204 -0.004994 -0.005273 0.000000 -0.002847 0.000000
# 2 -0.004994 0.020362 0.001282 0.000000 -0.003343 0.000000
# 3 -0.005273 0.001282 0.015447 0.000000 -0.003099 0.000000
# 4 0.000000 0.000000 0.000000 0.042928 0.000000 0.001285
# 5 -0.002847 -0.003343 -0.003099 0.000000 0.028336 0.000000
# 6 0.000000 0.000000 0.000000 0.001285 0.000000 0.078387
#
#
# Mechanical properties :
#
#
# Convention : Reuss Voigt Hill
#
# Bulk Modulus (GPa) = 34.43316 49.93209 42.18263
# Shear Modulus (GPa) = 22.29022 27.61720 24.95371
#
# Velocity S-wave (km/s) = 3.47042 3.86291 3.67191
# Velocity P-wave (km/s) = 5.88755 6.84656 6.38509
#
# Compressibility (1/GPa) = 0.02904177
#
# Stress axis : x y z
#
# Youngs Moduli (GPa) = 89.25651 49.11219 64.73800
#
# Poissons Ratio (x) = 0.24526 0.34137
# Poissons Ratio (y) = 0.44574 -0.08298
# Poissons Ratio (z) = 0.47066 -0.06295
#
# Static dielectric constant tensor:
#      x y z
#    x 3.643090 0.000000 0.219020 
#    y 0.000000 3.137510 0.000000 
#    z 0.219020 0.000000 3.431220 
# 
# 
# High freq. dielectric constant tensor:
#      x y z
#    x 1.735110 0.000000 0.011060 
#    y 0.000000 1.684670 0.000000 
#    z 0.011060 0.000000 1.730480 
# 
# From -- ./inp_files/309757.got.cif
#   From: 2010.06.25/outbox.cif.g09.slc.cpg/sg12_155_cif.got.tgz:309757.got - 2010.06.28 00:19:55.
