data_PCOD8087358
_publ_section_title
;
Structure prediction by ZEFSAII (Michael W. Deem and Ramdas Pophale) SiO2 
 PCOD8087358
Probable space group: C 2/M
;
_chemical_formula_sum "Si O2"
_cell_formula_units_Z 36
_cell_length_a 22.365003
_cell_length_b 14.439303
_cell_length_c 16.821025
_cell_angle_alpha 90.000000
_cell_angle_beta 23.526544
_cell_angle_gamma 90.000000
_cell_volume 2168.351898
_symmetry_space_group_name_H-M "C 2/M"
_symmetry_group_IT_number 12
_symmetry_cell_setting 'monoclinic'
loop_
_space_group_symop_operation_xyz
x,y,z
-x,y,-z
-x,-y,-z
x,-y,z
1/2+x,1/2+y,z
1/2-x,1/2+y,-z
1/2-x,1/2-y,-z
1/2+x,1/2-y,z
loop_
_atom_site_type_symbol
_atom_site_label
_atom_site_fract_x
_atom_site_fract_y
_atom_site_fract_z
Si Si1 0.608148 0.393776 0.296775
Si Si2 0.000000 0.680762 0.000000
Si Si3 0.603465 0.229413 0.034724
Si Si4 0.844923 0.395102 0.330462
Si Si5 0.496178 0.605506 0.258640
O O1 0.500000 0.363875 0.500000
O O2 0.662302 0.500000 0.241730
O O3 0.517686 0.380353 0.325909
O O4 0.749244 0.326557 0.122581
O O5 0.880776 0.616225 0.192266
O O6 0.089659 0.743358 0.955567
O O7 0.458023 0.170597 0.242545
O O8 0.606745 0.328549 0.073850
O O9 0.874752 0.500000 0.320170
O O10 0.673916 0.367941 0.556169
O O11 0.532847 0.500000 0.189642
#
# Coordination Sequence:
#
# PCOD8087358 Si02
#       5
#     8   4   8   8   8
#     4  10  20  33  52  77  99 122 156 203 255 294
#     4   8  19  26  51  72  98 124 157 194 243 284
#     4  10  19  32  49  74  99 131 161 193 242 292
#     4   9  17  30  50  75 100 124 155 200 249 289
#     4  10  20  33  49  71 101 132 162 198 237 284
#
# _framework density 16.602471000000001
#
# number of rings (size 3 to 8) (size 9 to 14) (size 15 to 20)
#    1.333    1.111    0.000    3.667    0.000    1.778 
#    0.000    0.556    0.000    0.667    0.000    0.000 
#    0.000    0.000    0.000    0.000    0.000    0.000 
#
# Total GULP energy -223051.803945 kJ/mol
# GULP energy per Si atom -12391.766886 kJ/mol
# Density = 1.656468 g / cm^3
# Si number density = 16.602471 Si / 1000 Ang^3
#
#
#
# Elastic Constant Matrix: (Units=GPa)
#
#
# Indices 1 2 3 4 5 6 
#
# 1 45.9782 33.8695 17.7479 0.0000 -10.8855 -0.0001
# 2 33.8695 98.8370 57.9709 -0.0002 -6.2903 0.0001
# 3 17.7479 57.9709 78.8594 -0.0004 -15.3565 0.0001
# 4 0.0000 -0.0002 -0.0004 25.8416 0.0002 0.4222
# 5 -10.8855 -6.2903 -15.3565 0.0002 20.5123 0.0000
# 6 -0.0001 0.0001 0.0001 0.4222 0.0000 18.8197
#
#
#
# Elastic Compliance Matrix: (Units=1/GPa)
#
#
# Indices 1 2 3 4 5 6 
#
# 1 0.034214 -0.014325 0.006451 0.000000 0.018593 0.000000
# 2 -0.014325 0.024247 -0.017130 0.000000 -0.012991 0.000000
# 3 0.006451 -0.017130 0.027470 0.000000 0.018736 0.000000
# 4 0.000000 0.000000 0.000000 0.038711 0.000000 -0.000868
# 5 0.018593 -0.012991 0.018736 0.000000 0.068661 0.000000
# 6 0.000000 0.000000 0.000000 -0.000868 0.000000 0.053155
#
#
# Mechanical properties :
#
#
# Convention : Reuss Voigt Hill
#
# Bulk Modulus (GPa) = 27.83739 49.20569 38.52154
# Shear Modulus (GPa) = 16.21053 20.64047 18.42550
#
# Velocity S-wave (km/s) = 3.12812 3.52975 3.33499
# Velocity P-wave (km/s) = 5.46354 6.80545 6.17108
#
# Compressibility (1/GPa) = 0.03592290
#
# Stress axis : x y z
#
# Youngs Moduli (GPa) = 29.22818 41.24182 36.40298
#
# Poissons Ratio (x) = 0.59078 -0.23484
# Poissons Ratio (y) = 0.41869 0.62360
# Poissons Ratio (z) = -0.18855 0.70649
#
# Static dielectric constant tensor:
#      x y z
#    x 2.957200 0.000000 -0.092120 
#    y 0.000000 2.934240 0.000000 
#    z -0.092120 0.000000 2.944060 
# 
# 
# High freq. dielectric constant tensor:
#      x y z
#    x 1.628750 0.000000 -0.013890 
#    y 0.000000 1.625540 0.000000 
#    z -0.013890 0.000000 1.629540 
# 
# From -- ./inp_files/289701.got.cif
#   From: 2010.06.25/outbox.cif.g09.slc.cpg/sg12_145_cif.got.tgz:289701.got - 2010.06.28 00:19:55.
