data_PCOD8087870
_publ_section_title
;
Structure prediction by ZEFSAII (Michael W. Deem and Ramdas Pophale) SiO2 
 PCOD8087870
Probable space group: C 2/M
;
_chemical_formula_sum "Si O2"
_cell_formula_units_Z 56
_cell_length_a 30.269083
_cell_length_b 8.940487
_cell_length_c 23.671508
_cell_angle_alpha 90.000000
_cell_angle_beta 153.901148
_cell_angle_gamma 90.000000
_cell_volume 2818.131369
_symmetry_space_group_name_H-M "C 2/M"
_symmetry_group_IT_number 12
_symmetry_cell_setting 'monoclinic'
loop_
_space_group_symop_operation_xyz
x,y,z
-x,y,-z
-x,-y,-z
x,-y,z
1/2+x,1/2+y,z
1/2-x,1/2+y,-z
1/2-x,1/2-y,-z
1/2+x,1/2-y,z
loop_
_atom_site_type_symbol
_atom_site_label
_atom_site_fract_x
_atom_site_fract_y
_atom_site_fract_z
Si Si1 0.692632 0.826508 0.381744
Si Si2 0.401216 0.822426 0.422178
Si Si3 0.794373 0.333394 0.103122
Si Si4 0.635926 0.671886 0.501763
Si Si5 0.979390 0.176287 0.138534
Si Si6 0.983622 0.668582 0.255079
Si Si7 0.727687 0.324096 0.143723
O O1 0.750000 0.750000 0.500000
O O2 0.748436 0.809870 0.384995
O O3 0.583640 0.756125 0.244282
O O4 0.681241 0.000000 0.384649
O O5 0.500000 0.769976 0.500000
O O6 0.396806 0.755671 0.479385
O O7 0.297465 0.761400 0.274183
O O8 0.403163 0.000000 0.430286
O O9 0.748620 0.500000 0.051414
O O10 0.771603 0.253098 0.136223
O O11 0.913538 0.335500 0.229790
O O12 0.750000 0.250000 0.000000
O O13 0.604840 0.500000 0.473197
O O14 0.582471 0.743180 0.385970
O O15 0.935202 0.241422 0.146705
O O16 0.997725 0.000000 0.164689
O O17 0.892466 0.210621 0.991114
O O18 0.009916 0.500000 0.265635
O O19 0.746937 0.500000 0.164243
#
# Coordination Sequence:
#
# PCOD8087870 Si02
#       7
#     8   8   8   8   8   8   8
#     4  11  23  39  60  87 121 158 201 249 308 365
#     4  10  21  41  67  90 118 159 205 248 293 357
#     4  10  19  32  51  80 116 151 189 234 289 353
#     4  11  24  40  60  87 119 155 198 253 308 355
#     4  11  21  35  57  85 120 156 194 245 301 355
#     4  11  21  33  55  85 118 156 197 240 296 362
#     4   9  19  36  57  83 119 158 196 245 299 353
#
# _framework density 19.871324000000001
#
# number of rings (size 3 to 8) (size 9 to 14) (size 15 to 20)
#    0.000    1.571    2.857    2.571    0.000    4.857 
#    0.000    2.857    0.000    4.286    0.000    0.000 
#    0.000    0.000    0.000    0.000    0.000    0.000 
#
# Total GULP energy -346937.074828 kJ/mol
# GULP energy per Si atom -12390.609815 kJ/mol
# Density = 1.982610 g / cm^3
# Si number density = 19.871324 Si / 1000 Ang^3
#
#
#
# Elastic Constant Matrix: (Units=GPa)
#
#
# Indices 1 2 3 4 5 6 
#
# 1 84.4535 32.5432 24.5214 0.0000 9.8518 0.0000
# 2 32.5432 85.1366 44.2805 0.0000 6.0576 0.0000
# 3 24.5214 44.2805 123.1226 0.0000 8.1150 0.0000
# 4 0.0000 0.0000 0.0000 22.5004 0.0000 1.2949
# 5 9.8518 6.0576 8.1150 0.0000 29.7931 0.0000
# 6 0.0000 0.0000 0.0000 1.2949 0.0000 30.0512
#
#
#
# Elastic Compliance Matrix: (Units=1/GPa)
#
#
# Indices 1 2 3 4 5 6 
#
# 1 0.014352 -0.004759 -0.000914 0.000000 -0.003529 0.000000
# 2 -0.004759 0.016098 -0.004816 0.000000 -0.000387 0.000000
# 3 -0.000914 -0.004816 0.010134 0.000000 -0.001479 0.000000
# 4 0.000000 0.000000 0.000000 0.044554 0.000000 -0.001920
# 5 -0.003529 -0.000387 -0.001479 0.000000 0.035213 0.000000
# 6 0.000000 0.000000 0.000000 -0.001920 0.000000 0.033359
#
#
# Mechanical properties :
#
#
# Convention : Reuss Voigt Hill
#
# Bulk Modulus (GPa) = 51.00991 55.04477 53.02734
# Shear Modulus (GPa) = 27.59026 29.22678 28.40852
#
# Velocity S-wave (km/s) = 3.73023 3.83926 3.78514
# Velocity P-wave (km/s) = 6.65422 6.88578 6.77099
#
# Compressibility (1/GPa) = 0.01960403
#
# Stress axis : x y z
#
# Youngs Moduli (GPa) = 69.67704 62.12138 98.68233
#
# Poissons Ratio (x) = 0.29567 0.09020
# Poissons Ratio (y) = 0.33163 0.47525
# Poissons Ratio (z) = 0.06369 0.29917
#
# Static dielectric constant tensor:
#      x y z
#    x 3.817090 0.000000 0.208360 
#    y 0.000000 3.451450 0.000000 
#    z 0.208360 0.000000 3.814900 
# 
# 
# High freq. dielectric constant tensor:
#      x y z
#    x 1.771520 0.000000 0.017710 
#    y 0.000000 1.763340 0.000000 
#    z 0.017710 0.000000 1.775590 
# 
# From -- ./inp_files/329698.got.cif
#   From: 2010.06.25/outbox.cif.g09.slc.cpg/sg12_165_cif.got.tgz:329698.got - 2010.06.28 00:19:55.
