data_PCOD8087562
_publ_section_title
;
Structure prediction by ZEFSAII (Michael W. Deem and Ramdas Pophale) SiO2 
 PCOD8087562
Probable space group: C 2/M
;
_chemical_formula_sum "Si O2"
_cell_formula_units_Z 52
_cell_length_a 20.870117
_cell_length_b 19.916670
_cell_length_c 13.903790
_cell_angle_alpha 90.000000
_cell_angle_beta 28.045097
_cell_angle_gamma 90.000000
_cell_volume 2717.229868
_symmetry_space_group_name_H-M "C 2/M"
_symmetry_group_IT_number 12
_symmetry_cell_setting 'monoclinic'
loop_
_space_group_symop_operation_xyz
x,y,z
-x,y,-z
-x,-y,-z
x,-y,z
1/2+x,1/2+y,z
1/2-x,1/2+y,-z
1/2-x,1/2-y,-z
1/2+x,1/2-y,z
loop_
_atom_site_type_symbol
_atom_site_label
_atom_site_fract_x
_atom_site_fract_y
_atom_site_fract_z
Si Si1 0.000000 0.169549 0.000000
Si Si2 0.278512 0.787046 0.109085
Si Si3 0.065381 0.578592 0.568945
Si Si4 0.340575 0.423761 0.086007
Si Si5 0.745430 0.230225 0.649950
Si Si6 0.286906 0.147180 0.903538
Si Si7 0.416871 0.179151 0.297495
O O1 0.965762 0.121587 0.955105
O O2 0.867620 0.212045 0.197483
O O3 0.208653 0.798907 0.306341
O O4 0.231488 0.715214 0.132614
O O5 0.245603 0.842327 0.070548
O O6 0.436748 0.792957 0.928615
O O7 0.028101 0.500000 0.620492
O O8 0.201741 0.592446 0.328215
O O9 0.083625 0.605459 0.653812
O O10 0.941339 0.620795 0.687090
O O11 0.385876 0.500000 0.038357
O O12 0.313421 0.407995 0.009475
O O13 0.683718 0.173138 0.661109
O O14 0.876171 0.264269 0.429338
#
# Coordination Sequence:
#
# PCOD8087562 Si02
#       7
#     4   8   8   8   8   8   8
#     4  12  19  34  52  76 111 136 172 220 268 318
#     4  10  19  33  51  77 105 135 175 223 261 316
#     4  10  20  33  51  77 108 140 179 219 261 322
#     4  11  21  33  50  76 109 143 177 216 264 323
#     4  11  19  32  54  79 110 140 173 225 268 318
#     4  10  19  32  51  70 103 137 170 211 263 310
#     4  10  19  32  54  78 108 144 174 216 279 314
#
# _framework density 19.137136000000002
#
# number of rings (size 3 to 8) (size 9 to 14) (size 15 to 20)
#    0.000    1.538    4.615    1.154    0.000    2.462 
#    0.000    2.308    0.000    8.308    0.000    0.000 
#    0.000   18.154    0.000    0.000    0.000    0.000 
#
# Total GULP energy -322219.818470 kJ/mol
# GULP energy per Si atom -12393.069941 kJ/mol
# Density = 1.909358 g / cm^3
# Si number density = 19.137136 Si / 1000 Ang^3
#
#
#
# Elastic Constant Matrix: (Units=GPa)
#
#
# Indices 1 2 3 4 5 6 
#
# 1 121.5508 20.5227 9.5470 0.0000 20.4016 0.0004
# 2 20.5227 62.4011 10.5992 0.0001 0.0647 0.0003
# 3 9.5470 10.5992 22.0856 0.0008 12.8838 0.0003
# 4 0.0000 0.0001 0.0008 21.3962 -0.0001 0.0573
# 5 20.4016 0.0647 12.8838 -0.0001 26.4743 -0.0003
# 6 0.0004 0.0003 0.0003 0.0573 -0.0003 21.5447
#
#
#
# Elastic Compliance Matrix: (Units=1/GPa)
#
#
# Indices 1 2 3 4 5 6 
#
# 1 0.010198 -0.003820 0.002798 0.000000 -0.009211 0.000000
# 2 -0.003820 0.019501 -0.013122 0.000000 0.009282 0.000000
# 3 0.002798 -0.013122 0.072064 -0.000003 -0.037195 -0.000001
# 4 0.000000 0.000000 -0.000003 0.046738 0.000002 -0.000124
# 5 -0.009211 0.009282 -0.037195 0.000002 0.062949 0.000001
# 6 0.000000 0.000000 -0.000001 -0.000124 0.000001 0.046416
#
#
# Mechanical properties :
#
#
# Convention : Reuss Voigt Hill
#
# Bulk Modulus (GPa) = 13.60994 31.93059 22.77026
# Shear Modulus (GPa) = 16.09555 24.90760 20.50157
#
# Velocity S-wave (km/s) = 2.90326 3.61159 3.27662
# Velocity P-wave (km/s) = 4.28553 5.84062 5.12243
#
# Compressibility (1/GPa) = 0.07347573
#
# Stress axis : x y z
#
# Youngs Moduli (GPa) = 98.05605 51.27972 13.87654
#
# Poissons Ratio (x) = 0.19588 -0.03883
# Poissons Ratio (y) = 0.37455 0.18209
# Poissons Ratio (z) = -0.27439 0.67291
#
# Static dielectric constant tensor:
#      x y z
#    x 3.961970 0.000000 0.034560 
#    y 0.000000 3.408880 0.000000 
#    z 0.034560 0.000000 3.411380 
# 
# 
# High freq. dielectric constant tensor:
#      x y z
#    x 1.764960 0.000000 -0.006940 
#    y 0.000000 1.716510 0.000000 
#    z -0.006940 0.000000 1.721150 
# 
# From -- ./inp_files/235049.got.cif
#   From: 2010.06.25/outbox.cif.g09.slc.cpg/sg12_118_cif.got.tgz:235049.got - 2010.06.28 00:19:55.
