data_PCOD8087303
_publ_section_title
;
Structure prediction by ZEFSAII (Michael W. Deem and Ramdas Pophale) SiO2 
 PCOD8087303
Probable space group: C 2/M
;
_chemical_formula_sum "Si O2"
_cell_formula_units_Z 64
_cell_length_a 28.017107
_cell_length_b 9.174978
_cell_length_c 14.314738
_cell_angle_alpha 90.000000
_cell_angle_beta 75.962993
_cell_angle_gamma 90.000000
_cell_volume 3569.815802
_symmetry_space_group_name_H-M "C 2/M"
_symmetry_group_IT_number 12
_symmetry_cell_setting 'monoclinic'
loop_
_space_group_symop_operation_xyz
x,y,z
-x,y,-z
-x,-y,-z
x,-y,z
1/2+x,1/2+y,z
1/2-x,1/2+y,-z
1/2-x,1/2-y,-z
1/2+x,1/2-y,z
loop_
_atom_site_type_symbol
_atom_site_label
_atom_site_fract_x
_atom_site_fract_y
_atom_site_fract_z
Si Si1 0.582679 0.171657 0.609323
Si Si2 0.318378 0.831455 0.794170
Si Si3 0.358740 0.672525 0.948144
Si Si4 0.122735 0.172410 0.762464
Si Si5 0.988032 0.836612 0.614177
Si Si6 0.945414 0.827382 0.037319
Si Si7 0.603115 0.833506 0.389830
Si Si8 0.708733 0.672462 0.853231
O O1 0.619020 0.240503 0.667873
O O2 0.528992 0.243114 0.648575
O O3 0.605255 0.212030 0.497388
O O4 0.578102 0.000000 0.626509
O O5 0.352116 0.749536 0.852695
O O6 0.343065 0.811828 0.680620
O O7 0.263604 0.762395 0.816097
O O8 0.315983 0.000000 0.824463
O O9 0.358106 0.500000 0.933989
O O10 0.410499 0.724450 0.968718
O O11 0.314442 0.723184 0.037453
O O12 0.078177 0.219084 0.852519
O O13 0.174180 0.223348 0.784259
O O14 0.121725 0.000000 0.743386
O O15 0.934930 0.763197 0.651909
O O16 0.000000 0.839261 0.500000
O O17 0.986962 0.000000 0.656735
O O18 0.948343 0.000000 0.032609
O O19 0.000000 0.758436 0.000000
O O20 0.584968 0.000000 0.390609
O O21 0.710484 0.500000 0.849795
#
# Coordination Sequence:
#
# PCOD8087303 Si02
#       8
#     8   8   8   8   8   8   8   8
#     4  10  19  32  49  69  97 130 160 194 239 287
#     4  10  19  32  50  70  94 127 163 198 242 291
#     4   9  17  30  49  73  97 122 156 197 242 290
#     4   9  17  31  51  71  91 123 167 202 230 277
#     4   9  17  30  49  70  91 119 157 196 231 274
#     4   8  15  29  48  70  97 125 151 185 233 285
#     4   9  19  33  47  67  98 131 160 194 240 290
#     4   8  16  32  51  69  93 126 162 200 242 291
#
# _framework density 17.928096
#
# number of rings (size 3 to 8) (size 9 to 14) (size 15 to 20)
#    0.000    3.000    0.000    2.625    0.000    3.500 
#    0.000    5.000    0.000    0.750    0.000    0.000 
#    0.000    0.000    0.000    0.000    0.000    0.000 
#
# Total GULP energy -396700.235151 kJ/mol
# GULP energy per Si atom -12396.882348 kJ/mol
# Density = 1.788729 g / cm^3
# Si number density = 17.928096 Si / 1000 Ang^3
#
#
#
# Elastic Constant Matrix: (Units=GPa)
#
#
# Indices 1 2 3 4 5 6 
#
# 1 127.0837 32.3835 61.5263 0.0000 -4.1261 0.0000
# 2 32.3835 56.5412 34.1675 0.0000 5.6813 0.0000
# 3 61.5263 34.1675 92.9741 0.0000 8.3449 0.0000
# 4 0.0000 0.0000 0.0000 21.4169 0.0000 5.8393
# 5 -4.1261 5.6813 8.3449 0.0000 28.7125 0.0000
# 6 0.0000 0.0000 0.0000 5.8393 0.0000 22.0094
#
#
#
# Elastic Compliance Matrix: (Units=1/GPa)
#
#
# Indices 1 2 3 4 5 6 
#
# 1 0.012433 -0.003034 -0.007523 0.000000 0.004573 0.000000
# 2 -0.003034 0.023603 -0.006374 0.000000 -0.003254 0.000000
# 3 -0.007523 -0.006374 0.018544 0.000000 -0.005209 0.000000
# 4 0.000000 0.000000 0.000000 0.050333 0.000000 -0.013354
# 5 0.004573 -0.003254 -0.005209 0.000000 0.037643 0.000000
# 6 0.000000 0.000000 0.000000 -0.013354 0.000000 0.048978
#
#
# Mechanical properties :
#
#
# Convention : Reuss Voigt Hill
#
# Bulk Modulus (GPa) = 48.26872 59.19484 53.73178
# Shear Modulus (GPa) = 21.52385 24.32923 22.92654
#
# Velocity S-wave (km/s) = 3.46868 3.68781 3.57992
# Velocity P-wave (km/s) = 6.55929 7.15701 6.86466
#
# Compressibility (1/GPa) = 0.02071735
#
# Stress axis : x y z
#
# Youngs Moduli (GPa) = 80.43389 42.36808 53.92619
#
# Poissons Ratio (x) = 0.12855 0.40567
# Poissons Ratio (y) = 0.24405 0.34372
# Poissons Ratio (z) = 0.60509 0.27005
#
# Static dielectric constant tensor:
#      x y z
#    x 3.656280 0.000000 -0.086840 
#    y 0.000000 3.072560 0.000000 
#    z -0.086840 0.000000 3.194810 
# 
# 
# High freq. dielectric constant tensor:
#      x y z
#    x 1.694570 0.000000 0.001250 
#    y 0.000000 1.667380 0.000000 
#    z 0.001250 0.000000 1.683900 
# 
# From -- ./inp_files/248280.got.cif
#   From: 2010.06.25/outbox.cif.g09.slc.cpg/sg12_125_cif.got.tgz:248280.got - 2010.06.28 00:19:55.
