data_PCOD8087971
_publ_section_title
;
Structure prediction by ZEFSAII (Michael W. Deem and Ramdas Pophale) SiO2 
 PCOD8087971
Probable space group: C 2/M
;
_chemical_formula_sum "Si O2"
_cell_formula_units_Z 64
_cell_length_a 20.557173
_cell_length_b 9.069448
_cell_length_c 22.282754
_cell_angle_alpha 90.000000
_cell_angle_beta 123.695673
_cell_angle_gamma 90.000000
_cell_volume 3456.482491
_symmetry_space_group_name_H-M "C 2/M"
_symmetry_group_IT_number 12
_symmetry_cell_setting 'monoclinic'
loop_
_space_group_symop_operation_xyz
x,y,z
-x,y,-z
-x,-y,-z
x,-y,z
1/2+x,1/2+y,z
1/2-x,1/2+y,-z
1/2-x,1/2-y,-z
1/2+x,1/2-y,z
loop_
_atom_site_type_symbol
_atom_site_label
_atom_site_fract_x
_atom_site_fract_y
_atom_site_fract_z
Si Si1 0.702447 0.326184 0.027697
Si Si2 0.383456 0.674997 0.801208
Si Si3 0.825151 0.174123 0.426168
Si Si4 0.742994 0.826096 0.812499
Si Si5 0.560676 0.325423 0.411531
Si Si6 0.336833 0.324631 0.646760
Si Si7 0.972745 0.175630 0.050260
Si Si8 0.115359 0.825174 0.673531
O O1 0.704745 0.500000 0.019130
O O2 0.739941 0.282399 0.110419
O O3 0.750000 0.250000 0.000000
O O4 0.613690 0.265975 0.979056
O O5 0.383074 0.500000 0.803247
O O6 0.313822 0.734409 0.807689
O O7 0.371596 0.732741 0.727671
O O8 0.466703 0.733682 0.868328
O O9 0.894364 0.226287 0.505706
O O10 0.747347 0.254941 0.407791
O O11 0.847637 0.223952 0.370785
O O12 0.811666 0.000000 0.423497
O O13 0.663381 0.747020 0.752201
O O14 0.732987 0.000000 0.799397
O O15 0.556733 0.500000 0.408011
O O16 0.605236 0.267133 0.375312
O O17 0.472804 0.262505 0.367883
O O18 0.327783 0.500000 0.641329
O O19 0.971945 0.000000 0.046979
O O20 0.000000 0.238416 0.000000
O O21 0.117125 0.000000 0.681816
#
# Coordination Sequence:
#
# PCOD8087971 Si02
#       8
#     8   8   8   8   8   8   8   8
#     4  10  21  35  55  81 109 138 169 210 259 307
#     4   9  16  28  50  76 100 126 168 218 254 290
#     4  10  19  33  53  75 102 137 173 212 259 312
#     4  10  19  34  54  77 106 137 168 211 263 306
#     4   9  19  34  51  74 104 136 174 217 259 302
#     4  10  19  32  52  76 101 132 171 216 260 303
#     4   9  15  28  52  78  98 128 175 214 242 287
#     4  10  20  34  54  77 102 137 177 212 252 310
#
# _framework density 18.515934000000001
#
# number of rings (size 3 to 8) (size 9 to 14) (size 15 to 20)
#    0.000    2.375    2.500    0.750    0.000    3.000 
#    0.000    3.750    0.000    3.375    0.000    0.000 
#    0.000    0.000    0.000    0.000    0.000    0.000 
#
# Total GULP energy -396811.535806 kJ/mol
# GULP energy per Si atom -12400.360494 kJ/mol
# Density = 1.847379 g / cm^3
# Si number density = 18.515934 Si / 1000 Ang^3
#
#
#
# Elastic Constant Matrix: (Units=GPa)
#
#
# Indices 1 2 3 4 5 6 
#
# 1 138.9892 24.7258 70.2618 0.0000 10.0566 0.0000
# 2 24.7258 16.6383 26.2619 0.0000 0.8748 0.0000
# 3 70.2618 26.2619 156.9543 0.0000 15.4286 0.0000
# 4 0.0000 0.0000 0.0000 24.0422 0.0000 1.9585
# 5 10.0566 0.8748 15.4286 0.0000 37.4608 0.0000
# 6 0.0000 0.0000 0.0000 1.9585 0.0000 20.7320
#
#
#
# Elastic Compliance Matrix: (Units=1/GPa)
#
#
# Indices 1 2 3 4 5 6 
#
# 1 0.010740 -0.011584 -0.002723 0.000000 -0.001491 0.000000
# 2 -0.011584 0.094711 -0.011203 0.000000 0.005512 0.000000
# 3 -0.002723 -0.011203 0.009762 0.000000 -0.003028 0.000000
# 4 0.000000 0.000000 0.000000 0.041916 0.000000 -0.003960
# 5 -0.001491 0.005512 -0.003028 0.000000 0.028213 0.000000
# 6 0.000000 0.000000 0.000000 -0.003960 0.000000 0.048609
#
#
# Mechanical properties :
#
#
# Convention : Reuss Voigt Hill
#
# Bulk Modulus (GPa) = 15.57818 61.67564 38.62691
# Shear Modulus (GPa) = 16.32015 29.20248 22.76132
#
# Velocity S-wave (km/s) = 2.97208 3.97565 3.50992
# Velocity P-wave (km/s) = 4.49548 7.37944 6.11005
#
# Compressibility (1/GPa) = 0.06419234
#
# Stress axis : x y z
#
# Youngs Moduli (GPa) = 93.10977 10.55847 102.43317
#
# Poissons Ratio (x) = 0.12231 0.27892
# Poissons Ratio (y) = 1.07860 1.14759
# Poissons Ratio (z) = 0.25354 0.11829
#
# Static dielectric constant tensor:
#      x y z
#    x 3.549020 0.000000 0.056980 
#    y 0.000000 2.899080 0.000000 
#    z 0.056980 0.000000 3.698550 
# 
# 
# High freq. dielectric constant tensor:
#      x y z
#    x 1.725100 0.000000 0.002570 
#    y 0.000000 1.666800 0.000000 
#    z 0.002570 0.000000 1.736820 
# 
# From -- ./inp_files/315722.got.cif
#   From: 2010.06.25/outbox.cif.g09.slc.cpg/sg12_158_cif.got.tgz:315722.got - 2010.06.28 00:19:55.
