data_PCOD8087046
_publ_section_title
;
Structure prediction by ZEFSAII (Michael W. Deem and Ramdas Pophale) SiO2 
 PCOD8087046
Probable space group: C 2/M
;
_chemical_formula_sum "Si O2"
_cell_formula_units_Z 64
_cell_length_a 15.311928
_cell_length_b 19.622676
_cell_length_c 17.587605
_cell_angle_alpha 90.000000
_cell_angle_beta 139.704235
_cell_angle_gamma 90.000000
_cell_volume 3417.591166
_symmetry_space_group_name_H-M "C 2/M"
_symmetry_group_IT_number 12
_symmetry_cell_setting 'monoclinic'
loop_
_space_group_symop_operation_xyz
x,y,z
-x,y,-z
-x,-y,-z
x,-y,z
1/2+x,1/2+y,z
1/2-x,1/2+y,-z
1/2-x,1/2-y,-z
1/2+x,1/2-y,z
loop_
_atom_site_type_symbol
_atom_site_label
_atom_site_fract_x
_atom_site_fract_y
_atom_site_fract_z
Si Si1 0.312568 0.926942 0.981487
Si Si2 0.763386 0.119637 0.220750
Si Si3 0.548978 0.171451 0.811904
Si Si4 0.224990 0.234139 0.138401
Si Si5 0.311400 0.082200 0.665910
Si Si6 0.559937 0.579020 0.404982
Si Si7 0.971297 0.210131 0.863448
Si Si8 0.497186 0.575677 0.798572
O O1 0.324971 0.923723 0.897919
O O2 0.155115 0.927785 0.892401
O O3 0.376010 0.000000 0.050095
O O4 0.376626 0.863322 0.067113
O O5 0.782841 0.190919 0.189909
O O6 0.680932 0.115511 0.244481
O O7 0.912234 0.093102 0.340836
O O8 0.653396 0.187019 0.812588
O O9 0.438840 0.117026 0.707590
O O10 0.477199 0.241384 0.792943
O O11 0.168884 0.215051 0.184160
O O12 0.102047 0.231186 0.998189
O O13 0.177836 0.111017 0.535159
O O14 0.322167 0.000000 0.675204
O O15 0.585869 0.500000 0.425606
O O16 0.572120 0.602263 0.325482
O O17 0.967908 0.130167 0.843596
O O18 0.443259 0.500000 0.785934
#
# Coordination Sequence:
#
# PCOD8087046 Si02
#       8
#     8   8   8   8   8   8   8   8
#     4  10  19  31  52  85 116 148 188 236 292 348
#     4  11  19  36  56  85 116 152 198 241 286 356
#     4  12  21  37  56  82 121 161 188 236 296 358
#     4  11  23  36  58  84 117 157 195 234 299 358
#     4  11  23  37  57  88 123 157 195 243 297 350
#     4   9  19  36  60  85 113 155 198 240 291 342
#     4  11  21  39  57  86 117 153 196 237 296 358
#     4   9  18  36  61  83 106 145 201 249 285 338
#
# _framework density 18.726638999999999
#
# number of rings (size 3 to 8) (size 9 to 14) (size 15 to 20)
#    0.000    1.500    3.750    4.500    0.000    1.500 
#    0.000    6.250    0.000    0.000    0.000    2.625 
#    0.000    0.000    0.000    0.000    0.000    0.000 
#
# Total GULP energy -396494.695771 kJ/mol
# GULP energy per Si atom -12390.459243 kJ/mol
# Density = 1.868402 g / cm^3
# Si number density = 18.726639 Si / 1000 Ang^3
#
#
#
# Elastic Constant Matrix: (Units=GPa)
#
#
# Indices 1 2 3 4 5 6 
#
# 1 317.7070 183.4094 72.0206 -0.0019 78.8395 -0.0013
# 2 183.4094 188.9508 52.2668 -0.0012 42.2158 -0.0008
# 3 72.0206 52.2668 67.3084 -0.0003 18.8776 -0.0001
# 4 -0.0019 -0.0012 -0.0003 23.2772 -0.0006 3.5397
# 5 78.8395 42.2158 18.8776 -0.0006 36.6701 -0.0004
# 6 -0.0013 -0.0008 -0.0001 3.5397 -0.0004 30.2263
#
#
#
# Elastic Compliance Matrix: (Units=1/GPa)
#
#
# Indices 1 2 3 4 5 6 
#
# 1 0.011827 -0.007238 -0.002618 0.000000 -0.015748 0.000000
# 2 -0.007238 0.012483 -0.002668 0.000000 0.002563 0.000000
# 3 -0.002618 -0.002668 0.020208 0.000000 -0.001702 0.000000
# 4 0.000000 0.000000 0.000000 0.043739 0.000000 -0.005122
# 5 -0.015748 0.002563 -0.001702 0.000000 0.059054 0.000000
# 6 0.000000 0.000000 0.000000 -0.005122 0.000000 0.033684
#
#
# Mechanical properties :
#
#
# Convention : Reuss Voigt Hill
#
# Bulk Modulus (GPa) = 51.36042 132.15110 91.75576
# Shear Modulus (GPa) = 23.52583 35.78602 29.65592
#
# Velocity S-wave (km/s) = 3.54824 4.37621 3.98379
# Velocity P-wave (km/s) = 6.65377 9.81104 8.38240
#
# Compressibility (1/GPa) = 0.01947025
#
# Stress axis : x y z
#
# Youngs Moduli (GPa) = 84.55071 80.10837 49.48608
#
# Poissons Ratio (x) = 0.57980 0.12957
# Poissons Ratio (y) = 0.61195 0.13203
# Poissons Ratio (z) = 0.22137 0.21373
#
# Static dielectric constant tensor:
#      x y z
#    x 3.414530 0.000000 -0.110510 
#    y 0.000000 3.118720 0.000000 
#    z -0.110510 0.000000 3.758730 
# 
# 
# High freq. dielectric constant tensor:
#      x y z
#    x 1.709800 0.000000 0.003890 
#    y 0.000000 1.730590 0.000000 
#    z 0.003890 0.000000 1.711660 
# 
# From -- ./inp_files/271678.got.cif
#   From: 2010.06.25/outbox.cif.g09.slc.cpg/sg12_136_cif.got.tgz:271678.got - 2010.06.28 00:19:55.
