data_PCOD8087529
_publ_section_title
;
Structure prediction by ZEFSAII (Michael W. Deem and Ramdas Pophale) SiO2 
 PCOD8087529
Probable space group: C 2/M
;
_chemical_formula_sum "Si O2"
_cell_formula_units_Z 64
_cell_length_a 15.482226
_cell_length_b 8.977634
_cell_length_c 28.668485
_cell_angle_alpha 90.000000
_cell_angle_beta 57.288386
_cell_angle_gamma 90.000000
_cell_volume 3352.765648
_symmetry_space_group_name_H-M "C 2/M"
_symmetry_group_IT_number 12
_symmetry_cell_setting 'monoclinic'
loop_
_space_group_symop_operation_xyz
x,y,z
-x,y,-z
-x,-y,-z
x,-y,z
1/2+x,1/2+y,z
1/2-x,1/2+y,-z
1/2-x,1/2-y,-z
1/2+x,1/2-y,z
loop_
_atom_site_type_symbol
_atom_site_label
_atom_site_fract_x
_atom_site_fract_y
_atom_site_fract_z
Si Si1 0.883060 0.822626 0.242109
Si Si2 0.167474 0.826872 0.056218
Si Si3 0.026335 0.325180 0.438997
Si Si4 0.469462 0.325015 0.058508
Si Si5 0.712698 0.322824 0.826143
Si Si6 0.615189 0.323388 0.173136
Si Si7 0.240729 0.823486 0.633289
Si Si8 0.661054 0.677399 0.556280
O O1 0.827223 0.764187 0.211923
O O2 0.822787 0.758754 0.304474
O O3 0.999288 0.762490 0.208985
O O4 0.884167 0.000000 0.241930
O O5 0.170260 0.773156 0.108876
O O6 0.054955 0.785942 0.071252
O O7 0.189514 0.000000 0.045810
O O8 0.250000 0.750000 0.000000
O O9 0.014856 0.500000 0.431527
O O10 0.142090 0.265573 0.397289
O O11 0.000000 0.290227 0.500000
O O12 0.950198 0.236872 0.426869
O O13 0.458298 0.500000 0.054279
O O14 0.363018 0.263893 0.110660
O O15 0.500000 0.249729 0.000000
O O16 0.720389 0.500000 0.824105
O O17 0.823865 0.251726 0.802213
O O18 0.616835 0.500000 0.177967
O O19 0.183203 0.772533 0.602978
O O20 0.244269 0.000000 0.633681
O O21 0.664940 0.500000 0.549381
O O22 0.750000 0.750000 0.500000
#
# Coordination Sequence:
#
# PCOD8087529 Si02
#       8
#     8   8   8   8   8   8   8   8
#     4   9  18  36  58  78 105 146 188 219 260 328
#     4  10  19  32  50  76 106 137 174 218 268 321
#     4  10  19  35  56  81 113 148 183 222 273 327
#     4   9  16  28  48  73 100 130 169 212 253 307
#     4  10  19  34  57  80 101 137 184 221 258 317
#     4  10  20  35  55  79 109 141 175 221 276 323
#     4   9  19  35  56  80 110 147 183 221 271 328
#     4  11  21  35  56  84 114 148 186 226 275 328
#
# _framework density 19.088719000000001
#
# number of rings (size 3 to 8) (size 9 to 14) (size 15 to 20)
#    0.000    2.250    2.500    1.125    0.000    2.750 
#    0.000    1.250    0.000    5.250    0.000    0.000 
#    0.000    0.000    0.000    0.000    0.000    0.000 
#
# Total GULP energy -396732.745012 kJ/mol
# GULP energy per Si atom -12397.898282 kJ/mol
# Density = 1.904527 g / cm^3
# Si number density = 19.088719 Si / 1000 Ang^3
#
#
#
# Elastic Constant Matrix: (Units=GPa)
#
#
# Indices 1 2 3 4 5 6 
#
# 1 158.0488 39.9372 107.7390 0.0000 3.4628 0.0000
# 2 39.9372 30.7093 29.0767 -0.0001 0.0020 0.0000
# 3 107.7390 29.0767 136.0169 0.0000 -0.4700 0.0000
# 4 0.0000 -0.0001 0.0000 13.9347 0.0000 0.8386
# 5 3.4628 0.0020 -0.4700 0.0000 32.4501 0.0000
# 6 0.0000 0.0000 0.0000 0.8386 0.0000 31.4703
#
#
#
# Elastic Compliance Matrix: (Units=1/GPa)
#
#
# Indices 1 2 3 4 5 6 
#
# 1 0.016501 -0.011381 -0.010644 0.000000 -0.001914 0.000000
# 2 -0.011381 0.048677 -0.001387 0.000000 0.001191 0.000000
# 3 -0.010644 -0.001387 0.016084 0.000000 0.001369 0.000000
# 4 0.000000 0.000000 0.000000 0.071879 0.000000 -0.001915
# 5 -0.001914 0.001191 0.001369 0.000000 0.031041 0.000000
# 6 0.000000 0.000000 0.000000 -0.001915 0.000000 0.031827
#
#
# Mechanical properties :
#
#
# Convention : Reuss Voigt Hill
#
# Bulk Modulus (GPa) = 29.03697 75.36453 52.20075
# Shear Modulus (GPa) = 18.22744 25.43914 21.83329
#
# Velocity S-wave (km/s) = 3.09347 3.65455 3.38565
# Velocity P-wave (km/s) = 5.29188 7.57460 6.53370
#
# Compressibility (1/GPa) = 0.03443886
#
# Stress axis : x y z
#
# Youngs Moduli (GPa) = 60.60372 20.54342 62.17257
#
# Poissons Ratio (x) = 0.23380 0.66176
# Poissons Ratio (y) = 0.68972 0.08623
# Poissons Ratio (z) = 0.64506 0.02849
#
# Static dielectric constant tensor:
#      x y z
#    x 3.741320 0.000000 0.023770 
#    y 0.000000 3.055220 0.000000 
#    z 0.023770 0.000000 3.729370 
# 
# 
# High freq. dielectric constant tensor:
#      x y z
#    x 1.759140 0.000000 0.000340 
#    y 0.000000 1.693790 0.000000 
#    z 0.000340 0.000000 1.747430 
# 
# From -- ./inp_files/374980.got.cif
#   From: 2010.06.25/outbox.cif.g09.slc.cpg/sg12_188_cif.got.tgz:374980.got - 2010.06.28 00:19:55.
