data_PCOD8087005
_publ_section_title
;
Structure prediction by ZEFSAII (Michael W. Deem and Ramdas Pophale) SiO2 
 PCOD8087005
Probable space group: C 2/M
;
_chemical_formula_sum "Si O2"
_cell_formula_units_Z 64
_cell_length_a 34.305858
_cell_length_b 8.900123
_cell_length_c 11.384614
_cell_angle_alpha 90.000000
_cell_angle_beta 80.068666
_cell_angle_gamma 90.000000
_cell_volume 3423.935040
_symmetry_space_group_name_H-M "C 2/M"
_symmetry_group_IT_number 12
_symmetry_cell_setting 'monoclinic'
loop_
_space_group_symop_operation_xyz
x,y,z
-x,y,-z
-x,-y,-z
x,-y,z
1/2+x,1/2+y,z
1/2-x,1/2+y,-z
1/2-x,1/2-y,-z
1/2+x,1/2-y,z
loop_
_atom_site_type_symbol
_atom_site_label
_atom_site_fract_x
_atom_site_fract_y
_atom_site_fract_z
Si Si1 0.427403 0.325345 0.061578
Si Si2 0.051108 0.321667 0.188605
Si Si3 0.028356 0.825598 0.720885
Si Si4 0.700159 0.175842 0.125801
Si Si5 0.855590 0.675983 0.216304
Si Si6 0.288863 0.325117 0.124435
Si Si7 0.399156 0.176676 0.428984
Si Si8 0.375458 0.822202 0.695562
O O1 0.421286 0.500000 0.038608
O O2 0.456130 0.297271 0.155976
O O3 0.384857 0.252041 0.107398
O O4 0.448028 0.247673 0.941002
O O5 0.049914 0.500000 0.179874
O O6 0.088963 0.263170 0.241593
O O7 0.012315 0.263677 0.276078
O O8 0.059728 0.762412 0.611457
O O9 0.021215 0.000000 0.699181
O O10 0.742351 0.209048 0.164250
O O11 0.666362 0.235063 0.231690
O O12 0.695425 0.000000 0.098734
O O13 0.695583 0.266250 0.008182
O O14 0.856375 0.500000 0.192516
O O15 0.811693 0.740098 0.217330
O O16 0.868064 0.716353 0.342465
O O17 0.298183 0.500000 0.128388
O O18 0.380512 0.236892 0.560049
O O19 0.408341 0.000000 0.427348
O O20 0.375842 0.000000 0.693859
#
# Coordination Sequence:
#
# PCOD8087005 Si02
#       8
#     8   8   8   8   8   8   8   8
#     4  10  20  34  52  75 105 136 167 209 259 306
#     4  11  21  32  52  79 104 133 170 212 257 308
#     4  10  21  36  52  73 104 137 168 209 259 305
#     4   9  18  34  55  78 106 138 170 206 251 304
#     4  10  19  32  53  77 101 133 172 211 251 302
#     4  10  19  31  52  81 110 137 165 204 254 306
#     4   9  19  37  57  73  94 131 177 217 252 296
#     4   9  19  36  55  74  98 131 172 215 255 296
#
# _framework density 18.691942999999998
#
# number of rings (size 3 to 8) (size 9 to 14) (size 15 to 20)
#    0.000    2.250    0.000    3.000    0.000    5.500 
#    0.000    5.625    0.000    0.000    0.000    0.000 
#    0.000    0.000    0.000    0.000    0.000    0.000 
#
# Total GULP energy -396904.570860 kJ/mol
# GULP energy per Si atom -12403.267839 kJ/mol
# Density = 1.864940 g / cm^3
# Si number density = 18.691943 Si / 1000 Ang^3
#
#
#
# Elastic Constant Matrix: (Units=GPa)
#
#
# Indices 1 2 3 4 5 6 
#
# 1 141.6104 47.5907 63.6924 0.0000 -13.6570 0.0000
# 2 47.5907 73.1028 33.5656 0.0000 -3.7113 0.0000
# 3 63.6924 33.5656 101.8593 0.0000 -22.5232 0.0000
# 4 0.0000 0.0000 0.0000 18.6804 0.0000 1.4504
# 5 -13.6570 -3.7113 -22.5232 0.0000 21.6043 0.0000
# 6 0.0000 0.0000 0.0000 1.4504 0.0000 32.1582
#
#
#
# Elastic Compliance Matrix: (Units=1/GPa)
#
#
# Indices 1 2 3 4 5 6 
#
# 1 0.011075 -0.004796 -0.005171 0.000000 0.000786 0.000000
# 2 -0.004796 0.018413 -0.003950 0.000000 -0.003987 0.000000
# 3 -0.005171 -0.003950 0.017518 0.000000 0.014316 0.000000
# 4 0.000000 0.000000 0.000000 0.053720 0.000000 -0.002423
# 5 0.000786 -0.003987 0.014316 0.000000 0.061024 0.000000
# 6 0.000000 0.000000 0.000000 -0.002423 0.000000 0.031205
#
#
# Mechanical properties :
#
#
# Convention : Reuss Voigt Hill
#
# Bulk Modulus (GPa) = 52.16004 67.36332 59.76168
# Shear Modulus (GPa) = 22.00897 25.93685 23.97291
#
# Velocity S-wave (km/s) = 3.43513 3.72908 3.58512
# Velocity P-wave (km/s) = 6.61054 7.39313 7.01276
#
# Compressibility (1/GPa) = 0.01917176
#
# Stress axis : x y z
#
# Youngs Moduli (GPa) = 90.29457 54.30989 57.08362
#
# Poissons Ratio (x) = 0.26045 0.29518
# Poissons Ratio (y) = 0.43302 0.22551
# Poissons Ratio (z) = 0.46691 0.21455
#
# Static dielectric constant tensor:
#      x y z
#    x 3.620670 0.000000 -0.009790 
#    y 0.000000 3.366120 0.000000 
#    z -0.009790 0.000000 3.413200 
# 
# 
# High freq. dielectric constant tensor:
#      x y z
#    x 1.733510 0.000000 0.002090 
#    y 0.000000 1.721730 0.000000 
#    z 0.002090 0.000000 1.713360 
# 
# From -- ./inp_files/187604.got.cif
#   From: 2010.06.25/outbox.cif.g09.slc.cpg/sg12_94_cif.got.tgz:187604.got - 2010.06.28 00:19:55.
