data_PCOD8087829
_publ_section_title
;
Structure prediction by ZEFSAII (Michael W. Deem and Ramdas Pophale) SiO2 
 PCOD8087829
Probable space group: C 2/M
;
_chemical_formula_sum "Si O2"
_cell_formula_units_Z 64
_cell_length_a 32.430653
_cell_length_b 8.945008
_cell_length_c 15.262132
_cell_angle_alpha 90.000000
_cell_angle_beta 133.060797
_cell_angle_gamma 90.000000
_cell_volume 3234.810950
_symmetry_space_group_name_H-M "C 2/M"
_symmetry_group_IT_number 12
_symmetry_cell_setting 'monoclinic'
loop_
_space_group_symop_operation_xyz
x,y,z
-x,y,-z
-x,-y,-z
x,-y,z
1/2+x,1/2+y,z
1/2-x,1/2+y,-z
1/2-x,1/2-y,-z
1/2+x,1/2-y,z
loop_
_atom_site_type_symbol
_atom_site_label
_atom_site_fract_x
_atom_site_fract_y
_atom_site_fract_z
Si Si1 0.898125 0.837681 0.286591
Si Si2 0.846789 0.324733 0.866449
Si Si3 0.062990 0.170742 0.118829
Si Si4 0.232527 0.836530 0.891007
Si Si5 0.033933 0.828132 0.269617
Si Si6 0.114910 0.177850 0.541179
Si Si7 0.734585 0.176567 0.719740
Si Si8 0.919026 0.324733 0.136272
O O1 0.832692 0.867704 0.199750
O O2 0.912671 0.770660 0.404832
O O3 0.911394 0.731297 0.224804
O O4 0.928154 0.000000 0.315395
O O5 0.835004 0.500000 0.843995
O O6 0.894925 0.282997 0.867375
O O7 0.790033 0.239691 0.750710
O O8 0.867805 0.279815 0.996046
O O9 0.069640 0.192429 0.232756
O O10 0.076564 0.000000 0.110676
O O11 0.000000 0.213714 0.000000
O O12 0.249477 0.724866 0.839333
O O13 0.263041 0.000000 0.925713
O O14 0.250000 0.750000 0.000000
O O15 0.071470 0.767946 0.404395
O O16 0.976230 0.737968 0.178502
O O17 0.017544 0.000000 0.260664
O O18 0.175229 0.251470 0.605039
O O19 0.124171 0.000000 0.554515
O O20 0.730315 0.000000 0.702417
O O21 0.924818 0.500000 0.150379
#
# Coordination Sequence:
#
# PCOD8087829 Si02
#       8
#     8   8   8   8   8   8   8   8
#     4   9  19  34  52  75 108 150 192 232 275 331
#     4  11  23  38  58  85 119 154 188 235 289 347
#     4  10  20  37  62  91 117 143 183 235 290 350
#     4  10  19  32  51  77 110 150 194 239 288 343
#     4  10  21  39  63  85 112 151 188 232 289 348
#     4   9  20  40  61  82 112 153 197 234 279 343
#     4  11  22  36  57  83 113 151 192 240 290 338
#     4  11  23  35  53  84 118 150 190 238 285 334
#
# _framework density 19.784773999999999
#
# number of rings (size 3 to 8) (size 9 to 14) (size 15 to 20)
#    0.000    1.875    1.250    3.750    0.000    7.750 
#    0.000    3.125    0.000    0.000    0.000    0.000 
#    0.000    0.000    0.000    0.000    0.000    0.000 
#
# Total GULP energy -396598.207309 kJ/mol
# GULP energy per Si atom -12393.693978 kJ/mol
# Density = 1.973974 g / cm^3
# Si number density = 19.784774 Si / 1000 Ang^3
#
#
#
# Elastic Constant Matrix: (Units=GPa)
#
#
# Indices 1 2 3 4 5 6 
#
# 1 76.0098 32.4814 11.2725 0.0000 -2.0130 0.0000
# 2 32.4814 85.9432 25.3460 0.0000 7.0099 0.0000
# 3 11.2725 25.3460 66.1027 0.0000 -10.6750 0.0000
# 4 0.0000 0.0000 0.0000 21.9794 0.0000 3.0697
# 5 -2.0130 7.0099 -10.6750 0.0000 27.2516 0.0000
# 6 0.0000 0.0000 0.0000 3.0697 0.0000 33.8489
#
#
#
# Elastic Compliance Matrix: (Units=1/GPa)
#
#
# Indices 1 2 3 4 5 6 
#
# 1 0.015895 -0.006288 0.000161 0.000000 0.002855 0.000000
# 2 -0.006288 0.016494 -0.006418 0.000000 -0.007221 0.000000
# 3 0.000161 -0.006418 0.019034 0.000000 0.009119 0.000000
# 4 0.000000 0.000000 0.000000 0.046081 0.000000 -0.004179
# 5 0.002855 -0.007221 0.009119 0.000000 0.042336 0.000000
# 6 0.000000 0.000000 0.000000 -0.004179 0.000000 0.029922
#
#
# Mechanical properties :
#
#
# Convention : Reuss Voigt Hill
#
# Bulk Modulus (GPa) = 37.97437 40.69506 39.33472
# Shear Modulus (GPa) = 24.55460 27.21304 25.88382
#
# Velocity S-wave (km/s) = 3.52673 3.71273 3.62092
# Velocity P-wave (km/s) = 5.98491 6.24442 6.11604
#
# Compressibility (1/GPa) = 0.02633355
#
# Stress axis : x y z
#
# Youngs Moduli (GPa) = 62.91366 60.62881 52.53752
#
# Poissons Ratio (x) = 0.38122 -0.00848
# Poissons Ratio (y) = 0.39558 0.33720
# Poissons Ratio (z) = -0.01015 0.38913
#
# Static dielectric constant tensor:
#      x y z
#    x 3.608980 0.000000 -0.046820 
#    y 0.000000 3.528180 0.000000 
#    z -0.046820 0.000000 3.582820 
# 
# 
# High freq. dielectric constant tensor:
#      x y z
#    x 1.771280 0.000000 0.000980 
#    y 0.000000 1.766830 0.000000 
#    z 0.000980 0.000000 1.765450 
# 
# From -- ./inp_files/249257.got.cif
#   From: 2010.06.25/outbox.cif.g09.slc.cpg/sg12_125_cif.got.tgz:249257.got - 2010.06.28 00:19:55.
