data_PCOD8087340
_publ_section_title
;
Structure prediction by ZEFSAII (Michael W. Deem and Ramdas Pophale) SiO2 
 PCOD8087340
Probable space group: C 2/M
;
_chemical_formula_sum "Si O2"
_cell_formula_units_Z 52
_cell_length_a 5.100275
_cell_length_b 24.302496
_cell_length_c 24.499193
_cell_angle_alpha 90.000000
_cell_angle_beta 105.562808
_cell_angle_gamma 90.000000
_cell_volume 2925.327274
_symmetry_space_group_name_H-M "C 2/M"
_symmetry_group_IT_number 12
_symmetry_cell_setting 'monoclinic'
loop_
_space_group_symop_operation_xyz
x,y,z
-x,y,-z
-x,-y,-z
x,-y,z
1/2+x,1/2+y,z
1/2-x,1/2+y,-z
1/2-x,1/2-y,-z
1/2+x,1/2-y,z
loop_
_atom_site_type_symbol
_atom_site_label
_atom_site_fract_x
_atom_site_fract_y
_atom_site_fract_z
Si Si1 0.383672 0.870583 0.836459
Si Si2 0.000000 0.788337 0.500000
Si Si3 0.917210 0.286041 0.934219
Si Si4 0.419032 0.562103 0.844942
Si Si5 0.199996 0.713601 0.260604
Si Si6 0.759158 0.785740 0.381876
Si Si7 0.714795 0.437840 0.973658
O O1 0.392457 0.839947 0.895299
O O2 0.630077 0.913660 0.846250
O O3 0.421336 0.829095 0.788740
O O4 0.091578 0.901397 0.811489
O O5 0.750000 0.750000 0.500000
O O6 0.901268 0.821687 0.439580
O O7 0.624968 0.256841 0.918975
O O8 0.000000 0.303716 0.000000
O O9 0.372573 0.500000 0.820709
O O10 0.627865 0.562195 0.906731
O O11 0.486495 0.736518 0.254861
O O12 0.239701 0.683436 0.322196
O O13 0.456900 0.767107 0.382815
O O14 0.743461 0.500000 0.998331
O O15 0.500000 0.405604 0.000000
O O16 0.000000 0.407161 0.000000
#
# Coordination Sequence:
#
# PCOD8087340 Si02
#       7
#     8   4   8   8   8   8   8
#     4  12  22  35  55  72  92 126 159 192 238 286
#     4   8  12  20  34  56  86 124 159 178 211 264
#     4  10  21  37  54  73  96 119 149 190 230 274
#     4  11  24  38  51  71  96 121 153 194 239 287
#     4  10  19  32  49  72  98 124 160 200 232 269
#     4   8  14  23  38  60  90 124 155 187 219 260
#     4   9  17  31  49  65  83 106 131 168 220 275
#
# _framework density 17.775789
#
# number of rings (size 3 to 8) (size 9 to 14) (size 15 to 20)
#    0.000    2.154    0.000    4.154    0.000    4.308 
#    0.000    0.000    0.000    0.462    0.000    0.000 
#    0.000    0.000    0.000    4.154    0.000    1.538 
#
# Total GULP energy -322090.932470 kJ/mol
# GULP energy per Si atom -12388.112787 kJ/mol
# Density = 1.773533 g / cm^3
# Si number density = 17.775789 Si / 1000 Ang^3
#
#
#
# Elastic Constant Matrix: (Units=GPa)
#
#
# Indices 1 2 3 4 5 6 
#
# 1 113.4211 21.9974 11.0189 0.0000 -2.9247 0.0000
# 2 21.9974 66.5375 27.8079 0.0000 -4.1159 0.0000
# 3 11.0189 27.8079 96.5333 0.0000 -1.2560 0.0000
# 4 0.0000 0.0000 0.0000 2.3683 0.0000 0.4648
# 5 -2.9247 -4.1159 -1.2560 0.0000 19.8082 0.0000
# 6 0.0000 0.0000 0.0000 0.4648 0.0000 18.0915
#
#
#
# Elastic Compliance Matrix: (Units=1/GPa)
#
#
# Indices 1 2 3 4 5 6 
#
# 1 0.009436 -0.002986 -0.000207 0.000000 0.000760 0.000000
# 2 -0.002986 0.018241 -0.004874 0.000000 0.003040 0.000000
# 3 -0.000207 -0.004874 0.011783 0.000000 -0.000296 0.000000
# 4 0.000000 0.000000 0.000000 0.424379 0.000000 -0.010902
# 5 0.000760 0.003040 -0.000296 0.000000 0.051209 0.000000
# 6 0.000000 0.000000 0.000000 -0.010902 0.000000 0.055555
#
#
# Mechanical properties :
#
#
# Convention : Reuss Voigt Hill
#
# Bulk Modulus (GPa) = 42.87155 44.23780 43.55468
# Shear Modulus (GPa) = 8.41025 22.43145 15.42085
#
# Velocity S-wave (km/s) = 2.17751 3.55619 2.94856
# Velocity P-wave (km/s) = 5.52199 6.46549 6.01228
#
# Compressibility (1/GPa) = 0.02332549
#
# Stress axis : x y z
#
# Youngs Moduli (GPa) = 105.98272 54.82020 84.86781
#
# Poissons Ratio (x) = 0.16369 0.01757
# Poissons Ratio (y) = 0.31645 0.41368
# Poissons Ratio (z) = 0.02194 0.26721
#
# Static dielectric constant tensor:
#      x y z
#    x 4.275170 0.000000 -0.010810 
#    y 0.000000 2.962750 0.000000 
#    z -0.010810 0.000000 3.748810 
# 
# 
# High freq. dielectric constant tensor:
#      x y z
#    x 1.723280 0.000000 -0.001670 
#    y 0.000000 1.628310 0.000000 
#    z -0.001670 0.000000 1.676850 
# 
# From -- ./inp_files/331205.got.cif
#   From: 2010.06.25/outbox.cif.g09.slc.cpg/sg12_166_cif.got.tgz:331205.got - 2010.06.28 00:19:55.
