data_PCOD8087184
_publ_section_title
;
Structure prediction by ZEFSAII (Michael W. Deem and Ramdas Pophale) SiO2 
 PCOD8087184
Probable space group: C 2/M
;
_chemical_formula_sum "Si O2"
_cell_formula_units_Z 64
_cell_length_a 12.364870
_cell_length_b 31.829295
_cell_length_c 17.014826
_cell_angle_alpha 90.000000
_cell_angle_beta 27.980772
_cell_angle_gamma 90.000000
_cell_volume 3141.804507
_symmetry_space_group_name_H-M "C 2/M"
_symmetry_group_IT_number 12
_symmetry_cell_setting 'monoclinic'
loop_
_space_group_symop_operation_xyz
x,y,z
-x,y,-z
-x,-y,-z
x,-y,z
1/2+x,1/2+y,z
1/2-x,1/2+y,-z
1/2-x,1/2-y,-z
1/2+x,1/2-y,z
loop_
_atom_site_type_symbol
_atom_site_label
_atom_site_fract_x
_atom_site_fract_y
_atom_site_fract_z
Si Si1 0.150401 0.755946 0.826574
Si Si2 0.331586 0.548140 0.925161
Si Si3 0.127948 0.706320 0.568553
Si Si4 0.731143 0.093874 0.305450
Si Si5 0.559419 0.674880 0.769736
Si Si6 0.264097 0.826262 0.330852
Si Si7 0.230792 0.544966 0.160976
Si Si8 0.615796 0.871194 0.006923
O O1 0.365957 0.784744 0.712908
O O2 0.011844 0.783325 0.851035
O O3 0.224456 0.713453 0.735510
O O4 0.000000 0.745517 0.000000
O O5 0.309498 0.500000 0.908953
O O6 0.602374 0.558212 0.764360
O O7 0.187076 0.555450 0.098093
O O8 0.215593 0.581219 0.940193
O O9 0.250000 0.750000 0.500000
O O10 0.248724 0.680300 0.421137
O O11 0.145211 0.682157 0.639640
O O12 0.500000 0.097535 0.500000
O O13 0.863565 0.138032 0.220171
O O14 0.647498 0.082341 0.270866
O O15 0.318190 0.662961 0.885303
O O16 0.424994 0.864025 0.196825
O O17 0.000000 0.841764 0.500000
O O18 0.111736 0.500000 0.258643
O O19 0.500000 0.539579 0.000000
O O20 0.500000 0.860920 0.000000
#
# Coordination Sequence:
#
# PCOD8087184 Si02
#       8
#     8   8   8   8   8   8   8   8
#     4  12  25  39  62  91 122 160 205 254 305 362
#     4   9  20  39  60  87 121 159 200 241 299 370
#     4  12  23  40  63  86 123 169 208 249 304 355
#     4  10  19  31  57  90 128 158 192 246 294 359
#     4  11  24  42  58  88 126 161 208 255 308 359
#     4  12  24  41  64  85 117 160 205 258 303 364
#     4   8  15  30  53  79 112 151 186 223 284 360
#     4  11  25  41  64  90 116 156 207 259 309 366
#
# _framework density 20.370459
#
# number of rings (size 3 to 8) (size 9 to 14) (size 15 to 20)
#    0.000    1.375    2.500    4.125    1.750    6.750 
#    0.000    0.000    0.000    0.375    0.000    0.000 
#    0.000    0.000    0.000    0.000    0.000    0.000 
#
# Total GULP energy -396709.179034 kJ/mol
# GULP energy per Si atom -12397.161845 kJ/mol
# Density = 2.032409 g / cm^3
# Si number density = 20.370459 Si / 1000 Ang^3
#
#
#
# Elastic Constant Matrix: (Units=GPa)
#
#
# Indices 1 2 3 4 5 6 
#
# 1 72.9982 9.9534 7.5800 -0.0002 -1.6170 0.0003
# 2 9.9534 65.9506 10.1100 -0.0001 -10.6781 0.0000
# 3 7.5800 10.1100 72.5263 -0.0011 -6.3103 0.0019
# 4 -0.0002 -0.0001 -0.0011 23.0354 0.0003 9.5597
# 5 -1.6170 -10.6781 -6.3103 0.0003 32.3100 -0.0007
# 6 0.0003 0.0000 0.0019 9.5597 -0.0007 25.8293
#
#
#
# Elastic Compliance Matrix: (Units=1/GPa)
#
#
# Indices 1 2 3 4 5 6 
#
# 1 0.014090 -0.001970 -0.001214 0.000000 -0.000183 0.000000
# 2 -0.001970 0.016531 -0.001660 0.000000 0.005040 0.000000
# 3 -0.001214 -0.001660 0.014337 0.000001 0.002191 -0.000001
# 4 0.000000 0.000000 0.000001 0.051289 -0.000001 -0.018983
# 5 -0.000183 0.005040 0.002191 -0.000001 0.033035 0.000001
# 6 0.000000 0.000000 -0.000001 -0.018983 0.000001 0.045741
#
#
# Mechanical properties :
#
#
# Convention : Reuss Voigt Hill
#
# Bulk Modulus (GPa) = 28.35289 29.64022 28.99656
# Shear Modulus (GPa) = 25.44962 28.49040 26.97001
#
# Velocity S-wave (km/s) = 3.53843 3.74386 3.64260
# Velocity P-wave (km/s) = 5.53560 5.76809 5.65304
#
# Compressibility (1/GPa) = 0.03526977
#
# Stress axis : x y z
#
# Youngs Moduli (GPa) = 70.97453 60.49332 69.74981
#
# Poissons Ratio (x) = 0.11917 0.08467
# Poissons Ratio (y) = 0.13982 0.11578
# Poissons Ratio (z) = 0.08615 0.10041
#
# Static dielectric constant tensor:
#      x y z
#    x 3.576650 0.000020 -1.094830 
#    y 0.000020 3.701980 0.000090 
#    z -1.094830 0.000090 -3.016280 
# 
# 
# High freq. dielectric constant tensor:
#      x y z
#    x 1.793520 0.000000 0.005820 
#    y 0.000000 1.792820 0.000000 
#    z 0.005820 0.000000 1.786840 
# 
# From -- ./inp_files/266279.got.cif
#   From: 2010.06.25/outbox.cif.g09.slc.cpg/sg12_134_cif.got.tgz:266279.got - 2010.06.28 00:19:55.
