data_PCOD8087206
_publ_section_title
;
Structure prediction by ZEFSAII (Michael W. Deem and Ramdas Pophale) SiO2 
 PCOD8087206
Probable space group: C 2/M
;
_chemical_formula_sum "Si O2"
_cell_formula_units_Z 64
_cell_length_a 24.527055
_cell_length_b 8.755208
_cell_length_c 16.231199
_cell_angle_alpha 90.000000
_cell_angle_beta 98.546880
_cell_angle_gamma 90.000000
_cell_volume 3446.771378
_symmetry_space_group_name_H-M "C 2/M"
_symmetry_group_IT_number 12
_symmetry_cell_setting 'monoclinic'
loop_
_space_group_symop_operation_xyz
x,y,z
-x,y,-z
-x,-y,-z
x,-y,z
1/2+x,1/2+y,z
1/2-x,1/2+y,-z
1/2-x,1/2-y,-z
1/2+x,1/2-y,z
loop_
_atom_site_type_symbol
_atom_site_label
_atom_site_fract_x
_atom_site_fract_y
_atom_site_fract_z
Si Si1 0.710570 0.668784 0.429266
Si Si2 0.381353 0.680632 0.784989
Si Si3 0.896852 0.831390 0.490865
Si Si4 0.773168 0.678233 0.733080
Si Si5 0.544305 0.678342 0.760443
Si Si6 0.650413 0.321265 0.690331
Si Si7 0.445732 0.820728 0.649713
Si Si8 0.485423 0.680231 0.908439
O O1 0.732409 0.500000 0.407208
O O2 0.750000 0.750000 0.500000
O O3 0.652738 0.647808 0.458225
O O4 0.705983 0.784977 0.353184
O O5 0.377934 0.500000 0.775813
O O6 0.320798 0.742466 0.799608
O O7 0.401660 0.741818 0.700891
O O8 0.424927 0.733302 0.864675
O O9 0.875441 0.753213 0.400538
O O10 0.939652 0.727232 0.551846
O O11 0.922501 0.000000 0.477940
O O12 0.773850 0.500000 0.752627
O O13 0.710700 0.746282 0.728828
O O14 0.529886 0.500000 0.745260
O O15 0.608556 0.711484 0.756021
O O16 0.507514 0.772961 0.688351
O O17 0.531207 0.729976 0.851138
O O18 0.659279 0.500000 0.675349
O O19 0.437805 0.000000 0.656237
O O20 0.485813 0.500000 0.918357
O O21 0.500000 0.756859 0.000000
#
# Coordination Sequence:
#
# PCOD8087206 Si02
#       8
#     8   8   8   8   8   8   8   8
#     4  11  20  30  46  67  96 132 174 220 258 289
#     4  10  19  32  51  77 104 130 163 202 252 302
#     4  10  19  32  47  65  94 132 177 216 250 289
#     4  11  20  32  49  71 100 132 171 213 250 292
#     4   9  18  35  56  73  96 130 167 203 246 299
#     4   9  19  34  50  69  94 134 178 209 240 290
#     4  11  21  32  48  71 100 131 168 214 260 294
#     4   8  15  30  56  85 103 118 152 203 249 295
#
# _framework density 18.568102
#
# number of rings (size 3 to 8) (size 9 to 14) (size 15 to 20)
#    0.000    2.125    2.500    3.000    0.000    1.000 
#    0.000    4.375    0.000   10.125    0.000    0.000 
#    0.000    0.000    0.000    0.000    0.000    0.625 
#
# Total GULP energy -396488.491487 kJ/mol
# GULP energy per Si atom -12390.265359 kJ/mol
# Density = 1.852584 g / cm^3
# Si number density = 18.568102 Si / 1000 Ang^3
#
#
#
# Elastic Constant Matrix: (Units=GPa)
#
#
# Indices 1 2 3 4 5 6 
#
# 1 121.8184 22.9775 65.8634 0.0000 6.3282 0.0000
# 2 22.9775 56.9902 21.3518 0.0000 4.2268 0.0000
# 3 65.8634 21.3518 113.5820 0.0000 14.3206 0.0000
# 4 0.0000 0.0000 0.0000 11.1522 0.0000 5.4230
# 5 6.3282 4.2268 14.3206 0.0000 20.5488 0.0000
# 6 0.0000 0.0000 0.0000 5.4230 0.0000 22.1361
#
#
#
# Elastic Compliance Matrix: (Units=1/GPa)
#
#
# Indices 1 2 3 4 5 6 
#
# 1 0.012311 -0.002506 -0.006857 0.000000 0.001503 0.000000
# 2 -0.002506 0.019431 -0.001966 0.000000 -0.001855 0.000000
# 3 -0.006857 -0.001966 0.014069 0.000000 -0.007289 0.000000
# 4 0.000000 0.000000 0.000000 0.101795 0.000000 -0.024938
# 5 0.001503 -0.001855 -0.007289 0.000000 0.053663 0.000000
# 6 0.000000 0.000000 0.000000 -0.024938 0.000000 0.051285
#
#
# Mechanical properties :
#
#
# Convention : Reuss Voigt Hill
#
# Bulk Modulus (GPa) = 43.19014 56.97513 50.08264
# Shear Modulus (GPa) = 17.67221 22.91394 20.29307
#
# Velocity S-wave (km/s) = 3.08839 3.51671 3.30949
# Velocity P-wave (km/s) = 6.00237 6.87319 6.45249
#
# Compressibility (1/GPa) = 0.02315343
#
# Stress axis : x y z
#
# Youngs Moduli (GPa) = 81.22771 51.46334 71.07766
#
# Poissons Ratio (x) = 0.12896 0.48740
# Poissons Ratio (y) = 0.20355 0.13972
# Poissons Ratio (z) = 0.55700 0.10117
#
# Static dielectric constant tensor:
#      x y z
#    x 3.529330 0.000000 0.179660 
#    y 0.000000 3.287540 0.000000 
#    z 0.179660 0.000000 3.440910 
# 
# 
# High freq. dielectric constant tensor:
#      x y z
#    x 1.722570 0.000000 0.017370 
#    y 0.000000 1.695890 0.000000 
#    z 0.017370 0.000000 1.687960 
# 
# From -- ./inp_files/287707.got.cif
#   From: 2010.06.25/outbox.cif.g09.slc.cpg/sg12_144_cif.got.tgz:287707.got - 2010.06.28 00:19:55.
