data_PCOD8087489
_publ_section_title
;
Structure prediction by ZEFSAII (Michael W. Deem and Ramdas Pophale) SiO2 
 PCOD8087489
Probable space group: C 2/M
;
_chemical_formula_sum "Si O2"
_cell_formula_units_Z 64
_cell_length_a 30.196916
_cell_length_b 9.270649
_cell_length_c 11.849736
_cell_angle_alpha 90.000000
_cell_angle_beta 93.188959
_cell_angle_gamma 90.000000
_cell_volume 3312.137662
_symmetry_space_group_name_H-M "C 2/M"
_symmetry_group_IT_number 12
_symmetry_cell_setting 'monoclinic'
loop_
_space_group_symop_operation_xyz
x,y,z
-x,y,-z
-x,-y,-z
x,-y,z
1/2+x,1/2+y,z
1/2-x,1/2+y,-z
1/2-x,1/2-y,-z
1/2+x,1/2-y,z
loop_
_atom_site_type_symbol
_atom_site_label
_atom_site_fract_x
_atom_site_fract_y
_atom_site_fract_z
Si Si1 0.913205 0.171338 0.243681
Si Si2 0.886914 0.170247 0.482983
Si Si3 0.000620 0.828294 0.128553
Si Si4 0.711505 0.664623 0.555804
Si Si5 0.237988 0.835460 0.814970
Si Si6 0.086583 0.829307 0.271111
Si Si7 0.838405 0.663477 0.842680
Si Si8 0.161903 0.664615 0.898765
O O1 0.913327 0.221317 0.374818
O O2 0.871370 0.241295 0.178620
O O3 0.957765 0.228360 0.190003
O O4 0.908688 0.000000 0.230719
O O5 0.836664 0.232507 0.481957
O O6 0.915017 0.216862 0.597158
O O7 0.881662 0.000000 0.475777
O O8 0.043619 0.767125 0.200211
O O9 0.001469 0.000000 0.128014
O O10 0.000000 0.768945 0.000000
O O11 0.715339 0.500000 0.515744
O O12 0.750000 0.750000 0.500000
O O13 0.716037 0.676917 0.689982
O O14 0.288432 0.780893 0.818390
O O15 0.211001 0.731956 0.895309
O O16 0.236425 0.000000 0.860063
O O17 0.130946 0.767334 0.224606
O O18 0.088521 0.000000 0.258674
O O19 0.843108 0.500000 0.798337
O O20 0.853139 0.672707 0.974281
O O21 0.162403 0.500000 0.855622
#
# Coordination Sequence:
#
# PCOD8087489 Si02
#       8
#     8   8   8   8   8   8   8   8
#     4  10  19  36  59  78 109 150 181 222 279 330
#     4   9  18  33  53  79 108 139 181 226 269 320
#     4   9  18  32  54  85 111 138 183 227 268 327
#     4  10  19  32  50  74 104 140 183 221 261 317
#     4  10  20  36  55  75 106 147 186 221 270 332
#     4  10  20  35  56  82 110 139 181 231 270 319
#     4  10  22  37  53  78 111 146 182 223 275 332
#     4  11  22  35  53  81 112 139 182 233 272 323
#
# _framework density 19.322868
#
# number of rings (size 3 to 8) (size 9 to 14) (size 15 to 20)
#    0.000    2.125    1.250    2.250    0.000    3.500 
#    0.000    3.750    0.000    2.250    0.000    1.750 
#    0.000    0.000    0.000    0.000    0.000    0.000 
#
# Total GULP energy -396817.171822 kJ/mol
# GULP energy per Si atom -12400.536619 kJ/mol
# Density = 1.927889 g / cm^3
# Si number density = 19.322868 Si / 1000 Ang^3
#
#
#
# Elastic Constant Matrix: (Units=GPa)
#
#
# Indices 1 2 3 4 5 6 
#
# 1 140.1494 29.3020 71.8425 0.0000 -4.0935 0.0000
# 2 29.3020 40.0390 25.5489 0.0000 -6.4327 0.0000
# 3 71.8425 25.5489 123.8250 0.0000 0.9546 0.0000
# 4 0.0000 0.0000 0.0000 16.1252 0.0000 -1.9260
# 5 -4.0935 -6.4327 0.9546 0.0000 39.4181 0.0000
# 6 0.0000 0.0000 0.0000 -1.9260 0.0000 24.2782
#
#
#
# Elastic Compliance Matrix: (Units=1/GPa)
#
#
# Indices 1 2 3 4 5 6 
#
# 1 0.010829 -0.004408 -0.005378 0.000000 0.000536 0.000000
# 2 -0.004408 0.031510 -0.003981 0.000000 0.004781 0.000000
# 3 -0.005378 -0.003981 0.012029 0.000000 -0.001499 0.000000
# 4 0.000000 0.000000 0.000000 0.062608 0.000000 0.004967
# 5 0.000536 0.004781 -0.001499 0.000000 0.026241 0.000000
# 6 0.000000 0.000000 0.000000 0.004967 0.000000 0.041583
#
#
# Mechanical properties :
#
#
# Convention : Reuss Voigt Hill
#
# Bulk Modulus (GPa) = 37.26457 61.93336 49.59896
# Shear Modulus (GPa) = 22.59607 27.78565 25.19086
#
# Velocity S-wave (km/s) = 3.42335 3.79617 3.61457
# Velocity P-wave (km/s) = 5.91210 7.16491 6.56844
#
# Compressibility (1/GPa) = 0.02683514
#
# Stress axis : x y z
#
# Youngs Moduli (GPa) = 92.34394 31.73638 83.13266
#
# Poissons Ratio (x) = 0.13988 0.44706
# Poissons Ratio (y) = 0.40701 0.33095
# Poissons Ratio (z) = 0.49660 0.12634
#
# Static dielectric constant tensor:
#      x y z
#    x 3.628860 0.000000 0.035980 
#    y 0.000000 3.225090 0.000000 
#    z 0.035980 0.000000 3.782920 
# 
# 
# High freq. dielectric constant tensor:
#      x y z
#    x 1.757430 0.000000 0.002560 
#    y 0.000000 1.714250 0.000000 
#    z 0.002560 0.000000 1.763830 
# 
# From -- ./inp_files/187543.got.cif
#   From: 2010.06.25/outbox.cif.g09.slc.cpg/sg12_94_cif.got.tgz:187543.got - 2010.06.28 00:19:55.
