data_PCOD8087322
_publ_section_title
;
Structure prediction by ZEFSAII (Michael W. Deem and Ramdas Pophale) SiO2 
 PCOD8087322
Probable space group: C 2/M
;
_chemical_formula_sum "Si O2"
_cell_formula_units_Z 64
_cell_length_a 23.827074
_cell_length_b 9.527020
_cell_length_c 31.238582
_cell_angle_alpha 90.000000
_cell_angle_beta 30.184626
_cell_angle_gamma 90.000000
_cell_volume 3565.365222
_symmetry_space_group_name_H-M "C 2/M"
_symmetry_group_IT_number 12
_symmetry_cell_setting 'monoclinic'
loop_
_space_group_symop_operation_xyz
x,y,z
-x,y,-z
-x,-y,-z
x,-y,z
1/2+x,1/2+y,z
1/2-x,1/2+y,-z
1/2-x,1/2-y,-z
1/2+x,1/2-y,z
loop_
_atom_site_type_symbol
_atom_site_label
_atom_site_fract_x
_atom_site_fract_y
_atom_site_fract_z
Si Si1 0.657161 0.161320 0.585648
Si Si2 0.343713 0.834891 0.234965
Si Si3 0.740433 0.659742 0.392531
Si Si4 0.690473 0.161836 0.275532
Si Si5 0.400104 0.162140 0.927829
Si Si6 0.908355 0.334182 0.747481
Si Si7 0.291920 0.163702 0.909449
Si Si8 0.031173 0.661824 0.526230
O O1 0.750000 0.250000 0.500000
O O2 0.670343 0.171832 0.628260
O O3 0.533937 0.223937 0.656850
O O4 0.668677 0.000000 0.562688
O O5 0.294269 0.783327 0.312992
O O6 0.284559 0.757071 0.234741
O O7 0.472928 0.793683 0.148063
O O8 0.326182 0.000000 0.240846
O O9 0.700822 0.500000 0.412504
O O10 0.634697 0.751567 0.475989
O O11 0.674649 0.206192 0.236527
O O12 0.571914 0.188708 0.375221
O O13 0.726821 0.000000 0.256277
O O14 0.371530 0.192793 0.897274
O O15 0.379093 0.000000 0.952779
O O16 0.324446 0.254859 0.008997
O O17 0.921554 0.500000 0.742864
O O18 0.854814 0.274857 0.826383
O O19 0.263741 0.000000 0.922871
O O20 0.067038 0.500000 0.500847
O O21 0.000000 0.718577 0.500000
#
# Coordination Sequence:
#
# PCOD8087322 Si02
#       8
#     8   8   8   8   8   8   8   8
#     4  10  20  35  53  75 103 135 170 210 254 300
#     4  10  20  34  51  74 103 133 164 204 254 302
#     4  10  20  32  51  76 100 130 171 212 252 301
#     4  10  20  34  51  72  99 135 175 210 244 292
#     4   9  18  33  54  79 105 127 155 203 259 305
#     4   9  18  34  55  74  99 136 173 206 246 297
#     4   9  17  33  57  80  99 127 166 204 246 300
#     4  10  19  32  49  71 101 136 171 209 254 295
#
# _framework density 17.950475999999998
#
# number of rings (size 3 to 8) (size 9 to 14) (size 15 to 20)
#    0.000    2.375    1.250    1.500    0.000    5.750 
#    0.000    2.500    0.000    6.750    0.000    0.000 
#    0.000    0.000    0.000    0.000    0.000    0.000 
#
# Total GULP energy -396845.534459 kJ/mol
# GULP energy per Si atom -12401.422952 kJ/mol
# Density = 1.790962 g / cm^3
# Si number density = 17.950476 Si / 1000 Ang^3
#
#
#
# Elastic Constant Matrix: (Units=GPa)
#
#
# Indices 1 2 3 4 5 6 
#
# 1 106.0844 39.6297 65.7095 0.0040 -7.0241 -0.0188
# 2 39.6297 50.4902 50.4972 0.0047 -9.7763 -0.0202
# 3 65.7095 50.4972 119.9464 -0.0022 -0.8996 -0.0051
# 4 0.0040 0.0047 -0.0022 27.9196 0.0002 -4.3378
# 5 -7.0241 -9.7763 -0.8996 0.0002 33.0299 -0.0008
# 6 -0.0188 -0.0202 -0.0051 -4.3378 -0.0008 28.0826
#
#
#
# Elastic Compliance Matrix: (Units=1/GPa)
#
#
# Indices 1 2 3 4 5 6 
#
# 1 0.015397 -0.005860 -0.005957 -0.000001 0.001378 0.000005
# 2 -0.005860 0.039886 -0.013505 -0.000004 0.010192 0.000022
# 3 -0.005957 -0.013505 0.017250 0.000003 -0.004794 -0.000010
# 4 -0.000001 -0.000004 0.000003 0.036698 -0.000001 0.005669
# 5 0.001378 0.010192 -0.004794 -0.000001 0.033455 0.000008
# 6 0.000005 0.000022 -0.000010 0.005669 0.000008 0.036485
#
#
# Mechanical properties :
#
#
# Convention : Reuss Voigt Hill
#
# Bulk Modulus (GPa) = 45.68741 65.35488 55.52115
# Shear Modulus (GPa) = 21.08715 25.85205 23.46960
#
# Velocity S-wave (km/s) = 3.43117 3.79910 3.61981
# Velocity P-wave (km/s) = 6.41906 7.46536 6.96190
#
# Compressibility (1/GPa) = 0.02188787
#
# Stress axis : x y z
#
# Youngs Moduli (GPa) = 64.94846 25.07159 57.96990
#
# Poissons Ratio (x) = 0.14692 0.34535
# Poissons Ratio (y) = 0.38060 0.78289
# Poissons Ratio (z) = 0.38692 0.33860
#
# Static dielectric constant tensor:
#      x y z
#    x 2.977740 -0.000030 -0.125600 
#    y -0.000030 3.140140 -0.000010 
#    z -0.125600 -0.000010 3.244990 
# 
# 
# High freq. dielectric constant tensor:
#      x y z
#    x 1.700760 0.000000 0.001130 
#    y 0.000000 1.673970 0.000000 
#    z 0.001130 0.000000 1.691680 
# 
# From -- ./inp_files/382289.got.cif
#   From: 2010.06.25/outbox.cif.g09.slc.cpg/sg12_192_cif.got.tgz:382289.got - 2010.06.28 00:19:55.
