data_PCOD8087247
_publ_section_title
;
Structure prediction by ZEFSAII (Michael W. Deem and Ramdas Pophale) SiO2 
 PCOD8087247
Probable space group: C 2/M
;
_chemical_formula_sum "Si O2"
_cell_formula_units_Z 56
_cell_length_a 15.139290
_cell_length_b 9.380442
_cell_length_c 31.625994
_cell_angle_alpha 90.000000
_cell_angle_beta 43.598607
_cell_angle_gamma 90.000000
_cell_volume 3097.215811
_symmetry_space_group_name_H-M "C 2/M"
_symmetry_group_IT_number 12
_symmetry_cell_setting 'monoclinic'
loop_
_space_group_symop_operation_xyz
x,y,z
-x,y,-z
-x,-y,-z
x,-y,z
1/2+x,1/2+y,z
1/2-x,1/2+y,-z
1/2-x,1/2-y,-z
1/2+x,1/2-y,z
loop_
_atom_site_type_symbol
_atom_site_label
_atom_site_fract_x
_atom_site_fract_y
_atom_site_fract_z
Si Si1 0.636883 0.666713 0.133763
Si Si2 0.026169 0.668952 0.422997
Si Si3 0.335510 0.160873 0.000588
Si Si4 0.544149 0.166802 0.867571
Si Si5 0.173600 0.168762 0.214570
Si Si6 0.515198 0.669484 0.646112
Si Si7 0.699117 0.831658 0.439177
O O1 0.600203 0.500000 0.145074
O O2 0.533688 0.750394 0.141526
O O3 0.632531 0.728015 0.182869
O O4 0.784975 0.690858 0.065826
O O5 0.028703 0.500000 0.413464
O O6 0.141047 0.717214 0.414328
O O7 0.046041 0.754645 0.373105
O O8 0.891896 0.717495 0.490787
O O9 0.483307 0.191641 0.936199
O O10 0.303492 0.000000 0.000044
O O11 0.250000 0.250000 0.000000
O O12 0.687928 0.228808 0.819369
O O13 0.542875 0.000000 0.856055
O O14 0.067578 0.216879 0.284923
O O15 0.184644 0.000000 0.207446
O O16 0.512730 0.500000 0.640150
O O17 0.658631 0.729785 0.603748
O O18 0.703443 0.000000 0.437344
#
# Coordination Sequence:
#
# PCOD8087247 Si02
#       7
#     8   8   8   8   8   8   8
#     4   9  17  31  49  69  91 119 155 193 227 271
#     4   9  17  32  52  73  93 118 153 191 227 270
#     4   8  14  25  45  68  88 112 148 190 232 270
#     4   9  17  31  48  67  92 121 150 190 237 274
#     4   9  19  32  46  66  94 126 158 185 222 275
#     4  10  19  32  48  68  95 126 154 186 227 271
#     4   8  16  31  51  71  94 122 151 184 230 277
#
# _framework density 18.080755
#
# number of rings (size 3 to 8) (size 9 to 14) (size 15 to 20)
#    0.000    3.143    0.000    1.286    0.000    1.714 
#    0.000    8.571    0.000    0.000    0.000   10.000 
#    0.000    0.000    0.000    0.000    0.000    0.000 
#
# Total GULP energy -346888.473852 kJ/mol
# GULP energy per Si atom -12388.874066 kJ/mol
# Density = 1.803960 g / cm^3
# Si number density = 18.080755 Si / 1000 Ang^3
#
#
#
# Elastic Constant Matrix: (Units=GPa)
#
#
# Indices 1 2 3 4 5 6 
#
# 1 95.1050 23.2966 52.4677 -0.0002 11.7060 -0.0006
# 2 23.2966 28.0408 25.1571 -0.0010 5.7008 -0.0013
# 3 52.4677 25.1571 112.1010 0.0004 15.8884 0.0005
# 4 -0.0002 -0.0010 0.0004 19.0156 -0.0003 4.9941
# 5 11.7060 5.7008 15.8884 -0.0003 31.9008 -0.0005
# 6 -0.0006 -0.0013 0.0005 4.9941 -0.0005 24.1204
#
#
#
# Elastic Compliance Matrix: (Units=1/GPa)
#
#
# Indices 1 2 3 4 5 6 
#
# 1 0.015557 -0.007844 -0.005284 0.000000 -0.001675 0.000000
# 2 -0.007844 0.048916 -0.006967 0.000002 -0.002393 0.000002
# 3 -0.005284 -0.006967 0.013456 -0.000001 -0.003518 -0.000001
# 4 0.000000 0.000002 -0.000001 0.055612 0.000000 -0.011514
# 5 -0.001675 -0.002393 -0.003518 0.000000 0.034142 0.000001
# 6 0.000000 0.000002 -0.000001 -0.011514 0.000001 0.043843
#
#
# Mechanical properties :
#
#
# Convention : Reuss Voigt Hill
#
# Bulk Modulus (GPa) = 26.49742 48.56552 37.53147
# Shear Modulus (GPa) = 18.91822 23.96239 21.44031
#
# Velocity S-wave (km/s) = 3.23819 3.64441 3.44729
# Velocity P-wave (km/s) = 5.35426 6.68039 6.05375
#
# Compressibility (1/GPa) = 0.03773952
#
# Stress axis : x y z
#
# Youngs Moduli (GPa) = 64.27854 20.44306 74.31892
#
# Poissons Ratio (x) = 0.16036 0.39267
# Poissons Ratio (y) = 0.50422 0.51777
# Poissons Ratio (z) = 0.33962 0.14243
#
# Static dielectric constant tensor:
#      x y z
#    x 3.278240 0.000000 -0.136210 
#    y 0.000000 2.975470 0.000000 
#    z -0.136210 0.000000 3.944060 
# 
# 
# High freq. dielectric constant tensor:
#      x y z
#    x 1.691950 0.000000 0.000280 
#    y 0.000000 1.663900 0.000000 
#    z 0.000280 0.000000 1.711510 
# 
# From -- ./inp_files/309451.got.cif
#   From: 2010.06.25/outbox.cif.g09.slc.cpg/sg12_155_cif.got.tgz:309451.got - 2010.06.28 00:19:55.
