data_PCOD8087970
_publ_section_title
;
Structure prediction by ZEFSAII (Michael W. Deem and Ramdas Pophale) SiO2 
 PCOD8087970
Probable space group: C 2/M
;
_chemical_formula_sum "Si O2"
_cell_formula_units_Z 56
_cell_length_a 18.195782
_cell_length_b 8.985107
_cell_length_c 22.773713
_cell_angle_alpha 90.000000
_cell_angle_beta 126.977035
_cell_angle_gamma 90.000000
_cell_volume 2974.456047
_symmetry_space_group_name_H-M "C 2/M"
_symmetry_group_IT_number 12
_symmetry_cell_setting 'monoclinic'
loop_
_space_group_symop_operation_xyz
x,y,z
-x,y,-z
-x,-y,-z
x,-y,z
1/2+x,1/2+y,z
1/2-x,1/2+y,-z
1/2-x,1/2-y,-z
1/2+x,1/2-y,z
loop_
_atom_site_type_symbol
_atom_site_label
_atom_site_fract_x
_atom_site_fract_y
_atom_site_fract_z
Si Si1 0.450250 0.676657 0.650108
Si Si2 0.303467 0.676017 0.792131
Si Si3 0.985681 0.325211 0.926101
Si Si4 0.658723 0.174700 0.932996
Si Si5 0.370066 0.825023 0.214868
Si Si6 0.166601 0.325152 0.493304
Si Si7 0.213809 0.173790 0.346260
O O1 0.449701 0.500000 0.643963
O O2 0.548862 0.732304 0.717235
O O3 0.426917 0.747353 0.574570
O O4 0.374031 0.736977 0.659913
O O5 0.313446 0.500000 0.795477
O O6 0.397822 0.742593 0.859539
O O7 0.222701 0.724201 0.797036
O O8 0.281664 0.742611 0.716794
O O9 0.969683 0.500000 0.911619
O O10 0.073764 0.271105 0.931693
O O11 0.000000 0.277938 0.000000
O O12 0.639243 0.223061 0.857058
O O13 0.673467 0.000000 0.945126
O O14 0.750000 0.250000 0.000000
O O15 0.390145 0.000000 0.231405
O O16 0.162674 0.500000 0.477814
O O17 0.250000 0.250000 0.500000
O O18 0.189068 0.295846 0.573226
O O19 0.196908 0.000000 0.332395
#
# Coordination Sequence:
#
# PCOD8087970 Si02
#       7
#     8   8   8   8   8   8   8
#     4  10  19  32  52  76 101 132 171 210 251 301
#     4  10  20  35  54  75 100 131 170 210 248 296
#     4  10  21  36  53  75 104 135 166 203 249 299
#     4  10  21  36  54  78 105 133 168 207 250 300
#     4  10  21  35  51  74 103 133 167 210 255 298
#     4   9  16  29  50  75 103 132 166 209 254 300
#     4   8  16  31  51  75  99 127 166 208 249 296
#
# _framework density 18.826971
#
# number of rings (size 3 to 8) (size 9 to 14) (size 15 to 20)
#    0.000    2.429    0.000    3.429    0.000    2.000 
#    0.000    4.286    0.000    4.286    0.000    0.000 
#    0.000    0.000    0.000    0.000    0.000    0.000 
#
# Total GULP energy -347122.808975 kJ/mol
# GULP energy per Si atom -12397.243178 kJ/mol
# Density = 1.878412 g / cm^3
# Si number density = 18.826971 Si / 1000 Ang^3
#
#
#
# Elastic Constant Matrix: (Units=GPa)
#
#
# Indices 1 2 3 4 5 6 
#
# 1 135.6176 36.5561 92.9289 0.0000 -1.3256 0.0000
# 2 36.5561 53.5025 57.7085 0.0000 7.2729 0.0000
# 3 92.9289 57.7085 189.9579 0.0000 6.6459 0.0000
# 4 0.0000 0.0000 0.0000 36.2575 0.0000 10.0074
# 5 -1.3256 7.2729 6.6459 0.0000 30.1927 0.0000
# 6 0.0000 0.0000 0.0000 10.0074 0.0000 17.6785
#
#
#
# Elastic Compliance Matrix: (Units=1/GPa)
#
#
# Indices 1 2 3 4 5 6 
#
# 1 0.011484 -0.002990 -0.004789 0.000000 0.002279 0.000000
# 2 -0.002990 0.029310 -0.007245 0.000000 -0.005597 0.000000
# 3 -0.004789 -0.007245 0.009830 0.000000 -0.000629 0.000000
# 4 0.000000 0.000000 0.000000 0.032688 0.000000 -0.018504
# 5 0.002279 -0.005597 -0.000629 0.000000 0.034707 0.000000
# 6 0.000000 0.000000 0.000000 -0.018504 0.000000 0.067040
#
#
# Mechanical properties :
#
#
# Convention : Reuss Voigt Hill
#
# Bulk Modulus (GPa) = 48.60564 83.71831 66.16198
# Shear Modulus (GPa) = 22.52584 29.61803 26.07194
#
# Velocity S-wave (km/s) = 3.46275 3.97062 3.72535
# Velocity P-wave (km/s) = 6.46998 8.09845 7.32958
#
# Compressibility (1/GPa) = 0.02057375
#
# Stress axis : x y z
#
# Youngs Moduli (GPa) = 87.08002 34.11827 101.72586
#
# Poissons Ratio (x) = 0.10203 0.48718
# Poissons Ratio (y) = 0.26041 0.73705
# Poissons Ratio (z) = 0.41704 0.24720
#
# Static dielectric constant tensor:
#      x y z
#    x 3.601110 0.000000 -0.292740 
#    y 0.000000 3.335310 0.000000 
#    z -0.292740 0.000000 3.871780 
# 
# 
# High freq. dielectric constant tensor:
#      x y z
#    x 1.717220 0.000000 -0.003830 
#    y 0.000000 1.715880 0.000000 
#    z -0.003830 0.000000 1.754280 
# 
# From -- ./inp_files/342502.got.cif
#   From: 2010.06.25/outbox.cif.g09.slc.cpg/sg12_172_cif.got.tgz:342502.got - 2010.06.28 00:19:55.
