data_PCOD8087942
_publ_section_title
;
Structure prediction by ZEFSAII (Michael W. Deem and Ramdas Pophale) SiO2 
 PCOD8087942
Probable space group: C 2/M
;
_chemical_formula_sum "Si O2"
_cell_formula_units_Z 64
_cell_length_a 18.447196
_cell_length_b 9.188334
_cell_length_c 23.157676
_cell_angle_alpha 90.000000
_cell_angle_beta 115.694087
_cell_angle_gamma 90.000000
_cell_volume 3537.085772
_symmetry_space_group_name_H-M "C 2/M"
_symmetry_group_IT_number 12
_symmetry_cell_setting 'monoclinic'
loop_
_space_group_symop_operation_xyz
x,y,z
-x,y,-z
-x,-y,-z
x,-y,z
1/2+x,1/2+y,z
1/2-x,1/2+y,-z
1/2-x,1/2-y,-z
1/2+x,1/2-y,z
loop_
_atom_site_type_symbol
_atom_site_label
_atom_site_fract_x
_atom_site_fract_y
_atom_site_fract_z
Si Si1 0.396686 0.828530 0.143106
Si Si2 0.446064 0.172759 0.739856
Si Si3 0.260214 0.168425 0.866606
Si Si4 0.284780 0.828911 0.745148
Si Si5 0.034223 0.668629 0.383495
Si Si6 0.826177 0.332956 0.004765
Si Si7 0.856316 0.669336 0.367425
Si Si8 0.910047 0.835648 0.492307
O O1 0.477777 0.762794 0.198827
O O2 0.319485 0.759706 0.147422
O O3 0.392042 0.000000 0.153261
O O4 0.399090 0.793130 0.074161
O O5 0.364388 0.229368 0.740791
O O6 0.449312 0.227190 0.675083
O O7 0.449379 0.000000 0.743481
O O8 0.295197 0.207971 0.816256
O O9 0.333180 0.201082 0.938343
O O10 0.234797 0.000000 0.860512
O O11 0.209288 0.740748 0.696025
O O12 0.270799 0.000000 0.729436
O O13 0.057167 0.500000 0.398349
O O14 0.091959 0.759290 0.445956
O O15 0.941141 0.694499 0.365600
O O16 0.806044 0.500000 0.006770
O O17 0.750000 0.250000 0.000000
O O18 0.837901 0.500000 0.370164
O O19 0.853665 0.746650 0.428959
O O20 0.000000 0.833681 0.500000
O O21 0.877216 0.000000 0.486470
#
# Coordination Sequence:
#
# PCOD8087942 Si02
#       8
#     8   8   8   8   8   8   8   8
#     4   9  16  29  50  71  91 121 161 198 232 276
#     4   9  18  32  48  67  93 126 161 195 232 274
#     4   9  17  29  46  70  97 123 153 193 240 282
#     4  10  20  33  47  65  95 130 159 191 234 281
#     4   9  17  31  51  72  94 121 155 194 232 272
#     4   8  14  25  43  68  94 118 150 193 236 277
#     4  10  19  32  52  75  96 120 155 195 232 273
#     4   9  17  30  50  76 101 121 147 187 235 282
#
# _framework density 18.093990000000002
#
# number of rings (size 3 to 8) (size 9 to 14) (size 15 to 20)
#    0.000    2.875    0.000    1.500    0.000    3.500 
#    0.000    3.125    0.000    3.750    0.000    0.000 
#    0.000   11.000    0.000    0.000    0.000    0.000 
#
# Total GULP energy -396545.649100 kJ/mol
# GULP energy per Si atom -12392.051534 kJ/mol
# Density = 1.805281 g / cm^3
# Si number density = 18.093990 Si / 1000 Ang^3
#
#
#
# Elastic Constant Matrix: (Units=GPa)
#
#
# Indices 1 2 3 4 5 6 
#
# 1 61.2209 28.2579 52.3361 0.0000 -16.7786 0.0000
# 2 28.2579 60.9055 53.4494 0.0000 -8.0455 0.0000
# 3 52.3361 53.4494 170.5120 0.0000 -30.7266 0.0000
# 4 0.0000 0.0000 0.0000 26.7617 0.0000 1.0784
# 5 -16.7786 -8.0455 -30.7266 0.0000 12.6760 0.0000
# 6 0.0000 0.0000 0.0000 1.0784 0.0000 14.6895
#
#
#
# Elastic Compliance Matrix: (Units=1/GPa)
#
#
# Indices 1 2 3 4 5 6 
#
# 1 0.029902 -0.009206 -0.000378 0.000000 0.032821 0.000000
# 2 -0.009206 0.025666 -0.007955 0.000000 -0.015178 0.000000
# 3 -0.000378 -0.007955 0.013271 0.000000 0.026621 0.000000
# 4 0.000000 0.000000 0.000000 0.037478 0.000000 -0.002751
# 5 0.032821 -0.015178 0.026621 0.000000 0.177228 0.000000
# 6 0.000000 0.000000 0.000000 -0.002751 0.000000 0.068278
#
#
# Mechanical properties :
#
#
# Convention : Reuss Voigt Hill
#
# Bulk Modulus (GPa) = 29.61939 62.30279 45.96109
# Shear Modulus (GPa) = 12.55795 21.39844 16.97819
#
# Velocity S-wave (km/s) = 2.63732 3.44267 3.06655
# Velocity P-wave (km/s) = 5.06747 7.09297 6.16399
#
# Compressibility (1/GPa) = 0.03376167
#
# Stress axis : x y z
#
# Youngs Moduli (GPa) = 33.44307 38.96163 75.35062
#
# Poissons Ratio (x) = 0.35869 0.02845
# Poissons Ratio (y) = 0.30789 0.59940
# Poissons Ratio (z) = 0.01263 0.30993
#
# Static dielectric constant tensor:
#      x y z
#    x 3.018330 0.000000 -0.129660 
#    y 0.000000 3.236750 0.000000 
#    z -0.129660 0.000000 3.968910 
# 
# 
# High freq. dielectric constant tensor:
#      x y z
#    x 1.657700 0.000000 -0.007420 
#    y 0.000000 1.687390 0.000000 
#    z -0.007420 0.000000 1.728320 
# 
# From -- ./inp_files/345615.got.cif
#   From: 2010.06.25/outbox.cif.g09.slc.cpg/sg12_173_cif.got.tgz:345615.got - 2010.06.28 00:19:55.
