data_PCOD8087400
_publ_section_title
;
Structure prediction by ZEFSAII (Michael W. Deem and Ramdas Pophale) SiO2 
 PCOD8087400
Probable space group: C 2/M
;
_chemical_formula_sum "Si O2"
_cell_formula_units_Z 48
_cell_length_a 14.923465
_cell_length_b 9.295527
_cell_length_c 29.850892
_cell_angle_alpha 90.000000
_cell_angle_beta 140.433139
_cell_angle_gamma 90.000000
_cell_volume 2637.701164
_symmetry_space_group_name_H-M "C 2/M"
_symmetry_group_IT_number 12
_symmetry_cell_setting 'monoclinic'
loop_
_space_group_symop_operation_xyz
x,y,z
-x,y,-z
-x,-y,-z
x,-y,z
1/2+x,1/2+y,z
1/2-x,1/2+y,-z
1/2-x,1/2-y,-z
1/2+x,1/2-y,z
loop_
_atom_site_type_symbol
_atom_site_label
_atom_site_fract_x
_atom_site_fract_y
_atom_site_fract_z
Si Si1 0.408150 0.668256 0.508186
Si Si2 0.413983 0.831206 0.601491
Si Si3 0.107444 0.170541 0.005375
Si Si4 0.905103 0.670712 0.154770
Si Si5 0.127931 0.670218 0.758202
Si Si6 0.438217 0.330247 0.854953
O O1 0.500000 0.719493 0.500000
O O2 0.435980 0.500000 0.526861
O O3 0.453844 0.752565 0.570492
O O4 0.241603 0.700734 0.438526
O O5 0.522033 0.768987 0.679977
O O6 0.433414 0.000000 0.600191
O O7 0.055670 0.218104 0.936376
O O8 0.105854 0.000000 0.009304
O O9 0.262245 0.228464 0.076339
O O10 0.000000 0.237009 0.000000
O O11 0.917862 0.500000 0.155722
O O12 0.916637 0.724583 0.210102
O O13 0.033962 0.747322 0.180171
O O14 0.122653 0.500000 0.755031
O O15 0.285955 0.723751 0.811569
O O16 0.441320 0.500000 0.848086
#
# Coordination Sequence:
#
# PCOD8087400 Si02
#       6
#     8   8   8   8   8   8
#     4   9  18  33  53  76 101 128 157 194 242 288
#     4   9  18  33  52  74  99 128 164 199 232 281
#     4   9  15  28  51  71  90 126 170 204 236 287
#     4  10  19  32  51  73  96 127 167 204 243 289
#     4   9  18  33  51  70  97 133 166 195 234 293
#     4  10  19  32  50  71  96 127 165 206 246 285
#
# _framework density 18.197664
#
# number of rings (size 3 to 8) (size 9 to 14) (size 15 to 20)
#    0.000    2.667    1.667    0.500    0.000    1.667 
#    0.000    4.167    0.000    1.000    0.000    0.000 
#    0.000    0.000    0.000    0.000    0.000    0.000 
#
# Total GULP energy -297494.668744 kJ/mol
# GULP energy per Si atom -12395.611198 kJ/mol
# Density = 1.815625 g / cm^3
# Si number density = 18.197664 Si / 1000 Ang^3
#
#
#
# Elastic Constant Matrix: (Units=GPa)
#
#
# Indices 1 2 3 4 5 6 
#
# 1 134.4350 36.7418 48.0815 0.0000 -35.4515 0.0000
# 2 36.7418 27.1335 29.9852 0.0000 -8.5827 0.0000
# 3 48.0815 29.9852 133.5777 0.0000 -23.8008 0.0000
# 4 0.0000 0.0000 0.0000 18.0201 0.0000 -4.7603
# 5 -35.4515 -8.5827 -23.8008 0.0000 19.5790 0.0000
# 6 0.0000 0.0000 0.0000 -4.7603 0.0000 27.7183
#
#
#
# Elastic Compliance Matrix: (Units=1/GPa)
#
#
# Indices 1 2 3 4 5 6 
#
# 1 0.020338 -0.020907 0.002937 0.000000 0.031232 0.000000
# 2 -0.020907 0.072207 -0.012495 0.000000 -0.021392 0.000000
# 3 0.002937 -0.012495 0.011751 0.000000 0.014126 0.000000
# 4 0.000000 0.000000 0.000000 0.058131 0.000000 0.009983
# 5 0.031232 -0.021392 0.014126 0.000000 0.115420 0.000000
# 6 0.000000 0.000000 0.000000 0.009983 0.000000 0.037792
#
#
# Mechanical properties :
#
#
# Convention : Reuss Voigt Hill
#
# Bulk Modulus (GPa) = 23.05943 58.30700 40.68322
# Shear Modulus (GPa) = 12.78701 25.08601 18.93651
#
# Velocity S-wave (km/s) = 2.65367 3.71688 3.22933
# Velocity P-wave (km/s) = 4.69984 7.10850 6.02575
#
# Compressibility (1/GPa) = 0.04336621
#
# Stress axis : x y z
#
# Youngs Moduli (GPa) = 49.16915 13.84915 85.10108
#
# Poissons Ratio (x) = 0.28954 -0.24996
# Poissons Ratio (y) = 1.02797 1.06333
# Poissons Ratio (z) = -0.14442 0.17304
#
# Static dielectric constant tensor:
#      x y z
#    x 3.456390 0.000000 -0.000600 
#    y 0.000000 2.912990 0.000000 
#    z -0.000600 0.000000 3.572900 
# 
# 
# High freq. dielectric constant tensor:
#      x y z
#    x 1.715500 0.000000 -0.003310 
#    y 0.000000 1.661910 0.000000 
#    z -0.003310 0.000000 1.708070 
# 
# From -- ./inp_files/261629.got.cif
#   From: 2010.06.25/outbox.cif.g09.slc.cpg/sg12_131_cif.got.tgz:261629.got - 2010.06.28 00:19:55.
