data_PCOD8087057
_publ_section_title
;
Structure prediction by ZEFSAII (Michael W. Deem and Ramdas Pophale) SiO2 
 PCOD8087057
Probable space group: C 2/M
;
_chemical_formula_sum "Si O2"
_cell_formula_units_Z 56
_cell_length_a 18.707353
_cell_length_b 9.183010
_cell_length_c 29.541505
_cell_angle_alpha 90.000000
_cell_angle_beta 36.983194
_cell_angle_gamma 90.000000
_cell_volume 3052.979864
_symmetry_space_group_name_H-M "C 2/M"
_symmetry_group_IT_number 12
_symmetry_cell_setting 'monoclinic'
loop_
_space_group_symop_operation_xyz
x,y,z
-x,y,-z
-x,-y,-z
x,-y,z
1/2+x,1/2+y,z
1/2-x,1/2+y,-z
1/2-x,1/2-y,-z
1/2+x,1/2-y,z
loop_
_atom_site_type_symbol
_atom_site_label
_atom_site_fract_x
_atom_site_fract_y
_atom_site_fract_z
Si Si1 0.211639 0.666003 0.196464
Si Si2 0.874361 0.329349 0.935503
Si Si3 0.920459 0.672523 0.500190
Si Si4 0.467146 0.830280 0.790645
Si Si5 0.046366 0.327682 0.928215
Si Si6 0.486870 0.831134 0.367745
Si Si7 0.650133 0.327165 0.640000
O O1 0.255312 0.500000 0.171558
O O2 0.146095 0.711383 0.183039
O O3 0.324167 0.766665 0.147779
O O4 0.122943 0.689685 0.283482
O O5 0.849615 0.500000 0.951571
O O6 0.940576 0.289464 0.855611
O O7 0.955476 0.273285 0.935743
O O8 0.750000 0.250000 0.000000
O O9 0.927434 0.500000 0.498435
O O10 0.973175 0.726548 0.425704
O O11 0.785842 0.724506 0.575134
O O12 0.000000 0.741269 0.500000
O O13 0.580937 0.737399 0.718114
O O14 0.497197 0.000000 0.768658
O O15 0.056731 0.500000 0.922662
O O16 0.000000 0.269684 0.000000
O O17 0.400256 0.735318 0.381090
O O18 0.448962 0.000000 0.381951
O O19 0.636688 0.500000 0.646659
#
# Coordination Sequence:
#
# PCOD8087057 Si02
#       7
#     8   8   8   8   8   8   8
#     4   9  18  32  52  75  96 128 170 205 243 294
#     4  10  21  36  54  76 102 135 171 206 250 300
#     4   9  18  32  50  74 104 136 171 212 254 297
#     4   9  19  36  54  73 102 136 168 206 253 301
#     4  10  21  35  51  74 104 133 160 200 254 299
#     4   9  18  34  54  74 102 137 168 206 256 304
#     4  10  19  31  53  80 100 128 172 213 250 299
#
# _framework density 18.342734
#
# number of rings (size 3 to 8) (size 9 to 14) (size 15 to 20)
#    0.000    2.571    0.000    2.571    0.000    4.857 
#    0.000    2.143    0.000    3.857    0.000    0.000 
#    0.000    0.000    0.000    0.000    0.000    0.000 
#
# Total GULP energy -347248.436233 kJ/mol
# GULP energy per Si atom -12401.729865 kJ/mol
# Density = 1.830098 g / cm^3
# Si number density = 18.342734 Si / 1000 Ang^3
#
#
#
# Elastic Constant Matrix: (Units=GPa)
#
#
# Indices 1 2 3 4 5 6 
#
# 1 147.6635 39.5366 102.3180 0.0003 4.4515 0.0018
# 2 39.5366 41.9500 47.0139 0.0005 -3.4215 0.0030
# 3 102.3180 47.0139 144.5537 0.0000 4.5722 0.0003
# 4 0.0003 0.0005 0.0000 26.0108 -0.0001 -5.6172
# 5 4.4515 -3.4215 4.5722 -0.0001 36.4676 0.0004
# 6 0.0018 0.0030 0.0003 -5.6172 0.0004 23.0698
#
#
#
# Elastic Compliance Matrix: (Units=1/GPa)
#
#
# Indices 1 2 3 4 5 6 
#
# 1 0.013585 -0.003357 -0.008495 0.000000 -0.000908 -0.000001
# 2 -0.003357 0.039297 -0.010576 -0.000002 0.005423 -0.000005
# 3 -0.008495 -0.010576 0.016434 0.000001 -0.002016 0.000002
# 4 0.000000 -0.000002 0.000001 0.040579 0.000000 0.009881
# 5 -0.000908 0.005423 -0.002016 0.000000 0.028294 -0.000001
# 6 -0.000001 -0.000005 0.000002 0.009881 -0.000001 0.045753
#
#
# Mechanical properties :
#
#
# Convention : Reuss Voigt Hill
#
# Bulk Modulus (GPa) = 40.88351 79.10045 59.99198
# Shear Modulus (GPa) = 21.10144 26.79620 23.94882
#
# Velocity S-wave (km/s) = 3.39543 3.82627 3.61727
# Velocity P-wave (km/s) = 6.14076 7.92071 7.08684
#
# Compressibility (1/GPa) = 0.02445974
#
# Stress axis : x y z
#
# Youngs Moduli (GPa) = 73.61294 25.44743 60.84822
#
# Poissons Ratio (x) = 0.08542 0.51691
# Poissons Ratio (y) = 0.24709 0.64355
# Poissons Ratio (z) = 0.62534 0.26914
#
# Static dielectric constant tensor:
#      x y z
#    x 3.537720 0.000000 0.197510 
#    y 0.000000 3.167650 0.000000 
#    z 0.197510 0.000000 3.593680 
# 
# 
# High freq. dielectric constant tensor:
#      x y z
#    x 1.711590 0.000000 0.004390 
#    y 0.000000 1.691910 0.000000 
#    z 0.004390 0.000000 1.723780 
# 
# From -- ./inp_files/362906.got.cif
#   From: 2010.06.25/outbox.cif.g09.slc.cpg/sg12_182_cif.got.tgz:362906.got - 2010.06.28 00:19:55.
