data_PCOD8087032
_publ_section_title
;
Structure prediction by ZEFSAII (Michael W. Deem and Ramdas Pophale) SiO2 
 PCOD8087032
Probable space group: C 2/M
;
_chemical_formula_sum "Si O2"
_cell_formula_units_Z 56
_cell_length_a 26.574662
_cell_length_b 8.768556
_cell_length_c 13.243110
_cell_angle_alpha 90.000000
_cell_angle_beta 66.125822
_cell_angle_gamma 90.000000
_cell_volume 2821.885223
_symmetry_space_group_name_H-M "C 2/M"
_symmetry_group_IT_number 12
_symmetry_cell_setting 'monoclinic'
loop_
_space_group_symop_operation_xyz
x,y,z
-x,y,-z
-x,-y,-z
x,-y,z
1/2+x,1/2+y,z
1/2-x,1/2+y,-z
1/2-x,1/2-y,-z
1/2+x,1/2-y,z
loop_
_atom_site_type_symbol
_atom_site_label
_atom_site_fract_x
_atom_site_fract_y
_atom_site_fract_z
Si Si1 0.586719 0.674855 0.876589
Si Si2 0.912546 0.173830 0.892173
Si Si3 0.700495 0.180149 0.321546
Si Si4 0.020901 0.679832 0.755141
Si Si5 0.687377 0.180230 0.704073
Si Si6 0.125157 0.679378 0.557946
Si Si7 0.696622 0.179425 0.094116
O O1 0.582863 0.500000 0.842940
O O2 0.546258 0.778363 0.843249
O O3 0.649216 0.735184 0.817137
O O4 0.568797 0.688421 0.007101
O O5 0.857561 0.269124 0.919957
O O6 0.962505 0.238779 0.784142
O O7 0.900942 0.000000 0.870952
O O8 0.750642 0.268886 0.330358
O O9 0.646325 0.229451 0.430065
O O10 0.691836 0.233194 0.214041
O O11 0.711412 0.000000 0.320829
O O12 0.011115 0.500000 0.758488
O O13 0.063460 0.738996 0.633548
O O14 0.668081 0.235026 0.608636
O O15 0.681800 0.000000 0.723828
O O16 0.122163 0.500000 0.567734
O O17 0.702289 0.000000 0.081750
O O18 0.750000 0.250000 0.000000
#
# Coordination Sequence:
#
# PCOD8087032 Si02
#       7
#     8   8   8   8   8   8   8
#     4  10  20  34  53  79 111 146 180 215 263 321
#     4  11  23  38  56  78 108 146 183 220 264 316
#     4  10  20  36  56  77 105 143 182 219 266 321
#     4  10  20  35  57  84 111 139 174 220 269 315
#     4  10  19  31  52  83 113 141 175 219 269 317
#     4   8  17  34  54  79 110 140 175 217 262 319
#     4  11  24  40  59  81 106 140 180 223 268 314
#
# _framework density 19.844888999999998
#
# number of rings (size 3 to 8) (size 9 to 14) (size 15 to 20)
#    0.000    2.000    0.000    4.714    0.000    8.571 
#    0.000    4.286    0.000    4.286    0.000    0.000 
#    0.000    0.000    0.000    0.000    0.000    0.000 
#
# Total GULP energy -347192.020621 kJ/mol
# GULP energy per Si atom -12399.715022 kJ/mol
# Density = 1.979972 g / cm^3
# Si number density = 19.844889 Si / 1000 Ang^3
#
#
#
# Elastic Constant Matrix: (Units=GPa)
#
#
# Indices 1 2 3 4 5 6 
#
# 1 95.6677 19.4438 45.0543 0.0000 -26.0781 0.0000
# 2 19.4438 55.8936 43.0151 0.0000 -7.3293 0.0000
# 3 45.0543 43.0151 121.8869 0.0000 -20.0430 0.0000
# 4 0.0000 0.0000 0.0000 24.0895 0.0000 -5.8494
# 5 -26.0781 -7.3293 -20.0430 0.0000 30.1684 0.0000
# 6 0.0000 0.0000 0.0000 -5.8494 0.0000 33.5414
#
#
#
# Elastic Compliance Matrix: (Units=1/GPa)
#
#
# Indices 1 2 3 4 5 6 
#
# 1 0.015206 -0.001257 -0.003442 0.000000 0.010552 0.000000
# 2 -0.001257 0.024668 -0.008346 0.000000 -0.000639 0.000000
# 3 -0.003442 -0.008346 0.013022 0.000000 0.003649 0.000000
# 4 0.000000 0.000000 0.000000 0.043347 0.000000 0.007560
# 5 0.010552 -0.000639 0.003649 0.000000 0.044538 0.000000
# 6 0.000000 0.000000 0.000000 0.007560 0.000000 0.031132
#
#
# Mechanical properties :
#
#
# Convention : Reuss Voigt Hill
#
# Bulk Modulus (GPa) = 37.30562 54.27498 45.79030
# Shear Modulus (GPa) = 24.16197 28.62218 26.39208
#
# Velocity S-wave (km/s) = 3.49311 3.80188 3.65076
# Velocity P-wave (km/s) = 5.92525 6.83237 6.39491
#
# Compressibility (1/GPa) = 0.02680561
#
# Stress axis : x y z
#
# Youngs Moduli (GPa) = 65.76524 40.53909 76.79417
#
# Poissons Ratio (x) = 0.05096 0.26431
# Poissons Ratio (y) = 0.08268 0.64090
# Poissons Ratio (z) = 0.22635 0.33833
#
# Static dielectric constant tensor:
#      x y z
#    x 3.554990 0.000000 -0.263030 
#    y 0.000000 3.570100 0.000000 
#    z -0.263030 0.000000 3.929540 
# 
# 
# High freq. dielectric constant tensor:
#      x y z
#    x 1.765700 0.000000 -0.021670 
#    y 0.000000 1.768980 0.000000 
#    z -0.021670 0.000000 1.774280 
# 
# From -- ./inp_files/180795.got.cif
#   From: 2010.06.25/outbox.cif.g09.slc.cpg/sg12_91_cif.got.tgz:180795.got - 2010.06.28 00:19:55.
