data_PCOD8087882
_publ_section_title
;
Structure prediction by ZEFSAII (Michael W. Deem and Ramdas Pophale) SiO2 
 PCOD8087882
Probable space group: C 2/M
;
_chemical_formula_sum "Si O2"
_cell_formula_units_Z 60
_cell_length_a 15.439152
_cell_length_b 16.849034
_cell_length_c 12.024957
_cell_angle_alpha 90.000000
_cell_angle_beta 97.570144
_cell_angle_gamma 90.000000
_cell_volume 3100.846152
_symmetry_space_group_name_H-M "C 2/M"
_symmetry_group_IT_number 12
_symmetry_cell_setting 'monoclinic'
loop_
_space_group_symop_operation_xyz
x,y,z
-x,y,-z
-x,-y,-z
x,-y,z
1/2+x,1/2+y,z
1/2-x,1/2+y,-z
1/2-x,1/2-y,-z
1/2+x,1/2-y,z
loop_
_atom_site_type_symbol
_atom_site_label
_atom_site_fract_x
_atom_site_fract_y
_atom_site_fract_z
Si Si1 0.240855 0.090187 0.576781
Si Si2 0.348209 0.088357 0.379502
Si Si3 0.033406 0.237203 0.296695
Si Si4 0.690635 0.817208 0.202642
Si Si5 0.156183 0.704012 0.807205
Si Si6 0.101921 0.592181 0.998446
Si Si7 0.573459 0.587920 0.421663
Si Si8 0.500000 0.829388 0.500000
O O1 0.317132 0.094336 0.500169
O O2 0.263321 0.145612 0.682872
O O3 0.156494 0.124344 0.499738
O O4 0.225562 0.000000 0.615945
O O5 0.304973 0.150497 0.287245
O O6 0.448607 0.113331 0.407100
O O7 0.338282 0.000000 0.328681
O O8 0.104696 0.266910 0.220294
O O9 0.046077 0.142489 0.312994
O O10 0.934320 0.251907 0.239023
O O11 0.053145 0.273606 0.422941
O O12 0.765261 0.765189 0.153146
O O13 0.657447 0.887393 0.117520
O O14 0.138500 0.646935 0.907195
O O15 0.116245 0.500000 0.970740
O O16 0.000000 0.610143 0.000000
O O17 0.500000 0.581083 0.500000
O O18 0.596029 0.500000 0.377517
#
# Coordination Sequence:
#
# PCOD8087882 Si02
#       8
#     8   8   8   8   8   8   8   4
#     4  10  21  35  54  88 126 160 201 242 300 365
#     4  10  20  34  53  84 124 162 195 239 301 364
#     4  11  21  36  58  90 123 161 210 244 303 364
#     4  12  23  39  64  91 124 161 201 259 311 360
#     4  11  24  40  62  92 120 162 206 258 308 367
#     4  11  24  46  69  91 120 156 206 259 320 377
#     4  10  20  34  52  77 119 168 204 240 284 349
#     4  10  19  32  51  84 122 160 196 240 297 358
#
# _framework density 19.349557000000001
#
# number of rings (size 3 to 8) (size 9 to 14) (size 15 to 20)
#    0.000    1.333    3.333    3.000    1.867    1.067 
#    0.000    1.333    0.000    0.000    0.000    1.867 
#    0.000    0.000    0.000    0.000    0.000    0.000 
#
# Total GULP energy -371889.606294 kJ/mol
# GULP energy per Si atom -12396.320210 kJ/mol
# Density = 1.930552 g / cm^3
# Si number density = 19.349557 Si / 1000 Ang^3
#
#
#
# Elastic Constant Matrix: (Units=GPa)
#
#
# Indices 1 2 3 4 5 6 
#
# 1 95.5570 45.7843 25.5373 0.0000 5.4301 0.0000
# 2 45.7843 104.5995 44.4879 0.0000 6.0200 0.0000
# 3 25.5373 44.4879 72.1608 0.0000 1.6954 0.0000
# 4 0.0000 0.0000 0.0000 37.5154 0.0000 -4.6772
# 5 5.4301 6.0200 1.6954 0.0000 27.9201 0.0000
# 6 0.0000 0.0000 0.0000 -4.6772 0.0000 26.5077
#
#
#
# Elastic Compliance Matrix: (Units=1/GPa)
#
#
# Indices 1 2 3 4 5 6 
#
# 1 0.013419 -0.005133 -0.001551 0.000000 -0.001409 0.000000
# 2 -0.005133 0.015072 -0.007433 0.000000 -0.001800 0.000000
# 3 -0.001551 -0.007433 0.018972 0.000000 0.000752 0.000000
# 4 0.000000 0.000000 0.000000 0.027255 0.000000 0.004809
# 5 -0.001409 -0.001800 0.000752 0.000000 0.036433 0.000000
# 6 0.000000 0.000000 0.000000 0.004809 0.000000 0.038573
#
#
# Mechanical properties :
#
#
# Convention : Reuss Voigt Hill
#
# Bulk Modulus (GPa) = 52.00731 55.99293 54.00012
# Shear Modulus (GPa) = 27.11955 28.82249 27.97102
#
# Velocity S-wave (km/s) = 3.74780 3.86368 3.80618
# Velocity P-wave (km/s) = 6.75753 6.99317 6.87636
#
# Compressibility (1/GPa) = 0.01922807
#
# Stress axis : x y z
#
# Youngs Moduli (GPa) = 74.52206 66.34808 52.70909
#
# Poissons Ratio (x) = 0.34054 0.08177
# Poissons Ratio (y) = 0.38249 0.39181
# Poissons Ratio (z) = 0.11562 0.49319
#
# Static dielectric constant tensor:
#      x y z
#    x 3.460660 0.000000 0.055050 
#    y 0.000000 3.791840 0.000000 
#    z 0.055050 0.000000 3.368520 
# 
# 
# High freq. dielectric constant tensor:
#      x y z
#    x 1.757610 0.000000 0.004210 
#    y 0.000000 1.761240 0.000000 
#    z 0.004210 0.000000 1.733280 
# 
# From -- ./inp_files/146189.got.cif
#   From: 2010.06.25/outbox.cif.g09.slc.cpg/sg12_74_cif.got.tgz:146189.got - 2010.06.28 00:19:55.
