data_PCOD8087976
_publ_section_title
;
Structure prediction by ZEFSAII (Michael W. Deem and Ramdas Pophale) SiO2 
 PCOD8087976
Probable space group: C 2/M
;
_chemical_formula_sum "Si O2"
_cell_formula_units_Z 56
_cell_length_a 27.713452
_cell_length_b 13.696417
_cell_length_c 12.417700
_cell_angle_alpha 90.000000
_cell_angle_beta 142.630328
_cell_angle_gamma 90.000000
_cell_volume 2860.852273
_symmetry_space_group_name_H-M "C 2/M"
_symmetry_group_IT_number 12
_symmetry_cell_setting 'monoclinic'
loop_
_space_group_symop_operation_xyz
x,y,z
-x,y,-z
-x,-y,-z
x,-y,z
1/2+x,1/2+y,z
1/2-x,1/2+y,-z
1/2-x,1/2-y,-z
1/2+x,1/2-y,z
loop_
_atom_site_type_symbol
_atom_site_label
_atom_site_fract_x
_atom_site_fract_y
_atom_site_fract_z
Si Si1 0.670721 0.262761 0.675032
Si Si2 0.926359 0.329109 0.307341
Si Si3 0.598325 0.890492 0.275358
Si Si4 0.816409 0.607877 0.937142
Si Si5 0.522247 0.751399 0.288744
Si Si6 0.245996 0.888804 0.323483
Si Si7 0.395188 0.251789 0.907466
O O1 0.625998 0.233217 0.703749
O O2 0.728900 0.351004 0.807470
O O3 0.605909 0.299706 0.470303
O O4 0.720445 0.169807 0.719767
O O5 0.000000 0.383680 0.500000
O O6 0.966247 0.254589 0.293630
O O7 0.868147 0.400549 0.138774
O O8 0.546047 0.860648 0.287574
O O9 0.691728 0.887765 0.468160
O O10 0.579908 0.809318 0.152890
O O11 0.573476 0.000000 0.195511
O O12 0.806709 0.500000 0.871867
O O13 0.858294 0.674025 0.923693
O O14 0.473173 0.699947 0.104009
O O15 0.166135 0.838276 0.227677
O O16 0.228029 0.000000 0.255378
#
# Coordination Sequence:
#
# PCOD8087976 Si02
#       7
#     8   8   8   8   8   8   8
#     4   9  18  35  53  71 100 133 164 202 246 290
#     4   9  18  33  52  72  99 132 162 200 248 290
#     4  10  19  32  52  76 102 131 162 200 249 300
#     4  10  20  32  50  77 103 129 164 201 242 298
#     4   9  19  32  50  73  99 131 166 202 242 290
#     4   9  19  34  52  75  98 127 170 207 239 291
#     4  10  19  33  52  73 102 132 160 203 252 291
#
# _framework density 19.574587000000001
#
# number of rings (size 3 to 8) (size 9 to 14) (size 15 to 20)
#    0.000    2.571    0.000    1.714    0.000    4.286 
#    0.000    5.000    0.000    5.571    0.000    0.000 
#    0.000    0.000    0.000    0.000    0.000    0.000 
#
# Total GULP energy -346913.253349 kJ/mol
# GULP energy per Si atom -12389.759048 kJ/mol
# Density = 1.953003 g / cm^3
# Si number density = 19.574587 Si / 1000 Ang^3
#
#
#
# Elastic Constant Matrix: (Units=GPa)
#
#
# Indices 1 2 3 4 5 6 
#
# 1 71.5510 12.1143 25.4043 0.0000 0.7086 0.0000
# 2 12.1143 58.7222 36.4827 0.0000 5.1033 0.0000
# 3 25.4043 36.4827 112.7539 0.0000 7.3326 0.0000
# 4 0.0000 0.0000 0.0000 11.9125 0.0000 -1.9078
# 5 0.7086 5.1033 7.3326 0.0000 28.6636 0.0000
# 6 0.0000 0.0000 0.0000 -1.9078 0.0000 11.5801
#
#
#
# Elastic Compliance Matrix: (Units=1/GPa)
#
#
# Indices 1 2 3 4 5 6 
#
# 1 0.015278 -0.001305 -0.003061 0.000000 0.000638 0.000000
# 2 -0.001305 0.021546 -0.006539 0.000000 -0.002131 0.000000
# 3 -0.003061 -0.006539 0.011790 0.000000 -0.001776 0.000000
# 4 0.000000 0.000000 0.000000 0.086221 0.000000 0.014204
# 5 0.000638 -0.002131 -0.001776 0.000000 0.035706 0.000000
# 6 0.000000 0.000000 0.000000 0.014204 0.000000 0.088695
#
#
# Mechanical properties :
#
#
# Convention : Reuss Voigt Hill
#
# Bulk Modulus (GPa) = 37.30939 43.44775 40.37857
# Shear Modulus (GPa) = 17.24257 21.69961 19.47109
#
# Velocity S-wave (km/s) = 2.97116 3.33312 3.15733
# Velocity P-wave (km/s) = 5.55625 6.08745 5.82790
#
# Compressibility (1/GPa) = 0.02680290
#
# Stress axis : x y z
#
# Youngs Moduli (GPa) = 65.45507 46.41177 84.81881
#
# Poissons Ratio (x) = 0.06058 0.25966
# Poissons Ratio (y) = 0.08543 0.55462
# Poissons Ratio (z) = 0.20038 0.30348
#
# Static dielectric constant tensor:
#      x y z
#    x 3.545500 0.000000 0.141210 
#    y 0.000000 3.117630 0.000000 
#    z 0.141210 0.000000 4.217510 
# 
# 
# High freq. dielectric constant tensor:
#      x y z
#    x 1.764290 0.000000 0.007820 
#    y 0.000000 1.704920 0.000000 
#    z 0.007820 0.000000 1.788280 
# 
# From -- ./inp_files/183525.got.cif
#   From: 2010.06.25/outbox.cif.g09.slc.cpg/sg12_92_cif.got.tgz:183525.got - 2010.06.28 00:19:55.
