data_PCOD8087294
_publ_section_title
;
Structure prediction by ZEFSAII (Michael W. Deem and Ramdas Pophale) SiO2 
 PCOD8087294
Probable space group: C 2/M
;
_chemical_formula_sum "Si O2"
_cell_formula_units_Z 40
_cell_length_a 14.628088
_cell_length_b 8.488526
_cell_length_c 27.451154
_cell_angle_alpha 90.000000
_cell_angle_beta 142.253206
_cell_angle_gamma 90.000000
_cell_volume 2086.674218
_symmetry_space_group_name_H-M "C 2/M"
_symmetry_group_IT_number 12
_symmetry_cell_setting 'monoclinic'
loop_
_space_group_symop_operation_xyz
x,y,z
-x,y,-z
-x,-y,-z
x,-y,z
1/2+x,1/2+y,z
1/2-x,1/2+y,-z
1/2-x,1/2-y,-z
1/2+x,1/2-y,z
loop_
_atom_site_type_symbol
_atom_site_label
_atom_site_fract_x
_atom_site_fract_y
_atom_site_fract_z
Si Si1 0.042412 0.314360 0.199855
Si Si2 0.504392 0.184229 0.927598
Si Si3 0.282011 0.316863 0.907754
Si Si4 0.183613 0.187595 0.623444
Si Si5 0.647140 0.313939 0.499441
O O1 0.064574 0.500000 0.205232
O O2 0.183137 0.239285 0.287735
O O3 0.030886 0.245392 0.140527
O O4 0.892103 0.273191 0.165754
O O5 0.358137 0.210568 0.898761
O O6 0.543708 0.000000 0.942203
O O7 0.645689 0.277365 0.009259
O O8 0.308727 0.500000 0.907523
O O9 0.203647 0.246821 0.576129
O O10 0.024909 0.243187 0.579114
O O11 0.190226 0.000000 0.626188
O O12 0.654403 0.500000 0.500546
O O13 0.750000 0.250000 0.500000
#
# Coordination Sequence:
#
# PCOD8087294 Si02
#       5
#     8   8   8   8   8
#     4   9  18  31  49  70  95 125 159 195 233 276
#     4  10  19  32  49  69  93 125 160 197 235 277
#     4  10  19  32  49  69  93 125 160 197 235 277
#     4   8  16  32  49  70  97 127 158 186 227 289
#     4   9  17  31  54  74  94 125 157 189 230 278
#
# _framework density 19.169260000000001
#
# number of rings (size 3 to 8) (size 9 to 14) (size 15 to 20)
#    0.000    2.800    0.000    4.200    0.000    1.600 
#    0.000    5.000    0.000    7.200    0.000    0.000 
#    0.000    0.000    0.000    0.000    0.000    0.000 
#
# Total GULP energy -247917.866203 kJ/mol
# GULP energy per Si atom -12395.893310 kJ/mol
# Density = 1.912563 g / cm^3
# Si number density = 19.169260 Si / 1000 Ang^3
#
#
#
# Elastic Constant Matrix: (Units=GPa)
#
#
# Indices 1 2 3 4 5 6 
#
# 1 100.7050 7.5334 53.2629 0.0000 9.9831 0.0000
# 2 7.5334 24.0994 9.1185 0.0000 2.5389 -0.0001
# 3 53.2629 9.1185 135.3766 0.0000 18.6688 0.0000
# 4 0.0000 0.0000 0.0000 16.1332 0.0000 1.2406
# 5 9.9831 2.5389 18.6688 0.0000 25.7476 0.0000
# 6 0.0000 -0.0001 0.0000 1.2406 0.0000 27.3487
#
#
#
# Elastic Compliance Matrix: (Units=1/GPa)
#
#
# Indices 1 2 3 4 5 6 
#
# 1 0.012685 -0.002059 -0.004669 0.000000 -0.001330 0.000000
# 2 -0.002059 0.043043 -0.001793 0.000000 -0.002146 0.000000
# 3 -0.004669 -0.001793 0.010078 0.000000 -0.005320 0.000000
# 4 0.000000 0.000000 0.000000 0.062201 0.000000 -0.002822
# 5 -0.001330 -0.002146 -0.005320 0.000000 0.043423 0.000000
# 6 0.000000 0.000000 0.000000 -0.002822 0.000000 0.036693
#
#
# Mechanical properties :
#
#
# Convention : Reuss Voigt Hill
#
# Bulk Modulus (GPa) = 20.50663 44.44563 32.47613
# Shear Modulus (GPa) = 20.71079 26.53031 23.62055
#
# Velocity S-wave (km/s) = 3.29054 3.72426 3.51409
# Velocity P-wave (km/s) = 5.01575 6.45985 5.78305
#
# Compressibility (1/GPa) = 0.04876471
#
# Stress axis : x y z
#
# Youngs Moduli (GPa) = 78.83211 23.23260 99.22418
#
# Poissons Ratio (x) = 0.04783 0.46326
# Poissons Ratio (y) = 0.16229 0.17794
# Poissons Ratio (z) = 0.36805 0.04166
#
# Static dielectric constant tensor:
#      x y z
#    x 3.809990 0.000000 -0.056750 
#    y 0.000000 3.075070 0.000000 
#    z -0.056750 0.000000 3.929620 
# 
# 
# High freq. dielectric constant tensor:
#      x y z
#    x 1.751360 0.000000 0.002810 
#    y 0.000000 1.707540 0.000000 
#    z 0.002810 0.000000 1.748240 
# 
# From -- ./inp_files/307842.got.cif
#   From: 2010.06.25/outbox.cif.g09.slc.cpg/sg12_154_cif.got.tgz:307842.got - 2010.06.28 00:19:55.
