data_PCOD8087845
_publ_section_title
;
Structure prediction by ZEFSAII (Michael W. Deem and Ramdas Pophale) SiO2 
 PCOD8087845
Probable space group: C 2/M
;
_chemical_formula_sum "Si O2"
_cell_formula_units_Z 64
_cell_length_a 15.342407
_cell_length_b 14.587014
_cell_length_c 22.402657
_cell_angle_alpha 90.000000
_cell_angle_beta 138.205806
_cell_angle_gamma 90.000000
_cell_volume 3341.423431
_symmetry_space_group_name_H-M "C 2/M"
_symmetry_group_IT_number 12
_symmetry_cell_setting 'monoclinic'
loop_
_space_group_symop_operation_xyz
x,y,z
-x,y,-z
-x,-y,-z
x,-y,z
1/2+x,1/2+y,z
1/2-x,1/2+y,-z
1/2-x,1/2-y,-z
1/2+x,1/2-y,z
loop_
_atom_site_type_symbol
_atom_site_label
_atom_site_fract_x
_atom_site_fract_y
_atom_site_fract_z
Si Si1 0.832572 0.174524 0.575440
Si Si2 0.793041 0.396790 0.105215
Si Si3 0.748390 0.252486 0.284214
Si Si4 0.399255 0.604678 0.091335
Si Si5 0.034683 0.894717 0.585609
Si Si6 0.504956 0.250373 0.230702
Si Si7 0.338374 0.601775 0.843888
Si Si8 0.350093 0.897413 0.425636
O O1 0.750000 0.250000 0.500000
O O2 0.911264 0.117578 0.565851
O O3 0.931306 0.220511 0.673726
O O4 0.722674 0.107263 0.547599
O O5 0.848387 0.500000 0.128219
O O6 0.672309 0.394171 0.090240
O O7 0.908160 0.334339 0.189657
O O8 0.734270 0.365435 0.011092
O O9 0.607990 0.213939 0.233426
O O10 0.748909 0.312620 0.224346
O O11 0.771997 0.327087 0.346765
O O12 0.850143 0.170074 0.331413
O O13 0.388935 0.500000 0.107815
O O14 0.422564 0.664018 0.162447
O O15 0.514685 0.617278 0.102543
O O16 0.000000 0.866459 0.500000
O O17 0.081989 0.000000 0.611949
O O18 0.289505 0.500000 0.796913
O O19 0.500000 0.865195 0.500000
O O20 0.339606 0.000000 0.394863
#
# Coordination Sequence:
#
# PCOD8087845 Si02
#       8
#     8   8   8   8   8   8   8   8
#     4  11  22  38  58  80 109 144 183 227 274 323
#     4  10  19  32  51  78 110 139 171 214 264 320
#     4  10  19  34  52  73 104 140 177 221 265 312
#     4   9  18  33  54  78 105 137 173 217 267 318
#     4  11  23  38  55  74 102 144 189 228 268 318
#     4  10  21  34  54  78 105 140 178 220 267 320
#     4   9  17  30  51  78 105 134 168 209 265 324
#     4  10  20  34  55  81 107 136 174 225 280 328
#
# _framework density 19.153514000000001
#
# number of rings (size 3 to 8) (size 9 to 14) (size 15 to 20)
#    0.000    2.000    0.000    4.875    0.000    5.500 
#    0.000    2.500    0.000    0.000    0.000    0.000 
#    0.000   14.000    0.000    0.000    0.000    0.000 
#
# Total GULP energy -396565.012819 kJ/mol
# GULP energy per Si atom -12392.656651 kJ/mol
# Density = 1.910992 g / cm^3
# Si number density = 19.153514 Si / 1000 Ang^3
#
#
#
# Elastic Constant Matrix: (Units=GPa)
#
#
# Indices 1 2 3 4 5 6 
#
# 1 80.9938 20.4669 29.5516 0.0000 0.3430 0.0000
# 2 20.4669 94.0203 50.6884 0.0000 -2.0045 0.0000
# 3 29.5516 50.6884 98.2889 0.0000 -9.5388 0.0000
# 4 0.0000 0.0000 0.0000 23.4763 0.0000 1.2615
# 5 0.3430 -2.0045 -9.5388 0.0000 25.5248 0.0000
# 6 0.0000 0.0000 0.0000 1.2615 0.0000 27.3656
#
#
#
# Elastic Compliance Matrix: (Units=1/GPa)
#
#
# Indices 1 2 3 4 5 6 
#
# 1 0.014017 -0.001006 -0.003862 0.000000 -0.001710 0.000000
# 2 -0.001006 0.014879 -0.007529 0.000000 -0.001632 0.000000
# 3 -0.003862 -0.007529 0.015736 0.000000 0.005341 0.000000
# 4 0.000000 0.000000 0.000000 0.042702 0.000000 -0.001968
# 5 -0.001710 -0.001632 0.005341 0.000000 0.041069 0.000000
# 6 0.000000 0.000000 0.000000 -0.001968 0.000000 0.036633
#
#
# Mechanical properties :
#
#
# Convention : Reuss Voigt Hill
#
# Bulk Modulus (GPa) = 50.40540 52.74630 51.57585
# Shear Modulus (GPa) = 25.45266 26.77975 26.11620
#
# Velocity S-wave (km/s) = 3.64933 3.74326 3.69659
# Velocity P-wave (km/s) = 6.64308 6.80302 6.72353
#
# Compressibility (1/GPa) = 0.01983915
#
# Stress axis : x y z
#
# Youngs Moduli (GPa) = 71.34191 67.20690 63.54676
#
# Poissons Ratio (x) = 0.06760 0.24539
# Poissons Ratio (y) = 0.07176 0.47847
# Poissons Ratio (z) = 0.27549 0.50602
#
# Static dielectric constant tensor:
#      x y z
#    x 5.063850 0.000000 0.869620 
#    y 0.000000 3.649480 0.000000 
#    z 0.869620 0.000000 4.021140 
# 
# 
# High freq. dielectric constant tensor:
#      x y z
#    x 1.740720 0.000000 -0.000550 
#    y 0.000000 1.744550 0.000000 
#    z -0.000550 0.000000 1.738290 
# 
# From -- ./inp_files/340185.got.cif
#   From: 2010.06.25/outbox.cif.g09.slc.cpg/sg12_171_cif.got.tgz:340185.got - 2010.06.28 00:19:55.
