data_PCOD8087521
_publ_section_title
;
Structure prediction by ZEFSAII (Michael W. Deem and Ramdas Pophale) SiO2 
 PCOD8087521
Probable space group: C 2/M
;
_chemical_formula_sum "Si O2"
_cell_formula_units_Z 56
_cell_length_a 19.272321
_cell_length_b 8.790525
_cell_length_c 21.969758
_cell_angle_alpha 90.000000
_cell_angle_beta 54.170934
_cell_angle_gamma 90.000000
_cell_volume 3017.658937
_symmetry_space_group_name_H-M "C 2/M"
_symmetry_group_IT_number 12
_symmetry_cell_setting 'monoclinic'
loop_
_space_group_symop_operation_xyz
x,y,z
-x,y,-z
-x,-y,-z
x,-y,z
1/2+x,1/2+y,z
1/2-x,1/2+y,-z
1/2-x,1/2-y,-z
1/2+x,1/2-y,z
loop_
_atom_site_type_symbol
_atom_site_label
_atom_site_fract_x
_atom_site_fract_y
_atom_site_fract_z
Si Si1 0.695412 0.175847 0.580372
Si Si2 0.779373 0.319929 0.295869
Si Si3 0.232655 0.823092 0.100318
Si Si4 0.885347 0.675629 0.937546
Si Si5 0.325896 0.177150 0.750238
Si Si6 0.491050 0.175354 0.295189
Si Si7 0.956338 0.822295 0.188157
O O1 0.750000 0.250000 0.500000
O O2 0.723854 0.235307 0.632372
O O3 0.594664 0.211986 0.622246
O O4 0.714687 0.000000 0.566371
O O5 0.771569 0.500000 0.293891
O O6 0.700876 0.239522 0.301907
O O7 0.868765 0.267151 0.220264
O O8 0.166605 0.723857 0.095723
O O9 0.228766 0.768690 0.171702
O O10 0.207686 0.000000 0.107155
O O11 0.328902 0.794514 0.026676
O O12 0.909313 0.500000 0.917668
O O13 0.973007 0.771539 0.897966
O O14 0.427128 0.208423 0.704884
O O15 0.304272 0.000000 0.767222
O O16 0.495387 0.281811 0.234043
O O17 0.488148 0.000000 0.274270
O O18 0.938145 0.000000 0.192353
#
# Coordination Sequence:
#
# PCOD8087521 Si02
#       7
#     8   8   8   8   8   8   8
#     4   9  19  37  60  84 109 141 177 218 267 320
#     4  10  22  39  57  78 112 147 178 221 276 328
#     4  10  20  32  50  77 108 144 185 229 276 322
#     4  10  19  32  50  75 108 144 184 231 278 320
#     4  11  21  35  56  81 111 145 183 226 275 326
#     4   9  19  35  55  80 111 145 179 220 271 321
#     4  11  20  32  54  81 106 139 189 233 271 324
#
# _framework density 18.557431999999999
#
# number of rings (size 3 to 8) (size 9 to 14) (size 15 to 20)
#    0.000    2.000    1.429    3.857    0.000    5.143 
#    0.000    1.429    0.000    8.571    0.000    0.000 
#    0.000    0.000    0.000    0.000    0.000    0.000 
#
# Total GULP energy -347242.051776 kJ/mol
# GULP energy per Si atom -12401.501849 kJ/mol
# Density = 1.851519 g / cm^3
# Si number density = 18.557432 Si / 1000 Ang^3
#
#
#
# Elastic Constant Matrix: (Units=GPa)
#
#
# Indices 1 2 3 4 5 6 
#
# 1 106.5831 28.6799 45.9738 -0.0001 -1.9683 -0.0001
# 2 28.6799 64.4758 32.5729 -0.0004 -4.1990 -0.0004
# 3 45.9738 32.5729 111.8956 0.0000 -9.3724 0.0000
# 4 -0.0001 -0.0004 0.0000 32.3616 0.0000 -1.1098
# 5 -1.9683 -4.1990 -9.3724 0.0000 21.0877 0.0000
# 6 -0.0001 -0.0004 0.0000 -1.1098 0.0000 30.7946
#
#
#
# Elastic Compliance Matrix: (Units=1/GPa)
#
#
# Indices 1 2 3 4 5 6 
#
# 1 0.012022 -0.003380 -0.004069 0.000000 -0.001360 0.000000
# 2 -0.003380 0.019170 -0.004049 0.000000 0.001702 0.000000
# 3 -0.004069 -0.004049 0.012140 0.000000 0.004210 0.000000
# 4 0.000000 0.000000 0.000000 0.030939 0.000000 0.001115
# 5 -0.001360 0.001702 0.004210 0.000000 0.049504 0.000000
# 6 0.000000 0.000000 0.000000 0.001115 0.000000 0.032513
#
#
# Mechanical properties :
#
#
# Convention : Reuss Voigt Hill
#
# Bulk Modulus (GPa) = 49.17692 55.26754 52.22223
# Shear Modulus (GPa) = 26.87253 28.56397 27.71825
#
# Velocity S-wave (km/s) = 3.80949 3.92755 3.86897
# Velocity P-wave (km/s) = 6.77547 7.10028 6.93978
#
# Compressibility (1/GPa) = 0.02033474
#
# Stress axis : x y z
#
# Youngs Moduli (GPa) = 83.18006 52.16571 82.37196
#
# Poissons Ratio (x) = 0.17634 0.33520
# Poissons Ratio (y) = 0.28118 0.33351
# Poissons Ratio (z) = 0.33848 0.21121
#
# Static dielectric constant tensor:
#      x y z
#    x 3.350160 0.000000 -0.169370 
#    y 0.000000 3.430590 0.000000 
#    z -0.169370 0.000000 3.499710 
# 
# 
# High freq. dielectric constant tensor:
#      x y z
#    x 1.706340 0.000000 -0.017320 
#    y 0.000000 1.728430 0.000000 
#    z -0.017320 0.000000 1.707960 
# 
# From -- ./inp_files/319640.got.cif
#   From: 2010.06.25/outbox.cif.g09.slc.cpg/sg12_160_cif.got.tgz:319640.got - 2010.06.28 00:19:55.
