data_PCOD8087839
_publ_section_title
;
Structure prediction by ZEFSAII (Michael W. Deem and Ramdas Pophale) SiO2 
 PCOD8087839
Probable space group: C 2/M
;
_chemical_formula_sum "Si O2"
_cell_formula_units_Z 64
_cell_length_a 17.532318
_cell_length_b 14.245248
_cell_length_c 14.443162
_cell_angle_alpha 90.000000
_cell_angle_beta 61.884348
_cell_angle_gamma 90.000000
_cell_volume 3181.554130
_symmetry_space_group_name_H-M "C 2/M"
_symmetry_group_IT_number 12
_symmetry_cell_setting 'monoclinic'
loop_
_space_group_symop_operation_xyz
x,y,z
-x,y,-z
-x,-y,-z
x,-y,z
1/2+x,1/2+y,z
1/2-x,1/2+y,-z
1/2-x,1/2-y,-z
1/2+x,1/2-y,z
loop_
_atom_site_type_symbol
_atom_site_label
_atom_site_fract_x
_atom_site_fract_y
_atom_site_fract_z
Si Si1 0.704952 0.891574 0.722116
Si Si2 0.322246 0.602670 0.114386
Si Si3 0.819811 0.392714 0.662141
Si Si4 0.368929 0.606033 0.741661
Si Si5 0.255699 0.143897 0.022456
Si Si6 0.976361 0.732032 0.618051
Si Si7 0.135280 0.608055 0.566712
Si Si8 0.400307 0.199437 0.066048
O O1 0.800790 0.862143 0.700918
O O2 0.699743 0.873915 0.615290
O O3 0.632458 0.828266 0.813295
O O4 0.688210 0.000000 0.757678
O O5 0.368404 0.500000 0.100344
O O6 0.271301 0.629659 0.237216
O O7 0.388148 0.687996 0.056137
O O8 0.253592 0.588640 0.068788
O O9 0.846302 0.500000 0.661705
O O10 0.893296 0.333815 0.670136
O O11 0.812175 0.369235 0.557289
O O12 0.401225 0.500000 0.707211
O O13 0.323305 0.613022 0.867053
O O14 0.452917 0.672960 0.687429
O O15 0.347518 0.133488 0.023016
O O16 0.250000 0.250000 0.000000
O O17 0.000000 0.758850 0.500000
O O18 0.053899 0.677311 0.623639
O O19 0.102230 0.500000 0.585099
O O20 0.500000 0.173938 0.000000
#
# Coordination Sequence:
#
# PCOD8087839 Si02
#       8
#     8   8   8   8   8   8   8   8
#     4   9  19  36  56  76 102 138 174 209 258 315
#     4  10  20  35  56  78 102 138 179 213 253 310
#     4   9  17  31  52  78 106 133 170 220 265 309
#     4  10  20  35  54  76 107 144 178 212 251 306
#     4   9  18  34  55  76  99 132 177 217 253 302
#     4  10  19  32  51  78 108 139 174 216 264 307
#     4   9  18  33  55  82 107 132 168 219 274 314
#     4  10  21  35  52  78 110 136 166 215 264 309
#
# _framework density 20.115956000000001
#
# number of rings (size 3 to 8) (size 9 to 14) (size 15 to 20)
#    0.000    2.500    0.000    3.000    0.000    5.750 
#    0.000    6.875    0.000    0.750    0.000    0.000 
#    0.000    0.000    0.000    0.000    0.000    0.000 
#
# Total GULP energy -396633.705128 kJ/mol
# GULP energy per Si atom -12394.803285 kJ/mol
# Density = 2.007017 g / cm^3
# Si number density = 20.115956 Si / 1000 Ang^3
#
#
#
# Elastic Constant Matrix: (Units=GPa)
#
#
# Indices 1 2 3 4 5 6 
#
# 1 55.5966 19.5399 36.2861 0.0000 7.6981 0.0000
# 2 19.5399 74.2979 29.3138 0.0000 -5.7672 0.0000
# 3 36.2861 29.3138 72.1190 0.0000 10.4441 0.0000
# 4 0.0000 0.0000 0.0000 27.2141 0.0000 1.8389
# 5 7.6981 -5.7672 10.4441 0.0000 29.2351 0.0000
# 6 0.0000 0.0000 0.0000 1.8389 0.0000 19.8817
#
#
#
# Elastic Compliance Matrix: (Units=1/GPa)
#
#
# Indices 1 2 3 4 5 6 
#
# 1 0.027340 -0.002639 -0.012196 0.000000 -0.003363 0.000000
# 2 -0.002639 0.017271 -0.006629 0.000000 0.006470 0.000000
# 3 -0.012196 -0.006629 0.023644 0.000000 -0.006543 0.000000
# 4 0.000000 0.000000 0.000000 0.036977 0.000000 -0.003420
# 5 -0.003363 0.006470 -0.006543 0.000000 0.038705 0.000000
# 6 0.000000 0.000000 0.000000 -0.003420 0.000000 0.050614
#
#
# Mechanical properties :
#
#
# Convention : Reuss Voigt Hill
#
# Bulk Modulus (GPa) = 39.48461 41.36590 40.42525
# Shear Modulus (GPa) = 20.33162 23.05774 21.69468
#
# Velocity S-wave (km/s) = 3.18263 3.38929 3.28759
# Velocity P-wave (km/s) = 5.75992 5.99373 5.87799
#
# Compressibility (1/GPa) = 0.02532632
#
# Stress axis : x y z
#
# Youngs Moduli (GPa) = 36.57657 57.89979 42.29338
#
# Poissons Ratio (x) = 0.15282 0.51581
# Poissons Ratio (y) = 0.09654 0.28037
# Poissons Ratio (z) = 0.44609 0.38383
#
# Static dielectric constant tensor:
#      x y z
#    x 3.618710 0.000000 0.361570 
#    y 0.000000 3.892480 0.000000 
#    z 0.361570 0.000000 3.724860 
# 
# 
# High freq. dielectric constant tensor:
#      x y z
#    x 1.749450 0.000000 0.016660 
#    y 0.000000 1.797670 0.000000 
#    z 0.016660 0.000000 1.781870 
# 
# From -- ./inp_files/225241.got.cif
#   From: 2010.06.25/outbox.cif.g09.slc.cpg/sg12_113_cif.got.tgz:225241.got - 2010.06.28 00:19:55.
