data_PCOD8087344
_publ_section_title
;
Structure prediction by ZEFSAII (Michael W. Deem and Ramdas Pophale) SiO2 
 PCOD8087344
Probable space group: C 2/M
;
_chemical_formula_sum "Si O2"
_cell_formula_units_Z 64
_cell_length_a 20.599103
_cell_length_b 17.757794
_cell_length_c 19.482558
_cell_angle_alpha 90.000000
_cell_angle_beta 150.618165
_cell_angle_gamma 90.000000
_cell_volume 3496.513469
_symmetry_space_group_name_H-M "C 2/M"
_symmetry_group_IT_number 12
_symmetry_cell_setting 'monoclinic'
loop_
_space_group_symop_operation_xyz
x,y,z
-x,y,-z
-x,-y,-z
x,-y,z
1/2+x,1/2+y,z
1/2-x,1/2+y,-z
1/2-x,1/2-y,-z
1/2+x,1/2-y,z
loop_
_atom_site_type_symbol
_atom_site_label
_atom_site_fract_x
_atom_site_fract_y
_atom_site_fract_z
Si Si1 0.127716 0.910802 0.536318
Si Si2 0.221960 0.911972 0.304703
Si Si3 0.278406 0.087979 0.199802
Si Si4 0.886522 0.588258 0.705247
Si Si5 0.835304 0.910805 0.274757
Si Si6 0.951834 0.410523 0.616501
Si Si7 0.971144 0.174583 0.052706
Si Si8 0.063337 0.652878 0.984184
O O1 0.241158 0.878008 0.590486
O O2 0.162185 0.882281 0.644447
O O3 0.979153 0.887678 0.375432
O O4 0.133112 0.000000 0.544287
O O5 0.276768 0.894756 0.279282
O O6 0.330861 0.883411 0.458387
O O7 0.092336 0.863676 0.204735
O O8 0.187770 0.000000 0.281281
O O9 0.413889 0.120429 0.293378
O O10 0.259907 0.000000 0.168492
O O11 0.163222 0.131132 0.052831
O O12 0.870942 0.500000 0.680908
O O13 0.934413 0.623259 0.677077
O O14 0.992311 0.601826 0.862420
O O15 0.809546 0.000000 0.245093
O O16 0.719051 0.866931 0.128170
O O17 0.957820 0.500000 0.622383
O O18 0.956947 0.261656 0.058517
O O19 0.000000 0.162396 0.000000
O O20 0.000000 0.636101 0.000000
#
# Coordination Sequence:
#
# PCOD8087344 Si02
#       8
#     8   8   8   8   8   8   8   8
#     4   8  15  28  47  69  94 123 162 209 243 276
#     4   9  16  31  55  77  96 125 161 201 253 305
#     4   9  16  31  55  77  98 123 156 203 255 302
#     4  10  19  32  49  73 103 133 166 204 246 286
#     4   9  16  28  48  72  93 125 171 207 239 280
#     4   9  18  31  51  78 101 123 161 209 248 292
#     4   9  19  32  48  74 103 126 163 206 244 287
#     4  11  20  31  48  71 102 136 170 203 239 286
#
# _framework density 18.303947999999998
#
# number of rings (size 3 to 8) (size 9 to 14) (size 15 to 20)
#    0.000    2.750    1.250    1.875    0.000    3.500 
#    0.000    3.750    2.750    4.500    0.000    0.000 
#    0.000    0.000    0.000    0.000    0.000    0.000 
#
# Total GULP energy -396675.935637 kJ/mol
# GULP energy per Si atom -12396.122989 kJ/mol
# Density = 1.826229 g / cm^3
# Si number density = 18.303948 Si / 1000 Ang^3
#
#
#
# Elastic Constant Matrix: (Units=GPa)
#
#
# Indices 1 2 3 4 5 6 
#
# 1 87.8726 23.8191 69.9028 0.0015 5.2752 0.0007
# 2 23.8191 34.8575 29.2778 0.0019 10.1375 0.0010
# 3 69.9028 29.2778 147.9619 0.0042 31.7583 0.0021
# 4 0.0015 0.0019 0.0042 8.6157 0.0017 -0.1681
# 5 5.2752 10.1375 31.7583 0.0017 21.4304 0.0008
# 6 0.0007 0.0010 0.0021 -0.1681 0.0008 10.3492
#
#
#
# Elastic Compliance Matrix: (Units=1/GPa)
#
#
# Indices 1 2 3 4 5 6 
#
# 1 0.023390 -0.010468 -0.012913 0.000001 0.018331 0.000001
# 2 -0.010468 0.040338 0.000742 -0.000004 -0.017605 -0.000002
# 3 -0.012913 0.000742 0.017752 -0.000002 -0.023480 -0.000001
# 4 0.000001 -0.000004 -0.000002 0.116103 -0.000005 0.001886
# 5 0.018331 -0.017605 -0.023480 -0.000005 0.085273 -0.000002
# 6 0.000001 -0.000002 -0.000001 0.001886 -0.000002 0.096656
#
#
# Mechanical properties :
#
#
# Convention : Reuss Voigt Hill
#
# Bulk Modulus (GPa) = 27.62313 57.41015 42.51664
# Shear Modulus (GPa) = 11.44539 17.92524 14.68532
#
# Velocity S-wave (km/s) = 2.50331 3.13279 2.83557
# Velocity P-wave (km/s) = 4.84556 6.67224 5.83088
#
# Compressibility (1/GPa) = 0.03620155
#
# Stress axis : x y z
#
# Youngs Moduli (GPa) = 42.75386 24.79081 56.33155
#
# Poissons Ratio (x) = 0.25950 0.72743
# Poissons Ratio (y) = 0.44753 -0.04181
# Poissons Ratio (z) = 0.55210 -0.01840
#
# Static dielectric constant tensor:
#      x y z
#    x 3.461650 0.000000 0.282360 
#    y 0.000000 3.033170 0.000000 
#    z 0.282360 0.000000 3.535200 
# 
# 
# High freq. dielectric constant tensor:
#      x y z
#    x 1.687440 0.000000 0.019170 
#    y 0.000000 1.673360 0.000000 
#    z 0.019170 0.000000 1.720550 
# 
# From -- ./inp_files/279149.got.cif
#   From: 2010.06.25/outbox.cif.g09.slc.cpg/sg12_140_cif.got.tgz:279149.got - 2010.06.28 00:19:55.
