data_PCOD8087540
_publ_section_title
;
Structure prediction by ZEFSAII (Michael W. Deem and Ramdas Pophale) SiO2 
 PCOD8087540
Probable space group: C 2/M
;
_chemical_formula_sum "Si O2"
_cell_formula_units_Z 56
_cell_length_a 26.513399
_cell_length_b 8.750653
_cell_length_c 13.752480
_cell_angle_alpha 90.000000
_cell_angle_beta 59.986465
_cell_angle_gamma 90.000000
_cell_volume 2762.856161
_symmetry_space_group_name_H-M "C 2/M"
_symmetry_group_IT_number 12
_symmetry_cell_setting 'monoclinic'
loop_
_space_group_symop_operation_xyz
x,y,z
-x,y,-z
-x,-y,-z
x,-y,z
1/2+x,1/2+y,z
1/2-x,1/2+y,-z
1/2-x,1/2-y,-z
1/2+x,1/2-y,z
loop_
_atom_site_type_symbol
_atom_site_label
_atom_site_fract_x
_atom_site_fract_y
_atom_site_fract_z
Si Si1 0.837069 0.318806 0.764239
Si Si2 0.232810 0.319890 0.779518
Si Si3 0.130034 0.820924 0.777872
Si Si4 0.034434 0.321278 0.755495
Si Si5 0.821593 0.174678 0.979125
Si Si6 0.061443 0.828856 0.037060
Si Si7 0.030786 0.318060 0.373071
O O1 0.835565 0.500000 0.764764
O O2 0.797948 0.253156 0.713093
O O3 0.806520 0.257201 0.892511
O O4 0.902926 0.256298 0.691859
O O5 0.237702 0.500000 0.766838
O O6 0.193283 0.258163 0.728569
O O7 0.204561 0.270463 0.908022
O O8 0.096817 0.759550 0.714071
O O9 0.140940 0.000000 0.760023
O O10 0.090376 0.776553 0.908470
O O11 0.045633 0.500000 0.738528
O O12 0.990891 0.284622 0.886476
O O13 0.006231 0.256626 0.683117
O O14 0.891357 0.176173 0.922437
O O15 0.798034 0.000000 0.003856
O O16 0.035595 0.000000 0.052274
O O17 0.031887 0.500000 0.368818
O O18 0.000000 0.256644 0.500000
#
# Coordination Sequence:
#
# PCOD8087540 Si02
#       7
#     8   8   8   8   8   8   8
#     4  11  20  34  56  79 107 145 185 228 277 328
#     4  11  22  35  52  78 112 147 185 226 266 323
#     4  10  21  36  52  76 111 151 184 218 267 328
#     4  11  20  32  54  81 107 141 183 229 273 322
#     4  10  19  32  50  76 112 150 186 224 268 323
#     4   9  18  31  48  72 108 148 182 218 266 322
#     4   9  20  38  59  84 111 141 182 231 283 331
#
# _framework density 20.268879999999999
#
# number of rings (size 3 to 8) (size 9 to 14) (size 15 to 20)
#    0.000    1.857    1.429    4.714    0.000    4.571 
#    0.000    0.000    0.000    7.714    0.000    0.000 
#    0.000    0.000    0.000    0.000    0.000    0.000 
#
# Total GULP energy -347166.259219 kJ/mol
# GULP energy per Si atom -12398.794972 kJ/mol
# Density = 2.022275 g / cm^3
# Si number density = 20.268880 Si / 1000 Ang^3
#
#
#
# Elastic Constant Matrix: (Units=GPa)
#
#
# Indices 1 2 3 4 5 6 
#
# 1 190.6153 50.1396 32.5861 0.0000 5.0762 0.0000
# 2 50.1396 85.4684 13.5240 0.0000 2.0574 0.0000
# 3 32.5861 13.5240 40.8885 0.0000 -0.3654 0.0000
# 4 0.0000 0.0000 0.0000 10.1575 0.0000 -0.3410
# 5 5.0762 2.0574 -0.3654 0.0000 13.4996 0.0000
# 6 0.0000 0.0000 0.0000 -0.3410 0.0000 38.0564
#
#
#
# Elastic Compliance Matrix: (Units=1/GPa)
#
#
# Indices 1 2 3 4 5 6 
#
# 1 0.006938 -0.003312 -0.004454 0.000000 -0.002225 0.000000
# 2 -0.003312 0.013981 -0.001993 0.000000 -0.000939 0.000000
# 3 -0.004454 -0.001993 0.028690 0.000000 0.002755 0.000000
# 4 0.000000 0.000000 0.000000 0.098479 0.000000 0.000883
# 5 -0.002225 -0.000939 0.002755 0.000000 0.075130 0.000000
# 6 0.000000 0.000000 0.000000 0.000883 0.000000 0.026285
#
#
# Mechanical properties :
#
#
# Convention : Reuss Voigt Hill
#
# Bulk Modulus (GPa) = 33.23207 56.60795 44.92001
# Shear Modulus (GPa) = 17.91783 27.05753 22.48768
#
# Velocity S-wave (km/s) = 2.97645 3.65763 3.33448
# Velocity P-wave (km/s) = 5.31447 6.76955 6.08565
#
# Compressibility (1/GPa) = 0.03009142
#
# Stress axis : x y z
#
# Youngs Moduli (GPa) = 144.13538 71.52500 34.85530
#
# Poissons Ratio (x) = 0.23688 0.15523
# Poissons Ratio (y) = 0.47735 0.06948
# Poissons Ratio (z) = 0.64193 0.14257
#
# Static dielectric constant tensor:
#      x y z
#    x 4.359340 0.000000 -0.018280 
#    y 0.000000 3.461410 0.000000 
#    z -0.018280 0.000000 3.222310 
# 
# 
# High freq. dielectric constant tensor:
#      x y z
#    x 1.826310 0.000000 -0.002450 
#    y 0.000000 1.781490 0.000000 
#    z -0.002450 0.000000 1.727220 
# 
# From -- ./inp_files/243613.got.cif
#   From: 2010.06.25/outbox.cif.g09.slc.cpg/sg12_122_cif.got.tgz:243613.got - 2010.06.28 00:19:55.
