data_PCOD8087361
_publ_section_title
;
Structure prediction by ZEFSAII (Michael W. Deem and Ramdas Pophale) SiO2 
 PCOD8087361
Probable space group: C 2/M
;
_chemical_formula_sum "Si O2"
_cell_formula_units_Z 56
_cell_length_a 19.360122
_cell_length_b 8.809506
_cell_length_c 31.624981
_cell_angle_alpha 90.000000
_cell_angle_beta 145.279881
_cell_angle_gamma 90.000000
_cell_volume 3072.102035
_symmetry_space_group_name_H-M "C 2/M"
_symmetry_group_IT_number 12
_symmetry_cell_setting 'monoclinic'
loop_
_space_group_symop_operation_xyz
x,y,z
-x,y,-z
-x,-y,-z
x,-y,z
1/2+x,1/2+y,z
1/2-x,1/2+y,-z
1/2-x,1/2-y,-z
1/2+x,1/2-y,z
loop_
_atom_site_type_symbol
_atom_site_label
_atom_site_fract_x
_atom_site_fract_y
_atom_site_fract_z
Si Si1 0.611524 0.180087 0.691968
Si Si2 0.830578 0.326646 0.188725
Si Si3 0.068522 0.177392 0.900576
Si Si4 0.107837 0.673954 0.314729
Si Si5 0.359908 0.679587 0.580643
Si Si6 0.178720 0.177156 0.265111
Si Si7 0.270322 0.321124 0.945053
O O1 0.673482 0.246550 0.766431
O O2 0.482868 0.259830 0.620808
O O3 0.696211 0.219777 0.695062
O O4 0.589415 0.000000 0.685594
O O5 0.794034 0.500000 0.176771
O O6 0.737590 0.253448 0.107124
O O7 0.964373 0.307495 0.236307
O O8 0.154680 0.265462 0.912468
O O9 0.930007 0.222540 0.821614
O O10 0.091102 0.000000 0.904749
O O11 0.105091 0.221872 0.967639
O O12 0.143664 0.500000 0.341129
O O13 0.152102 0.772127 0.376634
O O14 0.174939 0.730367 0.306455
O O15 0.356177 0.500000 0.575448
O O16 0.250000 0.750000 0.500000
O O17 0.171813 0.000000 0.272602
O O18 0.255463 0.500000 0.933692
#
# Coordination Sequence:
#
# PCOD8087361 Si02
#       7
#     8   8   8   8   8   8   8
#     4   9  19  35  53  75 108 144 175 213 263 312
#     4   8  14  27  47  69  94 132 179 220 258 305
#     4   9  17  26  41  68 101 134 175 225 270 306
#     4  10  19  33  55  80 106 138 177 216 257 308
#     4  11  22  39  62  86 109 133 167 207 252 308
#     4  10  19  32  49  75 110 144 178 220 266 309
#     4   9  15  26  43  66  95 133 181 227 267 308
#
# _framework density 18.228560000000002
#
# number of rings (size 3 to 8) (size 9 to 14) (size 15 to 20)
#    0.000    2.571    1.429    2.571    0.000    0.571 
#    0.000    1.429    0.000    8.571    0.000    0.000 
#    0.000    8.286    0.000    0.000    0.000    0.000 
#
# Total GULP energy -346969.240532 kJ/mol
# GULP energy per Si atom -12391.758590 kJ/mol
# Density = 1.818707 g / cm^3
# Si number density = 18.228560 Si / 1000 Ang^3
#
#
#
# Elastic Constant Matrix: (Units=GPa)
#
#
# Indices 1 2 3 4 5 6 
#
# 1 93.1916 36.1917 34.6043 0.0000 -0.9478 0.0000
# 2 36.1917 62.3930 36.9605 0.0002 0.2372 0.0000
# 3 34.6043 36.9605 107.0106 0.0000 -4.0136 0.0000
# 4 0.0000 0.0002 0.0000 21.8189 0.0000 -1.4835
# 5 -0.9478 0.2372 -4.0136 0.0000 19.0970 0.0000
# 6 0.0000 0.0000 0.0000 -1.4835 0.0000 24.7287
#
#
#
# Elastic Compliance Matrix: (Units=1/GPa)
#
#
# Indices 1 2 3 4 5 6 
#
# 1 0.014255 -0.006974 -0.002189 0.000000 0.000334 0.000000
# 2 -0.006974 0.023618 -0.005974 0.000000 -0.001895 0.000000
# 3 -0.002189 -0.005974 0.012211 0.000000 0.002532 0.000000
# 4 0.000000 0.000000 0.000000 0.046020 0.000000 0.002761
# 5 0.000334 -0.001895 0.002532 0.000000 0.052937 0.000000
# 6 0.000000 0.000000 0.000000 0.002761 0.000000 0.040605
#
#
# Mechanical properties :
#
#
# Convention : Reuss Voigt Hill
#
# Bulk Modulus (GPa) = 50.47260 53.12314 51.79787
# Shear Modulus (GPa) = 22.07310 23.45148 22.76229
#
# Velocity S-wave (km/s) = 3.48358 3.59071 3.53755
# Velocity P-wave (km/s) = 6.62792 6.81153 6.72035
#
# Compressibility (1/GPa) = 0.01981273
#
# Stress axis : x y z
#
# Youngs Moduli (GPa) = 70.15162 42.33996 81.89495
#
# Poissons Ratio (x) = 0.29526 0.17923
# Poissons Ratio (y) = 0.48920 0.48921
# Poissons Ratio (z) = 0.15353 0.25292
#
# Static dielectric constant tensor:
#      x y z
#    x 3.271860 0.000000 -0.263140 
#    y 0.000000 3.215590 0.000000 
#    z -0.263140 0.000000 3.635400 
# 
# 
# High freq. dielectric constant tensor:
#      x y z
#    x 1.687830 0.000000 -0.019840 
#    y 0.000000 1.687830 0.000000 
#    z -0.019840 0.000000 1.710080 
# 
# From -- ./inp_files/377734.got.cif
#   From: 2010.06.25/outbox.cif.g09.slc.cpg/sg12_189_cif.got.tgz:377734.got - 2010.06.28 00:19:55.
