data_PCOD8087029
_publ_section_title
;
Structure prediction by ZEFSAII (Michael W. Deem and Ramdas Pophale) SiO2 
 PCOD8087029
Probable space group: C 2/M
;
_chemical_formula_sum "Si O2"
_cell_formula_units_Z 48
_cell_length_a 22.188262
_cell_length_b 14.016091
_cell_length_c 13.155434
_cell_angle_alpha 90.000000
_cell_angle_beta 42.732113
_cell_angle_gamma 90.000000
_cell_volume 2776.201394
_symmetry_space_group_name_H-M "C 2/M"
_symmetry_group_IT_number 12
_symmetry_cell_setting 'monoclinic'
loop_
_space_group_symop_operation_xyz
x,y,z
-x,y,-z
-x,-y,-z
x,-y,z
1/2+x,1/2+y,z
1/2-x,1/2+y,-z
1/2-x,1/2-y,-z
1/2+x,1/2-y,z
loop_
_atom_site_type_symbol
_atom_site_label
_atom_site_fract_x
_atom_site_fract_y
_atom_site_fract_z
Si Si1 0.988175 0.300283 0.314068
Si Si2 0.196108 0.763995 0.465594
Si Si3 0.551375 0.111654 0.033610
Si Si4 0.250890 0.611758 0.771115
Si Si5 0.854657 0.611640 0.617050
Si Si6 0.331480 0.751692 0.822139
O O1 0.076052 0.240267 0.232082
O O2 0.909697 0.226012 0.382024
O O3 0.955022 0.366070 0.450790
O O4 0.001703 0.366977 0.199651
O O5 0.250000 0.750000 0.500000
O O6 0.227998 0.860692 0.371313
O O7 0.212852 0.670607 0.372864
O O8 0.651955 0.150108 0.917448
O O9 0.556312 0.000000 0.009601
O O10 0.500000 0.157668 0.000000
O O11 0.261777 0.500000 0.774166
O O12 0.321457 0.663873 0.757008
O O13 0.833404 0.500000 0.639502
O O14 0.838577 0.648297 0.752076
O O15 0.250000 0.750000 0.000000
#
# Coordination Sequence:
#
# PCOD8087029 Si02
#       6
#     8   8   8   8   8   8
#     4  10  20  33  57  78 111 137 182 217 277 316
#     4   9  20  36  54  81 111 142 178 218 270 322
#     4  10  19  31  52  83 110 137 177 225 277 324
#     4  10  21  36  54  78 110 148 182 221 265 318
#     4   9  21  35  57  84 109 136 175 228 281 321
#     4  11  21  37  53  79 112 141 181 220 270 329
#
# _framework density 17.289811
#
# number of rings (size 3 to 8) (size 9 to 14) (size 15 to 20)
#    1.000    1.167    1.667    2.000    0.000    3.333 
#    0.000    1.667    0.000    0.000    0.000    1.167 
#    0.000    0.000    0.000    0.000    0.000    0.000 
#
# Total GULP energy -297416.974155 kJ/mol
# GULP energy per Si atom -12392.373923 kJ/mol
# Density = 1.725046 g / cm^3
# Si number density = 17.289811 Si / 1000 Ang^3
#
#
#
# Elastic Constant Matrix: (Units=GPa)
#
#
# Indices 1 2 3 4 5 6 
#
# 1 113.8783 30.2587 48.7872 0.0000 2.3335 0.0000
# 2 30.2587 69.5110 23.4504 0.0000 -4.0439 0.0000
# 3 48.7872 23.4504 98.6169 0.0000 -0.5796 0.0000
# 4 0.0000 0.0000 0.0000 24.4418 0.0000 2.3656
# 5 2.3335 -4.0439 -0.5796 0.0000 25.0932 0.0000
# 6 0.0000 0.0000 0.0000 2.3656 0.0000 19.0080
#
#
#
# Elastic Compliance Matrix: (Units=1/GPa)
#
#
# Indices 1 2 3 4 5 6 
#
# 1 0.011943 -0.003596 -0.005064 0.000000 -0.001807 0.000000
# 2 -0.003596 0.016874 -0.002216 0.000000 0.003002 0.000000
# 3 -0.005064 -0.002216 0.013175 0.000000 0.000418 0.000000
# 4 0.000000 0.000000 0.000000 0.041412 0.000000 -0.005154
# 5 -0.001807 0.003002 0.000418 0.000000 0.040513 0.000000
# 6 0.000000 0.000000 0.000000 -0.005154 0.000000 0.053251
#
#
# Mechanical properties :
#
#
# Convention : Reuss Voigt Hill
#
# Bulk Modulus (GPa) = 49.40615 54.11099 51.75857
# Shear Modulus (GPa) = 24.31121 25.67592 24.99357
#
# Velocity S-wave (km/s) = 3.75387 3.85779 3.80619
# Velocity P-wave (km/s) = 6.88666 7.15596 7.02260
#
# Compressibility (1/GPa) = 0.02024040
#
# Stress axis : x y z
#
# Youngs Moduli (GPa) = 83.72905 59.26387 75.90172
#
# Poissons Ratio (x) = 0.21309 0.38437
# Poissons Ratio (y) = 0.30106 0.16819
# Poissons Ratio (z) = 0.42401 0.13133
#
# Static dielectric constant tensor:
#      x y z
#    x 3.319670 0.000000 -0.015840 
#    y 0.000000 2.887710 0.000000 
#    z -0.015840 0.000000 3.339090 
# 
# 
# High freq. dielectric constant tensor:
#      x y z
#    x 1.673190 0.000000 0.006500 
#    y 0.000000 1.633170 0.000000 
#    z 0.006500 0.000000 1.674940 
# 
# From -- ./inp_files/166527.got.cif
#   From: 2010.06.25/outbox.cif.g09.slc.cpg/sg12_84_cif.got.tgz:166527.got - 2010.06.28 00:19:55.
