data_PCOD8087985
_publ_section_title
;
Structure prediction by ZEFSAII (Michael W. Deem and Ramdas Pophale) SiO2 
 PCOD8087985
Probable space group: C 2/M
;
_chemical_formula_sum "Si O2"
_cell_formula_units_Z 64
_cell_length_a 24.456700
_cell_length_b 9.256053
_cell_length_c 29.093558
_cell_angle_alpha 90.000000
_cell_angle_beta 31.188422
_cell_angle_gamma 90.000000
_cell_volume 3410.578013
_symmetry_space_group_name_H-M "C 2/M"
_symmetry_group_IT_number 12
_symmetry_cell_setting 'monoclinic'
loop_
_space_group_symop_operation_xyz
x,y,z
-x,y,-z
-x,-y,-z
x,-y,z
1/2+x,1/2+y,z
1/2-x,1/2+y,-z
1/2-x,1/2-y,-z
1/2+x,1/2-y,z
loop_
_atom_site_type_symbol
_atom_site_label
_atom_site_fract_x
_atom_site_fract_y
_atom_site_fract_z
Si Si1 0.612197 0.669979 0.441810
Si Si2 0.689045 0.169291 0.474879
Si Si3 0.811557 0.835636 0.053238
Si Si4 0.615775 0.831977 0.628735
Si Si5 0.468664 0.166447 0.881595
Si Si6 0.593249 0.171583 0.173154
Si Si7 0.386634 0.335759 0.097104
Si Si8 0.308921 0.165720 0.239929
O O1 0.500000 0.708654 0.500000
O O2 0.622271 0.500000 0.445186
O O3 0.623677 0.756577 0.481032
O O4 0.703397 0.721434 0.340981
O O5 0.625618 0.197460 0.567558
O O6 0.803653 0.240643 0.398186
O O7 0.702235 0.000000 0.454980
O O8 0.704381 0.764107 0.110632
O O9 0.806900 0.827335 0.111589
O O10 0.822731 0.000000 0.028335
O O11 0.913647 0.750920 0.962400
O O12 0.499226 0.778562 0.726162
O O13 0.634989 0.000000 0.626887
O O14 0.429702 0.231330 0.861253
O O15 0.594356 0.187466 0.794378
O O16 0.436950 0.000000 0.909177
O O17 0.598097 0.000000 0.169382
O O18 0.405005 0.500000 0.100532
O O19 0.329913 0.251096 0.178327
O O20 0.500000 0.269725 0.000000
O O21 0.295801 0.000000 0.234989
#
# Coordination Sequence:
#
# PCOD8087985 Si02
#       8
#     8   8   8   8   8   8   8   8
#     4  10  22  40  59  80 111 150 187 227 280 336
#     4  10  20  34  57  86 110 139 181 227 278 328
#     4  10  20  34  52  74 104 140 176 215 265 319
#     4   9  18  35  57  79 108 144 181 222 272 332
#     4  10  19  32  52  76 102 133 175 219 262 312
#     4   9  18  33  53  76 103 139 178 215 260 318
#     4  10  20  35  54  78 108 142 179 221 271 320
#     4  10  21  36  57  81 103 139 185 224 268 323
#
# _framework density 18.765148
#
# number of rings (size 3 to 8) (size 9 to 14) (size 15 to 20)
#    0.000    2.250    1.250    1.500    0.000    5.000 
#    0.000    3.750    0.000    0.000    0.000    0.000 
#    0.000    0.000    0.000    0.000    0.000    0.000 
#
# Total GULP energy -396845.910917 kJ/mol
# GULP energy per Si atom -12401.434716 kJ/mol
# Density = 1.872244 g / cm^3
# Si number density = 18.765148 Si / 1000 Ang^3
#
#
#
# Elastic Constant Matrix: (Units=GPa)
#
#
# Indices 1 2 3 4 5 6 
#
# 1 124.2014 46.4421 53.3370 -0.0049 -3.4614 0.0104
# 2 46.4421 59.5840 37.9156 -0.0125 0.9421 0.0334
# 3 53.3370 37.9156 105.4078 -0.0015 -6.9851 0.0051
# 4 -0.0049 -0.0125 -0.0015 21.7866 -0.0015 3.9303
# 5 -3.4614 0.9421 -6.9851 -0.0015 28.1839 -0.0003
# 6 0.0104 0.0334 0.0051 3.9303 -0.0003 30.3978
#
#
#
# Elastic Compliance Matrix: (Units=1/GPa)
#
#
# Indices 1 2 3 4 5 6 
#
# 1 0.012361 -0.007400 -0.003534 -0.000002 0.000890 0.000005
# 2 -0.007400 0.026401 -0.005969 0.000018 -0.003271 -0.000028
# 3 -0.003534 -0.005969 0.013631 -0.000004 0.003144 0.000006
# 4 -0.000002 0.000018 -0.000004 0.046996 0.000001 -0.006076
# 5 0.000890 -0.003271 0.003144 0.000001 0.036479 0.000003
# 6 0.000005 -0.000028 0.000006 -0.006076 0.000003 0.033683
#
#
# Mechanical properties :
#
#
# Convention : Reuss Voigt Hill
#
# Bulk Modulus (GPa) = 53.80155 62.73141 58.26648
# Shear Modulus (GPa) = 23.86061 26.17356 25.01708
#
# Velocity S-wave (km/s) = 3.56973 3.73875 3.65522
# Velocity P-wave (km/s) = 6.76194 7.22080 6.99514
#
# Compressibility (1/GPa) = 0.01858682
#
# Stress axis : x y z
#
# Youngs Moduli (GPa) = 80.90075 37.87789 73.36479
#
# Poissons Ratio (x) = 0.28029 0.25927
# Poissons Ratio (y) = 0.59865 0.43790
# Poissons Ratio (z) = 0.28590 0.22609
#
# Static dielectric constant tensor:
#      x y z
#    x 3.524310 -0.000040 -0.084860 
#    y -0.000040 3.259520 0.000030 
#    z -0.084860 0.000030 3.498240 
# 
# 
# High freq. dielectric constant tensor:
#      x y z
#    x 1.737260 0.000000 0.000000 
#    y 0.000000 1.707710 0.000000 
#    z 0.000000 0.000000 1.730520 
# 
# From -- ./inp_files/382315.got.cif
#   From: 2010.06.25/outbox.cif.g09.slc.cpg/sg12_192_cif.got.tgz:382315.got - 2010.06.28 00:19:55.
