data_PCOD8087433
_publ_section_title
;
Structure prediction by ZEFSAII (Michael W. Deem and Ramdas Pophale) SiO2 
 PCOD8087433
Probable space group: C 2/M
;
_chemical_formula_sum "Si O2"
_cell_formula_units_Z 64
_cell_length_a 28.114599
_cell_length_b 9.349662
_cell_length_c 19.306741
_cell_angle_alpha 90.000000
_cell_angle_beta 132.816624
_cell_angle_gamma 90.000000
_cell_volume 3722.684687
_symmetry_space_group_name_H-M "C 2/M"
_symmetry_group_IT_number 12
_symmetry_cell_setting 'monoclinic'
loop_
_space_group_symop_operation_xyz
x,y,z
-x,y,-z
-x,-y,-z
x,-y,z
1/2+x,1/2+y,z
1/2-x,1/2+y,-z
1/2-x,1/2-y,-z
1/2+x,1/2-y,z
loop_
_atom_site_type_symbol
_atom_site_label
_atom_site_fract_x
_atom_site_fract_y
_atom_site_fract_z
Si Si1 0.874288 0.834129 0.053244
Si Si2 0.936227 0.669186 0.893479
Si Si3 0.319763 0.165237 0.276225
Si Si4 0.517297 0.663131 0.344900
Si Si5 0.325174 0.336123 0.858636
Si Si6 0.865896 0.833896 0.194828
Si Si7 0.018032 0.167009 0.187807
Si Si8 0.060807 0.668567 0.514317
O O1 0.846160 0.775112 0.098342
O O2 0.945186 0.771527 0.105345
O O3 0.887755 0.000000 0.081577
O O4 0.825997 0.804951 0.942190
O O5 0.930359 0.500000 0.879958
O O6 0.872080 0.726934 0.867114
O O7 0.937111 0.740726 0.818679
O O8 0.000000 0.713645 0.000000
O O9 0.248588 0.189387 0.238877
O O10 0.324120 0.248447 0.208690
O O11 0.373100 0.220400 0.383495
O O12 0.331854 0.000000 0.270797
O O13 0.531370 0.500000 0.378662
O O14 0.441779 0.697987 0.280192
O O15 0.539920 0.693372 0.288622
O O16 0.559199 0.761423 0.437148
O O17 0.347358 0.500000 0.866529
O O18 0.849574 0.000000 0.188544
O O19 0.023988 0.000000 0.173701
O O20 0.059137 0.500000 0.502157
O O21 0.000000 0.721094 0.500000
#
# Coordination Sequence:
#
# PCOD8087433 Si02
#       8
#     8   8   8   8   8   8   8   8
#     4   8  15  29  49  72  97 131 170 202 240 294
#     4  11  22  34  51  79 108 130 162 208 253 300
#     4  10  21  34  48  73 102 134 177 212 245 298
#     4   9  18  31  51  79 102 126 169 214 246 293
#     4  10  20  35  54  71  97 138 177 209 244 297
#     4   9  17  30  48  71 101 134 167 205 248 295
#     4   9  17  32  54  77 100 129 168 207 246 298
#     4  10  19  32  50  72 103 138 168 208 259 301
#
# _framework density 17.191893
#
# number of rings (size 3 to 8) (size 9 to 14) (size 15 to 20)
#    0.000    2.500    2.500    1.875    0.000    2.750 
#    0.000    2.500    0.000    0.750    0.000    0.000 
#    0.000    0.000    0.000    0.000    0.000    0.000 
#
# Total GULP energy -396740.691914 kJ/mol
# GULP energy per Si atom -12398.146622 kJ/mol
# Density = 1.715276 g / cm^3
# Si number density = 17.191893 Si / 1000 Ang^3
#
#
#
# Elastic Constant Matrix: (Units=GPa)
#
#
# Indices 1 2 3 4 5 6 
#
# 1 88.1747 45.6370 44.3191 0.0000 -4.8552 0.0000
# 2 45.6370 57.2171 33.9781 0.0000 -4.9580 0.0000
# 3 44.3191 33.9781 92.5083 0.0000 0.6993 0.0000
# 4 0.0000 0.0000 0.0000 19.9860 0.0000 -3.6362
# 5 -4.8552 -4.9580 0.6993 0.0000 23.0433 0.0000
# 6 0.0000 0.0000 0.0000 -3.6362 0.0000 26.7988
#
#
#
# Elastic Compliance Matrix: (Units=1/GPa)
#
#
# Indices 1 2 3 4 5 6 
#
# 1 0.021037 -0.013612 -0.005091 0.000000 0.001658 0.000000
# 2 -0.013612 0.031766 -0.005178 0.000000 0.004124 0.000000
# 3 -0.005091 -0.005178 0.015171 0.000000 -0.002647 0.000000
# 4 0.000000 0.000000 0.000000 0.051301 0.000000 0.006961
# 5 0.001658 0.004124 -0.002647 0.000000 0.044714 0.000000
# 6 0.000000 0.000000 0.000000 0.006961 0.000000 0.038260
#
#
# Mechanical properties :
#
#
# Convention : Reuss Voigt Hill
#
# Bulk Modulus (GPa) = 49.47521 53.97425 51.72473
# Shear Modulus (GPa) = 19.47440 21.56335 20.51888
#
# Velocity S-wave (km/s) = 3.36931 3.54542 3.45848
# Velocity P-wave (km/s) = 6.63152 6.94430 6.78971
#
# Compressibility (1/GPa) = 0.02021214
#
# Stress axis : x y z
#
# Youngs Moduli (GPa) = 47.53615 31.47975 65.91669
#
# Poissons Ratio (x) = 0.42850 0.33559
# Poissons Ratio (y) = 0.64706 0.34129
# Poissons Ratio (z) = 0.24201 0.16299
#
# Static dielectric constant tensor:
#      x y z
#    x 3.051430 0.000000 -0.102000 
#    y 0.000000 3.000100 0.000000 
#    z -0.102000 0.000000 3.178960 
# 
# 
# High freq. dielectric constant tensor:
#      x y z
#    x 1.650960 0.000000 -0.012160 
#    y 0.000000 1.648640 0.000000 
#    z -0.012160 0.000000 1.654490 
# 
# From -- ./inp_files/326908.got.cif
#   From: 2010.06.25/outbox.cif.g09.slc.cpg/sg12_164_cif.got.tgz:326908.got - 2010.06.28 00:19:55.
