data_PCOD8087122
_publ_section_title
;
Structure prediction by ZEFSAII (Michael W. Deem and Ramdas Pophale) SiO2 
 PCOD8087122
Probable space group: C 2/M
;
_chemical_formula_sum "Si O2"
_cell_formula_units_Z 40
_cell_length_a 10.029045
_cell_length_b 25.061425
_cell_length_c 15.067714
_cell_angle_alpha 90.000000
_cell_angle_beta 144.344847
_cell_angle_gamma 90.000000
_cell_volume 2207.551188
_symmetry_space_group_name_H-M "C 2/M"
_symmetry_group_IT_number 12
_symmetry_cell_setting 'monoclinic'
loop_
_space_group_symop_operation_xyz
x,y,z
-x,y,-z
-x,-y,-z
x,-y,z
1/2+x,1/2+y,z
1/2-x,1/2+y,-z
1/2-x,1/2-y,-z
1/2+x,1/2-y,z
loop_
_atom_site_type_symbol
_atom_site_label
_atom_site_fract_x
_atom_site_fract_y
_atom_site_fract_z
Si Si1 0.512625 0.606470 0.152202
Si Si2 0.958322 0.500000 0.632962
Si Si3 0.157103 0.000000 0.309078
Si Si4 0.731591 0.313484 0.585320
Si Si5 0.877574 0.603626 0.194284
Si Si6 0.753917 0.806468 0.614083
O O1 0.518271 0.554193 0.217224
O O2 0.709792 0.610298 0.185910
O O3 0.548809 0.659380 0.230774
O O4 0.264896 0.602669 0.973543
O O5 0.724433 0.500000 0.449775
O O6 0.144304 0.500000 0.656195
O O7 0.976831 0.550230 0.708904
O O8 0.500000 0.339017 0.500000
O O9 0.771185 0.255410 0.651802
O O10 0.696491 0.310694 0.462115
O O11 0.952163 0.347713 0.727151
O O12 0.500000 0.829235 0.500000
#
# Coordination Sequence:
#
# PCOD8087122 Si02
#       6
#     8   4   4   8   8   8
#     4  10  19  31  54  80 110 136 173 223 268 312
#     4   9  17  29  52  76 108 138 174 217 259 317
#     4   9  17  27  49  84 105 133 174 223 266 302
#     4  10  21  35  54  77 106 141 181 220 259 312
#     4  10  19  33  51  80 110 139 173 219 269 311
#     4  10  19  35  56  77 102 141 185 221 257 308
#
# _framework density 18.119627000000001
#
# number of rings (size 3 to 8) (size 9 to 14) (size 15 to 20)
#    0.000    2.200    2.000    1.800    2.800    3.200 
#    0.000    1.500    0.000    0.000    0.000    4.200 
#    0.000    0.000    0.000    0.000    0.000    0.000 
#
# Total GULP energy -247913.681884 kJ/mol
# GULP energy per Si atom -12395.684094 kJ/mol
# Density = 1.807839 g / cm^3
# Si number density = 18.119627 Si / 1000 Ang^3
#
#
#
# Elastic Constant Matrix: (Units=GPa)
#
#
# Indices 1 2 3 4 5 6 
#
# 1 48.2424 18.7241 28.7141 0.0000 -0.1681 0.0000
# 2 18.7241 120.7732 83.4307 0.0000 -12.7782 0.0000
# 3 28.7141 83.4307 154.5713 0.0000 -17.7117 0.0000
# 4 0.0000 0.0000 0.0000 14.3700 0.0000 0.6096
# 5 -0.1681 -12.7782 -17.7117 0.0000 22.9655 0.0000
# 6 0.0000 0.0000 0.0000 0.6096 0.0000 15.7443
#
#
#
# Elastic Compliance Matrix: (Units=1/GPa)
#
#
# Indices 1 2 3 4 5 6 
#
# 1 0.023663 -0.001165 -0.004192 0.000000 -0.003708 0.000000
# 2 -0.001165 0.013347 -0.006733 0.000000 0.002225 0.000000
# 3 -0.004192 -0.006733 0.011462 0.000000 0.005063 0.000000
# 4 0.000000 0.000000 0.000000 0.069704 0.000000 -0.002699
# 5 -0.003708 0.002225 0.005063 0.000000 0.048660 0.000000
# 6 0.000000 0.000000 0.000000 -0.002699 0.000000 0.063619
#
#
# Mechanical properties :
#
#
# Convention : Reuss Voigt Hill
#
# Bulk Modulus (GPa) = 41.16392 65.03606 53.09999
# Shear Modulus (GPa) = 19.03076 23.46382 21.24729
#
# Velocity S-wave (km/s) = 3.24432 3.60243 3.42806
# Velocity P-wave (km/s) = 6.06641 7.29890 6.71101
#
# Compressibility (1/GPa) = 0.02429312
#
# Stress axis : x y z
#
# Youngs Moduli (GPa) = 42.26019 74.92283 87.24210
#
# Poissons Ratio (x) = 0.08730 0.36569
# Poissons Ratio (y) = 0.04924 0.58737
# Poissons Ratio (z) = 0.17714 0.50443
#
# Static dielectric constant tensor:
#      x y z
#    x 3.051790 0.000000 -0.136690 
#    y 0.000000 3.542140 0.000000 
#    z -0.136690 0.000000 3.360980 
# 
# 
# High freq. dielectric constant tensor:
#      x y z
#    x 1.666230 0.000000 -0.015810 
#    y 0.000000 1.711760 0.000000 
#    z -0.015810 0.000000 1.697770 
# 
# From -- ./inp_files/40364.got.cif
#   From: 2010.06.25/outbox.cif.g09.slc.cpg/sg12_21_cif.got.tgz:40364.got - 2010.06.28 00:19:55.
