data_PCOD8087744
_publ_section_title
;
Structure prediction by ZEFSAII (Michael W. Deem and Ramdas Pophale) SiO2 
 PCOD8087744
Probable space group: C 2/M
;
_chemical_formula_sum "Si O2"
_cell_formula_units_Z 56
_cell_length_a 22.769507
_cell_length_b 8.884495
_cell_length_c 16.566644
_cell_angle_alpha 90.000000
_cell_angle_beta 119.485693
_cell_angle_gamma 90.000000
_cell_volume 2917.286135
_symmetry_space_group_name_H-M "C 2/M"
_symmetry_group_IT_number 12
_symmetry_cell_setting 'monoclinic'
loop_
_space_group_symop_operation_xyz
x,y,z
-x,y,-z
-x,-y,-z
x,-y,z
1/2+x,1/2+y,z
1/2-x,1/2+y,-z
1/2-x,1/2-y,-z
1/2+x,1/2-y,z
loop_
_atom_site_type_symbol
_atom_site_label
_atom_site_fract_x
_atom_site_fract_y
_atom_site_fract_z
Si Si1 0.704528 0.178375 0.208287
Si Si2 0.589725 0.820647 0.247740
Si Si3 0.806311 0.320143 0.981518
Si Si4 0.545422 0.175381 0.654312
Si Si5 0.844089 0.173391 0.376858
Si Si6 0.440197 0.175482 0.153652
Si Si7 0.092485 0.827271 0.415656
O O1 0.639172 0.241335 0.211625
O O2 0.771304 0.234046 0.299604
O O3 0.700934 0.000000 0.205393
O O4 0.704655 0.238858 0.116911
O O5 0.513840 0.758906 0.178678
O O6 0.615260 0.762777 0.351794
O O7 0.590122 0.000000 0.252568
O O8 0.802126 0.500000 0.984945
O O9 0.879350 0.256716 0.059464
O O10 0.750000 0.250000 0.000000
O O11 0.599833 0.224796 0.626414
O O12 0.574485 0.211317 0.762799
O O13 0.476584 0.264821 0.592969
O O14 0.529283 0.000000 0.633288
O O15 0.849591 0.190671 0.477260
O O16 0.854679 0.000000 0.357687
O O17 0.442323 0.000000 0.138253
O O18 0.081523 0.000000 0.384391
#
# Coordination Sequence:
#
# PCOD8087744 Si02
#       7
#     8   8   8   8   8   8   8
#     4   9  19  34  53  75 100 133 169 205 245 295
#     4   9  18  35  54  73  99 130 169 210 246 291
#     4  10  19  33  53  77 103 130 162 199 246 299
#     4  10  19  32  51  76 103 130 166 208 249 296
#     4  10  20  33  48  71 103 135 167 205 251 297
#     4   8  16  30  50  75 100 126 159 204 247 285
#     4  10  20  33  50  72 100 133 167 207 253 298
#
# _framework density 19.195923000000001
#
# number of rings (size 3 to 8) (size 9 to 14) (size 15 to 20)
#    0.000    2.571    0.000    3.000    0.000    4.000 
#    0.000    7.143    0.000    0.000    0.000    5.000 
#    0.000    0.000    0.000    0.000    0.000    0.000 
#
# Total GULP energy -347152.095384 kJ/mol
# GULP energy per Si atom -12398.289121 kJ/mol
# Density = 1.915223 g / cm^3
# Si number density = 19.195923 Si / 1000 Ang^3
#
#
#
# Elastic Constant Matrix: (Units=GPa)
#
#
# Indices 1 2 3 4 5 6 
#
# 1 136.8282 21.6511 71.5177 0.0000 -15.9906 0.0000
# 2 21.6511 33.8774 24.9467 0.0000 -1.0798 0.0000
# 3 71.5177 24.9467 154.2240 0.0000 6.6547 0.0000
# 4 0.0000 0.0000 0.0000 21.1679 0.0000 -3.3533
# 5 -15.9906 -1.0798 6.6547 0.0000 23.4400 0.0000
# 6 0.0000 0.0000 0.0000 -3.3533 0.0000 22.7292
#
#
#
# Elastic Compliance Matrix: (Units=1/GPa)
#
#
# Indices 1 2 3 4 5 6 
#
# 1 0.011680 -0.003273 -0.005289 0.000000 0.009319 0.000000
# 2 -0.003273 0.034654 -0.004111 0.000000 0.000531 0.000000
# 3 -0.005289 -0.004111 0.009887 0.000000 -0.006604 0.000000
# 4 0.000000 0.000000 0.000000 0.048372 0.000000 0.007136
# 5 0.009319 0.000531 -0.006604 0.000000 0.050919 0.000000
# 6 0.000000 0.000000 0.000000 0.007136 0.000000 0.045049
#
#
# Mechanical properties :
#
#
# Convention : Reuss Voigt Hill
#
# Bulk Modulus (GPa) = 32.38835 62.35118 47.36976
# Shear Modulus (GPa) = 21.16884 27.25505 24.21195
#
# Velocity S-wave (km/s) = 3.32441 3.77216 3.55534
# Velocity P-wave (km/s) = 5.62537 7.17804 6.44860
#
# Compressibility (1/GPa) = 0.03087530
#
# Stress axis : x y z
#
# Youngs Moduli (GPa) = 85.61814 28.85681 101.14742
#
# Poissons Ratio (x) = 0.09445 0.53496
# Poissons Ratio (y) = 0.28022 0.41578
# Poissons Ratio (z) = 0.45283 0.11862
#
# Static dielectric constant tensor:
#      x y z
#    x 3.657110 0.000000 0.153490 
#    y 0.000000 3.201690 0.000000 
#    z 0.153490 0.000000 3.834820 
# 
# 
# High freq. dielectric constant tensor:
#      x y z
#    x 1.744660 0.000000 0.002400 
#    y 0.000000 1.713650 0.000000 
#    z 0.002400 0.000000 1.756930 
# 
# From -- ./inp_files/281717.got.cif
#   From: 2010.06.25/outbox.cif.g09.slc.cpg/sg12_141_cif.got.tgz:281717.got - 2010.06.28 00:19:55.
