data_PCOD8087923
_publ_section_title
;
Structure prediction by ZEFSAII (Michael W. Deem and Ramdas Pophale) SiO2 
 PCOD8087923
Probable space group: C 2/M
;
_chemical_formula_sum "Si O2"
_cell_formula_units_Z 40
_cell_length_a 18.613607
_cell_length_b 9.115703
_cell_length_c 23.063233
_cell_angle_alpha 90.000000
_cell_angle_beta 147.012198
_cell_angle_gamma 90.000000
_cell_volume 2130.626137
_symmetry_space_group_name_H-M "C 2/M"
_symmetry_group_IT_number 12
_symmetry_cell_setting 'monoclinic'
loop_
_space_group_symop_operation_xyz
x,y,z
-x,y,-z
-x,-y,-z
x,-y,z
1/2+x,1/2+y,z
1/2-x,1/2+y,-z
1/2-x,1/2-y,-z
1/2+x,1/2-y,z
loop_
_atom_site_type_symbol
_atom_site_label
_atom_site_fract_x
_atom_site_fract_y
_atom_site_fract_z
Si Si1 0.436095 0.670519 0.586113
Si Si2 0.112013 0.665291 0.027527
Si Si3 0.188398 0.169503 0.375962
Si Si4 0.794826 0.328905 0.232495
Si Si5 0.927137 0.169170 0.824178
O O1 0.455682 0.500000 0.585756
O O2 0.318357 0.731105 0.466644
O O3 0.404774 0.699471 0.632270
O O4 0.567068 0.756534 0.657458
O O5 0.157933 0.500000 0.044973
O O6 0.053721 0.737121 0.929765
O O7 0.237591 0.756060 0.135180
O O8 0.000000 0.669256 0.000000
O O9 0.106214 0.215331 0.263802
O O10 0.232911 0.000000 0.403153
O O11 0.814298 0.500000 0.233722
O O12 0.699485 0.298025 0.221943
O O13 0.967837 0.000000 0.856590
#
# Coordination Sequence:
#
# PCOD8087923 Si02
#       5
#     8   8   8   8   8
#     4  10  20  34  52  73  99 130 164 203 246 291
#     4   9  17  30  49  74 103 130 158 198 247 292
#     4   9  19  36  54  71  96 131 167 202 243 291
#     4  10  19  32  52  75 100 130 164 201 241 290
#     4   9  18  33  53  75  98 128 166 203 240 287
#
# _framework density 18.773824000000001
#
# number of rings (size 3 to 8) (size 9 to 14) (size 15 to 20)
#    0.000    2.600    0.000    1.800    0.000    5.600 
#    0.000    5.000    0.000    0.000    0.000    0.000 
#    0.000    0.000    0.000    0.000    0.000    0.000 
#
# Total GULP energy -248058.681563 kJ/mol
# GULP energy per Si atom -12402.934078 kJ/mol
# Density = 1.873109 g / cm^3
# Si number density = 18.773824 Si / 1000 Ang^3
#
#
#
# Elastic Constant Matrix: (Units=GPa)
#
#
# Indices 1 2 3 4 5 6 
#
# 1 19.3049 10.3876 5.6613 0.0004 -11.7353 0.0002
# 2 10.3876 87.3296 17.0338 0.0004 -3.3894 0.0002
# 3 5.6613 17.0338 42.7790 0.0006 -21.5832 0.0003
# 4 0.0004 0.0004 0.0006 40.0740 0.0001 2.3883
# 5 -11.7353 -3.3894 -21.5832 0.0001 31.5879 0.0000
# 6 0.0002 0.0002 0.0003 2.3883 0.0000 22.2297
#
#
#
# Elastic Compliance Matrix: (Units=1/GPa)
#
#
# Indices 1 2 3 4 5 6 
#
# 1 0.074678 -0.009769 0.011409 -0.000001 0.034491 -0.000001
# 2 -0.009769 0.013898 -0.008119 0.000000 -0.007685 0.000000
# 3 0.011409 -0.008119 0.040896 -0.000001 0.031310 -0.000001
# 4 -0.000001 0.000000 -0.000001 0.025115 -0.000001 -0.002698
# 5 0.034491 -0.007685 0.031310 -0.000001 0.065040 -0.000001
# 6 -0.000001 0.000000 -0.000001 -0.002698 -0.000001 0.045275
#
#
# Mechanical properties :
#
#
# Convention : Reuss Voigt Hill
#
# Bulk Modulus (GPa) = 8.58267 23.95322 16.26794
# Shear Modulus (GPa) = 15.78790 26.53371 21.16080
#
# Velocity S-wave (km/s) = 2.90306 3.76351 3.36094
# Velocity P-wave (km/s) = 3.97726 5.62778 4.87291
#
# Compressibility (1/GPa) = 0.11651382
#
# Stress axis : x y z
#
# Youngs Moduli (GPa) = 13.39076 71.95197 24.45249
#
# Poissons Ratio (x) = 0.70293 -0.27897
# Poissons Ratio (y) = 0.13082 0.19852
# Poissons Ratio (z) = -0.15277 0.58415
#
# Static dielectric constant tensor:
#      x y z
#    x 3.166300 0.000000 -0.106420 
#    y 0.000000 3.549620 0.000000 
#    z -0.106420 0.000000 3.494740 
# 
# 
# High freq. dielectric constant tensor:
#      x y z
#    x 1.697920 0.000000 -0.004720 
#    y 0.000000 1.737540 0.000000 
#    z -0.004720 0.000000 1.736990 
# 
# From -- ./inp_files/92937.got.cif
#   From: 2010.06.25/outbox.cif.g09.slc.cpg/sg12_47_cif.got.tgz:92937.got - 2010.06.28 00:19:55.
