data_PCOD8087495
_publ_section_title
;
Structure prediction by ZEFSAII (Michael W. Deem and Ramdas Pophale) SiO2 
 PCOD8087495
Probable space group: C 2/M
;
_chemical_formula_sum "Si O2"
_cell_formula_units_Z 56
_cell_length_a 24.405252
_cell_length_b 8.944635
_cell_length_c 18.828673
_cell_angle_alpha 90.000000
_cell_angle_beta 130.712002
_cell_angle_gamma 90.000000
_cell_volume 3115.541445
_symmetry_space_group_name_H-M "C 2/M"
_symmetry_group_IT_number 12
_symmetry_cell_setting 'monoclinic'
loop_
_space_group_symop_operation_xyz
x,y,z
-x,y,-z
-x,-y,-z
x,-y,z
1/2+x,1/2+y,z
1/2-x,1/2+y,-z
1/2-x,1/2-y,-z
1/2+x,1/2-y,z
loop_
_atom_site_type_symbol
_atom_site_label
_atom_site_fract_x
_atom_site_fract_y
_atom_site_fract_z
Si Si1 0.293342 0.324466 0.703618
Si Si2 0.791409 0.822037 0.253401
Si Si3 0.961154 0.825577 0.255196
Si Si4 0.305631 0.831257 0.499716
Si Si5 0.796912 0.170854 0.098288
Si Si6 0.556748 0.177280 0.610397
Si Si7 0.088068 0.675451 0.297101
O O1 0.309713 0.500000 0.728024
O O2 0.279534 0.241142 0.766062
O O3 0.214633 0.295875 0.598780
O O4 0.360019 0.250826 0.717627
O O5 0.777442 0.772627 0.160641
O O6 0.866036 0.749285 0.344220
O O7 0.797942 0.000000 0.267357
O O8 0.881439 0.800721 0.156835
O O9 0.972164 0.743429 0.339803
O O10 0.010812 0.755770 0.234516
O O11 0.978421 0.000000 0.281148
O O12 0.250000 0.750000 0.500000
O O13 0.384773 0.795470 0.597824
O O14 0.287370 0.000000 0.500137
O O15 0.776430 0.000000 0.074317
O O16 0.750000 0.250000 0.000000
O O17 0.500000 0.216528 0.500000
O O18 0.565925 0.000000 0.626002
O O19 0.081047 0.500000 0.273311
#
# Coordination Sequence:
#
# PCOD8087495 Si02
#       7
#     8   8   8   8   8   8   8
#     4  10  19  32  50  74 106 145 184 223 261 307
#     4  10  21  36  53  79 109 138 175 218 266 322
#     4  10  21  36  53  79 109 138 175 218 266 322
#     4   8  16  28  42  63  94 133 180 218 246 284
#     4   9  20  38  60  82 105 130 168 218 269 326
#     4  10  21  35  51  73 104 142 182 222 262 309
#     4  10  19  32  50  74 106 145 184 223 261 307
#
# _framework density 17.974402999999999
#
# number of rings (size 3 to 8) (size 9 to 14) (size 15 to 20)
#    0.000    2.429    0.000    3.000    2.000    5.714 
#    0.000    0.000    0.000    0.857    0.000    6.000 
#    0.000    0.000    0.000    0.000    0.000    0.000 
#
# Total GULP energy -346877.701689 kJ/mol
# GULP energy per Si atom -12388.489346 kJ/mol
# Density = 1.793349 g / cm^3
# Si number density = 17.974403 Si / 1000 Ang^3
#
#
#
# Elastic Constant Matrix: (Units=GPa)
#
#
# Indices 1 2 3 4 5 6 
#
# 1 129.9195 55.2210 35.8641 0.0000 -6.2061 0.0000
# 2 55.2210 97.8887 41.5585 0.0000 -2.9429 0.0000
# 3 35.8641 41.5585 84.0305 0.0000 -5.6434 0.0000
# 4 0.0000 0.0000 0.0000 27.1631 0.0000 0.1834
# 5 -6.2061 -2.9429 -5.6434 0.0000 11.3628 0.0000
# 6 0.0000 0.0000 0.0000 0.1834 0.0000 34.8517
#
#
#
# Elastic Compliance Matrix: (Units=1/GPa)
#
#
# Indices 1 2 3 4 5 6 
#
# 1 0.010506 -0.005085 -0.001730 0.000000 0.003562 0.000000
# 2 -0.005085 0.015392 -0.005546 0.000000 -0.001545 0.000000
# 3 -0.001730 -0.005546 0.015747 0.000000 0.005440 0.000000
# 4 0.000000 0.000000 0.000000 0.036816 0.000000 -0.000194
# 5 0.003562 -0.001545 0.005440 0.000000 0.092254 0.000000
# 6 0.000000 0.000000 0.000000 -0.000194 0.000000 0.028694
#
#
# Mechanical properties :
#
#
# Convention : Reuss Voigt Hill
#
# Bulk Modulus (GPa) = 59.08963 64.12511 61.60737
# Shear Modulus (GPa) = 21.76066 26.62185 24.19126
#
# Velocity S-wave (km/s) = 3.48321 3.85268 3.67259
# Velocity P-wave (km/s) = 7.00876 7.45279 7.23418
#
# Compressibility (1/GPa) = 0.01692344
#
# Stress axis : x y z
#
# Youngs Moduli (GPa) = 95.18207 64.96690 63.50470
#
# Poissons Ratio (x) = 0.33037 0.10985
# Poissons Ratio (y) = 0.48403 0.35219
# Poissons Ratio (z) = 0.16465 0.36030
#
# Static dielectric constant tensor:
#      x y z
#    x 3.287110 0.000000 -0.004870 
#    y 0.000000 3.396990 0.000000 
#    z -0.004870 0.000000 3.255230 
# 
# 
# High freq. dielectric constant tensor:
#      x y z
#    x 1.697440 0.000000 -0.001080 
#    y 0.000000 1.710790 0.000000 
#    z -0.001080 0.000000 1.664770 
# 
# From -- ./inp_files/288434.got.cif
#   From: 2010.06.25/outbox.cif.g09.slc.cpg/sg12_145_cif.got.tgz:288434.got - 2010.06.28 00:19:55.
