data_PCOD8087408
_publ_section_title
;
Structure prediction by ZEFSAII (Michael W. Deem and Ramdas Pophale) SiO2 
 PCOD8087408
Probable space group: C 2/M
;
_chemical_formula_sum "Si O2"
_cell_formula_units_Z 48
_cell_length_a 18.322261
_cell_length_b 9.078845
_cell_length_c 19.032213
_cell_angle_alpha 90.000000
_cell_angle_beta 61.110408
_cell_angle_gamma 90.000000
_cell_volume 2771.922291
_symmetry_space_group_name_H-M "C 2/M"
_symmetry_group_IT_number 12
_symmetry_cell_setting 'monoclinic'
loop_
_space_group_symop_operation_xyz
x,y,z
-x,y,-z
-x,-y,-z
x,-y,z
1/2+x,1/2+y,z
1/2-x,1/2+y,-z
1/2-x,1/2-y,-z
1/2+x,1/2-y,z
loop_
_atom_site_type_symbol
_atom_site_label
_atom_site_fract_x
_atom_site_fract_y
_atom_site_fract_z
Si Si1 0.591353 0.828998 0.163777
Si Si2 0.252008 0.670428 0.925322
Si Si3 0.497109 0.169531 0.656523
Si Si4 0.168967 0.674193 0.506460
Si Si5 0.931054 0.329242 0.982089
Si Si6 0.911990 0.834308 0.578915
O O1 0.674774 0.746830 0.154048
O O2 0.516756 0.802917 0.253937
O O3 0.566026 0.763458 0.098890
O O4 0.614388 0.000000 0.146094
O O5 0.273674 0.500000 0.924641
O O6 0.250000 0.750000 0.000000
O O7 0.158714 0.691666 0.937707
O O8 0.591242 0.215800 0.593212
O O9 0.426780 0.261792 0.647946
O O10 0.482972 0.000000 0.642391
O O11 0.182814 0.500000 0.494859
O O12 0.250000 0.750000 0.500000
O O13 0.153228 0.738559 0.435907
O O14 0.953586 0.500000 0.963620
O O15 0.000000 0.251615 0.000000
O O16 0.000000 0.835388 0.500000
O O17 0.876914 0.000000 0.604230
#
# Coordination Sequence:
#
# PCOD8087408 Si02
#       6
#     8   8   8   8   8   8
#     4   9  17  30  48  68  92 122 155 195 239 282
#     4   9  16  27  45  67  89 117 154 193 231 275
#     4   9  18  32  49  69  94 126 162 200 245 293
#     4  10  19  32  50  71  97 129 163 198 240 292
#     4   8  14  26  45  67  90 119 155 190 225 270
#     4   9  17  30  49  71  92 118 156 198 238 284
#
# _framework density 17.316503000000001
#
# number of rings (size 3 to 8) (size 9 to 14) (size 15 to 20)
#    0.000    3.000    0.000    2.500    0.000    3.333 
#    0.000    1.667    0.000   16.500    0.000    0.000 
#    0.000    0.000    0.000    0.000    0.000    0.000 
#
# Total GULP energy -297400.208707 kJ/mol
# GULP energy per Si atom -12391.675363 kJ/mol
# Density = 1.727709 g / cm^3
# Si number density = 17.316503 Si / 1000 Ang^3
#
#
#
# Elastic Constant Matrix: (Units=GPa)
#
#
# Indices 1 2 3 4 5 6 
#
# 1 133.9197 52.0658 49.1270 0.0000 1.3607 -0.0002
# 2 52.0658 80.4487 29.6954 0.0000 -2.2857 -0.0005
# 3 49.1270 29.6954 83.1822 0.0000 0.7300 0.0000
# 4 0.0000 0.0000 0.0000 20.6728 0.0000 -1.8722
# 5 1.3607 -2.2857 0.7300 0.0000 19.0868 0.0000
# 6 -0.0002 -0.0005 0.0000 -1.8722 0.0000 27.1210
#
#
#
# Elastic Compliance Matrix: (Units=1/GPa)
#
#
# Indices 1 2 3 4 5 6 
#
# 1 0.011417 -0.005692 -0.004700 0.000000 -0.001316 0.000000
# 2 -0.005692 0.017224 -0.002810 0.000000 0.002576 0.000000
# 3 -0.004700 -0.002810 0.015806 0.000000 -0.000606 0.000000
# 4 0.000000 0.000000 0.000000 0.048677 0.000000 0.003360
# 5 -0.001316 0.002576 -0.000606 0.000000 0.052818 0.000000
# 6 0.000000 0.000000 0.000000 0.003360 0.000000 0.037104
#
#
# Mechanical properties :
#
#
# Convention : Reuss Voigt Hill
#
# Bulk Modulus (GPa) = 55.41773 62.14742 58.78257
# Shear Modulus (GPa) = 23.20572 24.48695 23.84634
#
# Velocity S-wave (km/s) = 3.66470 3.76451 3.71494
# Velocity P-wave (km/s) = 7.06958 7.40692 7.24021
#
# Compressibility (1/GPa) = 0.01804477
#
# Stress axis : x y z
#
# Youngs Moduli (GPa) = 87.58513 58.05688 63.26790
#
# Poissons Ratio (x) = 0.33046 0.29733
# Poissons Ratio (y) = 0.49853 0.17778
# Poissons Ratio (z) = 0.41161 0.16314
#
# Static dielectric constant tensor:
#      x y z
#    x 3.484210 0.000000 -0.085810 
#    y 0.000000 3.341350 0.000000 
#    z -0.085810 0.000000 3.071230 
# 
# 
# High freq. dielectric constant tensor:
#      x y z
#    x 1.658460 0.000000 -0.003300 
#    y 0.000000 1.661970 0.000000 
#    z -0.003300 0.000000 1.648550 
# 
# From -- ./inp_files/313221.got.cif
#   From: 2010.06.25/outbox.cif.g09.slc.cpg/sg12_157_cif.got.tgz:313221.got - 2010.06.28 00:19:55.
