data_PCOD8087825
_publ_section_title
;
Structure prediction by ZEFSAII (Michael W. Deem and Ramdas Pophale) SiO2 
 PCOD8087825
Probable space group: C 2/M
;
_chemical_formula_sum "Si O2"
_cell_formula_units_Z 48
_cell_length_a 12.607049
_cell_length_b 22.771240
_cell_length_c 8.939303
_cell_angle_alpha 90.000000
_cell_angle_beta 105.042681
_cell_angle_gamma 90.000000
_cell_volume 2478.339179
_symmetry_space_group_name_H-M "C 2/M"
_symmetry_group_IT_number 12
_symmetry_cell_setting 'monoclinic'
loop_
_space_group_symop_operation_xyz
x,y,z
-x,y,-z
-x,-y,-z
x,-y,z
1/2+x,1/2+y,z
1/2-x,1/2+y,-z
1/2-x,1/2-y,-z
1/2+x,1/2-y,z
loop_
_atom_site_type_symbol
_atom_site_label
_atom_site_fract_x
_atom_site_fract_y
_atom_site_fract_z
Si Si1 0.280491 0.347583 0.426766
Si Si2 0.460164 0.630585 0.729317
Si Si3 0.611476 0.139368 0.615429
Si Si4 0.185282 0.066764 0.800710
Si Si5 0.717210 0.568091 0.150936
Si Si6 0.425544 0.738687 0.329587
O O1 0.389737 0.370526 0.551475
O O2 0.183725 0.334009 0.505839
O O3 0.244094 0.397652 0.295576
O O4 0.310263 0.290490 0.338577
O O5 0.557883 0.584539 0.750353
O O6 0.383731 0.610693 0.839459
O O7 0.512083 0.696783 0.769028
O O8 0.500000 0.114961 0.500000
O O9 0.672121 0.086040 0.720732
O O10 0.595916 0.193623 0.729107
O O11 0.194372 0.000000 0.756045
O O12 0.236900 0.077424 0.983009
O O13 0.689756 0.500000 0.178074
O O14 0.500000 0.747660 0.500000
#
# Coordination Sequence:
#
# PCOD8087825 Si02
#       6
#     8   8   8   8   8   8
#     4   9  18  31  51  78 105 134 173 217 259 312
#     4   9  17  31  54  82 108 133 167 210 262 324
#     4  10  20  35  55  73  98 139 185 224 254 300
#     4  10  19  32  51  77 110 141 170 212 268 318
#     4  10  21  35  52  78 111 143 173 212 263 312
#     4   8  15  30  53  80 103 129 167 215 269 312
#
# _framework density 19.367809000000001
#
# number of rings (size 3 to 8) (size 9 to 14) (size 15 to 20)
#    0.000    2.667    0.000    3.000    0.000    7.000 
#    0.000    4.167    0.000   14.000    0.000    0.000 
#    0.000    0.000    0.000    0.000    0.000    0.000 
#
# Total GULP energy -297397.273091 kJ/mol
# GULP energy per Si atom -12391.553045 kJ/mol
# Density = 1.932373 g / cm^3
# Si number density = 19.367809 Si / 1000 Ang^3
#
#
#
# Elastic Constant Matrix: (Units=GPa)
#
#
# Indices 1 2 3 4 5 6 
#
# 1 75.0441 24.9917 19.9821 0.0000 8.5949 0.0000
# 2 24.9917 91.8283 31.6210 0.0000 -10.1208 0.0000
# 3 19.9821 31.6210 47.8696 0.0000 -2.4496 0.0000
# 4 0.0000 0.0000 0.0000 21.4321 0.0000 -7.1806
# 5 8.5949 -10.1208 -2.4496 0.0000 18.3778 0.0000
# 6 0.0000 0.0000 0.0000 -7.1806 0.0000 19.3236
#
#
#
# Elastic Compliance Matrix: (Units=1/GPa)
#
#
# Indices 1 2 3 4 5 6 
#
# 1 0.017336 -0.004212 -0.005022 0.000000 -0.011097 0.000000
# 2 -0.004212 0.015953 -0.008286 0.000000 0.009651 0.000000
# 3 -0.005022 -0.008286 0.028541 0.000000 0.001590 0.000000
# 4 0.000000 0.000000 0.000000 0.053294 0.000000 0.019804
# 5 -0.011097 0.009651 0.001590 0.000000 0.065130 0.000000
# 6 0.000000 0.000000 0.000000 0.019804 0.000000 0.059109
#
#
# Mechanical properties :
#
#
# Convention : Reuss Voigt Hill
#
# Bulk Modulus (GPa) = 37.32680 40.88129 39.10405
# Shear Modulus (GPa) = 17.64694 21.03649 19.34172
#
# Velocity S-wave (km/s) = 3.02180 3.29927 3.16358
# Velocity P-wave (km/s) = 5.61155 5.97220 5.79468
#
# Compressibility (1/GPa) = 0.02679040
#
# Stress axis : x y z
#
# Youngs Moduli (GPa) = 57.68218 62.68355 35.03677
#
# Poissons Ratio (x) = 0.26401 0.17597
# Poissons Ratio (y) = 0.24295 0.29032
# Poissons Ratio (z) = 0.28970 0.51940
#
# Static dielectric constant tensor:
#      x y z
#    x 3.429700 0.000000 -0.033650 
#    y 0.000000 3.770850 0.000000 
#    z -0.033650 0.000000 3.366590 
# 
# 
# High freq. dielectric constant tensor:
#      x y z
#    x 1.736690 0.000000 0.000300 
#    y 0.000000 1.756650 0.000000 
#    z 0.000300 0.000000 1.726000 
# 
# From -- ./inp_files/50620.got.cif
#   From: 2010.06.25/outbox.cif.g09.slc.cpg/sg12_26_cif.got.tgz:50620.got - 2010.06.28 00:19:55.
