data_PCOD8087028
_publ_section_title
;
Structure prediction by ZEFSAII (Michael W. Deem and Ramdas Pophale) SiO2 
 PCOD8087028
Probable space group: C 2/M
;
_chemical_formula_sum "Si O2"
_cell_formula_units_Z 64
_cell_length_a 24.181744
_cell_length_b 9.056639
_cell_length_c 22.100853
_cell_angle_alpha 90.000000
_cell_angle_beta 46.123283
_cell_angle_gamma 90.000000
_cell_volume 3488.978299
_symmetry_space_group_name_H-M "C 2/M"
_symmetry_group_IT_number 12
_symmetry_cell_setting 'monoclinic'
loop_
_space_group_symop_operation_xyz
x,y,z
-x,y,-z
-x,-y,-z
x,-y,z
1/2+x,1/2+y,z
1/2-x,1/2+y,-z
1/2-x,1/2-y,-z
1/2+x,1/2-y,z
loop_
_atom_site_type_symbol
_atom_site_label
_atom_site_fract_x
_atom_site_fract_y
_atom_site_fract_z
Si Si1 0.872106 0.332864 0.984195
Si Si2 0.586925 0.658879 0.931761
Si Si3 0.450251 0.673475 0.715693
Si Si4 0.865322 0.326712 0.219058
Si Si5 0.272614 0.174045 0.722823
Si Si6 0.053553 0.326124 0.404202
Si Si7 0.001246 0.327656 0.205410
Si Si8 0.776720 0.831890 0.842233
O O1 0.897209 0.500000 0.982293
O O2 0.916756 0.290048 0.888886
O O3 0.896001 0.217489 0.015411
O O4 0.778380 0.320755 0.056296
O O5 0.629926 0.500000 0.885784
O O6 0.601928 0.783453 0.870781
O O7 0.500000 0.618116 0.000000
O O8 0.463047 0.500000 0.703157
O O9 0.476993 0.743657 0.632161
O O10 0.502457 0.738910 0.729329
O O11 0.361842 0.718390 0.796188
O O12 0.851413 0.500000 0.233145
O O13 0.782527 0.244388 0.287315
O O14 0.927377 0.276283 0.222283
O O15 0.359959 0.226088 0.645854
O O16 0.244980 0.230498 0.810696
O O17 0.267206 0.000000 0.722714
O O18 0.049784 0.500000 0.394657
O O19 0.000000 0.277822 0.500000
O O20 0.995839 0.500000 0.224020
O O21 0.778407 0.000000 0.816463
#
# Coordination Sequence:
#
# PCOD8087028 Si02
#       8
#     8   8   8   8   8   8   8   8
#     4  10  19  32  49  68  97 141 189 226 262 310
#     4  11  21  30  44  70 101 133 180 237 278 303
#     4  10  21  36  54  79 109 138 172 218 267 312
#     4  11  21  33  50  72 103 144 184 220 263 313
#     4  10  19  31  52  83 110 133 168 215 265 309
#     4   9  19  38  64  89 111 135 163 201 255 322
#     4  10  22  36  50  70 100 147 194 221 255 310
#     4   9  18  32  50  72 101 139 178 220 269 313
#
# _framework density 18.343478999999999
#
# number of rings (size 3 to 8) (size 9 to 14) (size 15 to 20)
#    0.000    2.000    2.500    1.500    0.000    3.750 
#    0.000    0.000    0.000    0.750    0.000    0.000 
#    0.000    0.000    0.000    0.000    0.000    0.000 
#
# Total GULP energy -396549.718430 kJ/mol
# GULP energy per Si atom -12392.178701 kJ/mol
# Density = 1.830173 g / cm^3
# Si number density = 18.343479 Si / 1000 Ang^3
#
#
#
# Elastic Constant Matrix: (Units=GPa)
#
#
# Indices 1 2 3 4 5 6 
#
# 1 93.0521 41.9134 44.7095 0.0002 11.8791 -0.0007
# 2 41.9134 63.9991 30.8875 0.0005 10.1179 -0.0017
# 3 44.7095 30.8875 100.6603 -0.0008 3.2038 0.0009
# 4 0.0002 0.0005 -0.0008 21.1628 -0.0002 0.6840
# 5 11.8791 10.1179 3.2038 -0.0002 20.7973 0.0004
# 6 -0.0007 -0.0017 0.0009 0.6840 0.0004 30.2034
#
#
#
# Elastic Compliance Matrix: (Units=1/GPa)
#
#
# Indices 1 2 3 4 5 6 
#
# 1 0.017575 -0.008208 -0.005120 0.000000 -0.005257 0.000000
# 2 -0.008208 0.023639 -0.003408 -0.000001 -0.006287 0.000001
# 3 -0.005120 -0.003408 0.013173 0.000001 0.002553 -0.000001
# 4 0.000000 -0.000001 0.000001 0.047287 0.000001 -0.001071
# 5 -0.005257 -0.006287 0.002553 0.000001 0.053751 -0.000001
# 6 0.000000 0.000001 -0.000001 -0.001071 -0.000001 0.033133
#
#
# Mechanical properties :
#
#
# Convention : Reuss Voigt Hill
#
# Bulk Modulus (GPa) = 47.81184 54.74804 51.27994
# Shear Modulus (GPa) = 21.83381 23.77945 22.80663
#
# Velocity S-wave (km/s) = 3.45378 3.60438 3.52989
# Velocity P-wave (km/s) = 6.48276 6.87262 6.68053
#
# Compressibility (1/GPa) = 0.02091532
#
# Stress axis : x y z
#
# Youngs Moduli (GPa) = 56.89939 42.30246 75.91212
#
# Poissons Ratio (x) = 0.34720 0.38869
# Poissons Ratio (y) = 0.46701 0.25871
# Poissons Ratio (z) = 0.29134 0.14417
#
# Static dielectric constant tensor:
#      x y z
#    x 3.484160 0.000000 -0.272740 
#    y 0.000000 3.357570 0.000000 
#    z -0.272740 0.000000 3.218040 
# 
# 
# High freq. dielectric constant tensor:
#      x y z
#    x 1.704620 0.000000 -0.017470 
#    y 0.000000 1.720100 0.000000 
#    z -0.017470 0.000000 1.679080 
# 
# From -- ./inp_files/324207.got.cif
#   From: 2010.06.25/outbox.cif.g09.slc.cpg/sg12_163_cif.got.tgz:324207.got - 2010.06.28 00:19:55.
