data_PCOD8087394
_publ_section_title
;
Structure prediction by ZEFSAII (Michael W. Deem and Ramdas Pophale) SiO2 
 PCOD8087394
Probable space group: C 2/M
;
_chemical_formula_sum "Si O2"
_cell_formula_units_Z 48
_cell_length_a 30.162300
_cell_length_b 8.839101
_cell_length_c 23.223153
_cell_angle_alpha 90.000000
_cell_angle_beta 154.022282
_cell_angle_gamma 90.000000
_cell_volume 2711.997222
_symmetry_space_group_name_H-M "C 2/M"
_symmetry_group_IT_number 12
_symmetry_cell_setting 'monoclinic'
loop_
_space_group_symop_operation_xyz
x,y,z
-x,y,-z
-x,-y,-z
x,-y,z
1/2+x,1/2+y,z
1/2-x,1/2+y,-z
1/2-x,1/2-y,-z
1/2+x,1/2-y,z
loop_
_atom_site_type_symbol
_atom_site_label
_atom_site_fract_x
_atom_site_fract_y
_atom_site_fract_z
Si Si1 0.596309 0.678714 0.575329
Si Si2 0.644908 0.677234 0.397440
Si Si3 0.853657 0.671649 0.784221
Si Si4 0.851907 0.678051 0.481163
Si Si5 0.496914 0.675312 0.121358
Si Si6 0.812596 0.670735 0.866982
O O1 0.500000 0.727608 0.500000
O O2 0.601886 0.500000 0.570612
O O3 0.588082 0.758250 0.503877
O O4 0.697099 0.731353 0.727300
O O5 0.663503 0.500000 0.426137
O O6 0.750000 0.750000 0.500000
O O7 0.604661 0.747443 0.410106
O O8 0.555480 0.713000 0.248287
O O9 0.828645 0.500000 0.735694
O O10 0.766309 0.782314 0.659744
O O11 0.864217 0.679993 0.864798
O O12 0.957207 0.726836 0.877019
O O13 0.866570 0.500000 0.501316
O O14 0.503493 0.500000 0.113401
O O15 0.378777 0.725921 0.987713
O O16 0.812778 0.500000 0.891036
#
# Coordination Sequence:
#
# PCOD8087394 Si02
#       6
#     8   8   8   8   8   8
#     4   9  19  38  62  83 104 134 172 217 269 321
#     4  11  22  35  51  73 105 146 186 219 256 306
#     4  10  19  32  50  71 102 142 179 214 254 309
#     4  11  21  33  52  80 109 138 176 220 265 311
#     4  11  22  32  47  73 105 141 177 215 259 307
#     4   9  19  33  50  75 103 135 172 210 261 318
#
# _framework density 17.699133
#
# number of rings (size 3 to 8) (size 9 to 14) (size 15 to 20)
#    0.000    1.833    1.667    4.500    0.000    7.667 
#    0.000    0.000    0.000    1.000    0.000    0.000 
#    0.000    0.000    0.000    0.000    0.000    0.000 
#
# Total GULP energy -297610.856252 kJ/mol
# GULP energy per Si atom -12400.452344 kJ/mol
# Density = 1.765885 g / cm^3
# Si number density = 17.699133 Si / 1000 Ang^3
#
#
#
# Elastic Constant Matrix: (Units=GPa)
#
#
# Indices 1 2 3 4 5 6 
#
# 1 95.6921 49.3726 66.0834 0.0000 8.1613 0.0000
# 2 49.3726 97.0144 54.3651 0.0000 -5.7351 0.0000
# 3 66.0834 54.3651 121.9527 0.0000 -2.7969 0.0000
# 4 0.0000 0.0000 0.0000 29.0361 0.0000 -2.4852
# 5 8.1613 -5.7351 -2.7969 0.0000 18.8558 0.0000
# 6 0.0000 0.0000 0.0000 -2.4852 0.0000 23.0251
#
#
#
# Elastic Compliance Matrix: (Units=1/GPa)
#
#
# Indices 1 2 3 4 5 6 
#
# 1 0.020828 -0.006455 -0.008690 0.000000 -0.012267 0.000000
# 2 -0.006455 0.015946 -0.003447 0.000000 0.007133 0.000000
# 3 -0.008690 -0.003447 0.014557 0.000000 0.004872 0.000000
# 4 0.000000 0.000000 0.000000 0.034761 0.000000 0.003752
# 5 -0.012267 0.007133 0.004872 0.000000 0.061236 0.000000
# 6 0.000000 0.000000 0.000000 0.003752 0.000000 0.043836
#
#
# Mechanical properties :
#
#
# Convention : Reuss Voigt Hill
#
# Bulk Modulus (GPa) = 70.68670 72.70014 71.69342
# Shear Modulus (GPa) = 21.45322 23.83928 22.64625
#
# Velocity S-wave (km/s) = 3.48531 3.67402 3.58091
# Velocity P-wave (km/s) = 7.49808 7.69172 7.59552
#
# Compressibility (1/GPa) = 0.01414693
#
# Stress axis : x y z
#
# Youngs Moduli (GPa) = 48.01165 62.71012 68.69456
#
# Poissons Ratio (x) = 0.40482 0.59695
# Poissons Ratio (y) = 0.30994 0.23680
# Poissons Ratio (z) = 0.41722 0.21617
#
# Static dielectric constant tensor:
#      x y z
#    x 3.137160 0.000000 -0.098130 
#    y 0.000000 3.295280 0.000000 
#    z -0.098130 0.000000 3.313020 
# 
# 
# High freq. dielectric constant tensor:
#      x y z
#    x 1.653620 0.000000 -0.010880 
#    y 0.000000 1.691600 0.000000 
#    z -0.010880 0.000000 1.683470 
# 
# From -- ./inp_files/236847.got.cif
#   From: 2010.06.25/outbox.cif.g09.slc.cpg/sg12_119_cif.got.tgz:236847.got - 2010.06.28 00:19:55.
