data_PCOD8087158
_publ_section_title
;
Structure prediction by ZEFSAII (Michael W. Deem and Ramdas Pophale) SiO2 
 PCOD8087158
Probable space group: C 2/M
;
_chemical_formula_sum "Si O2"
_cell_formula_units_Z 40
_cell_length_a 8.880898
_cell_length_b 25.965448
_cell_length_c 16.308228
_cell_angle_alpha 90.000000
_cell_angle_beta 147.385335
_cell_angle_gamma 90.000000
_cell_volume 2026.923136
_symmetry_space_group_name_H-M "C 2/M"
_symmetry_group_IT_number 12
_symmetry_cell_setting 'monoclinic'
loop_
_space_group_symop_operation_xyz
x,y,z
-x,y,-z
-x,-y,-z
x,-y,z
1/2+x,1/2+y,z
1/2-x,1/2+y,-z
1/2-x,1/2-y,-z
1/2+x,1/2-y,z
loop_
_atom_site_type_symbol
_atom_site_label
_atom_site_fract_x
_atom_site_fract_y
_atom_site_fract_z
Si Si1 0.964789 0.800862 0.684450
Si Si2 0.851759 0.098979 0.307805
Si Si3 0.643919 0.000000 0.656693
Si Si4 0.193519 0.000000 0.823768
Si Si5 0.383597 0.801832 0.321495
Si Si6 0.936562 0.403337 0.662903
O O1 0.673794 0.802092 0.503059
O O2 0.887701 0.802576 0.744835
O O3 0.169531 0.848467 0.755032
O O4 0.132654 0.748570 0.742831
O O5 0.594293 0.090062 0.252774
O O6 0.132688 0.104933 0.487225
O O7 0.865802 0.050304 0.256017
O O8 0.500000 0.000000 0.500000
O O9 0.570326 0.048844 0.677715
O O10 0.976591 0.000000 0.799052
O O11 0.500000 0.000000 0.000000
O O12 0.370135 0.853355 0.260984
#
# Coordination Sequence:
#
# PCOD8087158 Si02
#       6
#     8   8   4   4   8   8
#     4   9  16  26  44  70 112 144 176 215 274 331
#     4  10  19  34  52  78 110 145 181 228 278 327
#     4  12  21  35  57  81 104 140 187 230 276 325
#     4  12  25  39  55  79 112 149 187 228 277 330
#     4   9  16  25  42  75 109 143 173 221 276 325
#     4  10  19  31  55  81 109 139 183 230 279 327
#
# _framework density 19.734345999999999
#
# number of rings (size 3 to 8) (size 9 to 14) (size 15 to 20)
#    0.000    2.000    2.000    3.000    2.800    6.400 
#    0.000    2.000    0.000    0.000    0.000   12.600 
#    0.000    0.000    0.000    0.000    0.000    0.000 
#
# Total GULP energy -247904.432062 kJ/mol
# GULP energy per Si atom -12395.221603 kJ/mol
# Density = 1.968943 g / cm^3
# Si number density = 19.734346 Si / 1000 Ang^3
#
#
#
# Elastic Constant Matrix: (Units=GPa)
#
#
# Indices 1 2 3 4 5 6 
#
# 1 201.2729 103.9351 14.4884 0.0000 26.0002 0.0000
# 2 103.9351 206.5730 5.0168 0.0000 10.7412 0.0000
# 3 14.4884 5.0168 18.6758 0.0000 10.4336 0.0000
# 4 0.0000 0.0000 0.0000 -2.9642 0.0000 12.6314
# 5 26.0002 10.7412 10.4336 0.0000 13.0339 0.0000
# 6 0.0000 0.0000 0.0000 12.6314 0.0000 43.4653
#
#
#
# Elastic Compliance Matrix: (Units=1/GPa)
#
#
# Indices 1 2 3 4 5 6 
#
# 1 0.008873 -0.003627 0.004178 0.000000 -0.018055 0.000000
# 2 -0.003627 0.006572 0.000058 0.000000 0.001773 0.000000
# 3 0.004178 0.000058 0.099443 -0.000001 -0.087985 0.000000
# 4 0.000000 0.000000 -0.000001 -0.150716 0.000001 0.043799
# 5 -0.018055 0.001773 -0.087985 0.000001 0.181710 0.000000
# 6 0.000000 0.000000 0.000000 0.043799 0.000000 0.010278
#
#
# Mechanical properties :
#
#
# Convention : Reuss Voigt Hill
#
# Bulk Modulus (GPa) = 8.61287 74.82248 41.71768
# Shear Modulus (GPa) = 25.82040 30.91243 28.36642
#
# Velocity S-wave (km/s) = 3.62110 3.96211 3.79544
# Velocity P-wave (km/s) = 4.67516 7.67647 6.35552
#
# Compressibility (1/GPa) = 0.11610527
#
# Stress axis : x y z
#
# Youngs Moduli (GPa) = 112.70273 152.15617 10.05601
#
# Poissons Ratio (x) = 0.55186 -0.04201
# Poissons Ratio (y) = 0.40877 -0.00058
# Poissons Ratio (z) = -0.47082 -0.00883
#
# Static dielectric constant tensor:
#      x y z
#    x 4.026940 0.000000 0.185340 
#    y 0.000000 3.830480 0.000000 
#    z 0.185340 0.000000 2.852290 
# 
# 
# High freq. dielectric constant tensor:
#      x y z
#    x 1.794310 0.000000 0.014820 
#    y 0.000000 1.791480 0.000000 
#    z 0.014820 0.000000 1.681830 
# 
# From -- ./inp_files/122965.got.cif
#   From: 2010.06.25/outbox.cif.g09.slc.cpg/sg12_62_cif.got.tgz:122965.got - 2010.06.28 00:19:55.
