data_PCOD8087413
_publ_section_title
;
Structure prediction by ZEFSAII (Michael W. Deem and Ramdas Pophale) SiO2 
 PCOD8087413
Probable space group: C 2/M
;
_chemical_formula_sum "Si O2"
_cell_formula_units_Z 56
_cell_length_a 21.825347
_cell_length_b 8.888418
_cell_length_c 18.186733
_cell_angle_alpha 90.000000
_cell_angle_beta 120.763702
_cell_angle_gamma 90.000000
_cell_volume 3031.636318
_symmetry_space_group_name_H-M "C 2/M"
_symmetry_group_IT_number 12
_symmetry_cell_setting 'monoclinic'
loop_
_space_group_symop_operation_xyz
x,y,z
-x,y,-z
-x,-y,-z
x,-y,z
1/2+x,1/2+y,z
1/2-x,1/2+y,-z
1/2-x,1/2-y,-z
1/2+x,1/2-y,z
loop_
_atom_site_type_symbol
_atom_site_label
_atom_site_fract_x
_atom_site_fract_y
_atom_site_fract_z
Si Si1 0.311250 0.329974 0.454549
Si Si2 0.832659 0.169345 0.630801
Si Si3 0.670914 0.680322 0.947559
Si Si4 0.045560 0.327783 0.959025
Si Si5 0.567785 0.324035 0.584144
Si Si6 0.539148 0.168915 0.238962
Si Si7 0.080329 0.176161 0.754189
O O1 0.281022 0.500000 0.429779
O O2 0.249456 0.209119 0.409111
O O3 0.352816 0.311773 0.557214
O O4 0.363651 0.290725 0.421498
O O5 0.878674 0.281909 0.708775
O O6 0.845341 0.000000 0.665936
O O7 0.675413 0.500000 0.955646
O O8 0.618158 0.737596 0.981167
O O9 0.638629 0.737007 0.849075
O O10 0.750000 0.750000 0.000000
O O11 0.068770 0.500000 0.989327
O O12 0.987932 0.317758 0.859825
O O13 0.000000 0.260841 0.000000
O O14 0.500000 0.250736 0.500000
O O15 0.551918 0.500000 0.584999
O O16 0.585568 0.253021 0.675440
O O17 0.498115 0.284078 0.266152
O O18 0.530052 0.000000 0.263348
O O19 0.090206 0.000000 0.756228
#
# Coordination Sequence:
#
# PCOD8087413 Si02
#       7
#     8   8   8   8   8   8   8
#     4   9  18  32  50  71  98 133 172 211 247 293
#     4  10  19  32  50  71  99 134 169 208 252 299
#     4  10  20  35  56  80 109 145 180 219 268 324
#     4   9  19  37  58  80 105 134 175 226 272 320
#     4   9  16  29  51  76 100 128 166 208 249 294
#     4  10  19  32  53  77 100 130 166 206 255 310
#     4   9  18  33  53  77 102 132 171 211 251 303
#
# _framework density 18.471872000000001
#
# number of rings (size 3 to 8) (size 9 to 14) (size 15 to 20)
#    0.000    2.571    0.000    2.143    0.000    4.286 
#    2.571    0.714    0.000    1.714    0.000    0.000 
#    0.000    0.000    0.000    0.000    0.000    0.000 
#
# Total GULP energy -347018.478803 kJ/mol
# GULP energy per Si atom -12393.517100 kJ/mol
# Density = 1.842983 g / cm^3
# Si number density = 18.471872 Si / 1000 Ang^3
#
#
#
# Elastic Constant Matrix: (Units=GPa)
#
#
# Indices 1 2 3 4 5 6 
#
# 1 99.7044 30.3611 64.0944 0.0000 -11.8903 0.0000
# 2 30.3611 40.3817 36.1058 0.0000 1.6393 0.0000
# 3 64.0944 36.1058 95.4571 0.0000 0.7088 0.0000
# 4 0.0000 0.0000 0.0000 22.9749 0.0000 3.8352
# 5 -11.8903 1.6393 0.7088 0.0000 32.3018 0.0000
# 6 0.0000 0.0000 0.0000 3.8352 0.0000 22.4611
#
#
#
# Elastic Compliance Matrix: (Units=1/GPa)
#
#
# Indices 1 2 3 4 5 6 
#
# 1 0.019889 -0.004955 -0.011539 0.000000 0.007826 0.000000
# 2 -0.004955 0.038734 -0.011298 0.000000 -0.003542 0.000000
# 3 -0.011539 -0.011298 0.022528 0.000000 -0.004168 0.000000
# 4 0.000000 0.000000 0.000000 0.044803 0.000000 -0.007650
# 5 0.007826 -0.003542 -0.004168 0.000000 0.034110 0.000000
# 6 0.000000 0.000000 0.000000 -0.007650 0.000000 0.045828
#
#
# Mechanical properties :
#
#
# Convention : Reuss Voigt Hill
#
# Bulk Modulus (GPa) = 39.10986 55.18509 47.14748
# Shear Modulus (GPa) = 18.51878 22.54637 20.53258
#
# Velocity S-wave (km/s) = 3.16973 3.49747 3.33762
# Velocity P-wave (km/s) = 5.88344 6.80072 6.35864
#
# Compressibility (1/GPa) = 0.02556900
#
# Stress axis : x y z
#
# Youngs Moduli (GPa) = 50.27858 25.81709 44.38982
#
# Poissons Ratio (x) = 0.12791 0.51220
# Poissons Ratio (y) = 0.24911 0.50150
# Poissons Ratio (z) = 0.58015 0.29167
#
# Static dielectric constant tensor:
#      x y z
#    x 3.292960 0.000000 -0.110570 
#    y 0.000000 3.274820 0.000000 
#    z -0.110570 0.000000 3.631660 
# 
# 
# High freq. dielectric constant tensor:
#      x y z
#    x 1.711910 0.000000 0.001770 
#    y 0.000000 1.699570 0.000000 
#    z 0.001770 0.000000 1.718370 
# 
# From -- ./inp_files/281662.got.cif
#   From: 2010.06.25/outbox.cif.g09.slc.cpg/sg12_141_cif.got.tgz:281662.got - 2010.06.28 00:19:55.
