data_PCOD8087666
_publ_section_title
;
Structure prediction by ZEFSAII (Michael W. Deem and Ramdas Pophale) SiO2 
 PCOD8087666
Probable space group: C 2/M
;
_chemical_formula_sum "Si O2"
_cell_formula_units_Z 56
_cell_length_a 28.522397
_cell_length_b 18.729351
_cell_length_c 7.868089
_cell_angle_alpha 90.000000
_cell_angle_beta 134.787864
_cell_angle_gamma 90.000000
_cell_volume 2983.080954
_symmetry_space_group_name_H-M "C 2/M"
_symmetry_group_IT_number 12
_symmetry_cell_setting 'monoclinic'
loop_
_space_group_symop_operation_xyz
x,y,z
-x,y,-z
-x,-y,-z
x,-y,z
1/2+x,1/2+y,z
1/2-x,1/2+y,-z
1/2-x,1/2-y,-z
1/2+x,1/2-y,z
loop_
_atom_site_type_symbol
_atom_site_label
_atom_site_fract_x
_atom_site_fract_y
_atom_site_fract_z
Si Si1 0.934767 0.923166 0.718327
Si Si2 0.134566 0.415748 0.028816
Si Si3 0.776851 0.584430 0.438903
Si Si4 0.629700 0.915461 0.627237
Si Si5 0.003118 0.661118 0.708994
Si Si6 0.989839 0.817838 0.282720
Si Si7 0.130311 0.082883 0.117400
O O1 0.872475 0.910821 0.683509
O O2 0.944100 0.860131 0.607602
O O3 0.927413 0.000000 0.605915
O O4 0.000000 0.923244 0.000000
O O5 0.129369 0.500000 0.025835
O O6 0.189629 0.386213 0.301563
O O7 0.150062 0.392665 0.872496
O O8 0.065678 0.385546 0.923123
O O9 0.776119 0.500000 0.448728
O O10 0.813189 0.608824 0.358433
O O11 0.701274 0.611466 0.237277
O O12 0.563807 0.875511 0.394680
O O13 0.616811 0.000000 0.585612
O O14 0.000000 0.662535 0.500000
O O15 0.012862 0.740528 0.816117
O O16 0.000000 0.797640 0.500000
O O17 0.924353 0.865191 0.100377
O O18 0.116950 0.000000 0.029587
#
# Coordination Sequence:
#
# PCOD8087666 Si02
#       7
#     8   8   8   8   8   8   8
#     4   8  15  30  50  68  91 124 160 205 253 292
#     4   9  17  32  53  75 103 137 171 207 253 301
#     4   9  18  33  52  77 105 131 167 212 252 302
#     4   9  17  32  54  78 104 134 169 209 253 299
#     4   9  18  32  51  73 105 134 165 211 257 291
#     4  10  19  32  51  74 103 129 167 214 254 297
#     4   9  18  35  53  71 102 133 162 210 258 299
#
# _framework density 18.772538000000001
#
# number of rings (size 3 to 8) (size 9 to 14) (size 15 to 20)
#    0.000    3.000    0.000    1.714    0.000    3.429 
#   10.286    2.857    0.000    2.571    0.000    0.000 
#    0.000    0.000    0.000    0.000    0.000    0.000 
#
# Total GULP energy -346903.954104 kJ/mol
# GULP energy per Si atom -12389.426932 kJ/mol
# Density = 1.872981 g / cm^3
# Si number density = 18.772538 Si / 1000 Ang^3
#
#
#
# Elastic Constant Matrix: (Units=GPa)
#
#
# Indices 1 2 3 4 5 6 
#
# 1 130.9874 34.8455 39.0540 0.0000 19.2617 0.0000
# 2 34.8455 57.7607 25.2516 0.0000 6.4504 0.0000
# 3 39.0540 25.2516 64.8256 0.0000 8.5864 0.0000
# 4 0.0000 0.0000 0.0000 7.2733 0.0000 -4.9493
# 5 19.2617 6.4504 8.5864 0.0000 28.8491 0.0000
# 6 0.0000 0.0000 0.0000 -4.9493 0.0000 7.0289
#
#
#
# Elastic Compliance Matrix: (Units=1/GPa)
#
#
# Indices 1 2 3 4 5 6 
#
# 1 0.010701 -0.004061 -0.004205 0.000000 -0.004986 0.000000
# 2 -0.004061 0.022560 -0.006280 0.000000 -0.000464 0.000000
# 3 -0.004205 -0.006280 0.020662 0.000000 -0.001938 0.000000
# 4 0.000000 0.000000 0.000000 0.263969 0.000000 0.185871
# 5 -0.004986 -0.000464 -0.001938 0.000000 0.038672 0.000000
# 6 0.000000 0.000000 0.000000 0.185871 0.000000 0.273148
#
#
# Mechanical properties :
#
#
# Convention : Reuss Voigt Hill
#
# Bulk Modulus (GPa) = 40.27029 50.20843 45.23936
# Shear Modulus (GPa) = 7.49534 18.92511 13.21022
#
# Velocity S-wave (km/s) = 2.00035 3.17855 2.65561
# Velocity P-wave (km/s) = 5.18010 6.34623 5.79258
#
# Compressibility (1/GPa) = 0.02483220
#
# Stress axis : x y z
#
# Youngs Moduli (GPa) = 93.44568 44.32659 48.39772
#
# Poissons Ratio (x) = 0.18000 0.20351
# Poissons Ratio (y) = 0.37947 0.30393
# Poissons Ratio (z) = 0.39292 0.27837
#
# Static dielectric constant tensor:
#      x y z
#    x 3.824360 0.000000 0.086050 
#    y 0.000000 3.462300 0.000000 
#    z 0.086050 0.000000 3.303710 
# 
# 
# High freq. dielectric constant tensor:
#      x y z
#    x 1.733830 0.000000 0.000550 
#    y 0.000000 1.712880 0.000000 
#    z 0.000550 0.000000 1.698860 
# 
# From -- ./inp_files/112638.got.cif
#   From: 2010.06.25/outbox.cif.g09.slc.cpg/sg12_57_cif.got.tgz:112638.got - 2010.06.28 00:19:55.
