data_PCOD8087292
_publ_section_title
;
Structure prediction by ZEFSAII (Michael W. Deem and Ramdas Pophale) SiO2 
 PCOD8087292
Probable space group: C 2/M
;
_chemical_formula_sum "Si O2"
_cell_formula_units_Z 64
_cell_length_a 9.559481
_cell_length_b 26.494140
_cell_length_c 19.886490
_cell_angle_alpha 90.000000
_cell_angle_beta 133.369805
_cell_angle_gamma 90.000000
_cell_volume 3661.329819
_symmetry_space_group_name_H-M "C 2/M"
_symmetry_group_IT_number 12
_symmetry_cell_setting 'monoclinic'
loop_
_space_group_symop_operation_xyz
x,y,z
-x,y,-z
-x,-y,-z
x,-y,z
1/2+x,1/2+y,z
1/2-x,1/2+y,-z
1/2-x,1/2-y,-z
1/2+x,1/2-y,z
loop_
_atom_site_type_symbol
_atom_site_label
_atom_site_fract_x
_atom_site_fract_y
_atom_site_fract_z
Si Si1 0.692444 0.711518 0.817757
Si Si2 0.069158 0.347086 0.206285
Si Si3 0.317722 0.442602 0.103215
Si Si4 0.870431 0.280849 0.652512
Si Si5 0.822639 0.809227 0.900939
Si Si6 0.994597 0.557323 0.107721
Si Si7 0.900673 0.854102 0.789520
Si Si8 0.913218 0.693721 0.404067
O O1 0.558777 0.748817 0.731249
O O2 0.856001 0.749059 0.900705
O O3 0.577455 0.684911 0.839868
O O4 0.774821 0.668368 0.797498
O O5 0.874627 0.316882 0.123362
O O6 0.027370 0.406877 0.183617
O O7 0.143492 0.331126 0.304993
O O8 0.388387 0.500000 0.119694
O O9 0.511223 0.410161 0.178973
O O10 0.176861 0.436724 0.119582
O O11 0.199587 0.426995 0.996838
O O12 0.681919 0.247007 0.603736
O O13 0.906191 0.297377 0.587049
O O14 0.795556 0.841408 0.824039
O O15 0.000000 0.832136 0.000000
O O16 0.977198 0.500000 0.128199
O O17 0.745382 0.845068 0.678668
O O18 0.000000 0.668194 0.500000
#
# Coordination Sequence:
#
# PCOD8087292 Si02
#       8
#     8   8   8   8   8   8   8   8
#     4  10  19  32  49  69 101 140 177 206 242 300
#     4  11  18  33  52  68 104 140 172 211 255 302
#     4   9  18  33  53  75 101 133 180 227 259 301
#     4  10  19  35  51  76 106 138 171 209 254 316
#     4  11  22  31  44  71 107 142 171 206 249 307
#     4   9  18  32  51  78 102 133 181 224 257 300
#     4  11  20  35  52  73 104 136 177 213 261 311
#     4  11  21  35  56  78 107 140 175 219 261 309
#
# _framework density 17.479987000000001
#
# number of rings (size 3 to 8) (size 9 to 14) (size 15 to 20)
#    0.000    1.750    5.000    3.375    0.000    3.000 
#    0.000    0.625    0.000    2.625    0.000    0.000 
#    0.000    2.500    0.000    0.000    0.000    0.000 
#
# Total GULP energy -396586.927047 kJ/mol
# GULP energy per Si atom -12393.341470 kJ/mol
# Density = 1.744020 g / cm^3
# Si number density = 17.479987 Si / 1000 Ang^3
#
#
#
# Elastic Constant Matrix: (Units=GPa)
#
#
# Indices 1 2 3 4 5 6 
#
# 1 59.3166 23.0324 18.0199 0.0000 -3.3297 0.0000
# 2 23.0324 98.5554 39.6557 0.0000 -6.4843 0.0000
# 3 18.0199 39.6557 80.4007 0.0000 -6.1080 0.0000
# 4 0.0000 0.0000 0.0000 18.7277 0.0000 0.3771
# 5 -3.3297 -6.4843 -6.1080 0.0000 18.6685 0.0000
# 6 0.0000 0.0000 0.0000 0.3771 0.0000 20.3590
#
#
#
# Elastic Compliance Matrix: (Units=1/GPa)
#
#
# Indices 1 2 3 4 5 6 
#
# 1 0.018995 -0.003339 -0.002503 0.000000 0.001409 0.000000
# 2 -0.003339 0.013353 -0.005671 0.000000 0.002187 0.000000
# 3 -0.002503 -0.005671 0.016010 0.000000 0.002822 0.000000
# 4 0.000000 0.000000 0.000000 0.053417 0.000000 -0.000989
# 5 0.001409 0.002187 0.002822 0.000000 0.055500 0.000000
# 6 0.000000 0.000000 0.000000 -0.000989 0.000000 0.049137
#
#
# Mechanical properties :
#
#
# Convention : Reuss Voigt Hill
#
# Bulk Modulus (GPa) = 39.47822 44.40987 41.94404
# Shear Modulus (GPa) = 21.01874 22.05535 21.53705
#
# Velocity S-wave (km/s) = 3.47139 3.55596 3.51393
# Velocity P-wave (km/s) = 6.22103 6.50547 6.36484
#
# Compressibility (1/GPa) = 0.02533043
#
# Stress axis : x y z
#
# Youngs Moduli (GPa) = 52.64589 74.89050 62.45932
#
# Poissons Ratio (x) = 0.25007 0.15635
# Poissons Ratio (y) = 0.17579 0.35423
# Poissons Ratio (z) = 0.13178 0.42474
#
# Static dielectric constant tensor:
#      x y z
#    x 3.272140 0.000000 -0.012490 
#    y 0.000000 3.189710 0.000000 
#    z -0.012490 0.000000 3.085320 
# 
# 
# High freq. dielectric constant tensor:
#      x y z
#    x 1.684030 0.000000 0.001990 
#    y 0.000000 1.650450 0.000000 
#    z 0.001990 0.000000 1.646750 
# 
# From -- ./inp_files/302667.got.cif
#   From: 2010.06.25/outbox.cif.g09.slc.cpg/sg12_152_cif.got.tgz:302667.got - 2010.06.28 00:19:55.
