data_PCOD8087216
_publ_section_title
;
Structure prediction by ZEFSAII (Michael W. Deem and Ramdas Pophale) SiO2 
 PCOD8087216
Probable space group: C 2/M
;
_chemical_formula_sum "Si O2"
_cell_formula_units_Z 64
_cell_length_a 28.151459
_cell_length_b 9.115445
_cell_length_c 21.007709
_cell_angle_alpha 90.000000
_cell_angle_beta 132.516954
_cell_angle_gamma 90.000000
_cell_volume 3973.475762
_symmetry_space_group_name_H-M "C 2/M"
_symmetry_group_IT_number 12
_symmetry_cell_setting 'monoclinic'
loop_
_space_group_symop_operation_xyz
x,y,z
-x,y,-z
-x,-y,-z
x,-y,z
1/2+x,1/2+y,z
1/2-x,1/2+y,-z
1/2-x,1/2-y,-z
1/2+x,1/2-y,z
loop_
_atom_site_type_symbol
_atom_site_label
_atom_site_fract_x
_atom_site_fract_y
_atom_site_fract_z
Si Si1 0.997201 0.169709 0.099688
Si Si2 0.895625 0.829356 0.901469
Si Si3 0.699834 0.172056 0.999691
Si Si4 0.442102 0.173100 0.163699
Si Si5 0.442643 0.665401 0.498132
Si Si6 0.857755 0.672106 0.327175
Si Si7 0.029105 0.328984 0.667666
Si Si8 0.272460 0.172602 0.829991
O O1 0.993878 0.259869 0.161972
O O2 0.066066 0.199742 0.129327
O O3 0.989257 0.000000 0.108845
O O4 0.940234 0.219877 0.000815
O O5 0.832111 0.730215 0.842272
O O6 0.876974 0.000000 0.890796
O O7 0.628930 0.231183 0.918263
O O8 0.704766 0.000000 0.991773
O O9 0.750000 0.250000 0.000000
O O10 0.715424 0.214189 0.085963
O O11 0.459218 0.225042 0.250110
O O12 0.445346 0.000000 0.160462
O O13 0.500000 0.666140 0.500000
O O14 0.419584 0.500000 0.491921
O O15 0.383606 0.758633 0.416334
O O16 0.467808 0.740345 0.585576
O O17 0.847960 0.500000 0.328652
O O18 0.906507 0.705722 0.313708
O O19 0.790820 0.746396 0.250416
O O20 0.012190 0.500000 0.648335
O O21 0.264573 0.000000 0.812546
#
# Coordination Sequence:
#
# PCOD8087216 Si02
#       8
#     8   8   8   8   8   8   8   8
#     4   9  18  32  50  70  91 120 160 203 243 286
#     4   9  18  33  50  68  92 122 159 201 244 289
#     4  10  21  33  44  63  94 131 166 197 229 273
#     4  10  19  32  47  68  97 127 161 199 238 281
#     4   9  17  30  48  70  96 122 156 203 245 278
#     4  10  19  32  50  69  95 131 165 196 237 285
#     4   9  18  31  48  69  96 130 165 196 233 286
#     4  11  21  32  47  70  97 125 162 202 240 281
#
# _framework density 16.106805000000001
#
# number of rings (size 3 to 8) (size 9 to 14) (size 15 to 20)
#    0.000    2.375    1.250    2.625    0.000    5.500 
#    0.000    1.250    0.000    0.000    0.000    0.875 
#    0.000    0.000    0.000    0.000    0.000    0.000 
#
# Total GULP energy -396855.364081 kJ/mol
# GULP energy per Si atom -12401.730128 kJ/mol
# Density = 1.607014 g / cm^3
# Si number density = 16.106805 Si / 1000 Ang^3
#
#
#
# Elastic Constant Matrix: (Units=GPa)
#
#
# Indices 1 2 3 4 5 6 
#
# 1 87.6348 46.0245 56.1303 0.0000 -1.8043 0.0000
# 2 46.0245 73.6219 62.0178 0.0000 5.4572 0.0000
# 3 56.1303 62.0178 134.8879 0.0000 1.7921 0.0000
# 4 0.0000 0.0000 0.0000 28.5312 0.0000 0.3194
# 5 -1.8043 5.4572 1.7921 0.0000 7.9331 0.0000
# 6 0.0000 0.0000 0.0000 0.3194 0.0000 28.7709
#
#
#
# Elastic Compliance Matrix: (Units=1/GPa)
#
#
# Indices 1 2 3 4 5 6 
#
# 1 0.019107 -0.009785 -0.003610 0.000000 0.011892 0.000000
# 2 -0.009785 0.028600 -0.008813 0.000000 -0.019908 0.000000
# 3 -0.003610 -0.008813 0.012937 0.000000 0.002319 0.000000
# 4 0.000000 0.000000 0.000000 0.035054 0.000000 -0.000389
# 5 0.011892 -0.019908 0.002319 0.000000 0.141930 0.000000
# 6 0.000000 0.000000 0.000000 -0.000389 0.000000 0.034762
#
#
# Mechanical properties :
#
#
# Convention : Reuss Voigt Hill
#
# Bulk Modulus (GPa) = 61.62444 69.38775 65.50610
# Shear Modulus (GPa) = 15.51760 21.84517 18.68138
#
# Velocity S-wave (km/s) = 3.10727 3.68675 3.40934
# Velocity P-wave (km/s) = 7.15656 7.82919 7.50042
#
# Compressibility (1/GPa) = 0.01622733
#
# Stress axis : x y z
#
# Youngs Moduli (GPa) = 52.33656 34.96537 77.29825
#
# Poissons Ratio (x) = 0.34215 0.27904
# Poissons Ratio (y) = 0.51213 0.68123
# Poissons Ratio (z) = 0.18893 0.30815
#
# Static dielectric constant tensor:
#      x y z
#    x 2.889360 0.000000 -0.025660 
#    y 0.000000 3.077600 0.000000 
#    z -0.025660 0.000000 3.079180 
# 
# 
# High freq. dielectric constant tensor:
#      x y z
#    x 1.597980 0.000000 -0.000070 
#    y 0.000000 1.625110 0.000000 
#    z -0.000070 0.000000 1.611260 
# 
# From -- ./inp_files/326829.got.cif
#   From: 2010.06.25/outbox.cif.g09.slc.cpg/sg12_164_cif.got.tgz:326829.got - 2010.06.28 00:19:55.
