data_PCOD8087948
_publ_section_title
;
Structure prediction by ZEFSAII (Michael W. Deem and Ramdas Pophale) SiO2 
 PCOD8087948
Probable space group: C 2/M
;
_chemical_formula_sum "Si O2"
_cell_formula_units_Z 56
_cell_length_a 23.293399
_cell_length_b 10.261918
_cell_length_c 13.516237
_cell_angle_alpha 90.000000
_cell_angle_beta 75.499870
_cell_angle_gamma 90.000000
_cell_volume 3127.940914
_symmetry_space_group_name_H-M "C 2/M"
_symmetry_group_IT_number 12
_symmetry_cell_setting 'monoclinic'
loop_
_space_group_symop_operation_xyz
x,y,z
-x,y,-z
-x,-y,-z
x,-y,z
1/2+x,1/2+y,z
1/2-x,1/2+y,-z
1/2-x,1/2-y,-z
1/2+x,1/2-y,z
loop_
_atom_site_type_symbol
_atom_site_label
_atom_site_fract_x
_atom_site_fract_y
_atom_site_fract_z
Si Si1 0.679992 0.724223 0.146102
Si Si2 0.131583 0.349390 0.454155
Si Si3 0.843428 0.350324 0.205790
Si Si4 0.931521 0.649245 0.724128
Si Si5 0.699778 0.642658 0.923180
Si Si6 0.437246 0.153417 0.325236
Si Si7 0.717649 0.357185 0.337311
O O1 0.614342 0.783050 0.182017
O O2 0.729790 0.837349 0.120931
O O3 0.692938 0.636178 0.236039
O O4 0.683354 0.639624 0.045757
O O5 0.152448 0.500000 0.457674
O O6 0.087437 0.335068 0.381280
O O7 0.097775 0.293009 0.564231
O O8 0.189142 0.258896 0.413253
O O9 0.846209 0.500000 0.166379
O O10 0.838148 0.254715 0.114533
O O11 0.902508 0.311735 0.239922
O O12 0.788178 0.332021 0.304212
O O13 0.933929 0.500000 0.755323
O O14 0.996675 0.713939 0.708988
O O15 0.684294 0.500000 0.886039
O O16 0.442542 0.000000 0.338863
O O17 0.704597 0.500000 0.390217
#
# Coordination Sequence:
#
# PCOD8087948 Si02
#       7
#     8   8   8   8   8   8   8
#     4   9  18  30  50  74  97 120 152 194 243 286
#     4   9  17  29  49  75  96 119 157 201 240 278
#     4   9  19  33  48  68  96 130 163 194 232 281
#     4   9  16  28  49  75  97 119 155 201 239 276
#     4  10  19  32  52  75  98 124 155 195 241 285
#     4   9  17  31  49  68  95 129 161 195 236 278
#     4   9  17  30  47  69  98 126 153 189 235 285
#
# _framework density 17.903151000000001
#
# number of rings (size 3 to 8) (size 9 to 14) (size 15 to 20)
#    0.000    2.857    0.000    1.286    0.000    9.714 
#    0.000    1.429    0.000   15.429    0.000    0.000 
#    0.000    0.000    0.000    0.000    0.000    0.000 
#
# Total GULP energy -347100.808522 kJ/mol
# GULP energy per Si atom -12396.457447 kJ/mol
# Density = 1.786240 g / cm^3
# Si number density = 17.903151 Si / 1000 Ang^3
#
#
#
# Elastic Constant Matrix: (Units=GPa)
#
#
# Indices 1 2 3 4 5 6 
#
# 1 74.4919 24.8958 16.8075 0.0000 -3.9301 0.0000
# 2 24.8958 78.9649 20.9873 0.0000 -0.8479 0.0000
# 3 16.8075 20.9873 61.1393 0.0000 -9.1414 0.0000
# 4 0.0000 0.0000 0.0000 15.4906 0.0000 -1.2593
# 5 -3.9301 -0.8479 -9.1414 0.0000 17.8420 0.0000
# 6 0.0000 0.0000 0.0000 -1.2593 0.0000 14.7654
#
#
#
# Elastic Compliance Matrix: (Units=1/GPa)
#
#
# Indices 1 2 3 4 5 6 
#
# 1 0.015498 -0.004192 -0.002535 0.000000 0.001916 0.000000
# 2 -0.004192 0.015131 -0.004410 0.000000 -0.002464 0.000000
# 3 -0.002535 -0.004410 0.019983 0.000000 0.009470 0.000000
# 4 0.000000 0.000000 0.000000 0.065006 0.000000 0.005544
# 5 0.001916 -0.002464 0.009470 0.000000 0.061204 0.000000
# 6 0.000000 0.000000 0.000000 0.005544 0.000000 0.068199
#
#
# Mechanical properties :
#
#
# Convention : Reuss Voigt Hill
#
# Bulk Modulus (GPa) = 35.28830 37.77525 36.53177
# Shear Modulus (GPa) = 18.06739 19.74664 18.90702
#
# Velocity S-wave (km/s) = 3.18020 3.32470 3.25325
# Velocity P-wave (km/s) = 5.76527 5.99031 5.87886
#
# Compressibility (1/GPa) = 0.02833800
#
# Stress axis : x y z
#
# Youngs Moduli (GPa) = 64.52317 66.08904 50.04298
#
# Poissons Ratio (x) = 0.27704 0.12687
# Poissons Ratio (y) = 0.27047 0.22069
# Poissons Ratio (z) = 0.16358 0.29146
#
# Static dielectric constant tensor:
#      x y z
#    x 3.375670 0.000000 -0.121600 
#    y 0.000000 3.120570 0.000000 
#    z -0.121600 0.000000 3.187150 
# 
# 
# High freq. dielectric constant tensor:
#      x y z
#    x 1.684200 0.000000 -0.002690 
#    y 0.000000 1.670220 0.000000 
#    z -0.002690 0.000000 1.682710 
# 
# From -- ./inp_files/173875.got.cif
#   From: 2010.06.25/outbox.cif.g09.slc.cpg/sg12_87_cif.got.tgz:173875.got - 2010.06.28 00:19:55.
