data_PCOD8087707
_publ_section_title
;
Structure prediction by ZEFSAII (Michael W. Deem and Ramdas Pophale) SiO2 
 PCOD8087707
Probable space group: C 2/M
;
_chemical_formula_sum "Si O2"
_cell_formula_units_Z 56
_cell_length_a 29.609740
_cell_length_b 9.022597
_cell_length_c 20.510505
_cell_angle_alpha 90.000000
_cell_angle_beta 147.342277
_cell_angle_gamma 90.000000
_cell_volume 2956.854385
_symmetry_space_group_name_H-M "C 2/M"
_symmetry_group_IT_number 12
_symmetry_cell_setting 'monoclinic'
loop_
_space_group_symop_operation_xyz
x,y,z
-x,y,-z
-x,-y,-z
x,-y,z
1/2+x,1/2+y,z
1/2-x,1/2+y,-z
1/2-x,1/2-y,-z
1/2+x,1/2-y,z
loop_
_atom_site_type_symbol
_atom_site_label
_atom_site_fract_x
_atom_site_fract_y
_atom_site_fract_z
Si Si1 0.617303 0.172518 0.570921
Si Si2 0.548592 0.171852 0.711402
Si Si3 0.835873 0.824948 0.242727
Si Si4 0.155746 0.674180 0.068712
Si Si5 0.175099 0.326348 0.371227
Si Si6 0.995815 0.323163 0.198757
Si Si7 0.275000 0.826611 0.712158
O O1 0.529561 0.200778 0.430045
O O2 0.614164 0.254354 0.636189
O O3 0.688613 0.237026 0.610244
O O4 0.634484 0.000000 0.603618
O O5 0.627955 0.262132 0.780809
O O6 0.526986 0.232565 0.756808
O O7 0.573272 0.000000 0.744072
O O8 0.738503 0.778437 0.129256
O O9 0.847590 0.000000 0.259970
O O10 0.145174 0.500000 0.052528
O O11 0.164557 0.724600 0.154888
O O12 0.073265 0.744274 0.935151
O O13 0.182397 0.500000 0.393452
O O14 0.250000 0.250000 0.500000
O O15 0.179102 0.290247 0.299359
O O16 0.087044 0.261757 0.289924
O O17 0.997776 0.500000 0.198502
O O18 0.253218 0.000000 0.692941
#
# Coordination Sequence:
#
# PCOD8087707 Si02
#       7
#     8   8   8   8   8   8   8
#     4  10  19  32  51  75 103 134 168 204 246 301
#     4  10  20  32  48  72 100 133 172 208 246 297
#     4  10  20  33  51  75 101 130 166 210 256 297
#     4   8  16  32  51  73 100 128 165 210 250 293
#     4  10  20  34  54  79 105 134 167 204 249 298
#     4   9  18  33  52  73 100 134 170 207 246 295
#     4   9  18  32  52  78 104 130 164 209 255 294
#
# _framework density 18.939046999999999
#
# number of rings (size 3 to 8) (size 9 to 14) (size 15 to 20)
#    0.000    2.571    0.000    3.000    0.000    5.714 
#    0.000    3.571    0.000    7.714    0.000    5.000 
#    0.000    0.000    0.000    0.000    0.000    0.000 
#
# Total GULP energy -347185.882416 kJ/mol
# GULP energy per Si atom -12399.495801 kJ/mol
# Density = 1.889594 g / cm^3
# Si number density = 18.939047 Si / 1000 Ang^3
#
#
#
# Elastic Constant Matrix: (Units=GPa)
#
#
# Indices 1 2 3 4 5 6 
#
# 1 173.8106 41.6546 81.0140 0.0000 3.7193 0.0000
# 2 41.6546 42.1606 42.5516 0.0000 0.5087 0.0000
# 3 81.0140 42.5516 125.2778 0.0000 11.5153 0.0000
# 4 0.0000 0.0000 0.0000 18.7222 0.0000 1.6488
# 5 3.7193 0.5087 11.5153 0.0000 17.1482 0.0000
# 6 0.0000 0.0000 0.0000 1.6488 0.0000 28.8887
#
#
#
# Elastic Compliance Matrix: (Units=1/GPa)
#
#
# Indices 1 2 3 4 5 6 
#
# 1 0.008775 -0.004341 -0.004303 0.000000 0.001115 0.000000
# 2 -0.004341 0.039200 -0.011177 0.000000 0.007284 0.000000
# 3 -0.004303 -0.011177 0.015395 0.000000 -0.009073 0.000000
# 4 0.000000 0.000000 0.000000 0.053682 0.000000 -0.003064
# 5 0.001115 0.007284 -0.009073 0.000000 0.063950 0.000000
# 6 0.000000 0.000000 0.000000 -0.003064 0.000000 0.034790
#
#
# Mechanical properties :
#
#
# Convention : Reuss Voigt Hill
#
# Bulk Modulus (GPa) = 42.14196 74.63215 58.38706
# Shear Modulus (GPa) = 18.98643 24.68708 21.83675
#
# Velocity S-wave (km/s) = 3.16967 3.61432 3.39927
# Velocity P-wave (km/s) = 5.97456 7.54386 6.80460
#
# Compressibility (1/GPa) = 0.02372932
#
# Stress axis : x y z
#
# Youngs Moduli (GPa) = 113.95432 25.50991 64.95462
#
# Poissons Ratio (x) = 0.11073 0.27950
# Poissons Ratio (y) = 0.49464 0.72602
# Poissons Ratio (z) = 0.49035 0.28513
#
# Static dielectric constant tensor:
#      x y z
#    x 3.737240 0.000000 -0.018600 
#    y 0.000000 3.199500 0.000000 
#    z -0.018600 0.000000 3.658570 
# 
# 
# High freq. dielectric constant tensor:
#      x y z
#    x 1.747090 0.000000 -0.001000 
#    y 0.000000 1.703010 0.000000 
#    z -0.001000 0.000000 1.736610 
# 
# From -- ./inp_files/329634.got.cif
#   From: 2010.06.25/outbox.cif.g09.slc.cpg/sg12_165_cif.got.tgz:329634.got - 2010.06.28 00:19:55.
