data_PCOD8087280
_publ_section_title
;
Structure prediction by ZEFSAII (Michael W. Deem and Ramdas Pophale) SiO2 
 PCOD8087280
Probable space group: C 2/M
;
_chemical_formula_sum "Si O2"
_cell_formula_units_Z 56
_cell_length_a 31.416266
_cell_length_b 8.992614
_cell_length_c 19.488159
_cell_angle_alpha 90.000000
_cell_angle_beta 143.154389
_cell_angle_gamma 90.000000
_cell_volume 3301.543479
_symmetry_space_group_name_H-M "C 2/M"
_symmetry_group_IT_number 12
_symmetry_cell_setting 'monoclinic'
loop_
_space_group_symop_operation_xyz
x,y,z
-x,y,-z
-x,-y,-z
x,-y,z
1/2+x,1/2+y,z
1/2-x,1/2+y,-z
1/2-x,1/2-y,-z
1/2+x,1/2-y,z
loop_
_atom_site_type_symbol
_atom_site_label
_atom_site_fract_x
_atom_site_fract_y
_atom_site_fract_z
Si Si1 0.191914 0.175699 0.377707
Si Si2 0.699235 0.172843 0.243140
Si Si3 0.955821 0.327453 0.008158
Si Si4 0.655236 0.676755 0.632394
Si Si5 0.066063 0.162766 0.635733
Si Si6 0.968858 0.821816 0.624032
Si Si7 0.461536 0.323936 0.768799
O O1 0.250000 0.250000 0.500000
O O2 0.202922 0.226480 0.314565
O O3 0.114922 0.229868 0.303424
O O4 0.199828 0.000000 0.393354
O O5 0.627145 0.202888 0.109323
O O6 0.763844 0.223293 0.277365
O O7 0.706110 0.000000 0.273588
O O8 0.973366 0.500000 0.040958
O O9 0.000000 0.265477 0.000000
O O10 0.977554 0.241845 0.104582
O O11 0.647411 0.500000 0.627355
O O12 0.628657 0.744430 0.672218
O O13 0.604958 0.734004 0.505406
O O14 0.000000 0.145434 0.500000
O O15 0.036597 0.242274 0.667290
O O16 0.094000 0.000000 0.693578
O O17 0.973160 0.761233 0.706972
O O18 0.970671 0.000000 0.625363
O O19 0.467399 0.500000 0.778091
#
# Coordination Sequence:
#
# PCOD8087280 Si02
#       7
#     8   8   8   8   8   8   8
#     4  11  22  33  47  69  96 123 150 183 228 277
#     4  10  19  32  49  67  91 121 155 194 231 268
#     4  10  20  34  49  64  86 121 162 199 232 267
#     4   8  13  23  42  67  93 118 145 181 227 275
#     4   7  10  18  36  63  92 117 140 175 224 273
#     4   8  13  23  40  66  95 116 141 182 231 274
#     4  10  20  32  48  68  91 121 156 194 229 269
#
# _framework density 16.961763999999999
#
# number of rings (size 3 to 8) (size 9 to 14) (size 15 to 20)
#    0.000    2.857    1.429    3.000    0.000    3.714 
#    0.000    0.000    0.000    0.857    0.000    1.000 
#    0.000    4.571    0.000    0.000    0.000    0.000 
#
# Total GULP energy -346953.976946 kJ/mol
# GULP energy per Si atom -12391.213462 kJ/mol
# Density = 1.692316 g / cm^3
# Si number density = 16.961764 Si / 1000 Ang^3
#
#
#
# Elastic Constant Matrix: (Units=GPa)
#
#
# Indices 1 2 3 4 5 6 
#
# 1 171.8966 18.3673 68.3417 0.0000 10.2107 0.0000
# 2 18.3673 19.9839 21.2021 0.0000 3.3086 0.0000
# 3 68.3417 21.2021 98.4826 0.0000 4.3434 0.0000
# 4 0.0000 0.0000 0.0000 22.2581 0.0000 -3.5387
# 5 10.2107 3.3086 4.3434 0.0000 12.4762 0.0000
# 6 0.0000 0.0000 0.0000 -3.5387 0.0000 10.7602
#
#
#
# Elastic Compliance Matrix: (Units=1/GPa)
#
#
# Indices 1 2 3 4 5 6 
#
# 1 0.008339 -0.001262 -0.005311 0.000000 -0.004642 0.000000
# 2 -0.001262 0.067033 -0.013017 0.000000 -0.012212 0.000000
# 3 -0.005311 -0.013017 0.016552 0.000000 0.002036 0.000000
# 4 0.000000 0.000000 0.000000 0.047406 0.000000 0.015591
# 5 -0.004642 -0.012212 0.002036 0.000000 0.086481 0.000000
# 6 0.000000 0.000000 0.000000 0.015591 0.000000 0.098063
#
#
# Mechanical properties :
#
#
# Convention : Reuss Voigt Hill
#
# Bulk Modulus (GPa) = 18.95919 56.24279 37.60099
# Shear Modulus (GPa) = 13.13594 21.26235 17.19915
#
# Velocity S-wave (km/s) = 2.78590 3.54439 3.18778
# Velocity P-wave (km/s) = 4.64222 7.06971 5.98043
#
# Compressibility (1/GPa) = 0.05274486
#
# Stress axis : x y z
#
# Youngs Moduli (GPa) = 119.91255 14.91811 60.41539
#
# Poissons Ratio (x) = 0.01882 0.32085
# Poissons Ratio (y) = 0.15131 0.78643
# Poissons Ratio (z) = 0.63683 0.19419
#
# Static dielectric constant tensor:
#      x y z
#    x 3.690640 0.000000 0.142370 
#    y 0.000000 2.735120 0.000000 
#    z 0.142370 0.000000 2.667160 
# 
# 
# High freq. dielectric constant tensor:
#      x y z
#    x 1.672770 0.000000 0.000900 
#    y 0.000000 1.605540 0.000000 
#    z 0.000900 0.000000 1.632390 
# 
# From -- ./inp_files/287310.got.cif
#   From: 2010.06.25/outbox.cif.g09.slc.cpg/sg12_144_cif.got.tgz:287310.got - 2010.06.28 00:19:55.
