data_PCOD8087755
_publ_section_title
;
Structure prediction by ZEFSAII (Michael W. Deem and Ramdas Pophale) SiO2 
 PCOD8087755
Probable space group: C 2/M
;
_chemical_formula_sum "Si O2"
_cell_formula_units_Z 64
_cell_length_a 23.320223
_cell_length_b 9.148515
_cell_length_c 17.927763
_cell_angle_alpha 90.000000
_cell_angle_beta 69.367266
_cell_angle_gamma 90.000000
_cell_volume 3579.476659
_symmetry_space_group_name_H-M "C 2/M"
_symmetry_group_IT_number 12
_symmetry_cell_setting 'monoclinic'
loop_
_space_group_symop_operation_xyz
x,y,z
-x,y,-z
-x,-y,-z
x,-y,z
1/2+x,1/2+y,z
1/2-x,1/2+y,-z
1/2-x,1/2-y,-z
1/2+x,1/2-y,z
loop_
_atom_site_type_symbol
_atom_site_label
_atom_site_fract_x
_atom_site_fract_y
_atom_site_fract_z
Si Si1 0.154947 0.332770 0.964473
Si Si2 0.734971 0.672283 0.689773
Si Si3 0.015644 0.331940 0.793856
Si Si4 0.301343 0.167071 0.519662
Si Si5 0.875779 0.671027 0.855177
Si Si6 0.054715 0.827548 0.921767
Si Si7 0.227395 0.831925 0.179455
Si Si8 0.629327 0.831945 0.648929
O O1 0.132682 0.500000 0.967359
O O2 0.117902 0.236160 0.922936
O O3 0.226422 0.316780 0.911691
O O4 0.142824 0.275615 0.053560
O O5 0.727754 0.500000 0.708464
O O6 0.795758 0.707817 0.610193
O O7 0.742923 0.754323 0.763356
O O8 0.673491 0.728833 0.677393
O O9 0.017879 0.500000 0.819765
O O10 0.042368 0.230965 0.845650
O O11 0.058273 0.304556 0.701979
O O12 0.946223 0.288293 0.806279
O O13 0.250000 0.250000 0.500000
O O14 0.364179 0.198537 0.444286
O O15 0.282974 0.000000 0.521671
O O16 0.862505 0.500000 0.851470
O O17 0.836462 0.757396 0.812558
O O18 0.060665 0.000000 0.915805
O O19 0.000000 0.775160 0.000000
O O20 0.215184 0.000000 0.204982
O O21 0.647360 0.000000 0.658603
#
# Coordination Sequence:
#
# PCOD8087755 Si02
#       8
#     8   8   8   8   8   8   8   8
#     4  10  21  37  55  73  97 130 168 208 254 299
#     4  10  19  32  51  76 105 136 165 199 245 297
#     4  10  20  34  54  75 100 134 168 203 248 299
#     4   8  15  28  48  74 104 132 159 195 243 294
#     4  10  21  37  54  71  94 130 171 209 250 298
#     4  11  22  33  49  75 104 133 165 203 245 289
#     4  11  23  36  52  74  98 129 169 213 253 292
#     4   9  17  31  52  80 107 130 161 202 246 296
#
# _framework density 17.879708999999998
#
# number of rings (size 3 to 8) (size 9 to 14) (size 15 to 20)
#    0.000    2.125    1.250    2.250    0.000    6.500 
#    0.000    0.000    0.000    0.750    0.000    5.250 
#    0.000    0.000    0.000    0.000    0.000    0.000 
#
# Total GULP energy -396630.397062 kJ/mol
# GULP energy per Si atom -12394.699908 kJ/mol
# Density = 1.783901 g / cm^3
# Si number density = 17.879709 Si / 1000 Ang^3
#
#
#
# Elastic Constant Matrix: (Units=GPa)
#
#
# Indices 1 2 3 4 5 6 
#
# 1 84.6346 30.3416 37.2372 0.0000 -9.0847 0.0000
# 2 30.3416 59.6411 26.5044 -0.0002 -2.1075 -0.0001
# 3 37.2372 26.5044 95.1595 0.0000 -25.6635 0.0000
# 4 0.0000 -0.0002 0.0000 21.8644 0.0000 10.9371
# 5 -9.0847 -2.1075 -25.6635 0.0000 24.5918 0.0000
# 6 0.0000 -0.0001 0.0000 10.9371 0.0000 -28.7201
#
#
#
# Elastic Compliance Matrix: (Units=1/GPa)
#
#
# Indices 1 2 3 4 5 6 
#
# 1 0.016031 -0.006213 -0.004299 0.000000 0.000903 0.000000
# 2 -0.006213 0.022085 -0.005328 0.000000 -0.005963 0.000000
# 3 -0.004299 -0.005328 0.018264 0.000000 0.017015 0.000000
# 4 0.000000 0.000000 0.000000 0.038418 0.000000 0.014630
# 5 0.000903 -0.005963 0.017015 0.000000 0.058243 0.000000
# 6 0.000000 0.000000 0.000000 0.014630 0.000000 -0.029247
#
#
# Mechanical properties :
#
#
# Convention : Reuss Voigt Hill
#
# Bulk Modulus (GPa) = 40.48712 47.51128 43.99920
# Shear Modulus (GPa) = 30.54222 13.23734 21.88978
#
# Velocity S-wave (km/s) = 4.13753 2.72390 3.50277
# Velocity P-wave (km/s) = 6.74677 6.04345 6.40477
#
# Compressibility (1/GPa) = 0.02469922
#
# Stress axis : x y z
#
# Youngs Moduli (GPa) = 62.37732 45.27966 54.75349
#
# Poissons Ratio (x) = 0.28134 0.23539
# Poissons Ratio (y) = 0.38757 0.29173
# Poissons Ratio (z) = 0.26817 0.24125
#
# Static dielectric constant tensor:
#      x y z
#    x 3.165190 0.000000 -0.395200 
#    y 0.000000 3.303580 0.000000 
#    z -0.395200 0.000000 3.801710 
# 
# 
# High freq. dielectric constant tensor:
#      x y z
#    x 1.664720 0.000000 -0.022150 
#    y 0.000000 1.696700 0.000000 
#    z -0.022150 0.000000 1.697880 
# 
# From -- ./inp_files/287562.got.cif
#   From: 2010.06.25/outbox.cif.g09.slc.cpg/sg12_144_cif.got.tgz:287562.got - 2010.06.28 00:19:55.
