data_PCOD8087678
_publ_section_title
;
Structure prediction by ZEFSAII (Michael W. Deem and Ramdas Pophale) SiO2 
 PCOD8087678
Probable space group: C 2/M
;
_chemical_formula_sum "Si O2"
_cell_formula_units_Z 48
_cell_length_a 23.726150
_cell_length_b 8.530904
_cell_length_c 30.662923
_cell_angle_alpha 90.000000
_cell_angle_beta 155.122954
_cell_angle_gamma 90.000000
_cell_volume 2610.837819
_symmetry_space_group_name_H-M "C 2/M"
_symmetry_group_IT_number 12
_symmetry_cell_setting 'monoclinic'
loop_
_space_group_symop_operation_xyz
x,y,z
-x,y,-z
-x,-y,-z
x,-y,z
1/2+x,1/2+y,z
1/2-x,1/2+y,-z
1/2-x,1/2-y,-z
1/2+x,1/2-y,z
loop_
_atom_site_type_symbol
_atom_site_label
_atom_site_fract_x
_atom_site_fract_y
_atom_site_fract_z
Si Si1 0.724664 0.684809 0.770942
Si Si2 0.866540 0.315903 0.382292
Si Si3 0.363776 0.316543 0.111642
Si Si4 0.212791 0.678711 0.851296
Si Si5 0.598721 0.817446 0.226822
Si Si6 0.984957 0.821154 0.918660
O O1 0.737071 0.500000 0.782946
O O2 0.639467 0.730077 0.668558
O O3 0.652950 0.751429 0.764267
O O4 0.872418 0.759616 0.872502
O O5 0.869506 0.500000 0.375810
O O6 0.740236 0.272328 0.323964
O O7 0.000000 0.257472 0.500000
O O8 0.369627 0.500000 0.107437
O O9 0.335237 0.280846 0.141845
O O10 0.509326 0.242743 0.204131
O O11 0.250000 0.250000 0.000000
O O12 0.165293 0.500000 0.824420
O O13 0.372510 0.690483 0.958450
O O14 0.513564 0.785474 0.123420
O O15 0.628185 0.000000 0.252688
O O16 0.951337 0.000000 0.881628
#
# Coordination Sequence:
#
# PCOD8087678 Si02
#       6
#     8   8   8   8   8   8
#     4  11  22  34  52  79 111 143 181 228 277 333
#     4  10  21  39  63  86 109 140 181 232 284 331
#     4  12  23  36  54  78 112 152 193 229 267 321
#     4  11  22  35  52  75 109 151 189 226 269 322
#     4  11  21  34  55  82 113 146 185 230 274 326
#     4  10  19  32  51  74 107 147 186 227 268 319
#
# _framework density 18.384903000000001
#
# number of rings (size 3 to 8) (size 9 to 14) (size 15 to 20)
#    0.000    1.167    1.667    8.500    0.000    5.333 
#    0.000    0.000    0.000    1.000    0.000    0.000 
#    0.000    0.000    0.000    0.000    0.000    0.000 
#
# Total GULP energy -297650.591333 kJ/mol
# GULP energy per Si atom -12402.107972 kJ/mol
# Density = 1.834306 g / cm^3
# Si number density = 18.384903 Si / 1000 Ang^3
#
#
#
# Elastic Constant Matrix: (Units=GPa)
#
#
# Indices 1 2 3 4 5 6 
#
# 1 109.9619 23.3695 37.2247 -0.0003 -10.2305 -0.0009
# 2 23.3695 77.0535 16.2822 -0.0015 3.4866 -0.0033
# 3 37.2247 16.2822 81.1667 0.0003 0.9647 -0.0004
# 4 -0.0003 -0.0015 0.0003 18.5169 -0.0002 -0.5960
# 5 -10.2305 3.4866 0.9647 -0.0002 14.4323 -0.0001
# 6 -0.0009 -0.0033 -0.0004 -0.5960 -0.0001 34.0541
#
#
#
# Elastic Compliance Matrix: (Units=1/GPa)
#
#
# Indices 1 2 3 4 5 6 
#
# 1 0.012440 -0.003124 -0.005197 0.000000 0.009920 0.000000
# 2 -0.003124 0.014476 -0.001405 0.000001 -0.005618 0.000001
# 3 -0.005197 -0.001405 0.015037 -0.000001 -0.004349 0.000000
# 4 0.000000 0.000001 -0.000001 0.054035 0.000001 0.000946
# 5 0.009920 -0.005618 -0.004349 0.000001 0.077969 0.000000
# 6 0.000000 0.000001 0.000000 0.000946 0.000000 0.029382
#
#
# Mechanical properties :
#
#
# Convention : Reuss Voigt Hill
#
# Bulk Modulus (GPa) = 44.43718 46.88166 45.65942
# Shear Modulus (GPa) = 21.71175 26.15437 23.93306
#
# Velocity S-wave (km/s) = 3.44023 3.77583 3.61193
# Velocity P-wave (km/s) = 6.32481 6.67567 6.50261
#
# Compressibility (1/GPa) = 0.02250368
#
# Stress axis : x y z
#
# Youngs Moduli (GPa) = 80.38572 69.07800 66.50256
#
# Poissons Ratio (x) = 0.21578 0.34558
# Poissons Ratio (y) = 0.25110 0.09341
# Poissons Ratio (z) = 0.41773 0.09703
#
# Static dielectric constant tensor:
#      x y z
#    x 3.547700 0.000010 -0.002230 
#    y 0.000010 3.516010 0.000000 
#    z -0.002230 0.000000 3.189250 
# 
# 
# High freq. dielectric constant tensor:
#      x y z
#    x 1.717110 0.000000 -0.004750 
#    y 0.000000 1.732710 0.000000 
#    z -0.004750 0.000000 1.674980 
# 
# From -- ./inp_files/327326.got.cif
#   From: 2010.06.25/outbox.cif.g09.slc.cpg/sg12_164_cif.got.tgz:327326.got - 2010.06.28 00:19:55.
