data_PCOD8087198
_publ_section_title
;
Structure prediction by ZEFSAII (Michael W. Deem and Ramdas Pophale) SiO2 
 PCOD8087198
Probable space group: C 2/M
;
_chemical_formula_sum "Si O2"
_cell_formula_units_Z 40
_cell_length_a 19.553235
_cell_length_b 13.973199
_cell_length_c 8.950527
_cell_angle_alpha 90.000000
_cell_angle_beta 82.229678
_cell_angle_gamma 90.000000
_cell_volume 2423.019789
_symmetry_space_group_name_H-M "C 2/M"
_symmetry_group_IT_number 12
_symmetry_cell_setting 'monoclinic'
loop_
_space_group_symop_operation_xyz
x,y,z
-x,y,-z
-x,-y,-z
x,-y,z
1/2+x,1/2+y,z
1/2-x,1/2+y,-z
1/2-x,1/2-y,-z
1/2+x,1/2-y,z
loop_
_atom_site_type_symbol
_atom_site_label
_atom_site_fract_x
_atom_site_fract_y
_atom_site_fract_z
Si Si1 0.497414 0.611748 0.674699
Si Si2 0.641322 0.390986 0.120872
Si Si3 0.249277 0.104262 0.573180
Si Si4 0.751879 0.790331 0.724596
Si Si5 0.129616 0.165482 0.789740
O O1 0.500000 0.636227 0.500000
O O2 0.512497 0.500000 0.702258
O O3 0.423019 0.641596 0.759347
O O4 0.553401 0.677244 0.744156
O O5 0.661179 0.500000 0.149751
O O6 0.706698 0.324360 0.142153
O O7 0.622897 0.381146 0.953692
O O8 0.244975 0.125825 0.398514
O O9 0.287759 0.192286 0.647241
O O10 0.171899 0.096598 0.664115
O O11 0.285324 0.000000 0.585057
O O12 0.671648 0.766792 0.789304
#
# Coordination Sequence:
#
# PCOD8087198 Si02
#       5
#     8   8   8   8   8
#     4  10  20  31  48  70  98 134 164 197 245 298
#     4  11  20  31  49  74 106 133 160 199 244 294
#     4   9  17  31  50  68  97 128 161 203 241 284
#     4   9  20  31  48  73  99 132 164 204 238 293
#     4  10  19  32  46  73 103 132 163 196 241 292
#
# _framework density 16.508327000000001
#
# number of rings (size 3 to 8) (size 9 to 14) (size 15 to 20)
#    1.200    1.000    0.000    4.800    0.000    3.200 
#    0.000    0.000    0.000    0.000    0.000    4.200 
#    0.000    9.600    0.000    0.000    0.000    0.000 
#
# Total GULP energy -247807.311016 kJ/mol
# GULP energy per Si atom -12390.365551 kJ/mol
# Density = 1.647075 g / cm^3
# Si number density = 16.508327 Si / 1000 Ang^3
#
#
#
# Elastic Constant Matrix: (Units=GPa)
#
#
# Indices 1 2 3 4 5 6 
#
# 1 89.8833 36.2429 32.6236 0.0000 11.6246 0.0000
# 2 36.2429 77.4307 22.1380 0.0000 7.1994 0.0000
# 3 32.6236 22.1380 64.4129 0.0000 3.8845 0.0000
# 4 0.0000 0.0000 0.0000 3.4040 0.0000 4.3966
# 5 11.6246 7.1994 3.8845 0.0000 32.1243 0.0000
# 6 0.0000 0.0000 0.0000 4.3966 0.0000 23.1131
#
#
#
# Elastic Compliance Matrix: (Units=1/GPa)
#
#
# Indices 1 2 3 4 5 6 
#
# 1 0.015982 -0.005407 -0.006005 0.000000 -0.003846 0.000000
# 2 -0.005407 0.016376 -0.002807 0.000000 -0.001374 0.000000
# 3 -0.006005 -0.002807 0.019504 0.000000 0.000444 0.000000
# 4 0.000000 0.000000 0.000000 0.389454 0.000000 -0.074083
# 5 -0.003846 -0.001374 0.000444 0.000000 0.032775 0.000000
# 6 0.000000 0.000000 0.000000 -0.074083 0.000000 0.057358
#
#
# Mechanical properties :
#
#
# Convention : Reuss Voigt Hill
#
# Bulk Modulus (GPa) = 42.68794 45.97067 44.32930
# Shear Modulus (GPa) = 8.80756 21.10978 14.95867
#
# Velocity S-wave (km/s) = 2.31232 3.57982 3.01346
# Velocity P-wave (km/s) = 5.74836 6.70777 6.24651
#
# Compressibility (1/GPa) = 0.02342582
#
# Stress axis : x y z
#
# Youngs Moduli (GPa) = 62.56914 61.06604 51.27149
#
# Poissons Ratio (x) = 0.33015 0.30786
# Poissons Ratio (y) = 0.33828 0.14392
# Poissons Ratio (z) = 0.37570 0.17141
#
# Static dielectric constant tensor:
#      x y z
#    x 2.871050 0.000000 -0.089360 
#    y 0.000000 2.862800 0.000000 
#    z -0.089360 0.000000 3.095750 
# 
# 
# High freq. dielectric constant tensor:
#      x y z
#    x 1.605920 0.000000 -0.002500 
#    y 0.000000 1.608370 0.000000 
#    z -0.002500 0.000000 1.651940 
# 
# From -- ./inp_files/84650.got.cif
#   From: 2010.06.25/outbox.cif.g09.slc.cpg/sg12_43_cif.got.tgz:84650.got - 2010.06.28 00:19:55.
