data_PCOD8087381
_publ_section_title
;
Structure prediction by ZEFSAII (Michael W. Deem and Ramdas Pophale) SiO2 
 PCOD8087381
Probable space group: C 2/M
;
_chemical_formula_sum "Si O2"
_cell_formula_units_Z 56
_cell_length_a 24.373144
_cell_length_b 9.584279
_cell_length_c 14.159506
_cell_angle_alpha 90.000000
_cell_angle_beta 82.686743
_cell_angle_gamma 90.000000
_cell_volume 3280.738963
_symmetry_space_group_name_H-M "C 2/M"
_symmetry_group_IT_number 12
_symmetry_cell_setting 'monoclinic'
loop_
_space_group_symop_operation_xyz
x,y,z
-x,y,-z
-x,-y,-z
x,-y,z
1/2+x,1/2+y,z
1/2-x,1/2+y,-z
1/2-x,1/2-y,-z
1/2+x,1/2-y,z
loop_
_atom_site_type_symbol
_atom_site_label
_atom_site_fract_x
_atom_site_fract_y
_atom_site_fract_z
Si Si1 0.353494 0.163656 0.943217
Si Si2 0.886634 0.158725 0.660419
Si Si3 0.162827 0.335725 0.842464
Si Si4 0.942989 0.160264 0.461748
Si Si5 0.071631 0.662059 0.720888
Si Si6 0.050077 0.341747 0.212279
Si Si7 0.287618 0.337439 0.809927
O O1 0.414876 0.195058 0.889226
O O2 0.307969 0.246932 0.893612
O O3 0.338542 0.000000 0.941473
O O4 0.351395 0.221701 0.050169
O O5 0.892601 0.183107 0.547090
O O6 0.932333 0.248777 0.703560
O O7 0.824689 0.195812 0.709187
O O8 0.901127 0.000000 0.682938
O O9 0.154125 0.500000 0.845933
O O10 0.120508 0.273304 0.774658
O O11 0.224992 0.293902 0.799299
O O12 0.930103 0.257017 0.376615
O O13 0.000000 0.204129 0.500000
O O14 0.946315 0.000000 0.427174
O O15 0.081881 0.500000 0.694858
O O16 0.014832 0.682107 0.792413
O O17 0.062189 0.500000 0.239984
O O18 0.290815 0.500000 0.837939
#
# Coordination Sequence:
#
# PCOD8087381 Si02
#       7
#     8   8   8   8   8   8   8
#     4   9  17  30  49  71  95 122 155 193 229 267
#     4   9  17  30  49  70  91 118 152 192 234 275
#     4   9  18  32  48  68  96 128 156 186 227 274
#     4  10  19  32  50  70  92 120 154 192 235 278
#     4  10  20  32  47  69  97 126 155 187 228 277
#     4   9  17  28  45  71  96 119 151 191 229 268
#     4   9  17  31  51  71  92 121 158 193 226 270
#
# _framework density 17.069324000000002
#
# number of rings (size 3 to 8) (size 9 to 14) (size 15 to 20)
#    0.000    2.714    1.429    0.429    0.000    1.429 
#    0.000    5.000    0.000    0.000    0.000    5.000 
#    0.000    0.000    0.000    0.000    0.000    0.000 
#
# Total GULP energy -347124.159109 kJ/mol
# GULP energy per Si atom -12397.291397 kJ/mol
# Density = 1.703047 g / cm^3
# Si number density = 17.069324 Si / 1000 Ang^3
#
#
#
# Elastic Constant Matrix: (Units=GPa)
#
#
# Indices 1 2 3 4 5 6 
#
# 1 135.9628 42.7871 78.3853 0.0000 6.3019 0.0000
# 2 42.7871 45.3414 39.9297 0.0000 4.8117 0.0000
# 3 78.3853 39.9297 109.5417 0.0000 -0.1105 0.0000
# 4 0.0000 0.0000 0.0000 21.8209 0.0000 0.2371
# 5 6.3019 4.8117 -0.1105 0.0000 23.7601 0.0000
# 6 0.0000 0.0000 0.0000 0.2371 0.0000 18.2228
#
#
#
# Elastic Compliance Matrix: (Units=1/GPa)
#
#
# Indices 1 2 3 4 5 6 
#
# 1 0.013781 -0.005972 -0.007687 0.000000 -0.002482 0.000000
# 2 -0.005972 0.036150 -0.008910 0.000000 -0.005778 0.000000
# 3 -0.007687 -0.008910 0.017881 0.000000 0.003926 0.000000
# 4 0.000000 0.000000 0.000000 0.045834 0.000000 -0.000596
# 5 -0.002482 -0.005778 0.003926 0.000000 0.043934 0.000000
# 6 0.000000 0.000000 0.000000 -0.000596 0.000000 0.054884
#
#
# Mechanical properties :
#
#
# Convention : Reuss Voigt Hill
#
# Bulk Modulus (GPa) = 44.10152 68.11667 56.10910
# Shear Modulus (GPa) = 18.85658 21.41036 20.13347
#
# Velocity S-wave (km/s) = 3.32732 3.54548 3.43813
# Velocity P-wave (km/s) = 6.37606 7.53346 6.97880
#
# Compressibility (1/GPa) = 0.02267495
#
# Stress axis : x y z
#
# Youngs Moduli (GPa) = 72.56364 27.66273 55.92438
#
# Poissons Ratio (x) = 0.16520 0.42989
# Poissons Ratio (y) = 0.43333 0.49827
# Poissons Ratio (z) = 0.55780 0.24647
#
# Static dielectric constant tensor:
#      x y z
#    x 3.361040 0.000000 -0.211000 
#    y 0.000000 3.077470 0.000000 
#    z -0.211000 0.000000 3.218450 
# 
# 
# High freq. dielectric constant tensor:
#      x y z
#    x 1.657860 0.000000 -0.022220 
#    y 0.000000 1.643040 0.000000 
#    z -0.022220 0.000000 1.651330 
# 
# From -- ./inp_files/173916.got.cif
#   From: 2010.06.25/outbox.cif.g09.slc.cpg/sg12_87_cif.got.tgz:173916.got - 2010.06.28 00:19:55.
