data_PCOD8087054
_publ_section_title
;
Structure prediction by ZEFSAII (Michael W. Deem and Ramdas Pophale) SiO2 
 PCOD8087054
Probable space group: C 2/M
;
_chemical_formula_sum "Si O2"
_cell_formula_units_Z 56
_cell_length_a 18.032232
_cell_length_b 13.959960
_cell_length_c 20.231017
_cell_angle_alpha 90.000000
_cell_angle_beta 143.613266
_cell_angle_gamma 90.000000
_cell_volume 3021.178029
_symmetry_space_group_name_H-M "C 2/M"
_symmetry_group_IT_number 12
_symmetry_cell_setting 'monoclinic'
loop_
_space_group_symop_operation_xyz
x,y,z
-x,y,-z
-x,-y,-z
x,-y,z
1/2+x,1/2+y,z
1/2-x,1/2+y,-z
1/2-x,1/2-y,-z
1/2+x,1/2-y,z
loop_
_atom_site_type_symbol
_atom_site_label
_atom_site_fract_x
_atom_site_fract_y
_atom_site_fract_z
Si Si1 0.849080 0.608204 0.052394
Si Si2 0.749516 0.221436 0.575520
Si Si3 0.333297 0.302476 0.980602
Si Si4 0.079014 0.110663 0.214383
Si Si5 0.980598 0.389813 0.615027
Si Si6 0.108514 0.604706 0.300424
Si Si7 0.762536 0.889186 0.800072
O O1 0.808079 0.500000 0.001881
O O2 0.782899 0.637450 0.073628
O O3 0.998100 0.611174 0.168035
O O4 0.810620 0.687560 0.970032
O O5 0.750000 0.250000 0.500000
O O6 0.859898 0.145832 0.672822
O O7 0.615511 0.174927 0.497125
O O8 0.782485 0.319053 0.639186
O O9 0.344764 0.329653 0.911960
O O10 0.455735 0.329232 0.110263
O O11 0.181986 0.129432 0.231985
O O12 0.041643 0.000000 0.193474
O O13 0.963124 0.500000 0.580546
O O14 0.952247 0.375930 0.671712
O O15 0.119514 0.353658 0.698181
O O16 0.171365 0.500000 0.343509
O O17 0.771583 0.000000 0.827090
#
# Coordination Sequence:
#
# PCOD8087054 Si02
#       7
#     8   8   8   8   8   8   8
#     4  10  19  31  53  79 105 138 177 216 261 314
#     4  10  20  33  51  75 102 132 173 217 268 307
#     4  11  20  33  55  79 111 142 176 216 267 317
#     4  11  22  34  51  81 112 137 173 220 267 319
#     4   9  17  31  52  74 103 137 170 207 255 319
#     4   9  16  31  51  73 100 132 173 214 257 314
#     4  10  20  34  53  77 109 149 178 206 261 327
#
# _framework density 18.535816000000001
#
# number of rings (size 3 to 8) (size 9 to 14) (size 15 to 20)
#    0.000    2.000    2.857    2.143    0.000    2.286 
#    0.000    2.143    0.000    3.429    0.000    1.000 
#    0.000    0.000    0.000    0.000    0.000    0.000 
#
# Total GULP energy -347079.823514 kJ/mol
# GULP energy per Si atom -12395.707983 kJ/mol
# Density = 1.849363 g / cm^3
# Si number density = 18.535816 Si / 1000 Ang^3
#
#
#
# Elastic Constant Matrix: (Units=GPa)
#
#
# Indices 1 2 3 4 5 6 
#
# 1 32.9336 27.5966 21.0031 0.0001 3.2016 0.0001
# 2 27.5966 127.4585 37.4610 0.0000 5.6768 0.0000
# 3 21.0031 37.4610 89.0037 0.0001 9.2824 0.0001
# 4 0.0001 0.0000 0.0001 35.2298 0.0001 2.7542
# 5 3.2016 5.6768 9.2824 0.0001 22.8931 0.0001
# 6 0.0001 0.0000 0.0001 2.7542 0.0001 19.2406
#
#
#
# Elastic Compliance Matrix: (Units=1/GPa)
#
#
# Indices 1 2 3 4 5 6 
#
# 1 0.040316 -0.006749 -0.006536 0.000000 -0.001314 0.000000
# 2 -0.006749 0.010095 -0.002604 0.000000 -0.000504 0.000000
# 3 -0.006536 -0.002604 0.014316 0.000000 -0.004245 0.000000
# 4 0.000000 0.000000 0.000000 0.028706 0.000000 -0.004109
# 5 -0.001314 -0.000504 -0.004245 0.000000 0.045711 0.000000
# 6 0.000000 0.000000 0.000000 -0.004109 0.000000 0.052561
#
#
# Mechanical properties :
#
#
# Convention : Reuss Voigt Hill
#
# Bulk Modulus (GPa) = 30.34974 46.83524 38.59249
# Shear Modulus (GPa) = 21.32501 26.36172 23.84336
#
# Velocity S-wave (km/s) = 3.39555 3.77530 3.59045
# Velocity P-wave (km/s) = 5.63756 6.65779 6.16880
#
# Compressibility (1/GPa) = 0.03294921
#
# Stress axis : x y z
#
# Youngs Moduli (GPa) = 24.80415 99.06213 69.85025
#
# Poissons Ratio (x) = 0.66862 0.45653
# Poissons Ratio (y) = 0.16742 0.18186
# Poissons Ratio (z) = 0.16212 0.25791
#
# Static dielectric constant tensor:
#      x y z
#    x 3.122980 0.000000 0.233810 
#    y 0.000000 3.717400 0.000000 
#    z 0.233810 0.000000 3.500010 
# 
# 
# High freq. dielectric constant tensor:
#      x y z
#    x 1.677140 0.000000 0.016710 
#    y 0.000000 1.723380 0.000000 
#    z 0.016710 0.000000 1.721630 
# 
# From -- ./inp_files/189170.got.cif
#   From: 2010.06.25/outbox.cif.g09.slc.cpg/sg12_95_cif.got.tgz:189170.got - 2010.06.28 00:19:55.
