data_PCOD8087456
_publ_section_title
;
Structure prediction by ZEFSAII (Michael W. Deem and Ramdas Pophale) SiO2 
 PCOD8087456
Probable space group: C 2/M
;
_chemical_formula_sum "Si O2"
_cell_formula_units_Z 56
_cell_length_a 14.552379
_cell_length_b 8.762600
_cell_length_c 27.810531
_cell_angle_alpha 90.000000
_cell_angle_beta 120.806138
_cell_angle_gamma 90.000000
_cell_volume 3045.940499
_symmetry_space_group_name_H-M "C 2/M"
_symmetry_group_IT_number 12
_symmetry_cell_setting 'monoclinic'
loop_
_space_group_symop_operation_xyz
x,y,z
-x,y,-z
-x,-y,-z
x,-y,z
1/2+x,1/2+y,z
1/2-x,1/2+y,-z
1/2-x,1/2-y,-z
1/2+x,1/2-y,z
loop_
_atom_site_type_symbol
_atom_site_label
_atom_site_fract_x
_atom_site_fract_y
_atom_site_fract_z
Si Si1 0.725743 0.318142 0.732778
Si Si2 0.305102 0.179124 0.943808
Si Si3 0.604713 0.178602 0.932671
Si Si4 0.704717 0.820477 0.352239
Si Si5 0.996011 0.318357 0.351393
Si Si6 0.940938 0.180246 0.435988
Si Si7 0.866057 0.679917 0.857889
O O1 0.713377 0.500000 0.730330
O O2 0.789399 0.266214 0.701785
O O3 0.608005 0.246185 0.703580
O O4 0.792320 0.252472 0.795840
O O5 0.184160 0.226328 0.921168
O O6 0.337809 0.254930 0.901874
O O7 0.313946 0.000000 0.940441
O O8 0.383030 0.231578 0.008220
O O9 0.489179 0.218917 0.880753
O O10 0.631858 0.000000 0.935970
O O11 0.601708 0.751873 0.352401
O O12 0.816406 0.770292 0.407213
O O13 0.692890 0.000000 0.351129
O O14 0.992765 0.500000 0.349305
O O15 0.998891 0.262641 0.407135
O O16 0.000000 0.233270 0.500000
O O17 0.950336 0.000000 0.429686
O O18 0.848641 0.500000 0.854855
#
# Coordination Sequence:
#
# PCOD8087456 Si02
#       7
#     8   8   8   8   8   8   8
#     4   9  18  34  51  67  91 125 165 200 233 281
#     4   9  17  30  47  69  96 122 153 196 240 283
#     4   9  17  30  48  69  93 123 157 191 236 294
#     4   8  16  31  49  68  94 127 156 188 233 278
#     4  10  19  32  50  72  99 128 157 194 240 279
#     4   9  18  34  54  75 100 130 163 194 226 274
#     4   9  17  30  50  70  89 122 163 198 234 282
#
# _framework density 18.385126
#
# number of rings (size 3 to 8) (size 9 to 14) (size 15 to 20)
#    0.000    3.000    0.000    1.714    0.000    3.714 
#    0.000    9.286    0.000    3.429    0.000    0.000 
#    0.000    0.000    0.000    0.000    0.000    0.000 
#
# Total GULP energy -347052.444096 kJ/mol
# GULP energy per Si atom -12394.730146 kJ/mol
# Density = 1.834328 g / cm^3
# Si number density = 18.385126 Si / 1000 Ang^3
#
#
#
# Elastic Constant Matrix: (Units=GPa)
#
#
# Indices 1 2 3 4 5 6 
#
# 1 117.3370 10.0355 58.2171 0.0000 6.1645 0.0000
# 2 10.0355 15.6081 13.0267 0.0000 0.3098 0.0000
# 3 58.2171 13.0267 134.2156 0.0000 14.1247 0.0000
# 4 0.0000 0.0000 0.0000 18.8028 0.0000 1.9992
# 5 6.1645 0.3098 14.1247 0.0000 19.8451 0.0000
# 6 0.0000 0.0000 0.0000 1.9992 0.0000 25.7650
#
#
#
# Elastic Compliance Matrix: (Units=1/GPa)
#
#
# Indices 1 2 3 4 5 6 
#
# 1 0.011021 -0.003385 -0.004429 0.000000 -0.000218 0.000000
# 2 -0.003385 0.071056 -0.005861 0.000000 0.004114 0.000000
# 3 -0.004429 -0.005861 0.010579 0.000000 -0.006062 0.000000
# 4 0.000000 0.000000 0.000000 0.053626 0.000000 -0.004161
# 5 -0.000218 0.004114 -0.006062 0.000000 0.054709 0.000000
# 6 0.000000 0.000000 0.000000 -0.004161 0.000000 0.039135
#
#
# Mechanical properties :
#
#
# Convention : Reuss Voigt Hill
#
# Bulk Modulus (GPa) = 15.31280 47.74660 31.52970
# Shear Modulus (GPa) = 17.28644 25.27466 21.28055
#
# Velocity S-wave (km/s) = 3.06966 3.71176 3.40588
# Velocity P-wave (km/s) = 4.57283 6.66305 5.71432
#
# Compressibility (1/GPa) = 0.06530484
#
# Stress axis : x y z
#
# Youngs Moduli (GPa) = 90.73719 14.07341 94.53084
#
# Poissons Ratio (x) = 0.04764 0.41866
# Poissons Ratio (y) = 0.30718 0.55405
# Poissons Ratio (z) = 0.40186 0.08249
#
# Static dielectric constant tensor:
#      x y z
#    x 3.577930 0.000000 -0.045150 
#    y 0.000000 3.012160 0.000000 
#    z -0.045150 0.000000 3.630560 
# 
# 
# High freq. dielectric constant tensor:
#      x y z
#    x 1.718040 0.000000 0.001330 
#    y 0.000000 1.675230 0.000000 
#    z 0.001330 0.000000 1.717850 
# 
# From -- ./inp_files/337872.got.cif
#   From: 2010.06.25/outbox.cif.g09.slc.cpg/sg12_169_cif.got.tgz:337872.got - 2010.06.28 00:19:55.
