data_PCOD8087130
_publ_section_title
;
Structure prediction by ZEFSAII (Michael W. Deem and Ramdas Pophale) SiO2 
 PCOD8087130
Probable space group: C 2/M
;
_chemical_formula_sum "Si O2"
_cell_formula_units_Z 56
_cell_length_a 21.017372
_cell_length_b 13.433853
_cell_length_c 14.077506
_cell_angle_alpha 90.000000
_cell_angle_beta 45.625306
_cell_angle_gamma 90.000000
_cell_volume 2841.044969
_symmetry_space_group_name_H-M "C 2/M"
_symmetry_group_IT_number 12
_symmetry_cell_setting 'monoclinic'
loop_
_space_group_symop_operation_xyz
x,y,z
-x,y,-z
-x,-y,-z
x,-y,z
1/2+x,1/2+y,z
1/2-x,1/2+y,-z
1/2-x,1/2-y,-z
1/2+x,1/2-y,z
loop_
_atom_site_type_symbol
_atom_site_label
_atom_site_fract_x
_atom_site_fract_y
_atom_site_fract_z
Si Si1 0.656513 0.696385 0.212466
Si Si2 0.454189 0.391536 0.946294
Si Si3 0.112909 0.612705 0.801316
Si Si4 0.191771 0.117290 0.382892
Si Si5 0.072004 0.678158 0.047517
Si Si6 0.021493 0.888274 0.674491
Si Si7 0.301747 0.111209 0.928153
O O1 0.670899 0.671218 0.306391
O O2 0.553755 0.684188 0.289624
O O3 0.690152 0.810102 0.165743
O O4 0.713356 0.625916 0.083348
O O5 0.403667 0.500000 0.994159
O O6 0.392154 0.293551 0.998146
O O7 0.524637 0.387243 0.785887
O O8 0.500000 0.381487 0.000000
O O9 0.099455 0.500000 0.779940
O O10 0.212563 0.651514 0.673993
O O11 0.036435 0.680205 0.832151
O O12 0.102757 0.614804 0.925671
O O13 0.117211 0.148118 0.536984
O O14 0.194657 0.000000 0.359776
O O15 0.111215 0.626026 0.098144
O O16 0.002170 0.000000 0.656769
O O17 0.301012 0.000000 0.886461
#
# Coordination Sequence:
#
# PCOD8087130 Si02
#       7
#     8   8   8   8   8   8   8
#     4  11  21  34  55  82 115 146 181 229 282 328
#     4  10  20  35  55  80 111 144 183 229 278 336
#     4  10  19  31  54  83 109 140 184 234 281 327
#     4  10  20  35  56  84 114 144 186 236 279 328
#     4  11  18  34  56  79 110 146 180 226 286 326
#     4  10  20  35  56  81 109 147 189 230 279 331
#     4  11  22  35  55  84 114 142 185 236 281 330
#
# _framework density 19.711057
#
# number of rings (size 3 to 8) (size 9 to 14) (size 15 to 20)
#    0.000    1.571    4.286    3.429    0.000    1.143 
#    0.000    0.714    0.000    1.714    0.000    0.000 
#    0.000    0.000    0.000    0.000    0.000    0.000 
#
# Total GULP energy -347017.276654 kJ/mol
# GULP energy per Si atom -12393.474166 kJ/mol
# Density = 1.966619 g / cm^3
# Si number density = 19.711057 Si / 1000 Ang^3
#
#
#
# Elastic Constant Matrix: (Units=GPa)
#
#
# Indices 1 2 3 4 5 6 
#
# 1 68.8641 11.2685 43.4165 0.0000 -17.1106 0.0000
# 2 11.2685 104.9304 22.4734 0.0000 -5.9620 0.0000
# 3 43.4165 22.4734 101.7550 0.0000 -20.3790 0.0000
# 4 0.0000 0.0000 0.0000 17.0485 0.0000 3.9137
# 5 -17.1106 -5.9620 -20.3790 0.0000 31.1614 0.0000
# 6 0.0000 0.0000 0.0000 3.9137 0.0000 19.3792
#
#
#
# Elastic Compliance Matrix: (Units=1/GPa)
#
#
# Indices 1 2 3 4 5 6 
#
# 1 0.020960 -0.000257 -0.007585 0.000000 0.006500 0.000000
# 2 -0.000257 0.010014 -0.002010 0.000000 0.000460 0.000000
# 3 -0.007585 -0.002010 0.014495 0.000000 0.004930 0.000000
# 4 0.000000 0.000000 0.000000 0.061508 0.000000 -0.012422
# 5 0.006500 0.000460 0.004930 0.000000 0.038972 0.000000
# 6 0.000000 0.000000 0.000000 -0.012422 0.000000 0.054110
#
#
# Mechanical properties :
#
#
# Convention : Reuss Voigt Hill
#
# Bulk Modulus (GPa) = 38.81042 47.76292 43.28667
# Shear Modulus (GPa) = 21.89597 26.74388 24.31992
#
# Velocity S-wave (km/s) = 3.33655 3.68747 3.51639
# Velocity P-wave (km/s) = 5.88012 6.51260 6.20443
#
# Compressibility (1/GPa) = 0.02576628
#
# Stress axis : x y z
#
# Youngs Moduli (GPa) = 47.70912 99.85662 68.98909
#
# Poissons Ratio (x) = 0.02568 0.52327
# Poissons Ratio (y) = 0.01227 0.13866
# Poissons Ratio (z) = 0.36186 0.20069
#
# Static dielectric constant tensor:
#      x y z
#    x 3.550910 0.000000 -0.189450 
#    y 0.000000 3.828070 0.000000 
#    z -0.189450 0.000000 3.605520 
# 
# 
# High freq. dielectric constant tensor:
#      x y z
#    x 1.762360 0.000000 -0.010890 
#    y 0.000000 1.768670 0.000000 
#    z -0.010890 0.000000 1.740990 
# 
# From -- ./inp_files/233657.got.cif
#   From: 2010.06.25/outbox.cif.g09.slc.cpg/sg12_117_cif.got.tgz:233657.got - 2010.06.28 00:19:55.
