data_PCOD8087480
_publ_section_title
;
Structure prediction by ZEFSAII (Michael W. Deem and Ramdas Pophale) SiO2 
 PCOD8087480
Probable space group: C 2/M
;
_chemical_formula_sum "Si O2"
_cell_formula_units_Z 56
_cell_length_a 15.014202
_cell_length_b 9.374398
_cell_length_c 24.475760
_cell_angle_alpha 90.000000
_cell_angle_beta 62.236193
_cell_angle_gamma 90.000000
_cell_volume 3048.343859
_symmetry_space_group_name_H-M "C 2/M"
_symmetry_group_IT_number 12
_symmetry_cell_setting 'monoclinic'
loop_
_space_group_symop_operation_xyz
x,y,z
-x,y,-z
-x,-y,-z
x,-y,z
1/2+x,1/2+y,z
1/2-x,1/2+y,-z
1/2-x,1/2-y,-z
1/2+x,1/2-y,z
loop_
_atom_site_type_symbol
_atom_site_label
_atom_site_fract_x
_atom_site_fract_y
_atom_site_fract_z
Si Si1 0.313895 0.170391 0.694519
Si Si2 0.024717 0.660848 0.435162
Si Si3 0.185486 0.659406 0.559850
Si Si4 0.920879 0.668809 0.772579
Si Si5 0.308561 0.832930 0.911964
Si Si6 0.854697 0.330334 0.308138
Si Si7 0.609626 0.166861 0.993213
O O1 0.384347 0.230174 0.624988
O O2 0.355791 0.223236 0.740350
O O3 0.207641 0.248115 0.720003
O O4 0.303817 0.000000 0.695051
O O5 0.057479 0.500000 0.440583
O O6 0.000000 0.740948 0.500000
O O7 0.930523 0.662831 0.422464
O O8 0.228757 0.500000 0.544478
O O9 0.250000 0.750000 0.500000
O O10 0.189551 0.717634 0.620349
O O11 0.924791 0.500000 0.771730
O O12 0.873119 0.724884 0.842528
O O13 0.033043 0.727656 0.732647
O O14 0.377941 0.801948 0.945448
O O15 0.283852 0.000000 0.914597
O O16 0.201474 0.752323 0.939456
O O17 0.847758 0.500000 0.302899
O O18 0.623928 0.000000 0.976392
O O19 0.500000 0.216323 0.000000
#
# Coordination Sequence:
#
# PCOD8087480 Si02
#       7
#     8   8   8   8   8   8   8
#     4  10  19  34  54  74  97 131 174 215 252 307
#     4   9  16  28  48  70  92 123 165 205 246 301
#     4  10  19  32  50  73  99 130 167 211 261 313
#     4   9  18  35  55  74 103 141 177 210 254 313
#     4   9  18  33  54  78 104 140 179 213 250 299
#     4  10  20  35  53  75 104 135 168 213 267 315
#     4   9  18  33  53  79 111 141 171 210 256 304
#
# _framework density 18.370630999999999
#
# number of rings (size 3 to 8) (size 9 to 14) (size 15 to 20)
#    0.000    2.571    1.429    0.857    0.000    3.143 
#    0.000    4.286    0.000    2.571    0.000    0.000 
#    0.000    0.000    0.000    0.000    0.000    0.000 
#
# Total GULP energy -347031.389281 kJ/mol
# GULP energy per Si atom -12393.978189 kJ/mol
# Density = 1.832882 g / cm^3
# Si number density = 18.370631 Si / 1000 Ang^3
#
#
#
# Elastic Constant Matrix: (Units=GPa)
#
#
# Indices 1 2 3 4 5 6 
#
# 1 149.0304 37.2611 74.5637 0.0000 -1.2039 0.0000
# 2 37.2611 33.2132 41.0998 0.0000 -5.5462 0.0000
# 3 74.5637 41.0998 149.7268 0.0000 -0.0047 0.0000
# 4 0.0000 0.0000 0.0000 19.5151 0.0000 -1.5524
# 5 -1.2039 -5.5462 -0.0047 0.0000 24.2949 0.0000
# 6 0.0000 0.0000 0.0000 -1.5524 0.0000 27.2549
#
#
#
# Elastic Compliance Matrix: (Units=1/GPa)
#
#
# Indices 1 2 3 4 5 6 
#
# 1 0.010139 -0.008104 -0.002824 0.000000 -0.001348 0.000000
# 2 -0.008104 0.054867 -0.011025 0.000000 0.012122 0.000000
# 3 -0.002824 -0.011025 0.011112 0.000000 -0.002655 0.000000
# 4 0.000000 0.000000 0.000000 0.051476 0.000000 0.002932
# 5 -0.001348 0.012122 -0.002655 0.000000 0.043861 0.000000
# 6 0.000000 0.000000 0.000000 0.002932 0.000000 0.036858
#
#
# Mechanical properties :
#
#
# Convention : Reuss Voigt Hill
#
# Bulk Modulus (GPa) = 31.04574 70.86886 50.95730
# Shear Modulus (GPa) = 19.01469 26.14937 22.58203
#
# Velocity S-wave (km/s) = 3.22072 3.77693 3.50986
# Velocity P-wave (km/s) = 5.54681 7.59482 6.65013
#
# Compressibility (1/GPa) = 0.03221054
#
# Stress axis : x y z
#
# Youngs Moduli (GPa) = 98.63381 18.22589 89.99643
#
# Poissons Ratio (x) = 0.14771 0.25419
# Poissons Ratio (y) = 0.79935 0.99218
# Poissons Ratio (z) = 0.27858 0.20093
#
# Static dielectric constant tensor:
#      x y z
#    x 3.567120 0.000000 0.029020 
#    y 0.000000 3.059480 0.000000 
#    z 0.029020 0.000000 3.588150 
# 
# 
# High freq. dielectric constant tensor:
#      x y z
#    x 1.721380 0.000000 0.003990 
#    y 0.000000 1.672140 0.000000 
#    z 0.003990 0.000000 1.717600 
# 
# From -- ./inp_files/359670.got.cif
#   From: 2010.06.25/outbox.cif.g09.slc.cpg/sg12_180_cif.got.tgz:359670.got - 2010.06.28 00:19:55.
