data_PCOD8087957
_publ_section_title
;
Structure prediction by ZEFSAII (Michael W. Deem and Ramdas Pophale) SiO2 
 PCOD8087957
Probable space group: C 2/M
;
_chemical_formula_sum "Si O2"
_cell_formula_units_Z 56
_cell_length_a 29.223674
_cell_length_b 14.352139
_cell_length_c 9.080166
_cell_angle_alpha 90.000000
_cell_angle_beta 129.466859
_cell_angle_gamma 90.000000
_cell_volume 2940.073889
_symmetry_space_group_name_H-M "C 2/M"
_symmetry_group_IT_number 12
_symmetry_cell_setting 'monoclinic'
loop_
_space_group_symop_operation_xyz
x,y,z
-x,y,-z
-x,-y,-z
x,-y,z
1/2+x,1/2+y,z
1/2-x,1/2+y,-z
1/2-x,1/2-y,-z
1/2+x,1/2-y,z
loop_
_atom_site_type_symbol
_atom_site_label
_atom_site_fract_x
_atom_site_fract_y
_atom_site_fract_z
Si Si1 0.652679 0.101896 0.623715
Si Si2 0.354650 0.898625 0.046423
Si Si3 0.379436 0.713404 0.599357
Si Si4 0.230104 0.147690 0.790998
Si Si5 0.779671 0.149220 0.909290
Si Si6 0.611505 0.711667 0.034341
Si Si7 0.495166 0.605074 0.815767
O O1 0.644973 0.126688 0.779649
O O2 0.620456 0.181862 0.464395
O O3 0.722895 0.094809 0.727962
O O4 0.624995 0.000000 0.530025
O O5 0.388652 0.816375 0.031216
O O6 0.385569 0.000000 0.081830
O O7 0.286178 0.913108 0.851599
O O8 0.321329 0.654221 0.435350
O O9 0.435592 0.659052 0.648126
O O10 0.380924 0.720384 0.776599
O O11 0.261259 0.244882 0.884863
O O12 0.203533 0.111032 0.892724
O O13 0.836787 0.143700 0.920620
O O14 0.550226 0.662824 0.863202
O O15 0.494320 0.500000 0.749022
O O16 0.500000 0.600063 0.000000
#
# Coordination Sequence:
#
# PCOD8087957 Si02
#       7
#     8   8   8   8   8   8   8
#     4   9  18  33  52  74 104 139 165 192 244 307
#     4   9  18  33  52  74 104 139 165 192 244 307
#     4  10  19  32  52  75  99 130 169 212 250 286
#     4   8  15  29  48  70  99 132 161 193 239 293
#     4   8  15  29  48  70  99 132 161 193 239 293
#     4  10  19  32  52  75  99 130 169 212 250 286
#     4   9  20  38  54  69  96 134 169 203 252 305
#
# _framework density 19.047141
#
# number of rings (size 3 to 8) (size 9 to 14) (size 15 to 20)
#    0.000    3.000    0.000    2.571    0.000    6.857 
#    0.000    3.571    0.000   10.286    0.000    0.000 
#    0.000    0.000    0.000    0.000    0.000    0.000 
#
# Total GULP energy -346898.623197 kJ/mol
# GULP energy per Si atom -12389.236543 kJ/mol
# Density = 1.900379 g / cm^3
# Si number density = 19.047141 Si / 1000 Ang^3
#
#
#
# Elastic Constant Matrix: (Units=GPa)
#
#
# Indices 1 2 3 4 5 6 
#
# 1 108.6599 54.7713 36.2642 0.0000 10.1949 0.0000
# 2 54.7713 122.9326 30.4043 0.0000 5.0586 0.0000
# 3 36.2642 30.4043 29.1413 0.0000 -2.0702 0.0000
# 4 0.0000 0.0000 0.0000 56.7788 0.0000 -8.2441
# 5 10.1949 5.0586 -2.0702 0.0000 20.4684 0.0000
# 6 0.0000 0.0000 0.0000 -8.2441 0.0000 24.5553
#
#
#
# Elastic Compliance Matrix: (Units=1/GPa)
#
#
# Indices 1 2 3 4 5 6 
#
# 1 0.018597 -0.002601 -0.021194 0.000000 -0.010764 0.000000
# 2 -0.002601 0.011645 -0.009090 0.000000 -0.002502 0.000000
# 3 -0.021194 -0.009090 0.071597 0.000000 0.020044 0.000000
# 4 0.000000 0.000000 0.000000 0.018515 0.000000 0.006216
# 5 -0.010764 -0.002502 0.020044 0.000000 0.056862 0.000000
# 6 0.000000 0.000000 0.000000 0.006216 0.000000 0.042811
#
#
# Mechanical properties :
#
#
# Convention : Reuss Voigt Hill
#
# Bulk Modulus (GPa) = 27.72426 55.95704 41.84065
# Shear Modulus (GPa) = 16.78867 29.64677 23.21772
#
# Velocity S-wave (km/s) = 2.97210 3.94952 3.49515
# Velocity P-wave (km/s) = 5.13469 7.08804 6.18892
#
# Compressibility (1/GPa) = 0.03606949
#
# Stress axis : x y z
#
# Youngs Moduli (GPa) = 53.77157 85.87680 13.96705
#
# Poissons Ratio (x) = 0.22338 0.29601
# Poissons Ratio (y) = 0.13987 0.12696
# Poissons Ratio (z) = 1.13961 0.78062
#
# Static dielectric constant tensor:
#      x y z
#    x 3.572840 0.000000 0.118730 
#    y 0.000000 5.959020 0.000000 
#    z 0.118730 0.000000 3.258760 
# 
# 
# High freq. dielectric constant tensor:
#      x y z
#    x 1.721480 0.000000 0.000060 
#    y 0.000000 1.746520 0.000000 
#    z 0.000060 0.000000 1.715750 
# 
# From -- ./inp_files/111717.got.cif
#   From: 2010.06.25/outbox.cif.g09.slc.cpg/sg12_56_cif.got.tgz:111717.got - 2010.06.28 00:19:55.
