data_PCOD8087375
_publ_section_title
;
Structure prediction by ZEFSAII (Michael W. Deem and Ramdas Pophale) SiO2 
 PCOD8087375
Probable space group: C 2/M
;
_chemical_formula_sum "Si O2"
_cell_formula_units_Z 64
_cell_length_a 18.999817
_cell_length_b 13.434069
_cell_length_c 31.811661
_cell_angle_alpha 90.000000
_cell_angle_beta 153.797271
_cell_angle_gamma 90.000000
_cell_volume 3585.269771
_symmetry_space_group_name_H-M "C 2/M"
_symmetry_group_IT_number 12
_symmetry_cell_setting 'monoclinic'
loop_
_space_group_symop_operation_xyz
x,y,z
-x,y,-z
-x,-y,-z
x,-y,z
1/2+x,1/2+y,z
1/2-x,1/2+y,-z
1/2-x,1/2-y,-z
1/2+x,1/2-y,z
loop_
_atom_site_type_symbol
_atom_site_label
_atom_site_fract_x
_atom_site_fract_y
_atom_site_fract_z
Si Si1 0.037568 0.306539 0.899007
Si Si2 0.587411 0.882279 0.611523
Si Si3 0.239689 0.616310 0.607760
Si Si4 0.783919 0.751793 0.246647
Si Si5 0.827180 0.894231 0.023186
Si Si6 0.566053 0.382640 0.743451
Si Si7 0.553831 0.389197 0.072169
Si Si8 0.135909 0.614601 0.039622
O O1 0.081720 0.196059 0.904736
O O2 0.846315 0.320179 0.797679
O O3 0.133366 0.382470 0.920375
O O4 0.109610 0.316692 0.984879
O O5 0.407216 0.859008 0.501336
O O6 0.704923 0.846327 0.636763
O O7 0.615597 0.814951 0.667470
O O8 0.610563 0.000000 0.634089
O O9 0.262630 0.500000 0.623883
O O10 0.400461 0.660643 0.673473
O O11 0.896752 0.823186 0.279754
O O12 0.686590 0.677532 0.164916
O O13 0.888670 0.897103 0.008845
O O14 0.870222 0.000000 0.068591
O O15 0.558692 0.500000 0.728193
O O16 0.695995 0.361305 0.848767
O O17 0.625937 0.500000 0.103882
O O18 0.500000 0.338520 0.000000
O O19 0.126037 0.500000 0.019597
O O20 0.000000 0.638819 0.000000
#
# Coordination Sequence:
#
# PCOD8087375 Si02
#       8
#     8   8   8   8   8   8   8   8
#     4  10  20  31  47  70  99 133 174 216 252 298
#     4   9  18  36  59  81 104 130 166 217 276 322
#     4   8  17  36  59  80 104 130 165 220 274 320
#     4  11  21  30  51  79 105 137 168 215 256 317
#     4   9  19  32  45  63  90 130 173 213 252 291
#     4  10  21  33  50  79 107 140 178 216 261 307
#     4   9  19  34  49  67  98 140 178 211 250 297
#     4  10  19  32  50  69 100 140 175 209 249 297
#
# _framework density 17.850818
#
# number of rings (size 3 to 8) (size 9 to 14) (size 15 to 20)
#    0.000    2.500    1.250    1.500    3.500    4.500 
#    0.000    3.750    0.000    0.000    0.000    1.750 
#    0.000    0.000    0.000    0.000    0.000    0.000 
#
# Total GULP energy -396448.599091 kJ/mol
# GULP energy per Si atom -12389.018722 kJ/mol
# Density = 1.781019 g / cm^3
# Si number density = 17.850818 Si / 1000 Ang^3
#
#
#
# Elastic Constant Matrix: (Units=GPa)
#
#
# Indices 1 2 3 4 5 6 
#
# 1 95.9494 34.7111 53.3860 -0.0001 18.4905 0.0007
# 2 34.7111 70.8516 30.8752 0.0010 -1.6394 0.0004
# 3 53.3860 30.8752 87.7631 0.0050 9.6842 -0.0020
# 4 -0.0001 0.0010 0.0050 13.1403 0.0005 -0.5585
# 5 18.4905 -1.6394 9.6842 0.0005 35.8991 0.0005
# 6 0.0007 0.0004 -0.0020 -0.5585 0.0005 26.5222
#
#
#
# Elastic Compliance Matrix: (Units=1/GPa)
#
#
# Indices 1 2 3 4 5 6 
#
# 1 0.018658 -0.005590 -0.008549 0.000004 -0.007559 -0.000001
# 2 -0.005590 0.018550 -0.003645 0.000000 0.004710 -0.000001
# 3 -0.008549 -0.003645 0.017943 -0.000007 -0.000604 0.000002
# 4 0.000004 0.000000 -0.000007 0.076170 -0.000001 0.001604
# 5 -0.007559 0.004710 -0.000604 -0.000001 0.032127 -0.000001
# 6 -0.000001 -0.000001 0.000002 0.001604 -0.000001 0.037738
#
#
# Mechanical properties :
#
#
# Convention : Reuss Voigt Hill
#
# Bulk Modulus (GPa) = 51.06423 54.72320 52.89371
# Shear Modulus (GPa) = 20.55224 24.15177 22.35201
#
# Velocity S-wave (km/s) = 3.39681 3.68228 3.54242
# Velocity P-wave (km/s) = 6.63722 6.98579 6.81373
#
# Compressibility (1/GPa) = 0.01958318
#
# Stress axis : x y z
#
# Youngs Moduli (GPa) = 53.59712 53.90779 55.73079
#
# Poissons Ratio (x) = 0.30136 0.47642
# Poissons Ratio (y) = 0.29962 0.20315
# Poissons Ratio (z) = 0.45818 0.19650
#
# Static dielectric constant tensor:
#      x y z
#    x 3.791660 0.000000 0.341050 
#    y 0.000000 3.454130 0.000000 
#    z 0.341050 0.000000 3.199030 
# 
# 
# High freq. dielectric constant tensor:
#      x y z
#    x 1.702080 0.000000 0.016240 
#    y 0.000000 1.683230 0.000000 
#    z 0.016240 0.000000 1.656300 
# 
# From -- ./inp_files/379367.got.cif
#   From: 2010.06.25/outbox.cif.g09.slc.cpg/sg12_190_cif.got.tgz:379367.got - 2010.06.28 00:19:55.
