data_PCOD8087930
_publ_section_title
;
Structure prediction by ZEFSAII (Michael W. Deem and Ramdas Pophale) SiO2 
 PCOD8087930
Probable space group: C 2/M
;
_chemical_formula_sum "Si O2"
_cell_formula_units_Z 56
_cell_length_a 22.260512
_cell_length_b 8.770974
_cell_length_c 17.880635
_cell_angle_alpha 90.000000
_cell_angle_beta 121.081010
_cell_angle_gamma 90.000000
_cell_volume 2989.936460
_symmetry_space_group_name_H-M "C 2/M"
_symmetry_group_IT_number 12
_symmetry_cell_setting 'monoclinic'
loop_
_space_group_symop_operation_xyz
x,y,z
-x,y,-z
-x,-y,-z
x,-y,z
1/2+x,1/2+y,z
1/2-x,1/2+y,-z
1/2-x,1/2-y,-z
1/2+x,1/2-y,z
loop_
_atom_site_type_symbol
_atom_site_label
_atom_site_fract_x
_atom_site_fract_y
_atom_site_fract_z
Si Si1 0.451914 0.676247 0.037647
Si Si2 0.589762 0.324405 0.757856
Si Si3 0.324461 0.823917 0.625349
Si Si4 0.313471 0.179367 0.451365
Si Si5 0.955180 0.831604 0.759332
Si Si6 0.329047 0.182257 0.052044
Si Si7 0.570728 0.180872 0.585847
O O1 0.432267 0.500000 0.009174
O O2 0.503395 0.696261 0.139080
O O3 0.378281 0.760660 0.013097
O O4 0.500000 0.742704 0.000000
O O5 0.615163 0.500000 0.776138
O O6 0.508067 0.311246 0.724993
O O7 0.637205 0.231323 0.847115
O O8 0.592577 0.256542 0.677414
O O9 0.331080 0.757773 0.545466
O O10 0.261381 0.737679 0.625880
O O11 0.395213 0.794425 0.715951
O O12 0.306690 0.000000 0.613572
O O13 0.370385 0.242553 0.431683
O O14 0.314987 0.000000 0.452699
O O15 0.921063 0.000000 0.736035
O O16 0.324796 0.000000 0.044837
O O17 0.250000 0.250000 0.000000
O O18 0.500000 0.237860 0.500000
O O19 0.568579 0.000000 0.596530
#
# Coordination Sequence:
#
# PCOD8087930 Si02
#       7
#     8   8   8   8   8   8   8
#     4   9  19  38  61  86 116 149 188 234 285 343
#     4  10  21  37  57  83 113 145 187 233 279 336
#     4  10  19  32  52  75 100 137 181 224 266 316
#     4   9  19  34  50  71 104 141 177 219 269 324
#     4   9  18  33  54  78 105 139 175 217 271 328
#     4  11  22  39  63  88 117 155 196 240 294 351
#     4  10  20  35  55  80 111 147 186 228 278 333
#
# _framework density 18.729493999999999
#
# number of rings (size 3 to 8) (size 9 to 14) (size 15 to 20)
#    0.000    2.286    0.000    3.857    0.000    5.714 
#    2.571    0.000    0.000    0.000    0.000    0.000 
#    0.000    0.000    0.000    0.000    0.000    0.000 
#
# Total GULP energy -346990.323165 kJ/mol
# GULP energy per Si atom -12392.511542 kJ/mol
# Density = 1.868686 g / cm^3
# Si number density = 18.729494 Si / 1000 Ang^3
#
#
#
# Elastic Constant Matrix: (Units=GPa)
#
#
# Indices 1 2 3 4 5 6 
#
# 1 160.9724 48.5356 62.4843 0.0000 -4.4589 0.0000
# 2 48.5356 57.8244 32.0780 0.0000 -4.0055 0.0000
# 3 62.4843 32.0780 56.5722 0.0000 8.7510 0.0000
# 4 0.0000 0.0000 0.0000 30.0146 0.0000 -1.3804
# 5 -4.4589 -4.0055 8.7510 0.0000 27.5838 0.0000
# 6 0.0000 0.0000 0.0000 -1.3804 0.0000 20.9464
#
#
#
# Elastic Compliance Matrix: (Units=1/GPa)
#
#
# Indices 1 2 3 4 5 6 
#
# 1 0.012124 -0.002744 -0.012700 0.000000 0.005591 0.000000
# 2 -0.002744 0.027966 -0.014077 0.000000 0.008084 0.000000
# 3 -0.012700 -0.014077 0.042401 0.000000 -0.017549 0.000000
# 4 0.000000 0.000000 0.000000 0.033418 0.000000 0.002202
# 5 0.005591 0.008084 -0.017549 0.000000 0.043898 0.000000
# 6 0.000000 0.000000 0.000000 0.002202 0.000000 0.047886
#
#
# Mechanical properties :
#
#
# Convention : Reuss Voigt Hill
#
# Bulk Modulus (GPa) = 42.64702 62.39609 52.52156
# Shear Modulus (GPa) = 18.21142 24.52703 21.36922
#
# Velocity S-wave (km/s) = 3.12162 3.62268 3.38144
# Velocity P-wave (km/s) = 5.98432 7.13338 6.58397
#
# Compressibility (1/GPa) = 0.02344830
#
# Stress axis : x y z
#
# Youngs Moduli (GPa) = 82.47931 35.75740 23.58445
#
# Poissons Ratio (x) = 0.09812 0.29953
# Poissons Ratio (y) = 0.22632 0.33201
# Poissons Ratio (z) = 1.04750 0.50337
#
# Static dielectric constant tensor:
#      x y z
#    x 3.846680 0.000000 -0.077430 
#    y 0.000000 3.385840 0.000000 
#    z -0.077430 0.000000 3.331900 
# 
# 
# High freq. dielectric constant tensor:
#      x y z
#    x 1.736250 0.000000 0.002230 
#    y 0.000000 1.723020 0.000000 
#    z 0.002230 0.000000 1.718820 
# 
# From -- ./inp_files/281616.got.cif
#   From: 2010.06.25/outbox.cif.g09.slc.cpg/sg12_141_cif.got.tgz:281616.got - 2010.06.28 00:19:55.
