data_PCOD8087299
_publ_section_title
;
Structure prediction by ZEFSAII (Michael W. Deem and Ramdas Pophale) SiO2 
 PCOD8087299
Probable space group: C 2/M
;
_chemical_formula_sum "Si O2"
_cell_formula_units_Z 64
_cell_length_a 20.720460
_cell_length_b 9.080907
_cell_length_c 25.551496
_cell_angle_alpha 90.000000
_cell_angle_beta 130.165560
_cell_angle_gamma 90.000000
_cell_volume 3674.031026
_symmetry_space_group_name_H-M "C 2/M"
_symmetry_group_IT_number 12
_symmetry_cell_setting 'monoclinic'
loop_
_space_group_symop_operation_xyz
x,y,z
-x,y,-z
-x,-y,-z
x,-y,z
1/2+x,1/2+y,z
1/2-x,1/2+y,-z
1/2-x,1/2-y,-z
1/2+x,1/2-y,z
loop_
_atom_site_type_symbol
_atom_site_label
_atom_site_fract_x
_atom_site_fract_y
_atom_site_fract_z
Si Si1 0.423325 0.325055 0.994685
Si Si2 0.765136 0.826186 0.628684
Si Si3 0.319091 0.672134 0.500726
Si Si4 0.826072 0.825788 0.771258
Si Si5 0.260430 0.325012 0.847764
Si Si6 0.073513 0.170940 0.350480
Si Si7 0.589232 0.325056 0.791766
Si Si8 0.515303 0.674872 0.862815
O O1 0.427003 0.500000 0.994312
O O2 0.334424 0.269986 0.925196
O O3 0.500000 0.260811 0.000000
O O4 0.433395 0.268460 0.059527
O O5 0.684616 0.745795 0.558929
O O6 0.768725 0.780652 0.691453
O O7 0.850595 0.765819 0.645701
O O8 0.753947 0.000000 0.615158
O O9 0.299187 0.500000 0.485894
O O10 0.250000 0.750000 0.500000
O O11 0.408368 0.698312 0.577941
O O12 0.781799 0.767045 0.800606
O O13 0.920309 0.759385 0.814678
O O14 0.834861 0.000000 0.778996
O O15 0.250541 0.500000 0.843809
O O16 0.175194 0.251761 0.821730
O O17 0.982889 0.235306 0.286048
O O18 0.070589 0.000000 0.335247
O O19 0.600964 0.500000 0.794803
O O20 0.563634 0.271421 0.836401
O O21 0.509506 0.500000 0.859693
#
# Coordination Sequence:
#
# PCOD8087299 Si02
#       8
#     8   8   8   8   8   8   8   8
#     4   9  15  26  47  75  98 118 156 208 245 274
#     4   9  15  26  46  71  93 116 156 204 242 275
#     4   9  16  26  42  68  98 124 154 194 240 281
#     4   9  15  27  49  72  93 122 163 204 237 277
#     4  10  20  32  48  73 101 124 155 202 249 286
#     4   8  14  26  45  65  88 121 158 191 222 272
#     4  10  19  32  49  69  96 129 163 193 230 288
#     4   9  15  26  49  74  91 121 168 204 230 274
#
# _framework density 17.419559
#
# number of rings (size 3 to 8) (size 9 to 14) (size 15 to 20)
#    0.000    2.875    2.500    1.125    0.000    0.500 
#    0.000    3.750    0.000    1.875    0.000    5.250 
#    0.000    0.000    0.000    0.000    0.000    0.000 
#
# Total GULP energy -396529.311484 kJ/mol
# GULP energy per Si atom -12391.540984 kJ/mol
# Density = 1.737991 g / cm^3
# Si number density = 17.419559 Si / 1000 Ang^3
#
#
#
# Elastic Constant Matrix: (Units=GPa)
#
#
# Indices 1 2 3 4 5 6 
#
# 1 117.9579 23.3878 80.4040 0.0000 -2.9472 0.0000
# 2 23.3878 29.2899 37.4251 0.0000 -0.7212 0.0000
# 3 80.4040 37.4251 195.2080 0.0000 -9.6188 0.0000
# 4 0.0000 0.0000 0.0000 19.6837 0.0000 3.0595
# 5 -2.9472 -0.7212 -9.6188 0.0000 25.0646 0.0000
# 6 0.0000 0.0000 0.0000 3.0595 0.0000 20.5596
#
#
#
# Elastic Compliance Matrix: (Units=1/GPa)
#
#
# Indices 1 2 3 4 5 6 
#
# 1 0.012202 -0.004384 -0.004201 0.000000 -0.000303 0.000000
# 2 -0.004384 0.046899 -0.007282 0.000000 -0.001961 0.000000
# 3 -0.004201 -0.007282 0.008373 0.000000 0.002510 0.000000
# 4 0.000000 0.000000 0.000000 0.052006 0.000000 -0.007739
# 5 -0.000303 -0.001961 0.002510 0.000000 0.040768 0.000000
# 6 0.000000 0.000000 0.000000 -0.007739 0.000000 0.049791
#
#
# Mechanical properties :
#
#
# Convention : Reuss Voigt Hill
#
# Bulk Modulus (GPa) = 27.97951 69.43216 48.70584
# Shear Modulus (GPa) = 19.70943 26.47750 23.09346
#
# Velocity S-wave (km/s) = 3.36736 3.90293 3.64499
# Velocity P-wave (km/s) = 5.58711 7.76246 6.76282
#
# Compressibility (1/GPa) = 0.03574043
#
# Stress axis : x y z
#
# Youngs Moduli (GPa) = 81.95090 21.32258 119.43559
#
# Poissons Ratio (x) = 0.09347 0.50169
# Poissons Ratio (y) = 0.35926 0.86977
# Poissons Ratio (z) = 0.34424 0.15528
#
# Static dielectric constant tensor:
#      x y z
#    x 3.042920 0.000000 -0.126920 
#    y 0.000000 2.800360 0.000000 
#    z -0.126920 0.000000 3.939510 
# 
# 
# High freq. dielectric constant tensor:
#      x y z
#    x 1.639780 0.000000 -0.006610 
#    y 0.000000 1.619250 0.000000 
#    z -0.006610 0.000000 1.700190 
# 
# From -- ./inp_files/342883.got.cif
#   From: 2010.06.25/outbox.cif.g09.slc.cpg/sg12_172_cif.got.tgz:342883.got - 2010.06.28 00:19:55.
