data_PCOD8087388
_publ_section_title
;
Structure prediction by ZEFSAII (Michael W. Deem and Ramdas Pophale) SiO2 
 PCOD8087388
Probable space group: C 2/M
;
_chemical_formula_sum "Si O2"
_cell_formula_units_Z 64
_cell_length_a 31.298236
_cell_length_b 9.302576
_cell_length_c 15.516393
_cell_angle_alpha 90.000000
_cell_angle_beta 54.790439
_cell_angle_gamma 90.000000
_cell_volume 3691.150902
_symmetry_space_group_name_H-M "C 2/M"
_symmetry_group_IT_number 12
_symmetry_cell_setting 'monoclinic'
loop_
_space_group_symop_operation_xyz
x,y,z
-x,y,-z
-x,-y,-z
x,-y,z
1/2+x,1/2+y,z
1/2-x,1/2+y,-z
1/2-x,1/2-y,-z
1/2+x,1/2-y,z
loop_
_atom_site_type_symbol
_atom_site_label
_atom_site_fract_x
_atom_site_fract_y
_atom_site_fract_z
Si Si1 0.034582 0.330574 0.285258
Si Si2 0.678031 0.333978 0.532204
Si Si3 0.142663 0.665272 0.080110
Si Si4 0.229532 0.167217 0.652932
Si Si5 0.934284 0.832953 0.400167
Si Si6 0.690531 0.334814 0.173225
Si Si7 0.418827 0.664598 0.616360
Si Si8 0.292433 0.166809 0.155772
O O1 0.026943 0.500000 0.301810
O O2 0.082695 0.288092 0.166425
O O3 0.044689 0.265803 0.368258
O O4 0.982298 0.259820 0.306518
O O5 0.686130 0.500000 0.496190
O O6 0.714234 0.240247 0.427239
O O7 0.692330 0.306026 0.614569
O O8 0.618030 0.287516 0.589663
O O9 0.150372 0.500000 0.096248
O O10 0.183078 0.750419 0.093023
O O11 0.156917 0.692471 0.963673
O O12 0.200186 0.238819 0.767600
O O13 0.238666 0.000000 0.660225
O O14 0.927152 0.794055 0.508232
O O15 0.946726 0.000000 0.371723
O O16 0.697543 0.500000 0.139494
O O17 0.641801 0.309174 0.292973
O O18 0.741407 0.278669 0.163850
O O19 0.435069 0.500000 0.616389
O O20 0.286768 0.000000 0.188496
#
# Coordination Sequence:
#
# PCOD8087388 Si02
#       8
#     8   8   8   8   8   8   8   8
#     4  10  20  32  45  66  97 127 159 201 241 274
#     4   9  19  36  54  73 100 128 153 188 237 289
#     4   9  19  33  47  66  96 132 164 199 242 282
#     4  10  20  33  52  78 102 123 152 192 237 285
#     4  10  19  32  51  70  91 125 164 195 229 281
#     4   9  17  29  47  70  95 125 161 199 236 280
#     4   9  17  29  45  67  94 124 158 191 229 283
#     4  10  19  32  50  70  96 131 165 195 236 287
#
# _framework density 17.338766
#
# number of rings (size 3 to 8) (size 9 to 14) (size 15 to 20)
#    0.000    2.500    0.000    2.250    0.000    6.500 
#    0.000    2.500    0.000    0.750    0.000    5.250 
#    0.000    0.000    0.000    0.000    0.000    0.000 
#
# Total GULP energy -396874.977324 kJ/mol
# GULP energy per Si atom -12402.343041 kJ/mol
# Density = 1.729930 g / cm^3
# Si number density = 17.338766 Si / 1000 Ang^3
#
#
#
# Elastic Constant Matrix: (Units=GPa)
#
#
# Indices 1 2 3 4 5 6 
#
# 1 104.0232 47.6060 48.7354 0.0000 -14.0579 0.0000
# 2 47.6060 72.6218 48.0628 0.0000 -0.1288 0.0000
# 3 48.7354 48.0628 95.0724 0.0000 0.6979 0.0000
# 4 0.0000 0.0000 0.0000 28.4877 0.0000 0.4273
# 5 -14.0579 -0.1288 0.6979 0.0000 18.1177 0.0000
# 6 0.0000 0.0000 0.0000 0.4273 0.0000 24.6476
#
#
#
# Elastic Compliance Matrix: (Units=1/GPa)
#
#
# Indices 1 2 3 4 5 6 
#
# 1 0.017541 -0.008200 -0.004947 0.000000 0.013743 0.000000
# 2 -0.008200 0.024533 -0.008156 0.000000 -0.005874 0.000000
# 3 -0.004947 -0.008156 0.017211 0.000000 -0.004560 0.000000
# 4 0.000000 0.000000 0.000000 0.035112 0.000000 -0.000609
# 5 0.013743 -0.005874 -0.004560 0.000000 0.065992 0.000000
# 6 0.000000 0.000000 0.000000 -0.000609 0.000000 0.040582
#
#
# Mechanical properties :
#
#
# Convention : Reuss Voigt Hill
#
# Bulk Modulus (GPa) = 59.95721 62.28063 61.11892
# Shear Modulus (GPa) = 20.06938 22.73815 21.40377
#
# Velocity S-wave (km/s) = 3.40588 3.62526 3.51728
# Velocity P-wave (km/s) = 7.07966 7.31582 7.19871
#
# Compressibility (1/GPa) = 0.01667856
#
# Stress axis : x y z
#
# Youngs Moduli (GPa) = 57.00918 40.76207 58.10358
#
# Poissons Ratio (x) = 0.33426 0.28744
# Poissons Ratio (y) = 0.46749 0.47386
# Poissons Ratio (z) = 0.28203 0.33244
#
# Static dielectric constant tensor:
#      x y z
#    x 3.212970 0.000000 -0.148450 
#    y 0.000000 3.214080 0.000000 
#    z -0.148450 0.000000 3.241620 
# 
# 
# High freq. dielectric constant tensor:
#      x y z
#    x 1.655750 0.000000 -0.013330 
#    y 0.000000 1.668890 0.000000 
#    z -0.013330 0.000000 1.663900 
# 
# From -- ./inp_files/248965.got.cif
#   From: 2010.06.25/outbox.cif.g09.slc.cpg/sg12_125_cif.got.tgz:248965.got - 2010.06.28 00:19:55.
