data_PCOD8087336
_publ_section_title
;
Structure prediction by ZEFSAII (Michael W. Deem and Ramdas Pophale) SiO2 
 PCOD8087336
Probable space group: C 2/M
;
_chemical_formula_sum "Si O2"
_cell_formula_units_Z 48
_cell_length_a 23.594452
_cell_length_b 8.762221
_cell_length_c 20.763989
_cell_angle_alpha 90.000000
_cell_angle_beta 38.783729
_cell_angle_gamma 90.000000
_cell_volume 2688.898948
_symmetry_space_group_name_H-M "C 2/M"
_symmetry_group_IT_number 12
_symmetry_cell_setting 'monoclinic'
loop_
_space_group_symop_operation_xyz
x,y,z
-x,y,-z
-x,-y,-z
x,-y,z
1/2+x,1/2+y,z
1/2-x,1/2+y,-z
1/2-x,1/2-y,-z
1/2+x,1/2-y,z
loop_
_atom_site_type_symbol
_atom_site_label
_atom_site_fract_x
_atom_site_fract_y
_atom_site_fract_z
Si Si1 0.082821 0.180141 0.239208
Si Si2 0.227450 0.172693 0.781237
Si Si3 0.722145 0.674552 0.933678
Si Si4 0.945698 0.319889 0.109662
Si Si5 0.569964 0.820028 0.382788
Si Si6 0.550931 0.820290 0.141094
O O1 0.178339 0.261554 0.144820
O O2 0.038723 0.234750 0.345463
O O3 0.021059 0.235299 0.233666
O O4 0.093818 0.000000 0.229868
O O5 0.194413 0.184741 0.883783
O O6 0.159496 0.272443 0.798474
O O7 0.330103 0.235322 0.683862
O O8 0.223025 0.000000 0.759826
O O9 0.718075 0.500000 0.961730
O O10 0.654790 0.778615 0.034219
O O11 0.953404 0.500000 0.101298
O O12 0.988449 0.258038 0.138287
O O13 0.000000 0.251170 0.000000
O O14 0.500000 0.774837 0.500000
O O15 0.572037 0.000000 0.366545
O O16 0.540846 0.000000 0.159503
#
# Coordination Sequence:
#
# PCOD8087336 Si02
#       6
#     8   8   8   8   8   8
#     4  11  22  34  50  75 105 134 171 215 260 308
#     4   9  18  31  51  78 104 134 171 211 254 302
#     4  10  19  32  49  72 103 139 176 211 256 306
#     4  10  20  33  49  72 104 143 180 212 251 297
#     4   9  19  38  61  82 104 131 166 212 267 319
#     4  11  21  33  49  70 103 143 178 211 255 306
#
# _framework density 17.851171999999998
#
# number of rings (size 3 to 8) (size 9 to 14) (size 15 to 20)
#    0.000    2.000    1.667    4.000    0.000    4.667 
#    0.000    0.000    0.000    1.000    0.000    0.000 
#    0.000    0.000    0.000    0.000    0.000    0.000 
#
# Total GULP energy -297603.470104 kJ/mol
# GULP energy per Si atom -12400.144588 kJ/mol
# Density = 1.781054 g / cm^3
# Si number density = 17.851172 Si / 1000 Ang^3
#
#
#
# Elastic Constant Matrix: (Units=GPa)
#
#
# Indices 1 2 3 4 5 6 
#
# 1 121.0176 32.6862 47.6981 0.0003 19.2324 -0.0015
# 2 32.6862 42.8246 15.2065 -0.0025 5.9060 -0.0054
# 3 47.6981 15.2065 87.7870 -0.0007 10.8113 -0.0016
# 4 0.0003 -0.0025 -0.0007 22.8772 0.0010 0.5107
# 5 19.2324 5.9060 10.8113 0.0010 17.6175 -0.0012
# 6 -0.0015 -0.0054 -0.0016 0.5107 -0.0012 27.3332
#
#
#
# Elastic Compliance Matrix: (Units=1/GPa)
#
#
# Indices 1 2 3 4 5 6 
#
# 1 0.013742 -0.007404 -0.005022 -0.000001 -0.009438 -0.000001
# 2 -0.007404 0.029505 -0.000936 0.000003 -0.001234 0.000005
# 3 -0.005022 -0.000936 0.014677 0.000001 -0.003211 0.000000
# 4 -0.000001 0.000003 0.000001 0.043730 -0.000003 -0.000817
# 5 -0.009438 -0.001234 -0.003211 -0.000003 0.069449 0.000002
# 6 -0.000001 0.000005 0.000000 -0.000817 0.000002 0.036601
#
#
# Mechanical properties :
#
#
# Convention : Reuss Voigt Hill
#
# Bulk Modulus (GPa) = 32.05058 49.20119 40.62588
# Shear Modulus (GPa) = 20.42245 23.96814 22.19529
#
# Velocity S-wave (km/s) = 3.38604 3.66821 3.52995
# Velocity P-wave (km/s) = 5.76891 6.75002 6.27866
#
# Compressibility (1/GPa) = 0.03120069
#
# Stress axis : x y z
#
# Youngs Moduli (GPa) = 72.76777 33.89276 68.13218
#
# Poissons Ratio (x) = 0.25095 0.34215
# Poissons Ratio (y) = 0.53878 0.06377
# Poissons Ratio (z) = 0.36543 0.03172
#
# Static dielectric constant tensor:
#      x y z
#    x 3.558270 0.000000 0.222630 
#    y 0.000000 3.205450 0.000000 
#    z 0.222630 0.000000 3.125310 
# 
# 
# High freq. dielectric constant tensor:
#      x y z
#    x 1.695500 0.000000 0.012360 
#    y 0.000000 1.689900 0.000000 
#    z 0.012360 0.000000 1.654370 
# 
# From -- ./inp_files/323496.got.cif
#   From: 2010.06.25/outbox.cif.g09.slc.cpg/sg12_162_cif.got.tgz:323496.got - 2010.06.28 00:19:55.
