data_PCOD8087441
_publ_section_title
;
Structure prediction by ZEFSAII (Michael W. Deem and Ramdas Pophale) SiO2 
 PCOD8087441
Probable space group: C 2/M
;
_chemical_formula_sum "Si O2"
_cell_formula_units_Z 64
_cell_length_a 25.607413
_cell_length_b 14.108433
_cell_length_c 9.681541
_cell_angle_alpha 90.000000
_cell_angle_beta 83.386122
_cell_angle_gamma 90.000000
_cell_volume 3474.473790
_symmetry_space_group_name_H-M "C 2/M"
_symmetry_group_IT_number 12
_symmetry_cell_setting 'monoclinic'
loop_
_space_group_symop_operation_xyz
x,y,z
-x,y,-z
-x,-y,-z
x,-y,z
1/2+x,1/2+y,z
1/2-x,1/2+y,-z
1/2-x,1/2-y,-z
1/2+x,1/2-y,z
loop_
_atom_site_type_symbol
_atom_site_label
_atom_site_fract_x
_atom_site_fract_y
_atom_site_fract_z
Si Si1 0.482270 0.193531 0.664685
Si Si2 0.842573 0.388645 0.032400
Si Si3 0.536885 0.602368 0.357130
Si Si4 0.261176 0.108142 0.275165
Si Si5 0.333500 0.798359 0.463572
Si Si6 0.082452 0.388709 0.750993
Si Si7 0.132723 0.387592 0.275456
Si Si8 0.653706 0.605053 0.426114
O O1 0.500000 0.190599 0.500000
O O2 0.479264 0.303035 0.720903
O O3 0.522067 0.142025 0.757095
O O4 0.428082 0.138229 0.691453
O O5 0.843738 0.500000 0.013527
O O6 0.788313 0.355733 0.124607
O O7 0.892773 0.356967 0.109855
O O8 0.846743 0.346050 0.877772
O O9 0.500000 0.594317 0.500000
O O10 0.532098 0.500000 0.278350
O O11 0.597203 0.620205 0.377742
O O12 0.281645 0.169581 0.398331
O O13 0.198031 0.116039 0.291639
O O14 0.280088 0.000000 0.293914
O O15 0.386312 0.838616 0.381176
O O16 0.331501 0.835253 0.621754
O O17 0.336649 0.683815 0.459568
O O18 0.087706 0.500000 0.727811
O O19 0.139667 0.500000 0.288721
O O20 0.658315 0.500000 0.492259
#
# Coordination Sequence:
#
# PCOD8087441 Si02
#       8
#     8   8   8   8   8   8   8   8
#     4  11  19  29  46  75 103 128 168 208 251 296
#     4   8  18  34  48  69 102 141 170 195 241 301
#     4   9  17  31  48  71 101 130 161 209 255 293
#     4   9  18  33  53  74 101 136 168 201 248 304
#     4  11  18  31  50  78 103 128 167 207 253 293
#     4  10  19  32  50  72 106 142 167 196 246 308
#     4  11  20  30  48  73 106 135 166 206 246 296
#     4  10  19  32  51  75 100 131 171 211 249 297
#
# _framework density 18.420055999999999
#
# number of rings (size 3 to 8) (size 9 to 14) (size 15 to 20)
#    0.000    2.125    2.500    3.375    0.000    1.000 
#    0.000    2.500    0.000    0.000    0.000    9.625 
#    0.000    0.000    0.000    0.000    0.000    0.000 
#
# Total GULP energy -396538.541515 kJ/mol
# GULP energy per Si atom -12391.829422 kJ/mol
# Density = 1.837813 g / cm^3
# Si number density = 18.420056 Si / 1000 Ang^3
#
#
#
# Elastic Constant Matrix: (Units=GPa)
#
#
# Indices 1 2 3 4 5 6 
#
# 1 95.0072 10.8019 36.8036 0.0000 -17.7184 0.0000
# 2 10.8019 96.6403 28.7996 0.0000 -4.5508 0.0000
# 3 36.8036 28.7996 105.5102 0.0000 -0.8198 0.0000
# 4 0.0000 0.0000 0.0000 7.4581 0.0000 -5.4481
# 5 -17.7184 -4.5508 -0.8198 0.0000 15.7939 0.0000
# 6 0.0000 0.0000 0.0000 -5.4481 0.0000 38.3030
#
#
#
# Elastic Compliance Matrix: (Units=1/GPa)
#
#
# Indices 1 2 3 4 5 6 
#
# 1 0.015940 0.000732 -0.005621 0.000000 0.017801 0.000000
# 2 0.000732 0.011450 -0.003350 0.000000 0.003946 0.000000
# 3 -0.005621 -0.003350 0.012301 0.000000 -0.006633 0.000000
# 4 0.000000 0.000000 0.000000 0.149628 0.000000 0.021283
# 5 0.017801 0.003946 -0.006633 0.000000 0.084078 0.000000
# 6 0.000000 0.000000 0.000000 0.021283 0.000000 0.029135
#
#
# Mechanical properties :
#
#
# Convention : Reuss Voigt Hill
#
# Bulk Modulus (GPa) = 43.08113 49.99642 46.53877
# Shear Modulus (GPa) = 15.30227 27.02787 21.16507
#
# Velocity S-wave (km/s) = 2.88538 3.83470 3.39340
# Velocity P-wave (km/s) = 5.87703 6.84163 6.37759
#
# Compressibility (1/GPa) = 0.02321202
#
# Stress axis : x y z
#
# Youngs Moduli (GPa) = 62.73633 87.33633 81.29122
#
# Poissons Ratio (x) = -0.06392 0.45698
# Poissons Ratio (y) = -0.04591 0.27232
# Poissons Ratio (z) = 0.35267 0.29257
#
# Static dielectric constant tensor:
#      x y z
#    x 3.455210 0.000000 -0.173890 
#    y 0.000000 3.717870 0.000000 
#    z -0.173890 0.000000 3.312740 
# 
# 
# High freq. dielectric constant tensor:
#      x y z
#    x 1.720590 0.000000 -0.018190 
#    y 0.000000 1.720300 0.000000 
#    z -0.018190 0.000000 1.673340 
# 
# From -- ./inp_files/104564.got.cif
#   From: 2010.06.25/outbox.cif.g09.slc.cpg/sg12_53_cif.got.tgz:104564.got - 2010.06.28 00:19:55.
