data_PCOD8087644
_publ_section_title
;
Structure prediction by ZEFSAII (Michael W. Deem and Ramdas Pophale) SiO2 
 PCOD8087644
Probable space group: C 2/M
;
_chemical_formula_sum "Si O2"
_cell_formula_units_Z 64
_cell_length_a 13.768437
_cell_length_b 13.876490
_cell_length_c 25.001164
_cell_angle_alpha 90.000000
_cell_angle_beta 137.379936
_cell_angle_gamma 90.000000
_cell_volume 3234.438696
_symmetry_space_group_name_H-M "C 2/M"
_symmetry_group_IT_number 12
_symmetry_cell_setting 'monoclinic'
loop_
_space_group_symop_operation_xyz
x,y,z
-x,y,-z
-x,-y,-z
x,-y,z
1/2+x,1/2+y,z
1/2-x,1/2+y,-z
1/2-x,1/2-y,-z
1/2+x,1/2-y,z
loop_
_atom_site_type_symbol
_atom_site_label
_atom_site_fract_x
_atom_site_fract_y
_atom_site_fract_z
Si Si1 0.727127 0.392091 0.271103
Si Si2 0.333506 0.612129 0.181982
Si Si3 0.046813 0.308923 0.076031
Si Si4 0.265792 0.891079 0.973738
Si Si5 0.523918 0.396032 0.093583
Si Si6 0.968149 0.389319 0.646441
Si Si7 0.624340 0.290631 0.330496
Si Si8 0.873687 0.612391 0.488383
O O1 0.748664 0.500000 0.305706
O O2 0.583723 0.392096 0.178109
O O3 0.708487 0.310377 0.308889
O O4 0.861047 0.369326 0.286794
O O5 0.368068 0.500000 0.196995
O O6 0.187775 0.637731 0.156241
O O7 0.301653 0.650801 0.109012
O O8 0.467209 0.663024 0.264151
O O9 0.082180 0.194698 0.084126
O O10 0.000000 0.353260 0.000000
O O11 0.902800 0.330078 0.052361
O O12 0.147517 0.887603 0.972169
O O13 0.317352 0.000000 0.984051
O O14 0.566495 0.500000 0.084425
O O15 0.934949 0.500000 0.648725
O O16 0.895878 0.322220 0.662720
O O17 0.910326 0.363641 0.564305
O O18 0.721411 0.337265 0.415917
O O19 0.853813 0.500000 0.470654
O O20 0.000000 0.651001 0.500000
#
# Coordination Sequence:
#
# PCOD8087644 Si02
#       8
#     8   8   8   8   8   8   8   8
#     4  10  19  35  58  83 109 142 186 235 275 318
#     4  10  19  32  51  79 103 125 169 224 269 311
#     4  10  20  32  48  73 106 139 168 211 279 334
#     4   9  17  31  51  72  95 130 170 214 263 315
#     4  10  19  32  51  74 100 134 182 224 260 314
#     4  10  22  37  55  84 118 149 181 223 276 327
#     4  12  20  33  60  86 109 142 186 226 272 323
#     4  10  19  34  58  88 114 140 183 234 271 313
#
# _framework density 19.787051000000002
#
# number of rings (size 3 to 8) (size 9 to 14) (size 15 to 20)
#    0.000    1.875    2.500    3.000    0.000    1.750 
#    0.000    0.000    0.000    6.375    0.000    0.000 
#    0.000    0.000    0.000    0.000    0.000    0.000 
#
# Total GULP energy -396543.902083 kJ/mol
# GULP energy per Si atom -12391.996940 kJ/mol
# Density = 1.974201 g / cm^3
# Si number density = 19.787051 Si / 1000 Ang^3
#
#
#
# Elastic Constant Matrix: (Units=GPa)
#
#
# Indices 1 2 3 4 5 6 
#
# 1 48.8198 33.3433 16.7165 0.0000 5.0187 0.0000
# 2 33.3433 98.1384 31.0169 0.0000 2.2705 0.0000
# 3 16.7165 31.0169 85.8353 0.0000 25.0504 0.0000
# 4 0.0000 0.0000 0.0000 26.2132 0.0000 0.1329
# 5 5.0187 2.2705 25.0504 0.0000 26.0984 0.0000
# 6 0.0000 0.0000 0.0000 0.1329 0.0000 34.9983
#
#
#
# Elastic Compliance Matrix: (Units=1/GPa)
#
#
# Indices 1 2 3 4 5 6 
#
# 1 0.027243 -0.008821 -0.001130 0.000000 -0.003387 0.000000
# 2 -0.008821 0.014693 -0.005158 0.000000 0.005369 0.000000
# 3 -0.001130 -0.005158 0.018809 0.000000 -0.017387 0.000000
# 4 0.000000 0.000000 0.000000 0.038149 0.000000 -0.000145
# 5 -0.003387 0.005369 -0.017387 0.000000 0.055190 0.000000
# 6 0.000000 0.000000 0.000000 -0.000145 0.000000 0.028573
#
#
# Mechanical properties :
#
#
# Convention : Reuss Voigt Hill
#
# Bulk Modulus (GPa) = 32.75822 43.88299 38.32060
# Shear Modulus (GPa) = 22.41654 27.57643 24.99648
#
# Velocity S-wave (km/s) = 3.36949 3.73723 3.55811
# Velocity P-wave (km/s) = 5.63288 6.39126 6.02402
#
# Compressibility (1/GPa) = 0.03052669
#
# Stress axis : x y z
#
# Youngs Moduli (GPa) = 36.70691 68.06121 53.16721
#
# Poissons Ratio (x) = 0.60034 0.06006
# Poissons Ratio (y) = 0.32378 0.27426
# Poissons Ratio (z) = 0.04147 0.35109
#
# Static dielectric constant tensor:
#      x y z
#    x 3.336930 0.000000 0.304900 
#    y 0.000000 3.597910 0.000000 
#    z 0.304900 0.000000 3.736580 
# 
# 
# High freq. dielectric constant tensor:
#      x y z
#    x 1.738540 0.000000 0.025340 
#    y 0.000000 1.764010 0.000000 
#    z 0.025340 0.000000 1.775740 
# 
# From -- ./inp_files/340187.got.cif
#   From: 2010.06.25/outbox.cif.g09.slc.cpg/sg12_171_cif.got.tgz:340187.got - 2010.06.28 00:19:55.
