data_PCOD8087069
_publ_section_title
;
Structure prediction by ZEFSAII (Michael W. Deem and Ramdas Pophale) SiO2 
 PCOD8087069
Probable space group: C 2/M
;
_chemical_formula_sum "Si O2"
_cell_formula_units_Z 64
_cell_length_a 20.514778
_cell_length_b 9.282235
_cell_length_c 24.617792
_cell_angle_alpha 90.000000
_cell_angle_beta 129.645363
_cell_angle_gamma 90.000000
_cell_volume 3609.640103
_symmetry_space_group_name_H-M "C 2/M"
_symmetry_group_IT_number 12
_symmetry_cell_setting 'monoclinic'
loop_
_space_group_symop_operation_xyz
x,y,z
-x,y,-z
-x,-y,-z
x,-y,z
1/2+x,1/2+y,z
1/2-x,1/2+y,-z
1/2-x,1/2-y,-z
1/2+x,1/2-y,z
loop_
_atom_site_type_symbol
_atom_site_label
_atom_site_fract_x
_atom_site_fract_y
_atom_site_fract_z
Si Si1 0.518062 0.667586 0.422420
Si Si2 0.365018 0.666824 0.417803
Si Si3 0.035462 0.166401 0.222040
Si Si4 0.782639 0.669249 0.201428
Si Si5 0.276308 0.332619 0.711686
Si Si6 0.722789 0.832130 0.068398
Si Si7 0.021522 0.330096 0.703366
Si Si8 0.373945 0.664965 0.068451
O O1 0.512540 0.500000 0.403670
O O2 0.434458 0.715851 0.410578
O O3 0.600091 0.697406 0.503279
O O4 0.527452 0.762587 0.373732
O O5 0.344671 0.500000 0.399499
O O6 0.278840 0.753920 0.363517
O O7 0.126005 0.204512 0.245229
O O8 0.019831 0.267992 0.264627
O O9 0.968040 0.199108 0.138895
O O10 0.028828 0.000000 0.237138
O O11 0.768806 0.500000 0.185007
O O12 0.750552 0.720870 0.243025
O O13 0.726426 0.754418 0.128149
O O14 0.880267 0.713351 0.246916
O O15 0.257318 0.500000 0.695281
O O16 0.810264 0.800580 0.083817
O O17 0.706200 0.000000 0.068546
O O18 0.644930 0.767015 0.992699
O O19 0.008482 0.500000 0.695327
O O20 0.363573 0.500000 0.044069
#
# Coordination Sequence:
#
# PCOD8087069 Si02
#       8
#     8   8   8   8   8   8   8   8
#     4   9  18  33  54  80 109 141 177 218 266 318
#     4   9  18  33  54  80 109 141 177 219 266 315
#     4  10  21  38  57  77 107 146 181 214 263 326
#     4  10  20  34  52  79 110 138 173 218 265 313
#     4  10  21  37  56  79 109 144 179 217 265 320
#     4  10  19  31  53  81 104 134 176 221 265 308
#     4  11  21  33  54  83 110 137 176 226 269 307
#     4   9  18  33  52  76 105 137 174 217 264 313
#
# _framework density 17.730298999999999
#
# number of rings (size 3 to 8) (size 9 to 14) (size 15 to 20)
#    0.000    2.250    2.500    1.500    0.000    3.000 
#    0.000    2.500    0.000    3.750    0.000    0.000 
#    0.000    0.000    0.000    0.000    0.000    0.000 
#
# Total GULP energy -396910.375340 kJ/mol
# GULP energy per Si atom -12403.449229 kJ/mol
# Density = 1.768994 g / cm^3
# Si number density = 17.730299 Si / 1000 Ang^3
#
#
#
# Elastic Constant Matrix: (Units=GPa)
#
#
# Indices 1 2 3 4 5 6 
#
# 1 77.8811 39.6060 54.5309 0.0000 2.7838 0.0000
# 2 39.6060 71.3403 65.1671 0.0000 -3.3634 0.0000
# 3 54.5309 65.1671 135.7272 0.0000 3.0951 0.0000
# 4 0.0000 0.0000 0.0000 35.6766 0.0000 -1.6214
# 5 2.7838 -3.3634 3.0951 0.0000 27.8495 0.0000
# 6 0.0000 0.0000 0.0000 -1.6214 0.0000 23.6249
#
#
#
# Elastic Compliance Matrix: (Units=1/GPa)
#
#
# Indices 1 2 3 4 5 6 
#
# 1 0.019568 -0.006834 -0.004528 0.000000 -0.002278 0.000000
# 2 -0.006834 0.027894 -0.010767 0.000000 0.005249 0.000000
# 3 -0.004528 -0.010767 0.014412 0.000000 -0.002449 0.000000
# 4 0.000000 0.000000 0.000000 0.028117 0.000000 0.001930
# 5 -0.002278 0.005249 -0.002449 0.000000 0.037041 0.000000
# 6 0.000000 0.000000 0.000000 0.001930 0.000000 0.042461
#
#
# Mechanical properties :
#
#
# Convention : Reuss Voigt Hill
#
# Bulk Modulus (GPa) = 56.76860 67.06185 61.91523
# Shear Modulus (GPa) = 22.76618 25.80649 24.28634
#
# Velocity S-wave (km/s) = 3.58722 3.81924 3.70505
# Velocity P-wave (km/s) = 7.01747 7.57326 7.30066
#
# Compressibility (1/GPa) = 0.01761537
#
# Stress axis : x y z
#
# Youngs Moduli (GPa) = 51.10445 35.84992 69.38471
#
# Poissons Ratio (x) = 0.24501 0.31420
# Poissons Ratio (y) = 0.34926 0.74705
# Poissons Ratio (z) = 0.23142 0.38599
#
# Static dielectric constant tensor:
#      x y z
#    x 3.067380 0.000000 0.001480 
#    y 0.000000 3.218800 0.000000 
#    z 0.001480 0.000000 3.329990 
# 
# 
# High freq. dielectric constant tensor:
#      x y z
#    x 1.658480 0.000000 -0.002730 
#    y 0.000000 1.685650 0.000000 
#    z -0.002730 0.000000 1.696500 
# 
# From -- ./inp_files/346070.got.cif
#   From: 2010.06.25/outbox.cif.g09.slc.cpg/sg12_174_cif.got.tgz:346070.got - 2010.06.28 00:19:55.
