data_PCOD8087544
_publ_section_title
;
Structure prediction by ZEFSAII (Michael W. Deem and Ramdas Pophale) SiO2 
 PCOD8087544
Probable space group: C 2/M
;
_chemical_formula_sum "Si O2"
_cell_formula_units_Z 56
_cell_length_a 12.297034
_cell_length_b 23.198582
_cell_length_c 20.436444
_cell_angle_alpha 90.000000
_cell_angle_beta 148.770135
_cell_angle_gamma 90.000000
_cell_volume 3022.686548
_symmetry_space_group_name_H-M "C 2/M"
_symmetry_group_IT_number 12
_symmetry_cell_setting 'monoclinic'
loop_
_space_group_symop_operation_xyz
x,y,z
-x,y,-z
-x,-y,-z
x,-y,z
1/2+x,1/2+y,z
1/2-x,1/2+y,-z
1/2-x,1/2-y,-z
1/2+x,1/2-y,z
loop_
_atom_site_type_symbol
_atom_site_label
_atom_site_fract_x
_atom_site_fract_y
_atom_site_fract_z
Si Si1 0.247393 0.330897 0.299117
Si Si2 0.277321 0.435409 0.918835
Si Si3 0.495203 0.758581 0.637026
Si Si4 0.213336 0.332461 0.967131
Si Si5 0.925707 0.626019 0.656938
Si Si6 0.266246 0.767080 0.899348
Si Si7 0.023337 0.936226 0.434720
O O1 0.383938 0.272347 0.360743
O O2 0.200326 0.337851 0.352079
O O3 0.361132 0.387469 0.326995
O O4 0.034615 0.324523 0.149136
O O5 0.218215 0.500000 0.908972
O O6 0.105539 0.413071 0.779661
O O7 0.500000 0.432251 0.000000
O O8 0.275284 0.398425 0.984643
O O9 0.250000 0.750000 0.500000
O O10 0.528077 0.827964 0.658833
O O11 0.594950 0.729538 0.753658
O O12 0.322525 0.309751 0.089385
O O13 0.282496 0.297060 0.938044
O O14 0.757991 0.584298 0.535401
O O15 0.500000 0.786081 0.000000
O O16 0.000000 0.941507 0.500000
O O17 0.980321 0.000000 0.381575
#
# Coordination Sequence:
#
# PCOD8087544 Si02
#       7
#     8   8   8   8   8   8   8
#     4  10  19  32  50  77 108 139 171 225 268 319
#     4  10  20  35  56  82 108 135 181 239 278 316
#     4  12  22  33  53  81 116 143 179 225 271 321
#     4  10  21  34  56  78 108 144 182 222 273 337
#     4  10  20  33  50  78 110 140 175 219 277 332
#     4  11  21  35  55  78 109 151 183 218 270 336
#     4   9  17  30  49  71 101 138 174 215 270 323
#
# _framework density 18.526565000000002
#
# number of rings (size 3 to 8) (size 9 to 14) (size 15 to 20)
#    0.000    1.714    5.714    0.857    0.000    3.429 
#    0.000    0.000    0.000    1.286    0.000    0.000 
#    0.000    3.429    0.000    0.000    0.000    0.000 
#
# Total GULP energy -347003.577066 kJ/mol
# GULP energy per Si atom -12392.984895 kJ/mol
# Density = 1.848440 g / cm^3
# Si number density = 18.526565 Si / 1000 Ang^3
#
#
#
# Elastic Constant Matrix: (Units=GPa)
#
#
# Indices 1 2 3 4 5 6 
#
# 1 46.1178 37.0307 23.2797 0.0000 10.1772 -0.0010
# 2 37.0307 131.7780 14.8974 -0.0021 14.9892 0.0027
# 3 23.2797 14.8974 65.6252 -0.0195 1.9507 0.0058
# 4 0.0000 -0.0021 -0.0195 27.5907 -0.0040 1.4884
# 5 10.1772 14.9892 1.9507 -0.0040 21.7962 0.0003
# 6 -0.0010 0.0027 0.0058 1.4884 0.0003 26.5602
#
#
#
# Elastic Compliance Matrix: (Units=1/GPa)
#
#
# Indices 1 2 3 4 5 6 
#
# 1 0.035355 -0.007568 -0.010516 -0.000010 -0.010363 0.000005
# 2 -0.007568 0.010047 0.000505 0.000001 -0.003421 -0.000001
# 3 -0.010516 0.000505 0.018768 0.000014 0.002883 -0.000005
# 4 -0.000010 0.000001 0.000014 0.036354 0.000010 -0.002037
# 5 -0.010363 -0.003421 0.002883 0.000010 0.052813 -0.000002
# 6 0.000005 -0.000001 -0.000005 -0.002037 -0.000002 0.037765
#
#
# Mechanical properties :
#
#
# Convention : Reuss Voigt Hill
#
# Bulk Modulus (GPa) = 34.46582 43.77074 39.11828
# Shear Modulus (GPa) = 21.19280 26.41029 23.80154
#
# Velocity S-wave (km/s) = 3.38585 3.77972 3.58819
# Velocity P-wave (km/s) = 5.82487 6.53648 6.19091
#
# Compressibility (1/GPa) = 0.02901425
#
# Stress axis : x y z
#
# Youngs Moduli (GPa) = 28.28437 99.53160 53.28221
#
# Poissons Ratio (x) = 0.75321 0.56031
# Poissons Ratio (y) = 0.21404 -0.02693
# Poissons Ratio (z) = 0.29743 -0.05030
#
# Static dielectric constant tensor:
#      x y z
#    x 3.165260 0.000000 0.212470 
#    y 0.000000 3.770510 0.000000 
#    z 0.212470 0.000000 3.514480 
# 
# 
# High freq. dielectric constant tensor:
#      x y z
#    x 1.678220 0.000000 0.025650 
#    y 0.000000 1.718800 0.000000 
#    z 0.025650 0.000000 1.720370 
# 
# From -- ./inp_files/307242.got.cif
#   From: 2010.06.25/outbox.cif.g09.slc.cpg/sg12_154_cif.got.tgz:307242.got - 2010.06.28 00:19:55.
