data_PCOD8087898
_publ_section_title
;
Structure prediction by ZEFSAII (Michael W. Deem and Ramdas Pophale) SiO2 
 PCOD8087898
Probable space group: C 2/M
;
_chemical_formula_sum "Si O2"
_cell_formula_units_Z 64
_cell_length_a 16.268422
_cell_length_b 9.397058
_cell_length_c 21.819576
_cell_angle_alpha 90.000000
_cell_angle_beta 88.968242
_cell_angle_gamma 90.000000
_cell_volume 3335.133519
_symmetry_space_group_name_H-M "C 2/M"
_symmetry_group_IT_number 12
_symmetry_cell_setting 'monoclinic'
loop_
_space_group_symop_operation_xyz
x,y,z
-x,y,-z
-x,-y,-z
x,-y,z
1/2+x,1/2+y,z
1/2-x,1/2+y,-z
1/2-x,1/2-y,-z
1/2+x,1/2-y,z
loop_
_atom_site_type_symbol
_atom_site_label
_atom_site_fract_x
_atom_site_fract_y
_atom_site_fract_z
Si Si1 0.172322 0.662151 0.623727
Si Si2 0.331776 0.830582 0.626553
Si Si3 0.340534 0.332484 0.142121
Si Si4 0.083335 0.665470 0.254573
Si Si5 0.404792 0.162343 0.247090
Si Si6 0.090905 0.330899 0.499959
Si Si7 0.342257 0.835078 0.872333
Si Si8 0.492831 0.665625 0.928748
O O1 0.203326 0.500000 0.614445
O O2 0.243872 0.766925 0.641255
O O3 0.108147 0.671590 0.679881
O O4 0.133579 0.721660 0.561460
O O5 0.388368 0.769994 0.680776
O O6 0.362504 0.772739 0.560578
O O7 0.326380 0.000000 0.627860
O O8 0.342396 0.500000 0.153759
O O9 0.341866 0.255524 0.208054
O O10 0.252931 0.293428 0.110025
O O11 0.420441 0.281838 0.102077
O O12 0.068231 0.500000 0.265982
O O13 0.149453 0.694433 0.200567
O O14 0.995599 0.728560 0.234611
O O15 0.396373 0.000000 0.224225
O O16 0.087045 0.500000 0.498438
O O17 0.000000 0.265824 0.500000
O O18 0.410985 0.745404 0.906970
O O19 0.359158 0.000000 0.887552
O O20 0.479444 0.500000 0.914886
O O21 0.500000 0.697300 0.000000
#
# Coordination Sequence:
#
# PCOD8087898 Si02
#       8
#     8   8   8   8   8   8   8   8
#     4  10  20  32  48  74 105 133 170 224 273 319
#     4  10  19  32  52  74 100 138 178 218 268 326
#     4  10  21  37  58  85 115 146 184 231 277 323
#     4   9  17  31  52  77 103 134 178 225 265 313
#     4  10  19  33  54  78 106 142 182 225 274 326
#     4   9  17  31  51  73  96 130 178 223 265 318
#     4  10  20  36  58  83 112 146 187 232 272 319
#     4  10  22  40  59  83 118 152 181 221 275 330
#
# _framework density 19.189637000000001
#
# number of rings (size 3 to 8) (size 9 to 14) (size 15 to 20)
#    0.000    2.250    1.250    1.875    0.000    5.750 
#    0.000    1.250    0.000    3.000    0.000    0.000 
#    0.000    0.000    0.000    0.000    0.000    0.000 
#
# Total GULP energy -396649.144449 kJ/mol
# GULP energy per Si atom -12395.285764 kJ/mol
# Density = 1.914596 g / cm^3
# Si number density = 19.189637 Si / 1000 Ang^3
#
#
#
# Elastic Constant Matrix: (Units=GPa)
#
#
# Indices 1 2 3 4 5 6 
#
# 1 147.6505 40.8924 51.0145 0.0000 13.6518 0.0000
# 2 40.8924 35.6285 33.8116 0.0000 8.3222 0.0000
# 3 51.0145 33.8116 103.5970 0.0000 12.1212 0.0000
# 4 0.0000 0.0000 0.0000 23.3050 0.0000 3.2917
# 5 13.6518 8.3222 12.1212 0.0000 29.3436 0.0000
# 6 0.0000 0.0000 0.0000 3.2917 0.0000 27.2509
#
#
#
# Elastic Compliance Matrix: (Units=1/GPa)
#
#
# Indices 1 2 3 4 5 6 
#
# 1 0.010182 -0.009812 -0.001663 0.000000 -0.001267 0.000000
# 2 -0.009812 0.051278 -0.011282 0.000000 -0.005318 0.000000
# 3 -0.001663 -0.011282 0.014384 0.000000 -0.001968 0.000000
# 4 0.000000 0.000000 0.000000 0.043654 0.000000 -0.005273
# 5 -0.001267 -0.005318 -0.001968 0.000000 0.036990 0.000000
# 6 0.000000 0.000000 0.000000 -0.005273 0.000000 0.037333
#
#
# Mechanical properties :
#
#
# Convention : Reuss Voigt Hill
#
# Bulk Modulus (GPa) = 32.97090 59.81258 46.39174
# Shear Modulus (GPa) = 20.04448 26.72375 23.38411
#
# Velocity S-wave (km/s) = 3.23545 3.73582 3.49460
# Velocity P-wave (km/s) = 5.58359 7.06012 6.36482
#
# Compressibility (1/GPa) = 0.03032977
#
# Stress axis : x y z
#
# Youngs Moduli (GPa) = 98.21196 19.50162 69.52007
#
# Poissons Ratio (x) = 0.19135 0.11563
# Poissons Ratio (y) = 0.96365 0.78432
# Poissons Ratio (z) = 0.16336 0.22002
#
# Static dielectric constant tensor:
#      x y z
#    x 3.687920 0.000000 -0.021790 
#    y 0.000000 3.144210 0.000000 
#    z -0.021790 0.000000 3.593530 
# 
# 
# High freq. dielectric constant tensor:
#      x y z
#    x 1.758720 0.000000 -0.000180 
#    y 0.000000 1.707900 0.000000 
#    z -0.000180 0.000000 1.751760 
# 
# From -- ./inp_files/338877.got.cif
#   From: 2010.06.25/outbox.cif.g09.slc.cpg/sg12_170_cif.got.tgz:338877.got - 2010.06.28 00:19:55.
