data_PCOD8087427
_publ_section_title
;
Structure prediction by ZEFSAII (Michael W. Deem and Ramdas Pophale) SiO2 
 PCOD8087427
Probable space group: C 2/M
;
_chemical_formula_sum "Si O2"
_cell_formula_units_Z 48
_cell_length_a 24.417900
_cell_length_b 8.936446
_cell_length_c 11.664458
_cell_angle_alpha 90.000000
_cell_angle_beta 74.916046
_cell_angle_gamma 90.000000
_cell_volume 2457.595912
_symmetry_space_group_name_H-M "C 2/M"
_symmetry_group_IT_number 12
_symmetry_cell_setting 'monoclinic'
loop_
_space_group_symop_operation_xyz
x,y,z
-x,y,-z
-x,-y,-z
x,-y,z
1/2+x,1/2+y,z
1/2-x,1/2+y,-z
1/2-x,1/2-y,-z
1/2+x,1/2-y,z
loop_
_atom_site_type_symbol
_atom_site_label
_atom_site_fract_x
_atom_site_fract_y
_atom_site_fract_z
Si Si1 0.622487 0.178356 0.173211
Si Si2 0.718090 0.326176 0.250902
Si Si3 0.340360 0.174797 0.247677
Si Si4 0.832581 0.670242 0.504877
Si Si5 0.556361 0.831001 0.423948
Si Si6 0.935414 0.678515 0.028356
O O1 0.685151 0.243227 0.165514
O O2 0.581527 0.243358 0.295291
O O3 0.596165 0.235867 0.068905
O O4 0.628028 0.000000 0.175333
O O5 0.703076 0.500000 0.253281
O O6 0.785418 0.297327 0.197092
O O7 0.702584 0.268084 0.386234
O O8 0.329052 0.244175 0.379983
O O9 0.350374 0.000000 0.261978
O O10 0.397032 0.239487 0.155040
O O11 0.809029 0.500000 0.521647
O O12 0.898677 0.672642 0.498954
O O13 0.500000 0.745961 0.500000
O O14 0.539484 0.000000 0.399114
O O15 0.936954 0.500000 0.026854
O O16 0.000000 0.741317 0.000000
#
# Coordination Sequence:
#
# PCOD8087427 Si02
#       6
#     8   8   8   8   8   8
#     4   9  18  32  50  74 101 129 164 207 247 291
#     4  10  19  32  50  72 102 135 167 202 246 294
#     4   9  18  30  47  74 103 132 163 203 251 296
#     4   9  17  30  49  74 103 128 160 206 252 296
#     4   8  14  23  41  69  95 121 153 193 241 286
#     4   9  18  31  50  77 104 127 161 210 255 292
#
# _framework density 19.531282999999998
#
# number of rings (size 3 to 8) (size 9 to 14) (size 15 to 20)
#    0.000    3.000    0.000    2.000    2.333    0.667 
#    0.000    0.833    0.000   10.500    0.000    0.000 
#    0.000    0.000    0.000    0.000    0.000    0.000 
#
# Total GULP energy -297403.713545 kJ/mol
# GULP energy per Si atom -12391.821398 kJ/mol
# Density = 1.948683 g / cm^3
# Si number density = 19.531283 Si / 1000 Ang^3
#
#
#
# Elastic Constant Matrix: (Units=GPa)
#
#
# Indices 1 2 3 4 5 6 
#
# 1 117.1538 21.9320 60.4671 0.0000 -2.0616 0.0000
# 2 21.9320 30.9045 14.7232 0.0000 -1.4415 0.0000
# 3 60.4671 14.7232 79.0457 0.0000 10.0761 0.0000
# 4 0.0000 0.0000 0.0000 11.7437 0.0000 2.4308
# 5 -2.0616 -1.4415 10.0761 0.0000 38.3516 0.0000
# 6 0.0000 0.0000 0.0000 2.4308 0.0000 22.5587
#
#
#
# Elastic Compliance Matrix: (Units=1/GPa)
#
#
# Indices 1 2 3 4 5 6 
#
# 1 0.015413 -0.005418 -0.011237 0.000000 0.003577 0.000000
# 2 -0.005418 0.037792 -0.003144 0.000000 0.001955 0.000000
# 3 -0.011237 -0.003144 0.022684 0.000000 -0.006682 0.000000
# 4 0.000000 0.000000 0.000000 0.087095 0.000000 -0.009385
# 5 0.003577 0.001955 -0.006682 0.000000 0.028096 0.000000
# 6 0.000000 0.000000 0.000000 -0.009385 0.000000 0.045340
#
#
# Mechanical properties :
#
#
# Convention : Reuss Voigt Hill
#
# Bulk Modulus (GPa) = 27.55505 46.81649 37.18577
# Shear Modulus (GPa) = 17.35423 23.19625 20.27524
#
# Velocity S-wave (km/s) = 2.98406 3.44996 3.22544
# Velocity P-wave (km/s) = 5.10016 6.31599 5.74035
#
# Compressibility (1/GPa) = 0.03629098
#
# Stress axis : x y z
#
# Youngs Moduli (GPa) = 64.88100 26.46093 44.08330
#
# Poissons Ratio (x) = 0.14336 0.49537
# Poissons Ratio (y) = 0.35150 0.13860
# Poissons Ratio (z) = 0.72908 0.08319
#
# Static dielectric constant tensor:
#      x y z
#    x 3.757490 0.000000 -0.069380 
#    y 0.000000 2.991660 0.000000 
#    z -0.069380 0.000000 3.733220 
# 
# 
# High freq. dielectric constant tensor:
#      x y z
#    x 1.773460 0.000000 -0.001300 
#    y 0.000000 1.692580 0.000000 
#    z -0.001300 0.000000 1.761150 
# 
# From -- ./inp_files/179746.got.cif
#   From: 2010.06.25/outbox.cif.g09.slc.cpg/sg12_90_cif.got.tgz:179746.got - 2010.06.28 00:19:55.
