data_PCOD8087778
_publ_section_title
;
Structure prediction by ZEFSAII (Michael W. Deem and Ramdas Pophale) SiO2 
 PCOD8087778
Probable space group: C 2/M
;
_chemical_formula_sum "Si O2"
_cell_formula_units_Z 56
_cell_length_a 19.586464
_cell_length_b 8.873761
_cell_length_c 24.559651
_cell_angle_alpha 90.000000
_cell_angle_beta 45.183958
_cell_angle_gamma 90.000000
_cell_volume 3028.034852
_symmetry_space_group_name_H-M "C 2/M"
_symmetry_group_IT_number 12
_symmetry_cell_setting 'monoclinic'
loop_
_space_group_symop_operation_xyz
x,y,z
-x,y,-z
-x,-y,-z
x,-y,z
1/2+x,1/2+y,z
1/2-x,1/2+y,-z
1/2-x,1/2-y,-z
1/2+x,1/2-y,z
loop_
_atom_site_type_symbol
_atom_site_label
_atom_site_fract_x
_atom_site_fract_y
_atom_site_fract_z
Si Si1 0.176855 0.820382 0.498079
Si Si2 0.688367 0.678499 0.199316
Si Si3 0.540299 0.320407 0.367638
Si Si4 0.224795 0.676831 0.957997
Si Si5 0.195658 0.177360 0.365412
Si Si6 0.349192 0.176997 0.192180
Si Si7 0.970786 0.829353 0.954157
O O1 0.250000 0.750000 0.500000
O O2 0.201453 0.759547 0.423592
O O3 0.068760 0.761121 0.570947
O O4 0.183979 0.000000 0.498120
O O5 0.686526 0.500000 0.201179
O O6 0.590801 0.737969 0.283131
O O7 0.701160 0.737604 0.130305
O O8 0.780737 0.731024 0.181700
O O9 0.541038 0.500000 0.369546
O O10 0.602906 0.258697 0.384007
O O11 0.234158 0.500000 0.958443
O O12 0.250000 0.750000 0.000000
O O13 0.117357 0.717589 0.002608
O O14 0.295526 0.217187 0.278969
O O15 0.181355 0.000000 0.376192
O O16 0.446138 0.273051 0.133345
O O17 0.373192 0.000000 0.175098
O O18 0.943452 0.000000 0.952904
O O19 0.000000 0.819750 0.000000
#
# Coordination Sequence:
#
# PCOD8087778 Si02
#       7
#     8   8   8   8   8   8   8
#     4  10  19  32  51  76 108 138 166 205 255 310
#     4   8  15  29  52  78 101 129 172 217 256 306
#     4   8  14  28  53  79  97 126 172 216 251 292
#     4  11  22  37  55  76 107 144 181 220 264 316
#     4   8  15  29  53  80 101 126 174 224 252 291
#     4   9  16  31  55  80 102 131 174 222 267 308
#     4  11  22  35  54  80 109 138 176 222 265 315
#
# _framework density 18.493843999999999
#
# number of rings (size 3 to 8) (size 9 to 14) (size 15 to 20)
#    0.000    2.714    1.429    3.000    0.000    2.286 
#    2.571    0.714    0.000    6.000    0.000    0.000 
#    0.000    0.000    0.000    0.000    0.000    0.000 
#
# Total GULP energy -347004.064343 kJ/mol
# GULP energy per Si atom -12393.002298 kJ/mol
# Density = 1.845175 g / cm^3
# Si number density = 18.493844 Si / 1000 Ang^3
#
#
#
# Elastic Constant Matrix: (Units=GPa)
#
#
# Indices 1 2 3 4 5 6 
#
# 1 100.2902 23.4988 78.7347 0.0000 14.6577 -0.0002
# 2 23.4988 31.8901 33.0576 0.0000 4.7234 -0.0005
# 3 78.7347 33.0576 175.4776 0.0000 13.7445 0.0000
# 4 0.0000 0.0000 0.0000 14.7317 0.0000 3.1454
# 5 14.6577 4.7234 13.7445 0.0000 30.5434 0.0000
# 6 -0.0002 -0.0005 0.0000 3.1454 0.0000 25.9427
#
#
#
# Elastic Compliance Matrix: (Units=1/GPa)
#
#
# Indices 1 2 3 4 5 6 
#
# 1 0.016674 -0.005263 -0.006143 0.000000 -0.004423 0.000000
# 2 -0.005263 0.040865 -0.005224 0.000000 -0.001443 0.000001
# 3 -0.006143 -0.005224 0.009479 0.000000 -0.000510 0.000000
# 4 0.000000 0.000000 0.000000 0.069685 0.000000 -0.008449
# 5 -0.004423 -0.001443 -0.000510 0.000000 0.035315 0.000000
# 6 0.000000 0.000001 0.000000 -0.008449 0.000000 0.039571
#
#
# Mechanical properties :
#
#
# Convention : Reuss Voigt Hill
#
# Bulk Modulus (GPa) = 29.62329 64.24892 46.93611
# Shear Modulus (GPa) = 19.52355 25.73469 22.62912
#
# Velocity S-wave (km/s) = 3.25265 3.73437 3.50180
# Velocity P-wave (km/s) = 5.49172 7.30822 6.46410
#
# Compressibility (1/GPa) = 0.03375722
#
# Stress axis : x y z
#
# Youngs Moduli (GPa) = 59.97500 24.47100 105.49390
#
# Poissons Ratio (x) = 0.12879 0.64809
# Poissons Ratio (y) = 0.31564 0.55109
# Poissons Ratio (z) = 0.36845 0.12784
#
# Static dielectric constant tensor:
#      x y z
#    x 3.260500 0.000000 0.110840 
#    y 0.000000 3.015780 0.000000 
#    z 0.110840 0.000000 4.006160 
# 
# 
# High freq. dielectric constant tensor:
#      x y z
#    x 1.700660 0.000000 0.002260 
#    y 0.000000 1.671690 0.000000 
#    z 0.002260 0.000000 1.739210 
# 
# From -- ./inp_files/342238.got.cif
#   From: 2010.06.25/outbox.cif.g09.slc.cpg/sg12_172_cif.got.tgz:342238.got - 2010.06.28 00:19:55.
