data_PCOD8087824
_publ_section_title
;
Structure prediction by ZEFSAII (Michael W. Deem and Ramdas Pophale) SiO2 
 PCOD8087824
Probable space group: C 2/M
;
_chemical_formula_sum "Si O2"
_cell_formula_units_Z 48
_cell_length_a 31.339091
_cell_length_b 8.562737
_cell_length_c 9.637413
_cell_angle_alpha 90.000000
_cell_angle_beta 77.926392
_cell_angle_gamma 90.000000
_cell_volume 2528.977100
_symmetry_space_group_name_H-M "C 2/M"
_symmetry_group_IT_number 12
_symmetry_cell_setting 'monoclinic'
loop_
_space_group_symop_operation_xyz
x,y,z
-x,y,-z
-x,-y,-z
x,-y,z
1/2+x,1/2+y,z
1/2-x,1/2+y,-z
1/2-x,1/2-y,-z
1/2+x,1/2-y,z
loop_
_atom_site_type_symbol
_atom_site_label
_atom_site_fract_x
_atom_site_fract_y
_atom_site_fract_z
Si Si1 0.637092 0.683103 0.887527
Si Si2 0.618686 0.183191 0.610527
Si Si3 0.265424 0.685226 0.135000
Si Si4 0.894019 0.684004 0.815047
Si Si5 0.550458 0.681816 0.451800
Si Si6 0.818862 0.315484 0.664843
O O1 0.635952 0.500000 0.915754
O O2 0.616133 0.721634 0.754138
O O3 0.686782 0.748560 0.858007
O O4 0.607899 0.766809 0.023467
O O5 0.575878 0.217791 0.549577
O O6 0.661411 0.243111 0.495154
O O7 0.621152 0.000000 0.641403
O O8 0.265265 0.500000 0.126979
O O9 0.230548 0.744432 0.275397
O O10 0.250000 0.750000 0.000000
O O11 0.900923 0.500000 0.797680
O O12 0.934489 0.769098 0.712801
O O13 0.849508 0.741908 0.770642
O O14 0.500000 0.723163 0.500000
O O15 0.559747 0.500000 0.470938
O O16 0.820342 0.500000 0.662869
#
# Coordination Sequence:
#
# PCOD8087824 Si02
#       6
#     8   8   8   8   8   8
#     4  11  22  34  52  81 116 151 187 233 281 323
#     4  10  21  37  57  80 111 149 186 228 275 329
#     4  10  19  32  51  77 109 146 192 235 271 319
#     4  10  19  34  58  82 110 147 186 227 269 328
#     4  10  21  39  63  88 113 139 172 221 277 335
#     4   8  16  32  52  75 105 142 187 230 269 313
#
# _framework density 18.980005999999999
#
# number of rings (size 3 to 8) (size 9 to 14) (size 15 to 20)
#    0.000    2.167    1.667    3.000    0.000    2.667 
#    0.000    1.667    0.000    5.000    0.000    0.000 
#    0.000    0.000    0.000    0.000    0.000    0.000 
#
# Total GULP energy -297580.402390 kJ/mol
# GULP energy per Si atom -12399.183433 kJ/mol
# Density = 1.893681 g / cm^3
# Si number density = 18.980006 Si / 1000 Ang^3
#
#
#
# Elastic Constant Matrix: (Units=GPa)
#
#
# Indices 1 2 3 4 5 6 
#
# 1 100.6133 21.0331 47.3806 0.0000 -23.8407 0.0000
# 2 21.0331 36.5251 8.9535 0.0000 -6.8929 0.0000
# 3 47.3806 8.9535 125.4952 0.0000 -13.1529 0.0000
# 4 0.0000 0.0000 0.0000 31.6421 0.0000 0.0755
# 5 -23.8407 -6.8929 -13.1529 0.0000 26.6796 0.0000
# 6 0.0000 0.0000 0.0000 0.0755 0.0000 23.0456
#
#
#
# Elastic Compliance Matrix: (Units=1/GPa)
#
#
# Indices 1 2 3 4 5 6 
#
# 1 0.015727 -0.006025 -0.004427 0.000000 0.010315 0.000000
# 2 -0.006025 0.031306 0.000342 0.000000 0.002873 0.000000
# 3 -0.004427 0.000342 0.009712 0.000000 0.000920 0.000000
# 4 0.000000 0.000000 0.000000 0.031604 0.000000 -0.000103
# 5 0.010315 0.002873 0.000920 0.000000 0.047895 0.000000
# 6 0.000000 0.000000 0.000000 -0.000103 0.000000 0.043393
#
#
# Mechanical properties :
#
#
# Convention : Reuss Voigt Hill
#
# Bulk Modulus (GPa) = 27.37749 46.37421 36.87585
# Shear Modulus (GPa) = 23.58140 28.62456 26.10298
#
# Velocity S-wave (km/s) = 3.52864 3.88769 3.71251
# Velocity P-wave (km/s) = 5.57292 6.68120 6.15207
#
# Compressibility (1/GPa) = 0.03652636
#
# Stress axis : x y z
#
# Youngs Moduli (GPa) = 63.58322 31.94253 102.96682
#
# Poissons Ratio (x) = 0.19245 0.45583
# Poissons Ratio (y) = 0.38308 -0.03524
# Poissons Ratio (z) = 0.28148 -0.01093
#
# Static dielectric constant tensor:
#      x y z
#    x 3.458800 0.000000 -0.255670 
#    y 0.000000 3.381670 0.000000 
#    z -0.255670 0.000000 3.491220 
# 
# 
# High freq. dielectric constant tensor:
#      x y z
#    x 1.722280 0.000000 -0.016620 
#    y 0.000000 1.730560 0.000000 
#    z -0.016620 0.000000 1.739720 
# 
# From -- ./inp_files/108755.got.cif
#   From: 2010.06.25/outbox.cif.g09.slc.cpg/sg12_55_cif.got.tgz:108755.got - 2010.06.28 00:19:55.
