data_PCOD8087166
_publ_section_title
;
Structure prediction by ZEFSAII (Michael W. Deem and Ramdas Pophale) SiO2 
 PCOD8087166
Probable space group: C 2/M
;
_chemical_formula_sum "Si O2"
_cell_formula_units_Z 48
_cell_length_a 20.464092
_cell_length_b 8.860446
_cell_length_c 21.134044
_cell_angle_alpha 90.000000
_cell_angle_beta 41.044818
_cell_angle_gamma 90.000000
_cell_volume 2516.309604
_symmetry_space_group_name_H-M "C 2/M"
_symmetry_group_IT_number 12
_symmetry_cell_setting 'monoclinic'
loop_
_space_group_symop_operation_xyz
x,y,z
-x,y,-z
-x,-y,-z
x,-y,z
1/2+x,1/2+y,z
1/2-x,1/2+y,-z
1/2-x,1/2-y,-z
1/2+x,1/2-y,z
loop_
_atom_site_type_symbol
_atom_site_label
_atom_site_fract_x
_atom_site_fract_y
_atom_site_fract_z
Si Si1 0.955886 0.177598 0.410795
Si Si2 0.104317 0.825857 0.114675
Si Si3 0.745819 0.326506 0.902035
Si Si4 0.103459 0.177655 0.683199
Si Si5 0.796961 0.679009 0.612155
Si Si6 0.316445 0.676062 0.730684
O O1 0.915340 0.242109 0.373572
O O2 0.899366 0.258674 0.509143
O O3 0.071496 0.218797 0.331627
O O4 0.938754 0.000000 0.429922
O O5 0.163839 0.719890 0.118749
O O6 0.988465 0.780545 0.203517
O O7 0.120574 0.000000 0.124227
O O8 0.141928 0.801393 0.015401
O O9 0.760053 0.500000 0.872290
O O10 0.743687 0.225881 0.840584
O O11 0.204617 0.245022 0.638547
O O12 0.113532 0.000000 0.670281
O O13 0.798745 0.500000 0.609965
O O14 0.783470 0.733960 0.693146
O O15 0.304205 0.500000 0.726425
#
# Coordination Sequence:
#
# PCOD8087166 Si02
#       6
#     8   8   8   8   8   8
#     4  10  20  37  59  78 102 145 191 219 262 328
#     4   9  17  34  57  81 110 144 178 214 266 329
#     4  10  19  31  55  87 111 134 177 231 270 306
#     4   9  18  36  58  80 108 146 182 215 264 328
#     4  11  23  36  54  81 113 141 178 231 273 311
#     4  11  22  38  58  77 108 150 184 217 268 331
#
# _framework density 19.075552999999999
#
# number of rings (size 3 to 8) (size 9 to 14) (size 15 to 20)
#    0.000    2.000    1.667    2.500    0.000    4.000 
#    0.000    3.333    0.000    5.000    0.000    0.000 
#    0.000    0.000    0.000    0.000    0.000    0.000 
#
# Total GULP energy -297646.286491 kJ/mol
# GULP energy per Si atom -12401.928604 kJ/mol
# Density = 1.903214 g / cm^3
# Si number density = 19.075553 Si / 1000 Ang^3
#
#
#
# Elastic Constant Matrix: (Units=GPa)
#
#
# Indices 1 2 3 4 5 6 
#
# 1 77.0642 18.0951 15.5420 -0.0001 17.9807 0.0001
# 2 18.0951 37.1975 19.2428 -0.0001 -0.0836 0.0000
# 3 15.5420 19.2428 97.7632 -0.0001 16.8209 0.0001
# 4 -0.0001 -0.0001 -0.0001 30.1525 0.0001 6.5122
# 5 17.9807 -0.0836 16.8209 0.0001 26.3012 0.0000
# 6 0.0001 0.0000 0.0001 6.5122 0.0000 26.0037
#
#
#
# Elastic Compliance Matrix: (Units=1/GPa)
#
#
# Indices 1 2 3 4 5 6 
#
# 1 0.018006 -0.009439 0.001257 0.000000 -0.013143 0.000000
# 2 -0.009439 0.035327 -0.007396 0.000000 0.011295 0.000000
# 3 0.001257 -0.007396 0.013076 0.000000 -0.009245 0.000000
# 4 0.000000 0.000000 0.000000 0.035061 0.000000 -0.008780
# 5 -0.013143 0.011295 -0.009245 0.000000 0.052955 0.000000
# 6 0.000000 0.000000 0.000000 -0.008780 0.000000 0.040655
#
#
# Mechanical properties :
#
#
# Convention : Reuss Voigt Hill
#
# Bulk Modulus (GPa) = 28.36772 35.30942 31.83857
# Shear Modulus (GPa) = 21.00966 27.10116 24.05541
#
# Velocity S-wave (km/s) = 3.32232 3.77334 3.55499
# Velocity P-wave (km/s) = 5.44248 6.12655 5.79462
#
# Compressibility (1/GPa) = 0.03525133
#
# Stress axis : x y z
#
# Youngs Moduli (GPa) = 55.53833 28.30723 76.47873
#
# Poissons Ratio (x) = 0.26718 -0.09612
# Poissons Ratio (y) = 0.52421 0.56566
# Poissons Ratio (z) = -0.06980 0.20937
#
# Static dielectric constant tensor:
#      x y z
#    x 3.524480 0.000000 0.033490 
#    y 0.000000 3.327150 0.000000 
#    z 0.033490 0.000000 3.703920 
# 
# 
# High freq. dielectric constant tensor:
#      x y z
#    x 1.724520 0.000000 0.008810 
#    y 0.000000 1.728870 0.000000 
#    z 0.008810 0.000000 1.755910 
# 
# From -- ./inp_files/229859.got.cif
#   From: 2010.06.25/outbox.cif.g09.slc.cpg/sg12_115_cif.got.tgz:229859.got - 2010.06.28 00:19:55.
