data_PCOD8087986
_publ_section_title
;
Structure prediction by ZEFSAII (Michael W. Deem and Ramdas Pophale) SiO2 
 PCOD8087986
Probable space group: C 2/M
;
_chemical_formula_sum "Si O2"
_cell_formula_units_Z 64
_cell_length_a 23.398013
_cell_length_b 9.176249
_cell_length_c 16.922074
_cell_angle_alpha 90.000000
_cell_angle_beta 87.017350
_cell_angle_gamma 90.000000
_cell_volume 3628.348851
_symmetry_space_group_name_H-M "C 2/M"
_symmetry_group_IT_number 12
_symmetry_cell_setting 'monoclinic'
loop_
_space_group_symop_operation_xyz
x,y,z
-x,y,-z
-x,-y,-z
x,-y,z
1/2+x,1/2+y,z
1/2-x,1/2+y,-z
1/2-x,1/2-y,-z
1/2+x,1/2-y,z
loop_
_atom_site_type_symbol
_atom_site_label
_atom_site_fract_x
_atom_site_fract_y
_atom_site_fract_z
Si Si1 0.642314 0.332558 0.280228
Si Si2 0.041315 0.168214 0.164389
Si Si3 0.050888 0.172492 0.603504
Si Si4 0.574671 0.671697 0.430182
Si Si5 0.620371 0.831144 0.047712
Si Si6 0.280644 0.830174 0.838619
Si Si7 0.066386 0.331341 0.759476
Si Si8 0.664878 0.166290 0.875426
O O1 0.662072 0.500000 0.279858
O O2 0.585854 0.311323 0.231992
O O3 0.626072 0.274237 0.369503
O O4 0.695035 0.239473 0.243769
O O5 0.067263 0.236373 0.082624
O O6 0.983698 0.250723 0.190421
O O7 0.026971 0.000000 0.150243
O O8 0.086179 0.212677 0.520891
O O9 0.078607 0.259261 0.673725
O O10 0.986326 0.231403 0.595926
O O11 0.053013 0.000000 0.621042
O O12 0.569223 0.500000 0.422440
O O13 0.677789 0.792069 0.091702
O O14 0.604297 0.000000 0.059734
O O15 0.629976 0.788858 0.956199
O O16 0.219001 0.768878 0.863200
O O17 0.275006 0.000000 0.824185
O O18 0.049660 0.500000 0.750753
O O19 0.124767 0.312505 0.803134
O O20 0.686219 0.000000 0.881913
#
# Coordination Sequence:
#
# PCOD8087986 Si02
#       8
#     8   8   8   8   8   8   8   8
#     4   9  16  30  52  76 102 133 164 196 245 307
#     4  10  19  32  52  76 102 134 168 203 250 299
#     4   9  16  30  51  75 103 133 167 204 243 294
#     4   8  14  27  51  78 102 131 166 200 242 301
#     4   9  19  36  55  75 100 127 163 212 261 301
#     4  10  20  33  53  79 100 122 162 220 262 286
#     4  11  22  34  49  71 104 140 172 204 244 297
#     4  10  22  38  53  69  96 140 176 201 247 310
#
# _framework density 17.638877000000001
#
# number of rings (size 3 to 8) (size 9 to 14) (size 15 to 20)
#    0.000    2.500    1.250    2.250    0.000    3.000 
#    0.000    4.375    0.000    0.750    0.000    0.000 
#    0.000    0.000    0.000    0.000    0.000    0.000 
#
# Total GULP energy -396776.559478 kJ/mol
# GULP energy per Si atom -12399.267484 kJ/mol
# Density = 1.759873 g / cm^3
# Si number density = 17.638877 Si / 1000 Ang^3
#
#
#
# Elastic Constant Matrix: (Units=GPa)
#
#
# Indices 1 2 3 4 5 6 
#
# 1 19.1284 24.3363 22.7848 0.0000 1.3082 0.0000
# 2 24.3363 77.7216 42.1708 0.0000 -2.4674 0.0000
# 3 22.7848 42.1708 129.9428 0.0000 -11.0674 0.0000
# 4 0.0000 0.0000 0.0000 26.0607 0.0000 -3.0493
# 5 1.3082 -2.4674 -11.0674 0.0000 17.8090 0.0000
# 6 0.0000 0.0000 0.0000 -3.0493 0.0000 27.6709
#
#
#
# Elastic Compliance Matrix: (Units=1/GPa)
#
#
# Indices 1 2 3 4 5 6 
#
# 1 0.098679 -0.025804 -0.010401 0.000000 -0.017287 0.000000
# 2 -0.025804 0.022382 -0.002443 0.000000 0.003478 0.000000
# 3 -0.010401 -0.002443 0.010927 0.000000 0.007216 0.000000
# 4 0.000000 0.000000 0.000000 0.038873 0.000000 0.004284
# 5 -0.017287 0.003478 0.007216 0.000000 0.062387 0.000000
# 6 0.000000 0.000000 0.000000 0.004284 0.000000 0.036611
#
#
# Mechanical properties :
#
#
# Convention : Reuss Voigt Hill
#
# Bulk Modulus (GPa) = 18.28411 45.04183 31.66297
# Shear Modulus (GPa) = 13.68418 23.47484 18.57951
#
# Velocity S-wave (km/s) = 2.78833 3.65205 3.24902
# Velocity P-wave (km/s) = 4.55573 6.58592 5.66255
#
# Compressibility (1/GPa) = 0.05469230
#
# Stress axis : x y z
#
# Youngs Moduli (GPa) = 10.13390 44.67862 91.51757
#
# Poissons Ratio (x) = 1.15288 0.95187
# Poissons Ratio (y) = 0.26149 0.22357
# Poissons Ratio (z) = 0.10540 0.10915
#
# Static dielectric constant tensor:
#      x y z
#    x 3.028420 0.000000 -0.237740 
#    y 0.000000 3.213610 0.000000 
#    z -0.237740 0.000000 3.569990 
# 
# 
# High freq. dielectric constant tensor:
#      x y z
#    x 1.655110 0.000000 -0.018630 
#    y 0.000000 1.673800 0.000000 
#    z -0.018630 0.000000 1.689330 
# 
# From -- ./inp_files/281405.got.cif
#   From: 2010.06.25/outbox.cif.g09.slc.cpg/sg12_141_cif.got.tgz:281405.got - 2010.06.28 00:19:55.
