data_PCOD8087476
_publ_section_title
;
Structure prediction by ZEFSAII (Michael W. Deem and Ramdas Pophale) SiO2 
 PCOD8087476
Probable space group: C 2/M
;
_chemical_formula_sum "Si O2"
_cell_formula_units_Z 64
_cell_length_a 11.083093
_cell_length_b 27.652107
_cell_length_c 22.258846
_cell_angle_alpha 90.000000
_cell_angle_beta 32.664363
_cell_angle_gamma 90.000000
_cell_volume 3681.779678
_symmetry_space_group_name_H-M "C 2/M"
_symmetry_group_IT_number 12
_symmetry_cell_setting 'monoclinic'
loop_
_space_group_symop_operation_xyz
x,y,z
-x,y,-z
-x,-y,-z
x,-y,z
1/2+x,1/2+y,z
1/2-x,1/2+y,-z
1/2-x,1/2-y,-z
1/2+x,1/2-y,z
loop_
_atom_site_type_symbol
_atom_site_label
_atom_site_fract_x
_atom_site_fract_y
_atom_site_fract_z
Si Si1 0.194362 0.944629 0.254677
Si Si2 0.074112 0.612365 0.147480
Si Si3 0.616625 0.443283 0.510535
Si Si4 0.364594 0.222346 0.865934
Si Si5 0.582629 0.717334 0.871761
Si Si6 0.762557 0.946492 0.895917
Si Si7 0.493849 0.608177 0.896773
Si Si8 0.432281 0.944141 0.730782
O O1 0.412793 0.910523 0.165309
O O2 0.112040 0.941997 0.220671
O O3 0.999838 0.923442 0.379874
O O4 0.259837 0.000000 0.243828
O O5 0.032145 0.669133 0.172146
O O6 0.007378 0.586503 0.236454
O O7 0.334546 0.602947 0.021937
O O8 0.500000 0.420738 0.500000
O O9 0.577462 0.500000 0.526595
O O10 0.882059 0.431159 0.397904
O O11 0.554664 0.256385 0.818055
O O12 0.296897 0.233977 0.823830
O O13 0.139076 0.227553 0.997927
O O14 0.609476 0.660432 0.847323
O O15 0.844443 0.901608 0.901205
O O16 0.816022 0.000000 0.901025
O O17 0.500000 0.940992 0.000000
O O18 0.684362 0.567738 0.813291
O O19 0.448713 0.000000 0.741470
#
# Coordination Sequence:
#
# PCOD8087476 Si02
#       8
#     8   8   8   8   8   8   8   8
#     4  10  19  32  50  73 104 139 178 217 249 299
#     4  11  19  30  50  75 106 131 167 215 264 312
#     4   9  17  31  49  70  98 135 178 217 252 294
#     4   9  18  32  48  71  99 135 171 215 266 318
#     4   9  18  33  49  68 103 136 171 216 263 315
#     4  10  20  33  47  69 106 144 173 202 247 311
#     4  11  21  33  48  74 107 139 171 209 258 320
#     4  11  21  31  49  76 107 139 170 210 260 307
#
# _framework density 17.382898000000001
#
# number of rings (size 3 to 8) (size 9 to 14) (size 15 to 20)
#    0.000    2.000    3.750    1.125    0.000    3.000 
#    2.250    0.625    0.000    3.000    0.000    0.875 
#    3.750    0.000    0.000    0.000    0.000    0.000 
#
# Total GULP energy -396484.189720 kJ/mol
# GULP energy per Si atom -12390.130929 kJ/mol
# Density = 1.734333 g / cm^3
# Si number density = 17.382898 Si / 1000 Ang^3
#
#
#
# Elastic Constant Matrix: (Units=GPa)
#
#
# Indices 1 2 3 4 5 6 
#
# 1 77.5021 29.4940 5.6695 -0.0006 6.9742 -0.0008
# 2 29.4940 58.5945 20.0492 -0.0017 0.4359 0.0000
# 3 5.6695 20.0492 73.1356 0.0072 7.9855 -0.0022
# 4 -0.0006 -0.0017 0.0072 3.6237 -0.0001 2.7181
# 5 6.9742 0.4359 7.9855 -0.0001 20.3091 -0.0006
# 6 -0.0008 0.0000 -0.0022 2.7181 -0.0006 23.6029
#
#
#
# Elastic Compliance Matrix: (Units=1/GPa)
#
#
# Indices 1 2 3 4 5 6 
#
# 1 0.016771 -0.009033 0.001864 -0.000006 -0.006298 0.000001
# 2 -0.009033 0.023754 -0.006368 0.000025 0.005096 -0.000004
# 3 0.001864 -0.006368 0.016017 -0.000039 -0.006801 0.000006
# 4 -0.000006 0.000025 -0.000039 0.302052 0.000017 -0.034784
# 5 -0.006298 0.005096 -0.006801 0.000017 0.053967 -0.000001
# 6 0.000001 -0.000004 0.000006 -0.034784 -0.000001 0.046373
#
#
# Mechanical properties :
#
#
# Convention : Reuss Voigt Hill
#
# Bulk Modulus (GPa) = 33.93494 35.51752 34.72623
# Shear Modulus (GPa) = 10.08409 19.77510 14.92960
#
# Velocity S-wave (km/s) = 2.41117 3.37652 2.93382
# Velocity P-wave (km/s) = 5.22648 5.97310 5.61222
#
# Compressibility (1/GPa) = 0.02946816
#
# Stress axis : x y z
#
# Youngs Moduli (GPa) = 59.62787 42.09797 62.43323
#
# Poissons Ratio (x) = 0.38025 -0.11636
# Poissons Ratio (y) = 0.53859 0.39758
# Poissons Ratio (z) = -0.11113 0.26808
#
# Static dielectric constant tensor:
#      x y z
#    x 3.469410 0.000000 0.062300 
#    y 0.000000 3.158630 0.000030 
#    z 0.062300 0.000030 3.166890 
# 
# 
# High freq. dielectric constant tensor:
#      x y z
#    x 1.671870 0.000000 0.002710 
#    y 0.000000 1.648950 0.000000 
#    z 0.002710 0.000000 1.640890 
# 
# From -- ./inp_files/136649.got.cif
#   From: 2010.06.25/outbox.cif.g09.slc.cpg/sg12_69_cif.got.tgz:136649.got - 2010.06.28 00:19:55.
