data_PCOD8087257
_publ_section_title
;
Structure prediction by ZEFSAII (Michael W. Deem and Ramdas Pophale) SiO2 
 PCOD8087257
Probable space group: C 2/M
;
_chemical_formula_sum "Si O2"
_cell_formula_units_Z 64
_cell_length_a 33.034221
_cell_length_b 14.610982
_cell_length_c 12.985553
_cell_angle_alpha 90.000000
_cell_angle_beta 38.169185
_cell_angle_gamma 90.000000
_cell_volume 3873.310544
_symmetry_space_group_name_H-M "C 2/M"
_symmetry_group_IT_number 12
_symmetry_cell_setting 'monoclinic'
loop_
_space_group_symop_operation_xyz
x,y,z
-x,y,-z
-x,-y,-z
x,-y,z
1/2+x,1/2+y,z
1/2-x,1/2+y,-z
1/2-x,1/2-y,-z
1/2+x,1/2-y,z
loop_
_atom_site_type_symbol
_atom_site_label
_atom_site_fract_x
_atom_site_fract_y
_atom_site_fract_z
Si Si1 0.574500 0.102253 0.126579
Si Si2 0.316662 0.105012 0.483848
Si Si3 0.121822 0.774105 0.375672
Si Si4 0.500000 0.395324 0.622451
Si Si5 0.750000 0.750000 0.751837
Si Si6 0.316662 0.894988 0.249503
Si Si7 0.621822 0.725895 0.137040
Si Si8 0.574500 0.102253 0.575422
O O1 0.596402 0.170684 0.172856
O O2 0.500000 0.118674 0.245673
O O3 0.587209 0.000000 0.143953
O O4 0.612746 0.119314 0.943802
O O5 0.264426 0.163845 0.650861
O O6 0.321617 0.139481 0.356766
O O7 0.387254 0.119314 0.394784
O O8 0.293660 0.000000 0.535059
O O9 0.066058 0.844194 0.529756
O O10 0.189799 0.785726 0.299748
O O11 0.135840 0.792243 0.228321
O O12 0.096402 0.670684 0.441537
O O13 0.500000 0.391726 0.500000
O O14 0.500000 0.500000 0.663063
O O15 0.433941 0.344195 0.793990
O O16 0.735575 0.836154 0.708560
O O17 0.689799 0.714275 0.941056
O O18 0.293659 0.000000 0.290303
O O19 0.587209 0.000000 0.507210
#
# Coordination Sequence:
#
# PCOD8087257 Si02
#       8
#     8   8   8   8   8   8   8   8
#     4   9  17  29  47  72  99 124 155 194 239 292
#     4   9  18  32  49  70  96 125 158 198 245 294
#     4  10  19  32  48  70  99 130 164 202 244 288
#     4   9  18  32  49  67  90 127 171 205 235 278
#     4  10  20  32  50  72  98 126 164 204 248 292
#     4   9  18  32  49  70  96 125 158 198 245 294
#     4  10  19  32  48  70  99 130 164 202 244 288
#     4   9  17  29  47  72  99 124 155 194 239 292
#
# _framework density 16.523333999999998
#
# number of rings (size 3 to 8) (size 9 to 14) (size 15 to 20)
#    0.000    2.625    1.250    0.750    0.000    2.000 
#    0.000    3.750    0.000    4.500    0.000    0.000 
#    0.000    8.000    0.000    0.000    0.000    0.000 
#
# Total GULP energy -396710.702666 kJ/mol
# GULP energy per Si atom -12397.209458 kJ/mol
# Density = 1.648573 g / cm^3
# Si number density = 16.523334 Si / 1000 Ang^3
#
#
#
# Elastic Constant Matrix: (Units=GPa)
#
#
# Indices 1 2 3 4 5 6 
#
# 1 58.2900 30.3203 41.1248 0.0000 -8.5677 0.0000
# 2 30.3203 78.4137 34.8083 0.0000 -9.6763 0.0000
# 3 41.1248 34.8083 70.0005 0.0000 -16.6822 0.0000
# 4 0.0000 0.0000 0.0000 25.1911 0.0000 -2.7192
# 5 -8.5677 -9.6763 -16.6822 0.0000 28.0612 0.0000
# 6 0.0000 0.0000 0.0000 -2.7192 0.0000 23.9300
#
#
#
# Elastic Compliance Matrix: (Units=1/GPa)
#
#
# Indices 1 2 3 4 5 6 
#
# 1 0.030820 -0.005021 -0.016054 0.000000 -0.001866 0.000000
# 2 -0.005021 0.017204 -0.005309 0.000000 0.001243 0.000000
# 3 -0.016054 -0.005309 0.028839 0.000000 0.010412 0.000000
# 4 0.000000 0.000000 0.000000 0.040190 0.000000 0.004567
# 5 -0.001866 0.001243 0.010412 0.000000 0.041685 0.000000
# 6 0.000000 0.000000 0.000000 0.004567 0.000000 0.042307
#
#
# Mechanical properties :
#
#
# Convention : Reuss Voigt Hill
#
# Bulk Modulus (GPa) = 41.50313 46.57902 44.04108
# Shear Modulus (GPa) = 19.09525 22.13318 20.61421
#
# Velocity S-wave (km/s) = 3.40318 3.66390 3.53594
# Velocity P-wave (km/s) = 6.37296 6.79338 6.58652
#
# Compressibility (1/GPa) = 0.02409457
#
# Stress axis : x y z
#
# Youngs Moduli (GPa) = 32.44681 58.12469 34.67545
#
# Poissons Ratio (x) = 0.29182 0.55669
# Poissons Ratio (y) = 0.16290 0.18410
# Poissons Ratio (z) = 0.52091 0.30859
#
# Static dielectric constant tensor:
#      x y z
#    x 3.034030 0.000000 -0.122620 
#    y 0.000000 3.286100 0.000000 
#    z -0.122620 0.000000 3.090910 
# 
# 
# High freq. dielectric constant tensor:
#      x y z
#    x 1.627070 0.000000 -0.011560 
#    y 0.000000 1.640030 0.000000 
#    z -0.011560 0.000000 1.632430 
# 
# From -- ./inp_files/189434.got.cif
#   From: 2010.06.25/outbox.cif.g09.slc.cpg/sg12_95_cif.got.tgz:189434.got - 2010.06.28 00:19:55.
