data_PCOD8087597
_publ_section_title
;
Structure prediction by ZEFSAII (Michael W. Deem and Ramdas Pophale) SiO2 
 PCOD8087597
Probable space group: C 2/M
;
_chemical_formula_sum "Si O2"
_cell_formula_units_Z 56
_cell_length_a 28.044916
_cell_length_b 8.931643
_cell_length_c 16.438849
_cell_angle_alpha 90.000000
_cell_angle_beta 131.325717
_cell_angle_gamma 90.000000
_cell_volume 3092.275874
_symmetry_space_group_name_H-M "C 2/M"
_symmetry_group_IT_number 12
_symmetry_cell_setting 'monoclinic'
loop_
_space_group_symop_operation_xyz
x,y,z
-x,y,-z
-x,-y,-z
x,-y,z
1/2+x,1/2+y,z
1/2-x,1/2+y,-z
1/2-x,1/2-y,-z
1/2+x,1/2-y,z
loop_
_atom_site_type_symbol
_atom_site_label
_atom_site_fract_x
_atom_site_fract_y
_atom_site_fract_z
Si Si1 0.117884 0.823634 0.429678
Si Si2 0.655297 0.675211 0.907688
Si Si3 0.248641 0.176903 0.872492
Si Si4 0.838272 0.822801 0.696260
Si Si5 0.014036 0.176500 0.778750
Si Si6 0.463027 0.170714 0.875233
Si Si7 0.225120 0.178159 0.664541
O O1 0.152814 0.768204 0.386869
O O2 0.156292 0.767127 0.552471
O O3 0.043859 0.771492 0.346195
O O4 0.119594 0.000000 0.431043
O O5 0.663943 0.500000 0.931604
O O6 0.690804 0.727769 0.865673
O O7 0.581411 0.719117 0.814483
O O8 0.685458 0.755648 0.020291
O O9 0.233895 0.239895 0.765883
O O10 0.255968 0.000000 0.878895
O O11 0.899503 0.767640 0.814988
O O12 0.776760 0.744934 0.662672
O O13 0.831705 0.000000 0.697231
O O14 0.008471 0.261988 0.857344
O O15 0.009226 0.000000 0.791065
O O16 0.445356 0.000000 0.833390
O O17 0.500000 0.180719 0.000000
O O18 0.231040 0.000000 0.669973
#
# Coordination Sequence:
#
# PCOD8087597 Si02
#       7
#     8   8   8   8   8   8   8
#     4   8  16  32  50  71  99 131 166 204 246 294
#     4   9  18  34  53  73  99 130 164 204 250 297
#     4   9  19  33  50  74 101 129 164 205 249 297
#     4  10  20  33  50  72 100 134 169 203 244 292
#     4   9  18  33  53  73  96 130 167 203 246 296
#     4  10  21  34  48  71 102 131 163 203 245 295
#     4  10  19  32  51  73 101 133 167 208 249 290
#
# _framework density 18.109638
#
# number of rings (size 3 to 8) (size 9 to 14) (size 15 to 20)
#    0.000    2.714    0.000    2.143    2.000    2.286 
#    0.000    3.571    0.000    4.286    0.000    0.000 
#    0.000   10.286    0.000    0.000    0.000    0.000 
#
# Total GULP energy -347090.930749 kJ/mol
# GULP energy per Si atom -12396.104670 kJ/mol
# Density = 1.806842 g / cm^3
# Si number density = 18.109638 Si / 1000 Ang^3
#
#
#
# Elastic Constant Matrix: (Units=GPa)
#
#
# Indices 1 2 3 4 5 6 
#
# 1 101.1875 15.1472 72.1207 0.0000 19.5356 0.0000
# 2 15.1472 22.6646 25.6016 0.0000 -0.9062 0.0000
# 3 72.1207 25.6016 145.3980 0.0000 8.0802 0.0000
# 4 0.0000 0.0000 0.0000 20.5845 0.0000 2.2761
# 5 19.5356 -0.9062 8.0802 0.0000 21.6368 0.0000
# 6 0.0000 0.0000 0.0000 2.2761 0.0000 22.7970
#
#
#
# Elastic Compliance Matrix: (Units=1/GPa)
#
#
# Indices 1 2 3 4 5 6 
#
# 1 0.018843 -0.004374 -0.007782 0.000000 -0.014290 0.000000
# 2 -0.004374 0.056879 -0.008371 0.000000 0.009458 0.000000
# 3 -0.007782 -0.008371 0.012092 0.000000 0.002160 0.000000
# 4 0.000000 0.000000 0.000000 0.049123 0.000000 -0.004905
# 5 -0.014290 0.009458 0.002160 0.000000 0.058709 0.000000
# 6 0.000000 0.000000 0.000000 -0.004905 0.000000 0.044355
#
#
# Mechanical properties :
#
#
# Convention : Reuss Voigt Hill
#
# Bulk Modulus (GPa) = 21.38621 54.99878 38.19249
# Shear Modulus (GPa) = 16.85531 23.42901 20.14216
#
# Velocity S-wave (km/s) = 3.05411 3.60075 3.33864
# Velocity P-wave (km/s) = 4.92663 6.90819 5.99978
#
# Compressibility (1/GPa) = 0.04675911
#
# Stress axis : x y z
#
# Youngs Moduli (GPa) = 53.06987 17.58117 82.70051
#
# Poissons Ratio (x) = 0.07690 0.64360
# Poissons Ratio (y) = 0.23212 0.69231
# Poissons Ratio (z) = 0.41301 0.14718
#
# Static dielectric constant tensor:
#      x y z
#    x 3.397390 0.000000 0.145960 
#    y 0.000000 3.243460 0.000000 
#    z 0.145960 0.000000 3.750780 
# 
# 
# High freq. dielectric constant tensor:
#      x y z
#    x 1.692720 0.000000 0.012820 
#    y 0.000000 1.686080 0.000000 
#    z 0.012820 0.000000 1.706090 
# 
# From -- ./inp_files/239042.got.cif
#   From: 2010.06.25/outbox.cif.g09.slc.cpg/sg12_120_cif.got.tgz:239042.got - 2010.06.28 00:19:55.
