data_PCOD8087624
_publ_section_title
;
Structure prediction by ZEFSAII (Michael W. Deem and Ramdas Pophale) SiO2 
 PCOD8087624
Probable space group: C 2/M
;
_chemical_formula_sum "Si O2"
_cell_formula_units_Z 56
_cell_length_a 19.301834
_cell_length_b 8.929843
_cell_length_c 23.056604
_cell_angle_alpha 90.000000
_cell_angle_beta 128.439878
_cell_angle_gamma 90.000000
_cell_volume 3112.749799
_symmetry_space_group_name_H-M "C 2/M"
_symmetry_group_IT_number 12
_symmetry_cell_setting 'monoclinic'
loop_
_space_group_symop_operation_xyz
x,y,z
-x,y,-z
-x,-y,-z
x,-y,z
1/2+x,1/2+y,z
1/2-x,1/2+y,-z
1/2-x,1/2-y,-z
1/2+x,1/2-y,z
loop_
_atom_site_type_symbol
_atom_site_label
_atom_site_fract_x
_atom_site_fract_y
_atom_site_fract_z
Si Si1 0.134765 0.175875 0.283699
Si Si2 0.597725 0.673455 0.568848
Si Si3 0.708186 0.825515 0.720042
Si Si4 0.681643 0.675675 0.007586
Si Si5 0.254002 0.826127 0.563820
Si Si6 0.215642 0.822614 0.847182
Si Si7 0.557380 0.324904 0.845945
O O1 0.200814 0.211673 0.265468
O O2 0.165167 0.257388 0.357885
O O3 0.039194 0.244161 0.216440
O O4 0.131969 0.000000 0.295233
O O5 0.500000 0.723532 0.500000
O O6 0.601002 0.500000 0.589324
O O7 0.625794 0.773825 0.638045
O O8 0.661545 0.704685 0.547850
O O9 0.707208 0.730376 0.777563
O O10 0.698689 0.000000 0.729511
O O11 0.700055 0.500000 0.022594
O O12 0.695037 0.752029 0.077478
O O13 0.750000 0.750000 0.000000
O O14 0.585676 0.706454 0.927932
O O15 0.250000 0.750000 0.500000
O O16 0.272632 0.000000 0.565119
O O17 0.130169 0.762369 0.838418
O O18 0.223984 0.000000 0.854125
O O19 0.550723 0.500000 0.831731
#
# Coordination Sequence:
#
# PCOD8087624 Si02
#       7
#     8   8   8   8   8   8   8
#     4   9  18  35  54  71  96 129 164 199 239 288
#     4   9  19  36  55  72  94 129 167 199 236 287
#     4  10  20  33  51  74 100 129 159 200 249 290
#     4   9  16  29  49  73 100 128 162 203 246 288
#     4  10  20  34  52  74  99 127 160 198 241 287
#     4  10  19  32  51  73  99 131 166 203 241 287
#     4   8  16  31  52  74  94 125 166 202 237 283
#
# _framework density 17.990524000000001
#
# number of rings (size 3 to 8) (size 9 to 14) (size 15 to 20)
#    0.000    2.714    0.000    2.571    0.000    2.571 
#    0.000   10.714    0.000    4.286    0.000    0.000 
#    0.000    0.000    0.000    0.000    0.000    0.000 
#
# Total GULP energy -347108.544119 kJ/mol
# GULP energy per Si atom -12396.733719 kJ/mol
# Density = 1.794958 g / cm^3
# Si number density = 17.990524 Si / 1000 Ang^3
#
#
#
# Elastic Constant Matrix: (Units=GPa)
#
#
# Indices 1 2 3 4 5 6 
#
# 1 66.1225 34.6919 76.7589 0.0000 8.1149 0.0000
# 2 34.6919 77.6592 63.0095 0.0000 -0.9261 0.0000
# 3 76.7589 63.0095 168.9214 0.0000 9.9973 0.0000
# 4 0.0000 0.0000 0.0000 38.2046 0.0000 -5.0988
# 5 8.1149 -0.9261 9.9973 0.0000 31.9159 0.0000
# 6 0.0000 0.0000 0.0000 -5.0988 0.0000 22.5119
#
#
#
# Elastic Compliance Matrix: (Units=1/GPa)
#
#
# Indices 1 2 3 4 5 6 
#
# 1 0.033308 -0.004106 -0.013343 0.000000 -0.004409 0.000000
# 2 -0.004106 0.019210 -0.005497 0.000000 0.003323 0.000000
# 3 -0.013343 -0.005497 0.014103 0.000000 -0.001185 0.000000
# 4 0.000000 0.000000 0.000000 0.026991 0.000000 0.006113
# 5 -0.004409 0.003323 -0.001185 0.000000 0.032921 0.000000
# 6 0.000000 0.000000 0.000000 0.006113 0.000000 0.045806
#
#
# Mechanical properties :
#
#
# Convention : Reuss Voigt Hill
#
# Bulk Modulus (GPa) = 48.23749 73.51376 60.87562
# Shear Modulus (GPa) = 22.20847 27.74267 24.97557
#
# Velocity S-wave (km/s) = 3.51729 3.93118 3.72998
# Velocity P-wave (km/s) = 6.58529 7.84581 7.24303
#
# Compressibility (1/GPa) = 0.02073077
#
# Stress axis : x y z
#
# Youngs Moduli (GPa) = 30.02301 52.05537 70.90536
#
# Poissons Ratio (x) = 0.21374 0.94607
# Poissons Ratio (y) = 0.12328 0.38973
# Poissons Ratio (z) = 0.40059 0.28612
#
# Static dielectric constant tensor:
#      x y z
#    x 3.262970 0.000000 0.190600 
#    y 0.000000 3.335170 0.000000 
#    z 0.190600 0.000000 3.727980 
# 
# 
# High freq. dielectric constant tensor:
#      x y z
#    x 1.671440 0.000000 0.002800 
#    y 0.000000 1.693250 0.000000 
#    z 0.002800 0.000000 1.713710 
# 
# From -- ./inp_files/320203.got.cif
#   From: 2010.06.25/outbox.cif.g09.slc.cpg/sg12_161_cif.got.tgz:320203.got - 2010.06.28 00:19:55.
