data_PCOD8087263
_publ_section_title
;
Structure prediction by ZEFSAII (Michael W. Deem and Ramdas Pophale) SiO2 
 PCOD8087263
Probable space group: C 2/M
;
_chemical_formula_sum "Si O2"
_cell_formula_units_Z 60
_cell_length_a 18.380963
_cell_length_b 17.713884
_cell_length_c 12.017807
_cell_angle_alpha 90.000000
_cell_angle_beta 59.672906
_cell_angle_gamma 90.000000
_cell_volume 3377.512893
_symmetry_space_group_name_H-M "C 2/M"
_symmetry_group_IT_number 12
_symmetry_cell_setting 'monoclinic'
loop_
_space_group_symop_operation_xyz
x,y,z
-x,y,-z
-x,-y,-z
x,-y,z
1/2+x,1/2+y,z
1/2-x,1/2+y,-z
1/2-x,1/2-y,-z
1/2+x,1/2-y,z
loop_
_atom_site_type_symbol
_atom_site_label
_atom_site_fract_x
_atom_site_fract_y
_atom_site_fract_z
Si Si1 0.428245 0.914127 0.791040
Si Si2 0.727840 0.805270 0.766377
Si Si3 0.829109 0.268617 0.513628
Si Si4 0.000000 0.809900 0.000000
Si Si5 0.241437 0.412987 0.948250
Si Si6 0.320536 0.350001 0.094918
Si Si7 0.061313 0.293775 0.760106
Si Si8 0.325179 0.913531 0.655633
O O1 0.506354 0.865158 0.769470
O O2 0.397580 0.893648 0.690069
O O3 0.458965 0.000000 0.770976
O O4 0.352739 0.900589 0.935232
O O5 0.814441 0.783241 0.633984
O O6 0.748976 0.879674 0.819167
O O7 0.703881 0.737129 0.867433
O O8 0.648230 0.822531 0.748494
O O9 0.750000 0.250000 0.500000
O O10 0.912602 0.250581 0.375695
O O11 0.832949 0.357202 0.545520
O O12 0.081537 0.862644 0.950411
O O13 0.008246 0.759185 0.882639
O O14 0.266762 0.500000 0.924159
O O15 0.307312 0.370043 0.976546
O O16 0.265954 0.404759 0.215651
O O17 0.334003 0.000000 0.607310
#
# Coordination Sequence:
#
# PCOD8087263 Si02
#       8
#     8   8   8   4   8   8   8   8
#     4   9  18  30  47  74 107 134 159 196 246 299
#     4   9  18  32  51  71  98 135 170 203 241 288
#     4   9  19  34  51  70  97 131 170 206 241 287
#     4  10  20  32  52  76  96 122 164 214 258 292
#     4  10  19  32  50  74 102 134 166 197 243 303
#     4   9  17  32  52  74  98 126 165 212 250 288
#     4  10  19  32  48  74 102 127 162 204 244 293
#     4   9  18  34  53  74 100 133 168 204 246 295
#
# _framework density 17.764551999999998
#
# number of rings (size 3 to 8) (size 9 to 14) (size 15 to 20)
#    0.000    2.667    0.000    4.000    0.000    3.733 
#    0.000    6.333    0.000    0.000    0.000    0.933 
#    0.000    0.000    0.000    0.000    0.000    0.000 
#
# Total GULP energy -371858.390692 kJ/mol
# GULP energy per Si atom -12395.279690 kJ/mol
# Density = 1.772412 g / cm^3
# Si number density = 17.764552 Si / 1000 Ang^3
#
#
#
# Elastic Constant Matrix: (Units=GPa)
#
#
# Indices 1 2 3 4 5 6 
#
# 1 89.4028 56.1212 35.2095 0.0000 5.2637 0.0000
# 2 56.1212 86.2653 45.4618 0.0000 10.6825 0.0000
# 3 35.2095 45.4618 100.5432 0.0000 4.3983 0.0000
# 4 0.0000 0.0000 0.0000 19.9861 0.0000 0.9881
# 5 5.2637 10.6825 4.3983 0.0000 21.1977 0.0000
# 6 0.0000 0.0000 0.0000 0.9881 0.0000 28.7586
#
#
#
# Elastic Compliance Matrix: (Units=1/GPa)
#
#
# Indices 1 2 3 4 5 6 
#
# 1 0.019102 -0.011890 -0.001380 0.000000 0.001535 0.000000
# 2 -0.011890 0.023501 -0.006129 0.000000 -0.007619 0.000000
# 3 -0.001380 -0.006129 0.013170 0.000000 0.000699 0.000000
# 4 0.000000 0.000000 0.000000 0.050120 0.000000 -0.001722
# 5 0.001535 -0.007619 0.000699 0.000000 0.050488 0.000000
# 6 0.000000 0.000000 0.000000 -0.001722 0.000000 0.034831
#
#
# Mechanical properties :
#
#
# Convention : Reuss Voigt Hill
#
# Bulk Modulus (GPa) = 58.91242 61.08849 60.00046
# Shear Modulus (GPa) = 21.21608 23.28305 22.24956
#
# Velocity S-wave (km/s) = 3.45960 3.62421 3.54286
# Velocity P-wave (km/s) = 7.01380 7.20942 7.11228
#
# Compressibility (1/GPa) = 0.01697435
#
# Stress axis : x y z
#
# Youngs Moduli (GPa) = 52.34965 42.55170 75.92898
#
# Poissons Ratio (x) = 0.50593 0.10482
# Poissons Ratio (y) = 0.62243 0.46538
# Poissons Ratio (z) = 0.07227 0.26081
#
# Static dielectric constant tensor:
#      x y z
#    x 3.236520 0.000000 -0.023910 
#    y 0.000000 3.144820 0.000000 
#    z -0.023910 0.000000 3.668070 
# 
# 
# High freq. dielectric constant tensor:
#      x y z
#    x 1.677090 0.000000 0.004860 
#    y 0.000000 1.667160 0.000000 
#    z 0.004860 0.000000 1.691480 
# 
# From -- ./inp_files/157780.got.cif
#   From: 2010.06.25/outbox.cif.g09.slc.cpg/sg12_79_cif.got.tgz:157780.got - 2010.06.28 00:19:55.
