data_PCOD8087027
_publ_section_title
;
Structure prediction by ZEFSAII (Michael W. Deem and Ramdas Pophale) SiO2 
 PCOD8087027
Probable space group: C 2/M
;
_chemical_formula_sum "Si O2"
_cell_formula_units_Z 56
_cell_length_a 29.483239
_cell_length_b 8.778245
_cell_length_c 16.782909
_cell_angle_alpha 90.000000
_cell_angle_beta 133.622493
_cell_angle_gamma 90.000000
_cell_volume 3144.338934
_symmetry_space_group_name_H-M "C 2/M"
_symmetry_group_IT_number 12
_symmetry_cell_setting 'monoclinic'
loop_
_space_group_symop_operation_xyz
x,y,z
-x,y,-z
-x,-y,-z
x,-y,z
1/2+x,1/2+y,z
1/2-x,1/2+y,-z
1/2-x,1/2-y,-z
1/2+x,1/2-y,z
loop_
_atom_site_type_symbol
_atom_site_label
_atom_site_fract_x
_atom_site_fract_y
_atom_site_fract_z
Si Si1 0.553511 0.824021 0.416751
Si Si2 0.803717 0.821529 0.011334
Si Si3 0.165656 0.675181 0.441865
Si Si4 0.411091 0.178373 0.234190
Si Si5 0.743346 0.322621 0.218048
Si Si6 0.217096 0.324657 0.339645
Si Si7 0.874717 0.821424 0.356278
O O1 0.596454 0.792075 0.391617
O O2 0.483321 0.778606 0.307475
O O3 0.573536 0.721597 0.515623
O O4 0.557440 0.000000 0.448374
O O5 0.871580 0.758515 0.116945
O O6 0.801886 0.000000 0.023427
O O7 0.750000 0.750000 0.000000
O O8 0.792516 0.778110 0.905903
O O9 0.185865 0.500000 0.482067
O O10 0.166434 0.709372 0.347951
O O11 0.213842 0.784492 0.544844
O O12 0.388143 0.233199 0.291779
O O13 0.398760 0.000000 0.213948
O O14 0.760067 0.500000 0.240669
O O15 0.700261 0.275975 0.241401
O O16 0.806891 0.227447 0.305387
O O17 0.216137 0.500000 0.313114
O O18 0.876965 0.000000 0.342354
#
# Coordination Sequence:
#
# PCOD8087027 Si02
#       7
#     8   8   8   8   8   8   8
#     4  10  21  37  56  78 110 150 182 216 267 327
#     4  11  23  38  58  79 104 141 184 229 272 317
#     4   9  18  33  53  77 110 144 176 217 266 322
#     4  11  23  38  56  78 108 147 186 221 268 323
#     4  11  22  36  55  78 109 144 177 220 275 325
#     4  10  19  31  52  83 109 137 178 222 269 319
#     4  12  23  34  53  81 111 144 182 223 266 318
#
# _framework density 17.809784000000001
#
# number of rings (size 3 to 8) (size 9 to 14) (size 15 to 20)
#    0.000    1.429    2.857    3.429    0.000    5.143 
#    0.000    0.000    0.000    0.857    0.000    6.000 
#    0.000    0.000    0.000    0.000    0.000    0.000 
#
# Total GULP energy -347294.574129 kJ/mol
# GULP energy per Si atom -12403.377647 kJ/mol
# Density = 1.776925 g / cm^3
# Si number density = 17.809784 Si / 1000 Ang^3
#
#
#
# Elastic Constant Matrix: (Units=GPa)
#
#
# Indices 1 2 3 4 5 6 
#
# 1 60.3242 16.2260 48.1757 0.0000 -15.0566 0.0000
# 2 16.2260 63.0725 46.8712 0.0000 -4.4039 0.0000
# 3 48.1757 46.8712 123.8504 0.0000 -8.5500 0.0000
# 4 0.0000 0.0000 0.0000 31.2920 0.0000 -2.6782
# 5 -15.0566 -4.4039 -8.5500 0.0000 30.4469 0.0000
# 6 0.0000 0.0000 0.0000 -2.6782 0.0000 24.5240
#
#
#
# Elastic Compliance Matrix: (Units=1/GPa)
#
#
# Indices 1 2 3 4 5 6 
#
# 1 0.027143 0.001477 -0.010377 0.000000 0.010722 0.000000
# 2 0.001477 0.022161 -0.008862 0.000000 0.001448 0.000000
# 3 -0.010377 -0.008862 0.015319 0.000000 -0.002112 0.000000
# 4 0.000000 0.000000 0.000000 0.032259 0.000000 0.003523
# 5 0.010722 0.001448 -0.002112 0.000000 0.037763 0.000000
# 6 0.000000 0.000000 0.000000 0.003523 0.000000 0.041161
#
#
# Mechanical properties :
#
#
# Convention : Reuss Voigt Hill
#
# Bulk Modulus (GPa) = 34.36383 52.19919 43.28151
# Shear Modulus (GPa) = 22.62149 26.31752 24.46951
#
# Velocity S-wave (km/s) = 3.56781 3.84826 3.71069
# Velocity P-wave (km/s) = 6.02571 7.00845 6.53558
#
# Compressibility (1/GPa) = 0.02910037
#
# Stress axis : x y z
#
# Youngs Moduli (GPa) = 36.84146 45.12401 65.27960
#
# Poissons Ratio (x) = -0.06667 0.67742
# Poissons Ratio (y) = -0.05443 0.57849
# Poissons Ratio (z) = 0.38231 0.39987
#
# Static dielectric constant tensor:
#      x y z
#    x 3.448430 0.000000 -0.118390 
#    y 0.000000 3.385680 0.000000 
#    z -0.118390 0.000000 3.365370 
# 
# 
# High freq. dielectric constant tensor:
#      x y z
#    x 1.685120 0.000000 -0.016620 
#    y 0.000000 1.699850 0.000000 
#    z -0.016620 0.000000 1.673890 
# 
# From -- ./inp_files/237795.got.cif
#   From: 2010.06.25/outbox.cif.g09.slc.cpg/sg12_119_cif.got.tgz:237795.got - 2010.06.28 00:19:55.
