data_PCOD8087464
_publ_section_title
;
Structure prediction by ZEFSAII (Michael W. Deem and Ramdas Pophale) SiO2 
 PCOD8087464
Probable space group: C 2/M
;
_chemical_formula_sum "Si O2"
_cell_formula_units_Z 56
_cell_length_a 22.656264
_cell_length_b 13.406447
_cell_length_c 12.394477
_cell_angle_alpha 90.000000
_cell_angle_beta 111.353814
_cell_angle_gamma 90.000000
_cell_volume 3506.250569
_symmetry_space_group_name_H-M "C 2/M"
_symmetry_group_IT_number 12
_symmetry_cell_setting 'monoclinic'
loop_
_space_group_symop_operation_xyz
x,y,z
-x,y,-z
-x,-y,-z
x,-y,z
1/2+x,1/2+y,z
1/2-x,1/2+y,-z
1/2-x,1/2-y,-z
1/2+x,1/2-y,z
loop_
_atom_site_type_symbol
_atom_site_label
_atom_site_fract_x
_atom_site_fract_y
_atom_site_fract_z
Si Si1 0.429222 0.884038 0.118030
Si Si2 0.150971 0.697220 0.742880
Si Si3 0.218734 0.113085 0.851312
Si Si4 0.718056 0.613051 0.103326
Si Si5 0.926206 0.385248 0.739461
Si Si6 0.150289 0.301873 0.126730
Si Si7 0.930968 0.382832 0.493805
O O1 0.400961 0.831239 0.203673
O O2 0.504017 0.867722 0.167554
O O3 0.410747 0.000000 0.109871
O O4 0.403068 0.835349 0.992476
O O5 0.167065 0.814505 0.763143
O O6 0.213644 0.630950 0.798702
O O7 0.122689 0.677339 0.606173
O O8 0.287387 0.131174 0.845964
O O9 0.197133 0.000000 0.815338
O O10 0.223752 0.137728 0.980966
O O11 0.696251 0.500000 0.109914
O O12 0.665882 0.685105 0.121618
O O13 0.906555 0.500000 0.741690
O O14 0.876666 0.316924 0.771186
O O15 0.922884 0.354141 0.612810
O O16 0.922006 0.500000 0.466356
O O17 0.000000 0.348694 0.500000
#
# Coordination Sequence:
#
# PCOD8087464 Si02
#       7
#     8   8   8   8   8   8   8
#     4  11  18  28  49  77 103 126 155 201 251 298
#     4  11  18  31  52  77  98 126 164 205 245 285
#     4  10  19  32  51  74 101 130 164 203 242 292
#     4  10  19  32  51  74 100 130 165 203 242 290
#     4  10  21  32  47  74 105 134 159 196 250 298
#     4  11  19  32  49  75 105 131 159 196 253 298
#     4  10  19  32  50  73 101 132 164 199 240 293
#
# _framework density 15.971475999999999
#
# number of rings (size 3 to 8) (size 9 to 14) (size 15 to 20)
#    0.000    1.571    4.286    3.857    0.000    1.143 
#    0.000    2.857    0.000    5.571    0.000    0.000 
#    0.000    0.000    0.000    0.000    0.000    0.000 
#
# Total GULP energy -347294.553294 kJ/mol
# GULP energy per Si atom -12403.376903 kJ/mol
# Density = 1.593512 g / cm^3
# Si number density = 15.971476 Si / 1000 Ang^3
#
#
#
# Elastic Constant Matrix: (Units=GPa)
#
#
# Indices 1 2 3 4 5 6 
#
# 1 93.1615 50.4768 49.6111 0.0000 -17.6928 0.0000
# 2 50.4768 107.1641 42.2712 0.0000 -3.7584 0.0000
# 3 49.6111 42.2712 94.5040 0.0000 -5.0016 0.0000
# 4 0.0000 0.0000 0.0000 23.5071 0.0000 0.2767
# 5 -17.6928 -3.7584 -5.0016 0.0000 27.4401 0.0000
# 6 0.0000 0.0000 0.0000 0.2767 0.0000 25.9298
#
#
#
# Elastic Compliance Matrix: (Units=1/GPa)
#
#
# Indices 1 2 3 4 5 6 
#
# 1 0.019911 -0.006197 -0.007115 0.000000 0.010693 0.000000
# 2 -0.006197 0.013270 -0.002825 0.000000 -0.002693 0.000000
# 3 -0.007115 -0.002825 0.015466 0.000000 -0.002155 0.000000
# 4 0.000000 0.000000 0.000000 0.042546 0.000000 -0.000454
# 5 0.010693 -0.002693 -0.002155 0.000000 0.042576 0.000000
# 6 0.000000 0.000000 0.000000 -0.000454 0.000000 0.038570
#
#
# Mechanical properties :
#
#
# Convention : Reuss Voigt Hill
#
# Bulk Modulus (GPa) = 61.07334 64.39422 62.73378
# Shear Modulus (GPa) = 23.80135 25.54010 24.67072
#
# Velocity S-wave (km/s) = 3.86455 4.00322 3.93450
# Velocity P-wave (km/s) = 7.63119 7.85961 7.74624
#
# Compressibility (1/GPa) = 0.01637376
#
# Stress axis : x y z
#
# Youngs Moduli (GPa) = 50.22236 75.35552 64.65740
#
# Poissons Ratio (x) = 0.46700 0.46003
# Poissons Ratio (y) = 0.31124 0.18266
# Poissons Ratio (z) = 0.35732 0.21288
#
# Static dielectric constant tensor:
#      x y z
#    x 2.977430 0.000000 -0.067060 
#    y 0.000000 2.989970 0.000000 
#    z -0.067060 0.000000 3.186250 
# 
# 
# High freq. dielectric constant tensor:
#      x y z
#    x 1.609250 0.000000 0.000360 
#    y 0.000000 1.600900 0.000000 
#    z 0.000360 0.000000 1.608830 
# 
# From -- ./inp_files/166806.got.cif
#   From: 2010.06.25/outbox.cif.g09.slc.cpg/sg12_84_cif.got.tgz:166806.got - 2010.06.28 00:19:55.
