data_PCOD8087134
_publ_section_title
;
Structure prediction by ZEFSAII (Michael W. Deem and Ramdas Pophale) SiO2 
 PCOD8087134
Probable space group: C 2/M
;
_chemical_formula_sum "Si O2"
_cell_formula_units_Z 56
_cell_length_a 20.413127
_cell_length_b 9.411326
_cell_length_c 17.008555
_cell_angle_alpha 90.000000
_cell_angle_beta 74.047584
_cell_angle_gamma 90.000000
_cell_volume 3141.757583
_symmetry_space_group_name_H-M "C 2/M"
_symmetry_group_IT_number 12
_symmetry_cell_setting 'monoclinic'
loop_
_space_group_symop_operation_xyz
x,y,z
-x,y,-z
-x,-y,-z
x,-y,z
1/2+x,1/2+y,z
1/2-x,1/2+y,-z
1/2-x,1/2-y,-z
1/2+x,1/2-y,z
loop_
_atom_site_type_symbol
_atom_site_label
_atom_site_fract_x
_atom_site_fract_y
_atom_site_fract_z
Si Si1 0.450401 0.663368 0.761685
Si Si2 0.924484 0.666568 0.498964
Si Si3 0.920852 0.335065 0.320990
Si Si4 0.336184 0.338339 0.916702
Si Si5 0.148626 0.833562 0.346672
Si Si6 0.710939 0.664557 0.898994
Si Si7 0.200216 0.335180 0.753500
O O1 0.471041 0.500000 0.744561
O O2 0.518518 0.754270 0.742593
O O3 0.410927 0.689317 0.856765
O O4 0.402374 0.712498 0.705785
O O5 0.911999 0.500000 0.514800
O O6 0.913424 0.715564 0.413125
O O7 0.869557 0.749763 0.568539
O O8 0.000000 0.711308 0.500000
O O9 0.939619 0.500000 0.311674
O O10 0.850387 0.300404 0.301067
O O11 0.312721 0.500000 0.904343
O O12 0.284275 0.231260 0.892969
O O13 0.338705 0.314673 0.009643
O O14 0.224496 0.788972 0.297239
O O15 0.144173 0.000000 0.365967
O O16 0.721311 0.500000 0.875024
O O17 0.676945 0.743859 0.836534
O O18 0.197595 0.500000 0.777975
#
# Coordination Sequence:
#
# PCOD8087134 Si02
#       7
#     8   8   8   8   8   8   8
#     4  10  19  34  56  80 106 139 179 221 263 316
#     4  10  20  35  54  79 109 137 173 225 273 312
#     4  10  22  38  56  77 107 147 180 216 273 327
#     4   9  18  34  54  80 112 144 177 218 270 318
#     4  10  20  34  56  80 103 140 181 216 263 322
#     4  10  19  31  54  84 110 139 180 225 265 312
#     4  10  21  39  56  75 111 149 178 215 271 329
#
# _framework density 17.824418999999999
#
# number of rings (size 3 to 8) (size 9 to 14) (size 15 to 20)
#    0.000    2.143    2.857    0.429    0.000    3.714 
#    0.000    0.714    0.000    4.286    0.000    0.000 
#    0.000    0.000    0.000    0.000    0.000    0.000 
#
# Total GULP energy -347291.716288 kJ/mol
# GULP energy per Si atom -12403.275582 kJ/mol
# Density = 1.778385 g / cm^3
# Si number density = 17.824419 Si / 1000 Ang^3
#
#
#
# Elastic Constant Matrix: (Units=GPa)
#
#
# Indices 1 2 3 4 5 6 
#
# 1 81.6932 36.9865 44.9663 0.0000 -1.8598 0.0000
# 2 36.9865 63.2729 54.6154 0.0000 -3.6594 0.0000
# 3 44.9663 54.6154 126.5373 0.0000 -4.2268 0.0000
# 4 0.0000 0.0000 0.0000 34.3141 0.0000 -3.1429
# 5 -1.8598 -3.6594 -4.2268 0.0000 29.7452 0.0000
# 6 0.0000 0.0000 0.0000 -3.1429 0.0000 26.2296
#
#
#
# Elastic Compliance Matrix: (Units=1/GPa)
#
#
# Indices 1 2 3 4 5 6 
#
# 1 0.017264 -0.007656 -0.002839 0.000000 -0.000266 0.000000
# 2 -0.007656 0.028657 -0.009592 0.000000 0.001684 0.000000
# 3 -0.002839 -0.009592 0.013068 0.000000 0.000499 0.000000
# 4 0.000000 0.000000 0.000000 0.029466 0.000000 0.003531
# 5 -0.000266 0.001684 0.000499 0.000000 0.033880 0.000000
# 6 0.000000 0.000000 0.000000 0.003531 0.000000 0.038548
#
#
# Mechanical properties :
#
#
# Convention : Reuss Voigt Hill
#
# Bulk Modulus (GPa) = 53.15028 60.51552 56.83290
# Shear Modulus (GPa) = 24.11618 27.05345 25.58482
#
# Velocity S-wave (km/s) = 3.68229 3.90009 3.79275
# Velocity P-wave (km/s) = 6.92550 7.36923 7.15081
#
# Compressibility (1/GPa) = 0.01881458
#
# Stress axis : x y z
#
# Youngs Moduli (GPa) = 57.92369 34.89571 76.52090
#
# Poissons Ratio (x) = 0.26718 0.21726
# Poissons Ratio (y) = 0.44349 0.73396
# Poissons Ratio (z) = 0.16446 0.33471
#
# Static dielectric constant tensor:
#      x y z
#    x 3.110350 0.000000 -0.047840 
#    y 0.000000 3.271120 0.000000 
#    z -0.047840 0.000000 3.478790 
# 
# 
# High freq. dielectric constant tensor:
#      x y z
#    x 1.670900 0.000000 -0.007250 
#    y 0.000000 1.688400 0.000000 
#    z -0.007250 0.000000 1.699470 
# 
# From -- ./inp_files/230905.got.cif
#   From: 2010.06.25/outbox.cif.g09.slc.cpg/sg12_116_cif.got.tgz:230905.got - 2010.06.28 00:19:55.
