data_PCOD8087496
_publ_section_title
;
Structure prediction by ZEFSAII (Michael W. Deem and Ramdas Pophale) SiO2 
 PCOD8087496
Probable space group: C 2/M
;
_chemical_formula_sum "Si O2"
_cell_formula_units_Z 56
_cell_length_a 27.388991
_cell_length_b 8.925037
_cell_length_c 11.972209
_cell_angle_alpha 90.000000
_cell_angle_beta 104.352053
_cell_angle_gamma 90.000000
_cell_volume 2835.243831
_symmetry_space_group_name_H-M "C 2/M"
_symmetry_group_IT_number 12
_symmetry_cell_setting 'monoclinic'
loop_
_space_group_symop_operation_xyz
x,y,z
-x,y,-z
-x,-y,-z
x,-y,z
1/2+x,1/2+y,z
1/2-x,1/2+y,-z
1/2-x,1/2-y,-z
1/2+x,1/2-y,z
loop_
_atom_site_type_symbol
_atom_site_label
_atom_site_fract_x
_atom_site_fract_y
_atom_site_fract_z
Si Si1 0.803858 0.823298 0.007703
Si Si2 0.899179 0.177369 0.201559
Si Si3 0.493971 0.321721 0.121688
Si Si4 0.619191 0.322639 0.567995
Si Si5 0.324517 0.173169 0.793028
Si Si6 0.907740 0.177167 0.690670
Si Si7 0.229571 0.828328 0.596237
O O1 0.843383 0.778976 0.127131
O O2 0.795873 0.000000 0.995743
O O3 0.750000 0.750000 0.000000
O O4 0.829851 0.765588 0.909431
O O5 0.943134 0.245794 0.148044
O O6 0.906620 0.239034 0.332777
O O7 0.905395 0.000000 0.202029
O O8 0.491761 0.500000 0.115916
O O9 0.541030 0.268221 0.222649
O O10 0.500000 0.256516 0.000000
O O11 0.621757 0.500000 0.579740
O O12 0.589259 0.276363 0.438697
O O13 0.675815 0.256908 0.597130
O O14 0.360962 0.239559 0.719911
O O15 0.266935 0.191282 0.721304
O O16 0.338113 0.000000 0.821661
O O17 0.899335 0.000000 0.699494
O O18 0.250000 0.750000 0.500000
O O19 0.222484 0.000000 0.559228
#
# Coordination Sequence:
#
# PCOD8087496 Si02
#       7
#     8   8   8   8   8   8   8
#     4  11  22  37  58  81 110 146 184 227 276 330
#     4   9  18  33  53  78 111 145 175 224 284 325
#     4   9  17  30  50  78 108 139 182 230 275 324
#     4   9  17  30  49  76 109 138 174 221 272 328
#     4  11  22  35  54  80 112 147 183 225 276 330
#     4  10  19  32  54  81 107 139 183 230 271 322
#     4  10  19  32  50  74 107 142 176 220 270 324
#
# _framework density 19.751389
#
# number of rings (size 3 to 8) (size 9 to 14) (size 15 to 20)
#    0.000    2.143    1.429    2.571    0.000    5.714 
#    0.000    2.857    0.000    5.571    0.000    1.000 
#    0.000    0.000    0.000    0.000    0.000    0.000 
#
# Total GULP energy -347127.529674 kJ/mol
# GULP energy per Si atom -12397.411774 kJ/mol
# Density = 1.970643 g / cm^3
# Si number density = 19.751389 Si / 1000 Ang^3
#
#
#
# Elastic Constant Matrix: (Units=GPa)
#
#
# Indices 1 2 3 4 5 6 
#
# 1 139.0167 18.8718 78.5217 0.0000 -5.8422 0.0000
# 2 18.8718 41.1706 29.6230 0.0000 3.2632 0.0000
# 3 78.5217 29.6230 171.4256 0.0000 -11.9935 0.0000
# 4 0.0000 0.0000 0.0000 18.8226 0.0000 -1.6438
# 5 -5.8422 3.2632 -11.9935 0.0000 40.4101 0.0000
# 6 0.0000 0.0000 0.0000 -1.6438 0.0000 21.2853
#
#
#
# Elastic Compliance Matrix: (Units=1/GPa)
#
#
# Indices 1 2 3 4 5 6 
#
# 1 0.009781 -0.001481 -0.004204 0.000000 0.000286 0.000000
# 2 -0.001481 0.028527 -0.004521 0.000000 -0.003860 0.000000
# 3 -0.004204 -0.004521 0.008704 0.000000 0.002341 0.000000
# 4 0.000000 0.000000 0.000000 0.053488 0.000000 0.004131
# 5 0.000286 -0.003860 0.002341 0.000000 0.025794 0.000000
# 6 0.000000 0.000000 0.000000 0.004131 0.000000 0.047300
#
#
# Mechanical properties :
#
#
# Convention : Reuss Voigt Hill
#
# Bulk Modulus (GPa) = 37.59493 67.29397 52.44445
# Shear Modulus (GPa) = 24.64581 31.07671 27.86126
#
# Velocity S-wave (km/s) = 3.53626 3.97091 3.75987
# Velocity P-wave (km/s) = 5.97903 7.42756 6.74231
#
# Compressibility (1/GPa) = 0.02659933
#
# Stress axis : x y z
#
# Youngs Moduli (GPa) = 102.23652 35.05439 114.88577
#
# Poissons Ratio (x) = 0.05192 0.48302
# Poissons Ratio (y) = 0.15142 0.51942
# Poissons Ratio (z) = 0.42984 0.15849
#
# Static dielectric constant tensor:
#      x y z
#    x 3.849430 0.000000 0.133770 
#    y 0.000000 3.170610 0.000000 
#    z 0.133770 0.000000 4.332860 
# 
# 
# High freq. dielectric constant tensor:
#      x y z
#    x 1.774910 0.000000 -0.003530 
#    y 0.000000 1.716680 0.000000 
#    z -0.003530 0.000000 1.788280 
# 
# From -- ./inp_files/181001.got.cif
#   From: 2010.06.25/outbox.cif.g09.slc.cpg/sg12_91_cif.got.tgz:181001.got - 2010.06.28 00:19:55.
