data_PCOD8087296
_publ_section_title
;
Structure prediction by ZEFSAII (Michael W. Deem and Ramdas Pophale) SiO2 
 PCOD8087296
Probable space group: C 2/M
;
_chemical_formula_sum "Si O2"
_cell_formula_units_Z 64
_cell_length_a 31.280545
_cell_length_b 9.048542
_cell_length_c 15.714270
_cell_angle_alpha 90.000000
_cell_angle_beta 124.720504
_cell_angle_gamma 90.000000
_cell_volume 3655.841719
_symmetry_space_group_name_H-M "C 2/M"
_symmetry_group_IT_number 12
_symmetry_cell_setting 'monoclinic'
loop_
_space_group_symop_operation_xyz
x,y,z
-x,y,-z
-x,-y,-z
x,-y,z
1/2+x,1/2+y,z
1/2-x,1/2+y,-z
1/2-x,1/2-y,-z
1/2+x,1/2-y,z
loop_
_atom_site_type_symbol
_atom_site_label
_atom_site_fract_x
_atom_site_fract_y
_atom_site_fract_z
Si Si1 0.364777 0.167775 0.567817
Si Si2 0.718085 0.823613 0.659738
Si Si3 0.717033 0.169320 0.392041
Si Si4 0.325322 0.829613 0.058506
Si Si5 0.777192 0.828738 0.158123
Si Si6 0.939191 0.163941 0.916250
Si Si7 0.458161 0.824957 0.770922
Si Si8 0.925745 0.327151 0.068273
O O1 0.329531 0.241698 0.453527
O O2 0.341241 0.180250 0.637271
O O3 0.424295 0.226652 0.648853
O O4 0.367213 0.000000 0.540448
O O5 0.772376 0.755070 0.684889
O O6 0.709297 0.768318 0.744695
O O7 0.722114 0.000000 0.661816
O O8 0.750000 0.250000 0.500000
O O9 0.734510 0.000000 0.400457
O O10 0.315668 0.723978 0.127378
O O11 0.381757 0.786850 0.086614
O O12 0.322979 0.000000 0.085631
O O13 0.282365 0.801074 0.936921
O O14 0.787800 0.000000 0.189668
O O15 0.929882 0.254195 0.820077
O O16 0.915102 0.000000 0.880404
O O17 0.912243 0.244760 0.965369
O O18 0.000000 0.155007 0.000000
O O19 0.518379 0.775774 0.829851
O O20 0.454386 0.000000 0.777803
O O21 0.926134 0.500000 0.047774
#
# Coordination Sequence:
#
# PCOD8087296 Si02
#       8
#     8   8   8   8   8   8   8   8
#     4   8  16  29  46  68  94 125 157 192 227 261
#     4  10  19  32  49  69  95 125 157 193 233 274
#     4   9  16  28  44  64  92 124 158 193 228 264
#     4   9  19  35  52  72  95 116 145 189 238 282
#     4  10  20  34  52  72  93 118 149 187 234 285
#     4   9  17  28  41  62  94 126 155 188 224 261
#     4   9  16  29  48  68  92 124 161 191 221 266
#     4   9  17  30  50  71  91 120 155 190 228 273
#
# _framework density 17.506228
#
# number of rings (size 3 to 8) (size 9 to 14) (size 15 to 20)
#    0.000    2.875    0.000    2.250    0.000    3.500 
#    0.000    8.750    0.000    0.750    0.000    5.250 
#    0.000    0.000    0.000    0.000    0.000    0.000 
#
# Total GULP energy -396470.804690 kJ/mol
# GULP energy per Si atom -12389.712647 kJ/mol
# Density = 1.746638 g / cm^3
# Si number density = 17.506228 Si / 1000 Ang^3
#
#
#
# Elastic Constant Matrix: (Units=GPa)
#
#
# Indices 1 2 3 4 5 6 
#
# 1 81.5958 36.9977 45.4156 0.0000 -3.1753 0.0000
# 2 36.9977 73.6396 34.9943 0.0000 -5.0356 0.0000
# 3 45.4156 34.9943 93.4830 0.0000 -3.2514 0.0000
# 4 0.0000 0.0000 0.0000 21.5803 0.0000 -7.5021
# 5 -3.1753 -5.0356 -3.2514 0.0000 19.5496 0.0000
# 6 0.0000 0.0000 0.0000 -7.5021 0.0000 24.5840
#
#
#
# Elastic Compliance Matrix: (Units=1/GPa)
#
#
# Indices 1 2 3 4 5 6 
#
# 1 0.018896 -0.006221 -0.006840 0.000000 0.000329 0.000000
# 2 -0.006221 0.018773 -0.003895 0.000000 0.003177 0.000000
# 3 -0.006840 -0.003895 0.015494 0.000000 0.000463 0.000000
# 4 0.000000 0.000000 0.000000 0.051838 0.000000 0.015819
# 5 0.000329 0.003177 0.000463 0.000000 0.052101 0.000000
# 6 0.000000 0.000000 0.000000 0.015819 0.000000 0.045504
#
#
# Mechanical properties :
#
#
# Convention : Reuss Voigt Hill
#
# Bulk Modulus (GPa) = 51.94165 53.72595 52.83380
# Shear Modulus (GPa) = 20.58166 21.89684 21.23925
#
# Velocity S-wave (km/s) = 3.43253 3.54051 3.48694
# Velocity P-wave (km/s) = 6.74125 6.88983 6.81595
#
# Compressibility (1/GPa) = 0.01925237
#
# Stress axis : x y z
#
# Youngs Moduli (GPa) = 52.92122 53.26733 64.54048
#
# Poissons Ratio (x) = 0.33136 0.44145
# Poissons Ratio (y) = 0.32921 0.25138
# Poissons Ratio (z) = 0.36197 0.20747
#
# Static dielectric constant tensor:
#      x y z
#    x 3.348860 0.000000 0.152960 
#    y 0.000000 3.338370 0.000000 
#    z 0.152960 0.000000 3.252890 
# 
# 
# High freq. dielectric constant tensor:
#      x y z
#    x 1.657570 0.000000 0.006640 
#    y 0.000000 1.672580 0.000000 
#    z 0.006640 0.000000 1.665410 
# 
# From -- ./inp_files/249233.got.cif
#   From: 2010.06.25/outbox.cif.g09.slc.cpg/sg12_125_cif.got.tgz:249233.got - 2010.06.28 00:19:55.
