data_PCOD8087586
_publ_section_title
;
Structure prediction by ZEFSAII (Michael W. Deem and Ramdas Pophale) SiO2 
 PCOD8087586
Probable space group: C 2/M
;
_chemical_formula_sum "Si O2"
_cell_formula_units_Z 56
_cell_length_a 21.862437
_cell_length_b 9.547576
_cell_length_c 17.660429
_cell_angle_alpha 90.000000
_cell_angle_beta 120.637442
_cell_angle_gamma 90.000000
_cell_volume 3171.742966
_symmetry_space_group_name_H-M "C 2/M"
_symmetry_group_IT_number 12
_symmetry_cell_setting 'monoclinic'
loop_
_space_group_symop_operation_xyz
x,y,z
-x,y,-z
-x,-y,-z
x,-y,z
1/2+x,1/2+y,z
1/2-x,1/2+y,-z
1/2-x,1/2-y,-z
1/2+x,1/2-y,z
loop_
_atom_site_type_symbol
_atom_site_label
_atom_site_fract_x
_atom_site_fract_y
_atom_site_fract_z
Si Si1 0.086455 0.839205 0.743394
Si Si2 0.950809 0.154740 0.751706
Si Si3 0.431826 0.841447 0.413394
Si Si4 0.324139 0.332605 0.052899
Si Si5 0.804146 0.344457 0.447032
Si Si6 0.043279 0.842098 0.958129
Si Si7 0.324499 0.837802 0.631797
O O1 0.095741 0.745190 0.675442
O O2 0.141992 0.795376 0.844046
O O3 0.006094 0.815080 0.719757
O O4 0.099490 0.000000 0.729219
O O5 0.891497 0.272937 0.716323
O O6 0.990729 0.161447 0.855401
O O7 0.917024 0.000000 0.719238
O O8 0.500000 0.776145 0.500000
O O9 0.369513 0.838498 0.433502
O O10 0.449398 0.000000 0.397939
O O11 0.311863 0.500000 0.038610
O O12 0.379698 0.280926 0.021412
O O13 0.250000 0.250000 0.000000
O O14 0.770146 0.500000 0.427644
O O15 0.746333 0.234511 0.380918
O O16 0.831980 0.304337 0.547810
O O17 0.059332 0.000000 0.994892
O O18 0.000000 0.764574 0.000000
O O19 0.321185 0.000000 0.649738
#
# Coordination Sequence:
#
# PCOD8087586 Si02
#       7
#     8   8   8   8   8   8   8
#     4   9  19  34  51  74 104 137 171 207 250 307
#     4   9  17  31  52  74  98 129 164 203 247 296
#     4  10  20  34  52  75 102 131 168 215 256 292
#     4   9  18  34  55  78 105 138 174 214 262 311
#     4   9  19  34  49  68  98 132 166 203 244 295
#     4   8  15  31  54  77  99 128 171 214 247 297
#     4  10  19  32  51  72  96 129 165 204 250 295
#
# _framework density 17.655908
#
# number of rings (size 3 to 8) (size 9 to 14) (size 15 to 20)
#    0.000    2.857    0.000    3.000    0.000    3.714 
#    2.571    2.143    0.000    0.857    0.000    0.000 
#    0.000    0.000    0.000    0.000    0.000    0.000 
#
# Total GULP energy -347001.475699 kJ/mol
# GULP energy per Si atom -12392.909846 kJ/mol
# Density = 1.761572 g / cm^3
# Si number density = 17.655908 Si / 1000 Ang^3
#
#
#
# Elastic Constant Matrix: (Units=GPa)
#
#
# Indices 1 2 3 4 5 6 
#
# 1 101.1796 41.6561 45.8125 0.0000 7.0552 0.0000
# 2 41.6561 69.9528 31.3092 0.0000 14.4129 0.0000
# 3 45.8125 31.3092 57.2785 0.0000 9.3786 0.0000
# 4 0.0000 0.0000 0.0000 26.3441 0.0000 11.7375
# 5 7.0552 14.4129 9.3786 0.0000 30.2400 0.0000
# 6 0.0000 0.0000 0.0000 11.7375 0.0000 11.3339
#
#
#
# Elastic Compliance Matrix: (Units=1/GPa)
#
#
# Indices 1 2 3 4 5 6 
#
# 1 0.016979 -0.005710 -0.010805 0.000000 0.002111 0.000000
# 2 -0.005710 0.021987 -0.006272 0.000000 -0.007202 0.000000
# 3 -0.010805 -0.006272 0.030158 0.000000 -0.003843 0.000000
# 4 0.000000 0.000000 0.000000 0.070479 0.000000 -0.072988
# 5 0.002111 -0.007202 -0.003843 0.000000 0.037201 0.000000
# 6 0.000000 0.000000 0.000000 -0.072988 0.000000 0.163818
#
#
# Mechanical properties :
#
#
# Convention : Reuss Voigt Hill
#
# Bulk Modulus (GPa) = 42.46237 51.77404 47.11820
# Shear Modulus (GPa) = 12.68891 20.89248 16.79070
#
# Velocity S-wave (km/s) = 2.68373 3.44366 3.08717
# Velocity P-wave (km/s) = 5.80563 6.72305 6.28111
#
# Compressibility (1/GPa) = 0.02355027
#
# Stress axis : x y z
#
# Youngs Moduli (GPa) = 58.89528 45.48224 33.15854
#
# Poissons Ratio (x) = 0.25970 0.35827
# Poissons Ratio (y) = 0.33629 0.20797
# Poissons Ratio (z) = 0.63636 0.28527
#
# Static dielectric constant tensor:
#      x y z
#    x 3.408750 0.000000 -0.025840 
#    y 0.000000 3.246790 0.000000 
#    z -0.025840 0.000000 3.122210 
# 
# 
# High freq. dielectric constant tensor:
#      x y z
#    x 1.688480 0.000000 0.002270 
#    y 0.000000 1.665290 0.000000 
#    z 0.002270 0.000000 1.673850 
# 
# From -- ./inp_files/281722.got.cif
#   From: 2010.06.25/outbox.cif.g09.slc.cpg/sg12_141_cif.got.tgz:281722.got - 2010.06.28 00:19:55.
