data_PCOD8087599
_publ_section_title
;
Structure prediction by ZEFSAII (Michael W. Deem and Ramdas Pophale) SiO2 
 PCOD8087599
Probable space group: C 2/M
;
_chemical_formula_sum "Si O2"
_cell_formula_units_Z 64
_cell_length_a 30.080036
_cell_length_b 9.061532
_cell_length_c 14.812725
_cell_angle_alpha 90.000000
_cell_angle_beta 120.388902
_cell_angle_gamma 90.000000
_cell_volume 3482.813905
_symmetry_space_group_name_H-M "C 2/M"
_symmetry_group_IT_number 12
_symmetry_cell_setting 'monoclinic'
loop_
_space_group_symop_operation_xyz
x,y,z
-x,y,-z
-x,-y,-z
x,-y,z
1/2+x,1/2+y,z
1/2-x,1/2+y,-z
1/2-x,1/2-y,-z
1/2+x,1/2-y,z
loop_
_atom_site_type_symbol
_atom_site_label
_atom_site_fract_x
_atom_site_fract_y
_atom_site_fract_z
Si Si1 0.661941 0.674147 0.167756
Si Si2 0.706141 0.170887 0.898452
Si Si3 0.898511 0.674497 0.736443
Si Si4 0.635967 0.175094 0.492869
Si Si5 0.120876 0.328374 0.952144
Si Si6 0.509362 0.825517 0.787074
Si Si7 0.221474 0.325399 0.713164
Si Si8 0.973764 0.675885 0.561310
O O1 0.655020 0.500000 0.161241
O O2 0.623945 0.743755 0.200946
O O3 0.720363 0.721370 0.250510
O O4 0.649493 0.733280 0.056196
O O5 0.650426 0.194213 0.887481
O O6 0.704573 0.234887 0.794608
O O7 0.721594 0.000000 0.911465
O O8 0.750000 0.250000 0.000000
O O9 0.892340 0.500000 0.742790
O O10 0.868299 0.729883 0.615379
O O11 0.959064 0.718527 0.793648
O O12 0.685199 0.242011 0.596590
O O13 0.585601 0.226399 0.496237
O O14 0.638450 0.000000 0.492472
O O15 0.121356 0.500000 0.981287
O O16 0.062509 0.265800 0.884125
O O17 0.503300 0.762338 0.679609
O O18 0.513059 0.000000 0.784440
O O19 0.214943 0.500000 0.706747
O O20 0.977139 0.500000 0.562758
O O21 0.000000 0.746045 0.500000
#
# Coordination Sequence:
#
# PCOD8087599 Si02
#       8
#     8   8   8   8   8   8   8   8
#     4  11  22  35  51  71  99 132 171 213 250 288
#     4  10  19  32  51  73 102 136 165 200 243 291
#     4   9  18  35  55  73  99 130 163 206 252 297
#     4   8  15  28  47  71  99 130 160 194 244 298
#     4  10  20  33  52  76 101 132 169 202 243 299
#     4   8  16  30  47  72 102 129 159 201 250 293
#     4   9  18  31  47  71 102 133 161 197 246 293
#     4   8  13  21  39  69 102 128 153 192 241 294
#
# _framework density 18.375947
#
# number of rings (size 3 to 8) (size 9 to 14) (size 15 to 20)
#    0.000    2.875    1.250    1.875    1.750    1.000 
#    0.000    3.125    0.000    1.500    0.000    0.000 
#    0.000    3.000    0.000    0.000    0.000    0.000 
#
# Total GULP energy -396622.399525 kJ/mol
# GULP energy per Si atom -12394.449985 kJ/mol
# Density = 1.833412 g / cm^3
# Si number density = 18.375947 Si / 1000 Ang^3
#
#
#
# Elastic Constant Matrix: (Units=GPa)
#
#
# Indices 1 2 3 4 5 6 
#
# 1 102.3000 24.8160 26.4214 0.0000 2.0868 0.0000
# 2 24.8160 27.4015 15.2997 0.0000 0.3377 0.0000
# 3 26.4214 15.2997 57.6911 0.0000 18.8761 0.0000
# 4 0.0000 0.0000 0.0000 16.7784 0.0000 1.4723
# 5 2.0868 0.3377 18.8761 0.0000 38.2002 0.0000
# 6 0.0000 0.0000 0.0000 1.4723 0.0000 14.0888
#
#
#
# Elastic Compliance Matrix: (Units=1/GPa)
#
#
# Indices 1 2 3 4 5 6 
#
# 1 0.013102 -0.009743 -0.003830 0.000000 0.001263 0.000000
# 2 -0.009743 0.051369 -0.010958 0.000000 0.005493 0.000000
# 3 -0.003830 -0.010958 0.026116 0.000000 -0.012599 0.000000
# 4 0.000000 0.000000 0.000000 0.060152 0.000000 -0.006286
# 5 0.001263 0.005493 -0.012599 0.000000 0.032286 0.000000
# 6 0.000000 0.000000 0.000000 -0.006286 0.000000 0.071635
#
#
# Mechanical properties :
#
#
# Convention : Reuss Voigt Hill
#
# Bulk Modulus (GPa) = 24.08190 35.60740 29.84465
# Shear Modulus (GPa) = 15.74488 21.87052 18.80770
#
# Velocity S-wave (km/s) = 2.93032 3.45363 3.20268
# Velocity P-wave (km/s) = 4.95809 5.94329 5.47290
#
# Compressibility (1/GPa) = 0.04152497
#
# Stress axis : x y z
#
# Youngs Moduli (GPa) = 76.32417 19.46702 38.29070
#
# Poissons Ratio (x) = 0.18967 0.14665
# Poissons Ratio (y) = 0.74362 0.41960
# Poissons Ratio (z) = 0.29231 0.21332
#
# Static dielectric constant tensor:
#      x y z
#    x 3.619620 0.000000 0.112070 
#    y 0.000000 2.845310 0.000000 
#    z 0.112070 0.000000 3.746010 
# 
# 
# High freq. dielectric constant tensor:
#      x y z
#    x 1.723920 0.000000 0.001010 
#    y 0.000000 1.651880 0.000000 
#    z 0.001010 0.000000 1.719920 
# 
# From -- ./inp_files/249199.got.cif
#   From: 2010.06.25/outbox.cif.g09.slc.cpg/sg12_125_cif.got.tgz:249199.got - 2010.06.28 00:19:55.
