data_PCOD8087555
_publ_section_title
;
Structure prediction by ZEFSAII (Michael W. Deem and Ramdas Pophale) SiO2 
 PCOD8087555
Probable space group: C 2/M
;
_chemical_formula_sum "Si O2"
_cell_formula_units_Z 64
_cell_length_a 29.312599
_cell_length_b 16.508795
_cell_length_c 11.816543
_cell_angle_alpha 90.000000
_cell_angle_beta 141.774775
_cell_angle_gamma 90.000000
_cell_volume 3538.167449
_symmetry_space_group_name_H-M "C 2/M"
_symmetry_group_IT_number 12
_symmetry_cell_setting 'monoclinic'
loop_
_space_group_symop_operation_xyz
x,y,z
-x,y,-z
-x,-y,-z
x,-y,z
1/2+x,1/2+y,z
1/2-x,1/2+y,-z
1/2-x,1/2-y,-z
1/2+x,1/2-y,z
loop_
_atom_site_type_symbol
_atom_site_label
_atom_site_fract_x
_atom_site_fract_y
_atom_site_fract_z
Si Si1 0.716421 0.331599 0.713511
Si Si2 0.081597 0.660801 0.663429
Si Si3 0.586918 0.230820 0.431177
Si Si4 0.740272 0.908682 0.976393
Si Si5 0.293322 0.660181 0.847832
Si Si6 0.421947 0.766454 0.100968
Si Si7 0.673474 0.093339 0.470436
Si Si8 0.662669 0.907386 0.186616
O O1 0.634618 0.313006 0.505639
O O2 0.718908 0.356281 0.849206
O O3 0.757519 0.247205 0.788328
O O4 0.756766 0.397304 0.713116
O O5 0.088688 0.717461 0.568661
O O6 0.086138 0.717808 0.781543
O O7 0.000000 0.616948 0.500000
O O8 0.151080 0.600178 0.800023
O O9 0.505710 0.248290 0.226451
O O10 0.617617 0.150645 0.429452
O O11 0.757397 0.000000 0.041001
O O12 0.779037 0.889229 0.933800
O O13 0.257459 0.610156 0.674512
O O14 0.378893 0.682218 0.989394
O O15 0.395080 0.846387 0.982154
O O16 0.668747 0.114148 0.329758
O O17 0.652195 0.000000 0.453302
O O18 0.636117 0.000000 0.116176
#
# Coordination Sequence:
#
# PCOD8087555 Si02
#       8
#     8   8   8   8   8   8   8   8
#     4  10  19  33  55  76 105 138 181 217 255 303
#     4  10  19  32  50  79 114 139 161 204 261 314
#     4  10  21  35  55  79 107 141 174 212 263 313
#     4  12  20  31  54  81 106 141 179 213 257 311
#     4  10  19  33  55  76 105 138 181 217 255 303
#     4  10  21  35  55  79 107 141 174 212 263 313
#     4  10  21  36  54  78 107 138 174 218 266 313
#     4  10  21  36  54  78 107 138 174 218 266 313
#
# _framework density 18.088460000000001
#
# number of rings (size 3 to 8) (size 9 to 14) (size 15 to 20)
#    0.000    1.750    5.000    1.875    0.000    5.750 
#    0.000    3.750    0.000    3.750    0.000    1.750 
#    0.000    0.000    0.000    0.000    0.000    0.000 
#
# Total GULP energy -396601.595742 kJ/mol
# GULP energy per Si atom -12393.799867 kJ/mol
# Density = 1.804729 g / cm^3
# Si number density = 18.088460 Si / 1000 Ang^3
#
#
#
# Elastic Constant Matrix: (Units=GPa)
#
#
# Indices 1 2 3 4 5 6 
#
# 1 55.3072 22.4124 67.8839 0.0000 5.3393 0.0000
# 2 22.4124 41.8420 36.0292 0.0000 12.3394 0.0000
# 3 67.8839 36.0292 106.6052 0.0000 20.0436 0.0000
# 4 0.0000 0.0000 0.0000 24.5549 0.0000 -0.6931
# 5 5.3393 12.3394 20.0436 0.0000 37.6573 0.0000
# 6 0.0000 0.0000 0.0000 -0.6931 0.0000 15.9525
#
#
#
# Elastic Compliance Matrix: (Units=1/GPa)
#
#
# Indices 1 2 3 4 5 6 
#
# 1 0.095810 -0.002296 -0.064251 0.000000 0.021366 0.000000
# 2 -0.002296 0.034836 -0.009141 0.000000 -0.006224 0.000000
# 3 -0.064251 -0.009141 0.056791 0.000000 -0.018122 0.000000
# 4 0.000000 0.000000 0.000000 0.040775 0.000000 0.001772
# 5 0.021366 -0.006224 -0.018122 0.000000 0.035211 0.000000
# 6 0.000000 0.000000 0.000000 0.001772 0.000000 0.062763
#
#
# Mechanical properties :
#
#
# Convention : Reuss Voigt Hill
#
# Bulk Modulus (GPa) = 27.73123 50.71169 39.22146
# Shear Modulus (GPa) = 10.21278 20.79488 15.50383
#
# Velocity S-wave (km/s) = 2.37871 3.39428 2.93082
# Velocity P-wave (km/s) = 4.78629 6.59225 5.76048
#
# Compressibility (1/GPa) = 0.03606043
#
# Stress axis : x y z
#
# Youngs Moduli (GPa) = 10.43732 28.70588 17.60848
#
# Poissons Ratio (x) = 0.06591 1.13136
# Poissons Ratio (y) = 0.02396 0.16096
# Poissons Ratio (z) = 0.67061 0.26241
#
# Static dielectric constant tensor:
#      x y z
#    x 3.751110 0.000000 0.435160 
#    y 0.000000 3.376770 0.000000 
#    z 0.435160 0.000000 3.940150 
# 
# 
# High freq. dielectric constant tensor:
#      x y z
#    x 1.696210 0.000000 -0.006870 
#    y 0.000000 1.678630 0.000000 
#    z -0.006870 0.000000 1.703840 
# 
# From -- ./inp_files/189504.got.cif
#   From: 2010.06.25/outbox.cif.g09.slc.cpg/sg12_95_cif.got.tgz:189504.got - 2010.06.28 00:19:55.
