data_PCOD8087761
_publ_section_title
;
Structure prediction by ZEFSAII (Michael W. Deem and Ramdas Pophale) SiO2 
 PCOD8087761
Probable space group: C 2/M
;
_chemical_formula_sum "Si O2"
_cell_formula_units_Z 48
_cell_length_a 17.394877
_cell_length_b 12.737716
_cell_length_c 12.577133
_cell_angle_alpha 90.000000
_cell_angle_beta 72.113119
_cell_angle_gamma 90.000000
_cell_volume 2652.030793
_symmetry_space_group_name_H-M "C 2/M"
_symmetry_group_IT_number 12
_symmetry_cell_setting 'monoclinic'
loop_
_space_group_symop_operation_xyz
x,y,z
-x,y,-z
-x,-y,-z
x,-y,z
1/2+x,1/2+y,z
1/2-x,1/2+y,-z
1/2-x,1/2-y,-z
1/2+x,1/2-y,z
loop_
_atom_site_type_symbol
_atom_site_label
_atom_site_fract_x
_atom_site_fract_y
_atom_site_fract_z
Si Si1 0.703798 0.738991 0.779313
Si Si2 0.036524 0.243310 0.374360
Si Si3 0.891260 0.880171 0.347706
Si Si4 0.181787 0.880588 0.397637
Si Si5 0.351872 0.121907 0.811081
Si Si6 0.592667 0.878451 0.974600
O O1 0.653160 0.648619 0.742558
O O2 0.743688 0.810210 0.671144
O O3 0.769691 0.685267 0.826830
O O4 0.646091 0.809749 0.874170
O O5 0.099970 0.151009 0.371634
O O6 0.077963 0.341046 0.298513
O O7 0.000000 0.287133 0.500000
O O8 0.968132 0.195036 0.328091
O O9 0.829069 0.865991 0.471667
O O10 0.921281 0.000000 0.328432
O O11 0.201223 0.000000 0.359280
O O12 0.336056 0.000000 0.796664
O O13 0.380373 0.145144 0.917497
O O14 0.605190 0.000000 0.939477
O O15 0.500000 0.845073 0.000000
#
# Coordination Sequence:
#
# PCOD8087761 Si02
#       6
#     8   8   8   8   8   8
#     4  11  20  33  53  76 104 135 167 206 254 305
#     4   9  18  33  54  77 102 136 173 206 244 293
#     4  10  19  32  51  76 106 136 167 207 253 297
#     4   9  18  32  51  76 104 135 172 209 244 291
#     4  10  21  36  53  76 105 134 166 207 255 302
#     4  10  21  37  56  75  97 131 173 213 252 296
#
# _framework density 18.099336999999998
#
# number of rings (size 3 to 8) (size 9 to 14) (size 15 to 20)
#    0.000    2.167    0.000    3.500    0.000    2.333 
#    0.000    0.833    0.000   13.000    0.000    0.000 
#    0.000    0.000    0.000    0.000    0.000    0.000 
#
# Total GULP energy -297683.234230 kJ/mol
# GULP energy per Si atom -12403.468093 kJ/mol
# Density = 1.805814 g / cm^3
# Si number density = 18.099337 Si / 1000 Ang^3
#
#
#
# Elastic Constant Matrix: (Units=GPa)
#
#
# Indices 1 2 3 4 5 6 
#
# 1 115.2870 45.5740 56.6956 0.0000 1.6427 0.0000
# 2 45.5740 82.8961 51.4583 0.0000 -3.5130 0.0000
# 3 56.6956 51.4583 93.8581 0.0000 -4.3908 0.0000
# 4 0.0000 0.0000 0.0000 29.3143 0.0000 -1.0620
# 5 1.6427 -3.5130 -4.3908 0.0000 29.9366 0.0000
# 6 0.0000 0.0000 0.0000 -1.0620 0.0000 24.0679
#
#
#
# Elastic Compliance Matrix: (Units=1/GPa)
#
#
# Indices 1 2 3 4 5 6 
#
# 1 0.013073 -0.003505 -0.006070 0.000000 -0.002019 0.000000
# 2 -0.003505 0.019240 -0.008374 0.000000 0.001222 0.000000
# 3 -0.006070 -0.008374 0.019012 0.000000 0.002139 0.000000
# 4 0.000000 0.000000 0.000000 0.034168 0.000000 0.001508
# 5 -0.002019 0.001222 0.002139 0.000000 0.033972 0.000000
# 6 0.000000 0.000000 0.000000 0.001508 0.000000 0.041616
#
#
# Mechanical properties :
#
#
# Convention : Reuss Voigt Hill
#
# Bulk Modulus (GPa) = 64.81852 66.61079 65.71466
# Shear Modulus (GPa) = 24.73752 25.88464 25.31108
#
# Velocity S-wave (km/s) = 3.70099 3.78583 3.74365
# Velocity P-wave (km/s) = 7.35890 7.48283 7.42113
#
# Compressibility (1/GPa) = 0.01542769
#
# Stress axis : x y z
#
# Youngs Moduli (GPa) = 76.49145 51.97384 52.59780
#
# Poissons Ratio (x) = 0.18217 0.31926
# Poissons Ratio (y) = 0.26811 0.44047
# Poissons Ratio (z) = 0.46429 0.43524
#
# Static dielectric constant tensor:
#      x y z
#    x 3.358130 0.000000 0.011510 
#    y 0.000000 3.260700 0.000000 
#    z 0.011510 0.000000 3.390140 
# 
# 
# High freq. dielectric constant tensor:
#      x y z
#    x 1.709410 0.000000 0.002940 
#    y 0.000000 1.701120 0.000000 
#    z 0.002940 0.000000 1.698970 
# 
# From -- ./inp_files/143118.got.cif
#   From: 2010.06.25/outbox.cif.g09.slc.cpg/sg12_72_cif.got.tgz:143118.got - 2010.06.28 00:19:55.
