data_PCOD8087854
_publ_section_title
;
Structure prediction by ZEFSAII (Michael W. Deem and Ramdas Pophale) SiO2 
 PCOD8087854
Probable space group: C 2/M
;
_chemical_formula_sum "Si O2"
_cell_formula_units_Z 64
_cell_length_a 27.431660
_cell_length_b 21.335530
_cell_length_c 11.582627
_cell_angle_alpha 90.000000
_cell_angle_beta 151.817987
_cell_angle_gamma 90.000000
_cell_volume 3201.523537
_symmetry_space_group_name_H-M "C 2/M"
_symmetry_group_IT_number 12
_symmetry_cell_setting 'monoclinic'
loop_
_space_group_symop_operation_xyz
x,y,z
-x,y,-z
-x,-y,-z
x,-y,z
1/2+x,1/2+y,z
1/2-x,1/2+y,-z
1/2-x,1/2-y,-z
1/2+x,1/2-y,z
loop_
_atom_site_type_symbol
_atom_site_label
_atom_site_fract_x
_atom_site_fract_y
_atom_site_fract_z
Si Si1 0.291011 0.320642 0.606862
Si Si2 0.475299 0.837277 0.735926
Si Si3 0.606455 0.879157 0.672396
Si Si4 0.717350 0.566223 0.091592
Si Si5 0.908586 0.826393 0.093267
Si Si6 0.611769 0.704212 0.414417
Si Si7 0.341607 0.928301 0.583927
Si Si8 0.833985 0.697803 0.987407
O O1 0.250000 0.250000 0.500000
O O2 0.371866 0.332517 0.672044
O O3 0.206772 0.377769 0.426494
O O4 0.345560 0.321496 0.843318
O O5 0.419802 0.838296 0.495147
O O6 0.431393 0.774119 0.703655
O O7 0.449120 0.897724 0.761076
O O8 0.599089 0.836719 0.974333
O O9 0.500000 0.909834 0.500000
O O10 0.691454 0.929721 0.812861
O O11 0.662203 0.837150 0.883759
O O12 0.661926 0.500000 0.953792
O O13 0.764017 0.567255 0.316244
O O14 0.629254 0.618588 0.901295
O O15 0.029336 0.834968 0.317244
O O16 0.889335 0.763899 0.125962
O O17 0.717421 0.706632 0.705387
O O18 0.359825 0.000000 0.671100
#
# Coordination Sequence:
#
# PCOD8087854 Si02
#       8
#     8   8   8   8   8   8   8   8
#     4  11  18  33  55  82 106 137 176 226 264 314
#     4   9  18  32  51  78 108 135 171 216 265 318
#     4   9  18  32  53  81 108 132 168 216 267 317
#     4   9  18  34  55  77 104 138 179 221 258 311
#     4  10  21  34  53  80 106 135 177 220 268 313
#     4  11  20  33  52  79 105 139 177 217 269 312
#     4   9  17  32  55  80 107 138 176 221 267 313
#     4  10  19  32  51  79 108 134 167 220 270 315
#
# _framework density 19.990483000000001
#
# number of rings (size 3 to 8) (size 9 to 14) (size 15 to 20)
#    0.000    2.250    2.500    1.875    0.000    2.250 
#    0.000    5.000    0.000    7.500    0.000    0.000 
#    0.000    0.000    0.000    0.000    0.000    0.000 
#
# Total GULP energy -396487.935252 kJ/mol
# GULP energy per Si atom -12390.247977 kJ/mol
# Density = 1.994498 g / cm^3
# Si number density = 19.990483 Si / 1000 Ang^3
#
#
#
# Elastic Constant Matrix: (Units=GPa)
#
#
# Indices 1 2 3 4 5 6 
#
# 1 103.1435 59.8380 26.8305 0.0000 24.7277 0.0000
# 2 59.8380 131.7686 18.5860 0.0000 26.7231 0.0000
# 3 26.8305 18.5860 48.4465 0.0000 26.7680 0.0000
# 4 0.0000 0.0000 0.0000 15.8622 0.0000 7.0709
# 5 24.7277 26.7231 26.7680 0.0000 34.5981 0.0000
# 6 0.0000 0.0000 0.0000 7.0709 0.0000 19.3372
#
#
#
# Elastic Compliance Matrix: (Units=1/GPa)
#
#
# Indices 1 2 3 4 5 6 
#
# 1 0.014717 -0.005480 -0.004498 0.000000 -0.002806 0.000000
# 2 -0.005480 0.011052 0.002353 0.000000 -0.006441 0.000000
# 3 -0.004498 0.002353 0.037479 0.000000 -0.027600 0.000000
# 4 0.000000 0.000000 0.000000 0.075320 0.000000 -0.027542
# 5 -0.002806 -0.006441 -0.027600 0.000000 0.057237 0.000000
# 6 0.000000 0.000000 0.000000 -0.027542 0.000000 0.061785
#
#
# Mechanical properties :
#
#
# Convention : Reuss Voigt Hill
#
# Bulk Modulus (GPa) = 20.83340 54.87419 37.85379
# Shear Modulus (GPa) = 17.31074 25.83312 21.57193
#
# Velocity S-wave (km/s) = 2.94589 3.59872 3.28855
# Velocity P-wave (km/s) = 4.69205 6.69159 5.77896
#
# Compressibility (1/GPa) = 0.04799984
#
# Stress axis : x y z
#
# Youngs Moduli (GPa) = 67.94875 90.48394 26.68141
#
# Poissons Ratio (x) = 0.49582 0.12001
# Poissons Ratio (y) = 0.37234 -0.06279
# Poissons Ratio (z) = 0.30562 -0.21295
#
# Static dielectric constant tensor:
#      x y z
#    x 3.975900 0.000000 0.292540 
#    y 0.000000 3.817790 0.000000 
#    z 0.292540 0.000000 3.427320 
# 
# 
# High freq. dielectric constant tensor:
#      x y z
#    x 1.788570 0.000000 0.018360 
#    y 0.000000 1.757360 0.000000 
#    z 0.018360 0.000000 1.756820 
# 
# From -- ./inp_files/184710.got.cif
#   From: 2010.06.25/outbox.cif.g09.slc.cpg/sg12_93_cif.got.tgz:184710.got - 2010.06.28 00:19:55.
