data_PCOD8087808
_publ_section_title
;
Structure prediction by ZEFSAII (Michael W. Deem and Ramdas Pophale) SiO2 
 PCOD8087808
Probable space group: C 2/M
;
_chemical_formula_sum "Si O2"
_cell_formula_units_Z 64
_cell_length_a 24.513222
_cell_length_b 8.770193
_cell_length_c 21.163139
_cell_angle_alpha 90.000000
_cell_angle_beta 128.702132
_cell_angle_gamma 90.000000
_cell_volume 3550.674558
_symmetry_space_group_name_H-M "C 2/M"
_symmetry_group_IT_number 12
_symmetry_cell_setting 'monoclinic'
loop_
_space_group_symop_operation_xyz
x,y,z
-x,y,-z
-x,-y,-z
x,-y,z
1/2+x,1/2+y,z
1/2-x,1/2+y,-z
1/2-x,1/2-y,-z
1/2+x,1/2-y,z
loop_
_atom_site_type_symbol
_atom_site_label
_atom_site_fract_x
_atom_site_fract_y
_atom_site_fract_z
Si Si1 0.625315 0.678571 0.450490
Si Si2 0.275401 0.319013 0.369174
Si Si3 0.007499 0.677954 0.798401
Si Si4 0.362361 0.680611 0.682538
Si Si5 0.360152 0.323878 0.066840
Si Si6 0.825401 0.822616 0.268705
Si Si7 0.528038 0.676409 0.681789
Si Si8 0.229909 0.323042 0.891871
O O1 0.637911 0.500000 0.460674
O O2 0.675116 0.752001 0.539895
O O3 0.645056 0.741149 0.395125
O O4 0.544134 0.716861 0.406845
O O5 0.271632 0.500000 0.370889
O O6 0.198305 0.251486 0.319156
O O7 0.307212 0.266569 0.325596
O O8 0.993664 0.500000 0.794076
O O9 0.068436 0.728865 0.891151
O O10 0.035004 0.719966 0.748598
O O11 0.936220 0.764856 0.764154
O O12 0.358968 0.500000 0.683323
O O13 0.380019 0.500000 0.086999
O O14 0.322341 0.277168 0.104369
O O15 0.309698 0.291337 0.970859
O O16 0.907620 0.789588 0.317932
O O17 0.777793 0.726315 0.186222
O O18 0.808097 0.000000 0.246589
O O19 0.526234 0.500000 0.702589
O O20 0.210737 0.500000 0.887291
#
# Coordination Sequence:
#
# PCOD8087808 Si02
#       8
#     8   8   8   8   8   8   8   8
#     4   8  16  31  52  75 101 130 173 222 262 303
#     4  10  20  34  51  75 102 137 180 219 256 303
#     4  11  20  31  52  80 105 133 167 212 260 308
#     4  10  20  35  54  75 100 135 173 219 267 306
#     4  10  19  32  51  77 107 135 167 208 253 302
#     4  10  20  32  50  73 107 145 174 209 255 305
#     4   9  17  31  49  73 104 140 172 207 256 308
#     4  10  20  32  50  76 106 139 172 206 247 299
#
# _framework density 18.024743999999998
#
# number of rings (size 3 to 8) (size 9 to 14) (size 15 to 20)
#    0.000    2.250    1.250    3.375    0.000    2.500 
#    0.000    5.000    0.000    0.750    0.000   10.500 
#    0.000    0.000    0.000    0.000    0.000    0.000 
#
# Total GULP energy -396810.476805 kJ/mol
# GULP energy per Si atom -12400.327400 kJ/mol
# Density = 1.798372 g / cm^3
# Si number density = 18.024744 Si / 1000 Ang^3
#
#
#
# Elastic Constant Matrix: (Units=GPa)
#
#
# Indices 1 2 3 4 5 6 
#
# 1 109.1407 23.1699 42.6109 0.0000 15.3096 0.0000
# 2 23.1699 38.5583 24.0729 0.0000 -1.1670 0.0000
# 3 42.6109 24.0729 86.7132 0.0000 20.7329 0.0000
# 4 0.0000 0.0000 0.0000 23.5635 0.0000 3.1580
# 5 15.3096 -1.1670 20.7329 0.0000 20.9091 0.0000
# 6 0.0000 0.0000 0.0000 3.1580 0.0000 24.1007
#
#
#
# Elastic Compliance Matrix: (Units=1/GPa)
#
#
# Indices 1 2 3 4 5 6 
#
# 1 0.012471 -0.005859 -0.002937 0.000000 -0.006546 0.000000
# 2 -0.005859 0.037389 -0.011830 0.000000 0.018107 0.000000
# 3 -0.002937 -0.011830 0.020845 0.000000 -0.019180 0.000000
# 4 0.000000 0.000000 0.000000 0.043197 0.000000 -0.005660
# 5 -0.006546 0.018107 -0.019180 0.000000 0.072648 0.000000
# 6 0.000000 0.000000 0.000000 -0.005660 0.000000 0.042234
#
#
# Mechanical properties :
#
#
# Convention : Reuss Voigt Hill
#
# Bulk Modulus (GPa) = 33.95042 46.01330 39.98186
# Shear Modulus (GPa) = 17.86645 23.35189 20.60917
#
# Velocity S-wave (km/s) = 3.15178 3.60327 3.38506
# Velocity P-wave (km/s) = 5.66756 6.54941 6.12438
#
# Compressibility (1/GPa) = 0.02945472
#
# Stress axis : x y z
#
# Youngs Moduli (GPa) = 80.18576 26.74577 47.97223
#
# Poissons Ratio (x) = 0.15669 0.14087
# Poissons Ratio (y) = 0.46978 0.56752
# Poissons Ratio (z) = 0.23547 0.31641
#
# Static dielectric constant tensor:
#      x y z
#    x 3.175140 0.000000 0.187340 
#    y 0.000000 3.177960 0.000000 
#    z 0.187340 0.000000 3.574340 
# 
# 
# High freq. dielectric constant tensor:
#      x y z
#    x 1.673600 0.000000 0.024080 
#    y 0.000000 1.688560 0.000000 
#    z 0.024080 0.000000 1.701060 
# 
# From -- ./inp_files/348564.got.cif
#   From: 2010.06.25/outbox.cif.g09.slc.cpg/sg12_175_cif.got.tgz:348564.got - 2010.06.28 00:19:55.
