data_PCOD8087862
_publ_section_title
;
Structure prediction by ZEFSAII (Michael W. Deem and Ramdas Pophale) SiO2 
 PCOD8087862
Probable space group: C 2/M
;
_chemical_formula_sum "Si O2"
_cell_formula_units_Z 64
_cell_length_a 19.381828
_cell_length_b 13.749414
_cell_length_c 26.479756
_cell_angle_alpha 90.000000
_cell_angle_beta 29.220512
_cell_angle_gamma 90.000000
_cell_volume 3444.814891
_symmetry_space_group_name_H-M "C 2/M"
_symmetry_group_IT_number 12
_symmetry_cell_setting 'monoclinic'
loop_
_space_group_symop_operation_xyz
x,y,z
-x,y,-z
-x,-y,-z
x,-y,z
1/2+x,1/2+y,z
1/2-x,1/2+y,-z
1/2-x,1/2-y,-z
1/2+x,1/2-y,z
loop_
_atom_site_type_symbol
_atom_site_label
_atom_site_fract_x
_atom_site_fract_y
_atom_site_fract_z
Si Si1 0.846074 0.391521 0.599450
Si Si2 0.133805 0.388373 0.706709
Si Si3 0.044059 0.889703 0.029433
Si Si4 0.866952 0.610072 0.809237
Si Si5 0.673819 0.384569 0.509575
Si Si6 0.636085 0.892644 0.521299
Si Si7 0.660983 0.744278 0.781180
Si Si8 0.084239 0.250964 0.314238
O O1 0.867817 0.500000 0.606698
O O2 0.779364 0.392027 0.585408
O O3 0.734236 0.342681 0.705993
O O4 0.000000 0.339675 0.500000
O O5 0.165888 0.500000 0.699644
O O6 0.255199 0.351676 0.589303
O O7 0.131996 0.330663 0.760512
O O8 0.978997 0.376182 0.782254
O O9 0.977762 0.804283 0.106055
O O10 0.995825 0.000000 0.075463
O O11 0.210898 0.879181 0.931229
O O12 0.000000 0.870211 0.000000
O O13 0.884576 0.500000 0.774638
O O14 0.892570 0.698521 0.754536
O O15 0.660600 0.500000 0.520486
O O16 0.773331 0.345075 0.491413
O O17 0.518308 0.342513 0.619131
O O18 0.491887 0.833358 0.603586
O O19 0.592417 0.000000 0.566226
O O20 0.766248 0.782101 0.757886
#
# Coordination Sequence:
#
# PCOD8087862 Si02
#       8
#     8   8   8   8   8   8   8   8
#     4  10  20  31  47  78 120 151 173 219 293 362
#     4  10  23  41  60  83 116 160 205 243 283 334
#     4  10  21  39  63  91 119 145 185 243 302 360
#     4  10  21  39  64  89 113 150 198 245 292 347
#     4  10  22  37  55  81 115 158 203 242 278 335
#     4  10  19  32  51  79 113 148 189 234 285 346
#     4  12  24  35  57  87 119 151 191 240 297 348
#     4  12  21  32  57  85 113 151 196 240 286 340
#
# _framework density 18.578648000000001
#
# number of rings (size 3 to 8) (size 9 to 14) (size 15 to 20)
#    0.000    1.500    3.750    1.875    1.750    2.000 
#    0.000    1.250    0.000    1.125    0.000    0.000 
#    0.000    0.000    0.000    0.000    0.000    0.000 
#
# Total GULP energy -396527.119655 kJ/mol
# GULP energy per Si atom -12391.472489 kJ/mol
# Density = 1.853636 g / cm^3
# Si number density = 18.578648 Si / 1000 Ang^3
#
#
#
# Elastic Constant Matrix: (Units=GPa)
#
#
# Indices 1 2 3 4 5 6 
#
# 1 95.3758 44.9399 41.6527 0.0007 -3.3614 0.0001
# 2 44.9399 66.8497 41.7184 0.0009 -0.7475 -0.0003
# 3 41.6527 41.7184 98.2856 0.0044 -6.5466 -0.0018
# 4 0.0007 0.0009 0.0044 33.8130 -0.0019 5.4794
# 5 -3.3614 -0.7475 -6.5466 -0.0019 27.9479 0.0002
# 6 0.0001 -0.0003 -0.0018 5.4794 0.0002 29.7690
#
#
#
# Elastic Compliance Matrix: (Units=1/GPa)
#
#
# Indices 1 2 3 4 5 6 
#
# 1 0.016001 -0.008918 -0.002929 0.000000 0.001000 0.000000
# 2 -0.008918 0.025381 -0.007132 0.000000 -0.002064 0.000000
# 3 -0.002929 -0.007132 0.014635 -0.000002 0.002885 0.000001
# 4 0.000000 0.000000 -0.000002 0.030484 0.000002 -0.005611
# 5 0.001000 -0.002064 0.002885 0.000002 0.036522 0.000000
# 6 0.000000 0.000000 0.000001 -0.005611 0.000000 0.034625
#
#
# Mechanical properties :
#
#
# Convention : Reuss Voigt Hill
#
# Bulk Modulus (GPa) = 55.36976 57.45921 56.41448
# Shear Modulus (GPa) = 24.79846 27.11932 25.95889
#
# Velocity S-wave (km/s) = 3.65743 3.82475 3.74203
# Velocity P-wave (km/s) = 6.90676 7.10631 7.00725
#
# Compressibility (1/GPa) = 0.01806040
#
# Stress axis : x y z
#
# Youngs Moduli (GPa) = 62.49500 39.39909 68.32834
#
# Poissons Ratio (x) = 0.35134 0.20017
# Poissons Ratio (y) = 0.55730 0.48730
# Poissons Ratio (z) = 0.18308 0.28098
#
# Static dielectric constant tensor:
#      x y z
#    x 3.552470 0.000000 -0.107180 
#    y 0.000000 3.337820 0.000010 
#    z -0.107180 0.000010 3.354020 
# 
# 
# High freq. dielectric constant tensor:
#      x y z
#    x 1.723420 0.000000 -0.001820 
#    y 0.000000 1.713790 0.000000 
#    z -0.001820 0.000000 1.704960 
# 
# From -- ./inp_files/278139.got.cif
#   From: 2010.06.25/outbox.cif.g09.slc.cpg/sg12_140_cif.got.tgz:278139.got - 2010.06.28 00:19:55.
