data_PCOD8087152
_publ_section_title
;
Structure prediction by ZEFSAII (Michael W. Deem and Ramdas Pophale) SiO2 
 PCOD8087152
Probable space group: C 2/M
;
_chemical_formula_sum "Si O2"
_cell_formula_units_Z 64
_cell_length_a 17.916983
_cell_length_b 19.923864
_cell_length_c 13.088913
_cell_angle_alpha 90.000000
_cell_angle_beta 134.143263
_cell_angle_gamma 90.000000
_cell_volume 3352.932710
_symmetry_space_group_name_H-M "C 2/M"
_symmetry_group_IT_number 12
_symmetry_cell_setting 'monoclinic'
loop_
_space_group_symop_operation_xyz
x,y,z
-x,y,-z
-x,-y,-z
x,-y,z
1/2+x,1/2+y,z
1/2-x,1/2+y,-z
1/2-x,1/2-y,-z
1/2+x,1/2-y,z
loop_
_atom_site_type_symbol
_atom_site_label
_atom_site_fract_x
_atom_site_fract_y
_atom_site_fract_z
Si Si1 0.657705 0.574338 0.754430
Si Si2 0.536714 0.297546 0.649077
Si Si3 0.232950 0.376225 0.337597
Si Si4 0.618308 0.743056 0.146957
Si Si5 0.344638 0.300220 0.602554
Si Si6 0.725352 0.791655 0.874937
Si Si7 0.663992 0.924216 0.914418
Si Si8 0.017706 0.575288 0.127140
O O1 0.605903 0.500000 0.707650
O O2 0.580147 0.629859 0.727622
O O3 0.687659 0.592960 0.667541
O O4 0.762868 0.574187 0.917974
O O5 0.500000 0.307257 0.500000
O O6 0.445691 0.273587 0.637763
O O7 0.624308 0.240650 0.727751
O O8 0.176495 0.309950 0.239513
O O9 0.302164 0.367174 0.506108
O O10 0.138133 0.425474 0.275008
O O11 0.623554 0.690969 0.248247
O O12 0.676922 0.711450 0.106931
O O13 0.500000 0.756685 0.000000
O O14 0.250000 0.250000 0.500000
O O15 0.706102 0.870982 0.872765
O O16 0.750000 0.750000 0.000000
O O17 0.554006 0.893779 0.851416
O O18 0.655589 0.000000 0.858496
O O19 0.974756 0.500000 0.075472
O O20 0.000000 0.611548 0.000000
#
# Coordination Sequence:
#
# PCOD8087152 Si02
#       8
#     8   8   8   8   8   8   8   8
#     4  11  21  36  58  89 130 163 191 243 306 371
#     4  12  22  39  60  91 122 157 202 249 297 364
#     4  11  19  35  55  85 124 158 194 232 301 364
#     4  11  23  37  58  87 119 152 198 253 302 348
#     4  10  23  38  54  82 122 158 193 249 305 350
#     4  12  23  39  64  90 114 155 208 253 300 352
#     4  10  22  38  59  90 122 156 199 249 304 356
#     4  10  19  31  54  87 122 156 184 228 298 364
#
# _framework density 19.087766999999999
#
# number of rings (size 3 to 8) (size 9 to 14) (size 15 to 20)
#    0.000    1.125    5.000    2.250    5.250    0.250 
#    0.000    0.000    0.000    3.000    0.000    0.000 
#    0.000    0.000    0.000    0.000    0.000    0.000 
#
# Total GULP energy -396617.880739 kJ/mol
# GULP energy per Si atom -12394.308773 kJ/mol
# Density = 1.904432 g / cm^3
# Si number density = 19.087767 Si / 1000 Ang^3
#
#
#
# Elastic Constant Matrix: (Units=GPa)
#
#
# Indices 1 2 3 4 5 6 
#
# 1 133.3878 35.3274 18.4071 0.0000 -0.7508 0.0000
# 2 35.3274 98.7335 21.0921 0.0000 -1.9927 0.0000
# 3 18.4071 21.0921 67.0199 0.0000 -2.5291 0.0000
# 4 0.0000 0.0000 0.0000 23.4695 0.0000 0.7408
# 5 -0.7508 -1.9927 -2.5291 0.0000 30.1177 0.0000
# 6 0.0000 0.0000 0.0000 0.7408 0.0000 22.1216
#
#
#
# Elastic Compliance Matrix: (Units=1/GPa)
#
#
# Indices 1 2 3 4 5 6 
#
# 1 0.008413 -0.002699 -0.001465 0.000000 -0.000092 0.000000
# 2 -0.002699 0.011730 -0.002933 0.000000 0.000463 0.000000
# 3 -0.001465 -0.002933 0.016289 0.000000 0.001137 0.000000
# 4 0.000000 0.000000 0.000000 0.042654 0.000000 -0.001428
# 5 -0.000092 0.000463 0.001137 0.000000 0.033327 0.000000
# 6 0.000000 0.000000 0.000000 -0.001428 0.000000 0.045252
#
#
# Mechanical properties :
#
#
# Convention : Reuss Voigt Hill
#
# Bulk Modulus (GPa) = 44.96615 49.86602 47.41609
# Shear Modulus (GPa) = 27.89058 30.09607 28.99332
#
# Velocity S-wave (km/s) = 3.82668 3.97510 3.90160
# Velocity P-wave (km/s) = 6.56760 6.87386 6.72247
#
# Compressibility (1/GPa) = 0.02223895
#
# Stress axis : x y z
#
# Youngs Moduli (GPa) = 118.85720 85.25178 61.39061
#
# Poissons Ratio (x) = 0.23012 0.08992
# Poissons Ratio (y) = 0.32084 0.18004
# Poissons Ratio (z) = 0.17409 0.25002
#
# Static dielectric constant tensor:
#      x y z
#    x 3.934550 0.000000 0.636510 
#    y 0.000000 3.770470 0.000000 
#    z 0.636510 0.000000 4.681420 
# 
# 
# High freq. dielectric constant tensor:
#      x y z
#    x 1.747280 0.000000 0.018490 
#    y 0.000000 1.722490 0.000000 
#    z 0.018490 0.000000 1.733850 
# 
# From -- ./inp_files/159571.got.cif
#   From: 2010.06.25/outbox.cif.g09.slc.cpg/sg12_80_cif.got.tgz:159571.got - 2010.06.28 00:19:55.
