data_PCOD8087730
_publ_section_title
;
Structure prediction by ZEFSAII (Michael W. Deem and Ramdas Pophale) SiO2 
 PCOD8087730
Probable space group: C 2/M
;
_chemical_formula_sum "Si O2"
_cell_formula_units_Z 64
_cell_length_a 14.275303
_cell_length_b 14.100400
_cell_length_c 25.909995
_cell_angle_alpha 90.000000
_cell_angle_beta 138.717529
_cell_angle_gamma 90.000000
_cell_volume 3440.945893
_symmetry_space_group_name_H-M "C 2/M"
_symmetry_group_IT_number 12
_symmetry_cell_setting 'monoclinic'
loop_
_space_group_symop_operation_xyz
x,y,z
-x,y,-z
-x,-y,-z
x,-y,z
1/2+x,1/2+y,z
1/2-x,1/2+y,-z
1/2-x,1/2-y,-z
1/2+x,1/2-y,z
loop_
_atom_site_type_symbol
_atom_site_label
_atom_site_fract_x
_atom_site_fract_y
_atom_site_fract_z
Si Si1 0.669956 0.606493 0.388797
Si Si2 0.687047 0.106231 0.963448
Si Si3 0.073665 0.392357 0.218984
Si Si4 0.124678 0.611918 0.438581
Si Si5 0.791855 0.231866 0.781475
Si Si6 0.322536 0.106183 0.349206
Si Si7 0.445558 0.275863 0.035717
Si Si8 0.985920 0.715003 0.700515
O O1 0.608598 0.500000 0.368965
O O2 0.738026 0.642270 0.471027
O O3 0.794770 0.609344 0.398448
O O4 0.544052 0.673082 0.316813
O O5 0.575969 0.105347 0.871221
O O6 0.633045 0.175249 0.986793
O O7 0.704998 0.000000 0.993763
O O8 0.835738 0.139679 0.000883
O O9 0.124561 0.500000 0.252740
O O10 0.192314 0.341007 0.231934
O O11 0.047135 0.329065 0.258154
O O12 0.126738 0.500000 0.431489
O O13 0.981335 0.645763 0.407873
O O14 0.124162 0.661521 0.382887
O O15 0.791865 0.167450 0.730104
O O16 0.651251 0.206484 0.755457
O O17 0.924397 0.206145 0.871956
O O18 0.310421 0.000000 0.322214
O O19 0.500000 0.277699 0.000000
#
# Coordination Sequence:
#
# PCOD8087730 Si02
#       8
#     8   8   8   8   8   8   8   8
#     4  10  19  32  51  75 106 138 174 220 269 315
#     4   9  20  37  57  81 108 141 180 219 263 316
#     4  10  20  37  57  77 108 146 180 217 265 321
#     4   9  18  31  50  77 104 135 176 223 267 315
#     4  10  21  35  54  79 109 139 175 221 266 317
#     4   9  17  32  52  76 102 134 173 218 269 316
#     4  10  20  36  57  80 110 142 176 219 267 317
#     4  11  20  33  55  79 106 142 185 220 263 319
#
# _framework density 18.599537000000002
#
# number of rings (size 3 to 8) (size 9 to 14) (size 15 to 20)
#    0.000    2.250    1.250    1.875    0.000    3.500 
#    0.000    0.000    0.000    0.000    0.000    4.375 
#    0.000    0.000    0.000    0.000    0.000    0.000 
#
# Total GULP energy -396658.753798 kJ/mol
# GULP energy per Si atom -12395.586056 kJ/mol
# Density = 1.855720 g / cm^3
# Si number density = 18.599537 Si / 1000 Ang^3
#
#
#
# Elastic Constant Matrix: (Units=GPa)
#
#
# Indices 1 2 3 4 5 6 
#
# 1 49.3148 5.3838 11.8780 0.0000 -4.5057 0.0000
# 2 5.3838 77.7092 36.3991 0.0000 2.9000 0.0000
# 3 11.8780 36.3991 57.0128 0.0000 -3.4308 0.0000
# 4 0.0000 0.0000 0.0000 29.9645 0.0000 0.1505
# 5 -4.5057 2.9000 -3.4308 0.0000 17.9704 0.0000
# 6 0.0000 0.0000 0.0000 0.1505 0.0000 21.1995
#
#
#
# Elastic Compliance Matrix: (Units=1/GPa)
#
#
# Indices 1 2 3 4 5 6 
#
# 1 0.021735 0.000456 -0.004548 0.000000 0.004508 0.000000
# 2 0.000456 0.018873 -0.012464 0.000000 -0.005311 0.000000
# 3 -0.004548 -0.012464 0.026805 0.000000 0.005988 0.000000
# 4 0.000000 0.000000 0.000000 0.033374 0.000000 -0.000237
# 5 0.004508 -0.005311 0.005988 0.000000 0.058778 0.000000
# 6 0.000000 0.000000 0.000000 -0.000237 0.000000 0.047173
#
#
# Mechanical properties :
#
#
# Convention : Reuss Voigt Hill
#
# Bulk Modulus (GPa) = 29.15291 32.37320 30.76306
# Shear Modulus (GPa) = 19.89775 22.51860 21.20817
#
# Velocity S-wave (km/s) = 3.27433 3.48330 3.38043
# Velocity P-wave (km/s) = 5.47750 5.79836 5.64021
#
# Compressibility (1/GPa) = 0.03430189
#
# Stress axis : x y z
#
# Youngs Moduli (GPa) = 46.00774 52.98510 37.30590
#
# Poissons Ratio (x) = -0.02418 0.16969
# Poissons Ratio (y) = -0.02100 0.46498
# Poissons Ratio (z) = 0.20927 0.66041
#
# Static dielectric constant tensor:
#      x y z
#    x 3.279030 0.000000 -0.062490 
#    y 0.000000 3.613640 0.000000 
#    z -0.062490 0.000000 3.399260 
# 
# 
# High freq. dielectric constant tensor:
#      x y z
#    x 1.710390 0.000000 -0.006920 
#    y 0.000000 1.726700 0.000000 
#    z -0.006920 0.000000 1.719760 
# 
# From -- ./inp_files/270258.got.cif
#   From: 2010.06.25/outbox.cif.g09.slc.cpg/sg12_136_cif.got.tgz:270258.got - 2010.06.28 00:19:55.
