data_PCOD8087911
_publ_section_title
;
Structure prediction by ZEFSAII (Michael W. Deem and Ramdas Pophale) SiO2 
 PCOD8087911
Probable space group: C 2/M
;
_chemical_formula_sum "Si O2"
_cell_formula_units_Z 52
_cell_length_a 5.061164
_cell_length_b 17.393921
_cell_length_c 31.622714
_cell_angle_alpha 90.000000
_cell_angle_beta 85.343699
_cell_angle_gamma 90.000000
_cell_volume 2774.669905
_symmetry_space_group_name_H-M "C 2/M"
_symmetry_group_IT_number 12
_symmetry_cell_setting 'monoclinic'
loop_
_space_group_symop_operation_xyz
x,y,z
-x,y,-z
-x,-y,-z
x,-y,z
1/2+x,1/2+y,z
1/2-x,1/2+y,-z
1/2-x,1/2-y,-z
1/2+x,1/2-y,z
loop_
_atom_site_type_symbol
_atom_site_label
_atom_site_fract_x
_atom_site_fract_y
_atom_site_fract_z
Si Si1 0.024967 0.588452 0.364810
Si Si2 0.061242 0.698475 0.287136
Si Si3 0.500000 0.695758 0.500000
Si Si4 0.341821 0.198035 0.894240
Si Si5 0.213717 0.701592 0.196685
Si Si6 0.004965 0.910981 0.580605
Si Si7 0.733470 0.089953 0.027241
O O1 0.062976 0.500000 0.352050
O O2 0.728516 0.606965 0.383376
O O3 0.098353 0.635731 0.322555
O O4 0.220071 0.610785 0.400549
O O5 0.264412 0.768631 0.291802
O O6 0.123053 0.657346 0.240729
O O7 0.250000 0.750000 0.500000
O O8 0.530115 0.641561 0.459397
O O9 0.630442 0.232807 0.899713
O O10 0.331250 0.158010 0.847512
O O11 0.277225 0.131877 0.928034
O O12 0.523457 0.722802 0.196822
O O13 0.997742 0.000000 0.566395
O O14 0.712570 0.000000 0.037076
O O15 0.500000 0.118768 0.000000
O O16 0.000000 0.112587 0.000000
#
# Coordination Sequence:
#
# PCOD8087911 Si02
#       7
#     8   8   4   8   8   8   8
#     4  10  21  36  55  79 105 135 172 210 246 293
#     4  10  19  32  53  77 103 135 167 203 251 301
#     4  12  25  38  57  84 108 130 170 222 253 286
#     4  10  19  32  52  74  97 127 168 211 243 289
#     4   8  16  30  47  71 100 129 161 200 249 296
#     4  10  22  40  57  74 105 144 171 199 253 310
#     4  10  21  35  49  69 100 132 161 201 255 305
#
# _framework density 18.740967999999999
#
# number of rings (size 3 to 8) (size 9 to 14) (size 15 to 20)
#    0.000    2.154    0.000    3.000    0.000    5.538 
#    0.000    3.846    0.000    0.000    0.000   19.385 
#    0.000    0.000    0.000    0.000    0.000    0.000 
#
# Total GULP energy -322326.871618 kJ/mol
# GULP energy per Si atom -12397.187370 kJ/mol
# Density = 1.869831 g / cm^3
# Si number density = 18.740968 Si / 1000 Ang^3
#
#
#
# Elastic Constant Matrix: (Units=GPa)
#
#
# Indices 1 2 3 4 5 6 
#
# 1 95.6229 21.5640 17.0643 0.0000 2.4987 0.0000
# 2 21.5640 57.2998 70.3711 0.0000 1.8440 0.0000
# 3 17.0643 70.3711 154.8094 0.0000 5.3479 0.0000
# 4 0.0000 0.0000 0.0000 -11.7200 0.0000 -6.3546
# 5 2.4987 1.8440 5.3479 0.0000 20.3183 0.0000
# 6 0.0000 0.0000 0.0000 -6.3546 0.0000 34.1667
#
#
#
# Elastic Compliance Matrix: (Units=1/GPa)
#
#
# Indices 1 2 3 4 5 6 
#
# 1 0.011633 -0.006376 0.001660 0.000000 -0.001289 0.000000
# 2 -0.006376 0.043029 -0.018921 0.000000 0.001859 0.000000
# 3 0.001660 -0.018921 0.014961 0.000000 -0.002425 0.000000
# 4 0.000000 0.000000 0.000000 -0.077508 0.000000 -0.014416
# 5 -0.001289 0.001859 -0.002425 0.000000 0.049845 0.000000
# 6 0.000000 0.000000 0.000000 -0.014416 0.000000 0.026587
#
#
# Mechanical properties :
#
#
# Convention : Reuss Voigt Hill
#
# Bulk Modulus (GPa) = 44.74148 58.41455 51.57801
# Shear Modulus (GPa) = 40.56195 21.80186 31.18191
#
# Velocity S-wave (km/s) = 4.65730 3.41446 4.08344
# Velocity P-wave (km/s) = 7.26953 6.83972 7.05790
#
# Compressibility (1/GPa) = 0.02235063
#
# Stress axis : x y z
#
# Youngs Moduli (GPa) = 85.96327 23.24035 66.84016
#
# Poissons Ratio (x) = 0.14817 -0.11098
# Poissons Ratio (y) = 0.54806 1.26467
# Poissons Ratio (z) = -0.14273 0.43973
#
# Static dielectric constant tensor:
#      x y z
#    x 3.700110 0.000000 0.019160 
#    y 0.000000 3.063880 0.000000 
#    z 0.019160 0.000000 3.702570 
# 
# 
# High freq. dielectric constant tensor:
#      x y z
#    x 1.753420 0.000000 0.000320 
#    y 0.000000 1.682060 0.000000 
#    z 0.000320 0.000000 1.748130 
# 
# From -- ./inp_files/354885.got.cif
#   From: 2010.06.25/outbox.cif.g09.slc.cpg/sg12_178_cif.got.tgz:354885.got - 2010.06.28 00:19:55.
