data_PCOD8087856
_publ_section_title
;
Structure prediction by ZEFSAII (Michael W. Deem and Ramdas Pophale) SiO2 
 PCOD8087856
Probable space group: C 2/M
;
_chemical_formula_sum "Si O2"
_cell_formula_units_Z 56
_cell_length_a 30.827550
_cell_length_b 8.820917
_cell_length_c 19.643113
_cell_angle_alpha 90.000000
_cell_angle_beta 35.753418
_cell_angle_gamma 90.000000
_cell_volume 3121.026960
_symmetry_space_group_name_H-M "C 2/M"
_symmetry_group_IT_number 12
_symmetry_cell_setting 'monoclinic'
loop_
_space_group_symop_operation_xyz
x,y,z
-x,y,-z
-x,-y,-z
x,-y,z
1/2+x,1/2+y,z
1/2-x,1/2+y,-z
1/2-x,1/2-y,-z
1/2+x,1/2-y,z
loop_
_atom_site_type_symbol
_atom_site_label
_atom_site_fract_x
_atom_site_fract_y
_atom_site_fract_z
Si Si1 0.896232 0.822022 0.904792
Si Si2 0.774549 0.178994 0.276612
Si Si3 0.206378 0.825709 0.494010
Si Si4 0.257907 0.821378 0.157327
Si Si5 0.444584 0.673722 0.245064
Si Si6 0.423093 0.177604 0.131259
Si Si7 0.816930 0.825115 0.877527
O O1 0.889644 0.787435 0.830944
O O2 0.977974 0.768968 0.822315
O O3 0.884073 0.000000 0.934636
O O4 0.836111 0.730173 0.025054
O O5 0.724880 0.244815 0.400152
O O6 0.740425 0.233734 0.248887
O O7 0.859101 0.234677 0.172881
O O8 0.772740 0.000000 0.283650
O O9 0.250000 0.750000 0.500000
O O10 0.118209 0.810590 0.617402
O O11 0.231504 0.000000 0.457623
O O12 0.187868 0.778134 0.196249
O O13 0.262597 0.000000 0.166228
O O14 0.450034 0.500000 0.212639
O O15 0.421818 0.780033 0.211849
O O16 0.409262 0.000000 0.140477
O O17 0.500000 0.229682 0.000000
O O18 0.799434 0.000000 0.902360
O O19 0.750000 0.750000 0.000000
#
# Coordination Sequence:
#
# PCOD8087856 Si02
#       7
#     8   8   8   8   8   8   8
#     4   9  17  32  53  80 110 140 171 208 255 314
#     4  12  24  37  54  75 101 138 178 219 262 308
#     4  11  22  38  57  77 100 134 178 222 262 309
#     4  10  19  32  51  79 110 140 173 213 258 309
#     4  10  21  35  54  77 103 135 172 212 257 309
#     4  11  23  36  52  76 106 137 168 208 259 313
#     4   8  15  28  49  75 106 139 171 206 251 305
#
# _framework density 17.942812
#
# number of rings (size 3 to 8) (size 9 to 14) (size 15 to 20)
#    0.000    1.857    1.429    3.429    0.000    5.143 
#    0.000    0.000    0.000    0.857    0.000    6.000 
#    0.000    0.000    0.000    0.000    0.000    0.000 
#
# Total GULP energy -347054.186665 kJ/mol
# GULP energy per Si atom -12394.792381 kJ/mol
# Density = 1.790197 g / cm^3
# Si number density = 17.942812 Si / 1000 Ang^3
#
#
#
# Elastic Constant Matrix: (Units=GPa)
#
#
# Indices 1 2 3 4 5 6 
#
# 1 97.8905 28.5653 21.6613 0.0000 30.1782 -0.0024
# 2 28.5653 83.8178 29.6199 0.0213 15.8696 -0.0078
# 3 21.6613 29.6199 74.9221 0.0122 21.4719 -0.0090
# 4 0.0000 0.0213 0.0122 26.8562 -0.0031 5.6935
# 5 30.1782 15.8696 21.4719 -0.0031 26.5739 0.0033
# 6 -0.0024 -0.0078 -0.0090 5.6935 0.0033 25.1522
#
#
#
# Elastic Compliance Matrix: (Units=1/GPa)
#
#
# Indices 1 2 3 4 5 6 
#
# 1 0.016223 -0.002649 0.001540 -0.000002 -0.018087 0.000004
# 2 -0.002649 0.014833 -0.004453 -0.000011 -0.002252 0.000006
# 3 0.001540 -0.004453 0.018741 -0.000009 -0.014233 0.000009
# 4 -0.000002 -0.000011 -0.000009 0.039112 0.000021 -0.008853
# 5 -0.018087 -0.002252 -0.014233 0.000021 0.071016 -0.000022
# 6 0.000004 0.000006 0.000009 -0.008853 -0.000022 0.041762
#
#
# Mechanical properties :
#
#
# Convention : Reuss Voigt Hill
#
# Bulk Modulus (GPa) = 25.85658 46.25814 36.05736
# Shear Modulus (GPa) = 22.15292 27.50204 24.82748
#
# Velocity S-wave (km/s) = 3.51756 3.91930 3.72385
# Velocity P-wave (km/s) = 5.56232 6.80573 6.21520
#
# Compressibility (1/GPa) = 0.03867488
#
# Stress axis : x y z
#
# Youngs Moduli (GPa) = 61.63905 67.41534 53.35778
#
# Poissons Ratio (x) = 0.17857 -0.08218
# Poissons Ratio (y) = 0.16327 0.23760
# Poissons Ratio (z) = -0.09493 0.30020
#
# Static dielectric constant tensor:
#      x y z
#    x 4.008810 -0.000010 0.095590 
#    y -0.000010 3.393580 0.000010 
#    z 0.095590 0.000010 3.173100 
# 
# 
# High freq. dielectric constant tensor:
#      x y z
#    x 1.706150 0.000000 0.011580 
#    y 0.000000 1.703830 0.000000 
#    z 0.011580 0.000000 1.667660 
# 
# From -- ./inp_files/287912.got.cif
#   From: 2010.06.25/outbox.cif.g09.slc.cpg/sg12_144_cif.got.tgz:287912.got - 2010.06.28 00:19:55.
