data_PCOD8087764
_publ_section_title
;
Structure prediction by ZEFSAII (Michael W. Deem and Ramdas Pophale) SiO2 
 PCOD8087764
Probable space group: C 2/M
;
_chemical_formula_sum "Si O2"
_cell_formula_units_Z 48
_cell_length_a 27.406986
_cell_length_b 9.454950
_cell_length_c 10.764031
_cell_angle_alpha 90.000000
_cell_angle_beta 65.406707
_cell_angle_gamma 90.000000
_cell_volume 2536.269511
_symmetry_space_group_name_H-M "C 2/M"
_symmetry_group_IT_number 12
_symmetry_cell_setting 'monoclinic'
loop_
_space_group_symop_operation_xyz
x,y,z
-x,y,-z
-x,-y,-z
x,-y,z
1/2+x,1/2+y,z
1/2-x,1/2+y,-z
1/2-x,1/2-y,-z
1/2+x,1/2-y,z
loop_
_atom_site_type_symbol
_atom_site_label
_atom_site_fract_x
_atom_site_fract_y
_atom_site_fract_z
Si Si1 0.855677 0.843385 0.639979
Si Si2 0.344112 0.660234 0.145054
Si Si3 0.539402 0.331628 0.348132
Si Si4 0.743237 0.843051 0.889353
Si Si5 0.961173 0.832322 0.932458
Si Si6 0.195431 0.162500 0.546547
O O1 0.902281 0.769198 0.672146
O O2 0.801758 0.851918 0.772729
O O3 0.841307 0.769109 0.523982
O O4 0.877856 0.000000 0.585665
O O5 0.331832 0.500000 0.110896
O O6 0.297921 0.767886 0.157705
O O7 0.343643 0.665162 0.294154
O O8 0.400699 0.712889 0.031448
O O9 0.500000 0.278769 0.500000
O O10 0.539553 0.500000 0.338247
O O11 0.525437 0.274973 0.222487
O O12 0.721797 0.000000 0.943421
O O13 0.750000 0.750000 0.000000
O O14 0.966669 0.000000 0.928275
O O15 0.000000 0.769098 0.000000
O O16 0.250000 0.250000 0.500000
O O17 0.211786 0.000000 0.496333
#
# Coordination Sequence:
#
# PCOD8087764 Si02
#       6
#     8   8   8   8   8   8
#     4   9  18  31  47  70 104 137 167 211 263 315
#     4  10  20  33  52  77 108 138 173 219 268 322
#     4   9  17  28  45  68  98 135 173 211 262 322
#     4  11  21  34  53  75 105 140 175 217 267 321
#     4   9  18  31  48  73 104 137 174 221 272 317
#     4  10  19  32  51  76 106 138 174 212 259 319
#
# _framework density 18.925433999999999
#
# number of rings (size 3 to 8) (size 9 to 14) (size 15 to 20)
#    0.000    2.333    1.667    1.500    2.333    2.667 
#    0.000    0.000    0.000    0.500    0.000    0.000 
#    0.000    6.333    0.000    0.000    0.000    0.000 
#
# Total GULP energy -297322.267726 kJ/mol
# GULP energy per Si atom -12388.427822 kJ/mol
# Density = 1.888236 g / cm^3
# Si number density = 18.925434 Si / 1000 Ang^3
#
#
#
# Elastic Constant Matrix: (Units=GPa)
#
#
# Indices 1 2 3 4 5 6 
#
# 1 138.2737 23.8827 57.7865 0.0000 17.8825 0.0000
# 2 23.8827 48.0756 19.2221 0.0000 2.8263 0.0000
# 3 57.7865 19.2221 133.0883 0.0000 15.9310 0.0000
# 4 0.0000 0.0000 0.0000 15.3342 0.0000 0.8065
# 5 17.8825 2.8263 15.9310 0.0000 39.0705 0.0000
# 6 0.0000 0.0000 0.0000 0.8065 0.0000 13.5796
#
#
#
# Elastic Compliance Matrix: (Units=1/GPa)
#
#
# Indices 1 2 3 4 5 6 
#
# 1 0.009549 -0.003243 -0.003346 0.000000 -0.002772 0.000000
# 2 -0.003243 0.023180 -0.002015 0.000000 0.000629 0.000000
# 3 -0.003346 -0.002015 0.009522 0.000000 -0.002205 0.000000
# 4 0.000000 0.000000 0.000000 0.065418 0.000000 -0.003885
# 5 -0.002772 0.000629 -0.002205 0.000000 0.027717 0.000000
# 6 0.000000 0.000000 0.000000 -0.003885 0.000000 0.073870
#
#
# Mechanical properties :
#
#
# Convention : Reuss Voigt Hill
#
# Bulk Modulus (GPa) = 39.93174 57.91335 48.92255
# Shear Modulus (GPa) = 21.29361 28.16661 24.73011
#
# Velocity S-wave (km/s) = 3.35794 3.86203 3.61877
# Velocity P-wave (km/s) = 6.01495 7.11015 6.58536
#
# Compressibility (1/GPa) = 0.02504273
#
# Stress axis : x y z
#
# Youngs Moduli (GPa) = 104.72396 43.14009 105.02381
#
# Poissons Ratio (x) = 0.13990 0.35141
# Poissons Ratio (y) = 0.33961 0.21165
# Poissons Ratio (z) = 0.35040 0.08694
#
# Static dielectric constant tensor:
#      x y z
#    x 3.285160 0.000000 0.044440 
#    y 0.000000 2.981280 0.000000 
#    z 0.044440 0.000000 3.598910 
# 
# 
# High freq. dielectric constant tensor:
#      x y z
#    x 1.743910 0.000000 0.012580 
#    y 0.000000 1.667810 0.000000 
#    z 0.012580 0.000000 1.753590 
# 
# From -- ./inp_files/172898.got.cif
#   From: 2010.06.25/outbox.cif.g09.slc.cpg/sg12_87_cif.got.tgz:172898.got - 2010.06.28 00:19:55.
