data_PCOD8087401
_publ_section_title
;
Structure prediction by ZEFSAII (Michael W. Deem and Ramdas Pophale) SiO2 
 PCOD8087401
Probable space group: C 2/M
;
_chemical_formula_sum "Si O2"
_cell_formula_units_Z 56
_cell_length_a 19.077581
_cell_length_b 9.270012
_cell_length_c 19.952639
_cell_angle_alpha 90.000000
_cell_angle_beta 57.184872
_cell_angle_gamma 90.000000
_cell_volume 2965.528885
_symmetry_space_group_name_H-M "C 2/M"
_symmetry_group_IT_number 12
_symmetry_cell_setting 'monoclinic'
loop_
_space_group_symop_operation_xyz
x,y,z
-x,y,-z
-x,-y,-z
x,-y,z
1/2+x,1/2+y,z
1/2-x,1/2+y,-z
1/2-x,1/2-y,-z
1/2+x,1/2-y,z
loop_
_atom_site_type_symbol
_atom_site_label
_atom_site_fract_x
_atom_site_fract_y
_atom_site_fract_z
Si Si1 0.918575 0.330914 0.735706
Si Si2 0.733998 0.662339 0.823881
Si Si3 0.941092 0.668066 0.232918
Si Si4 0.193746 0.165586 0.477280
Si Si5 0.428200 0.168485 0.085742
Si Si6 0.495837 0.335141 0.426456
Si Si7 0.721866 0.335756 0.672631
O O1 0.921526 0.500000 0.718475
O O2 0.824077 0.284768 0.804385
O O3 0.976079 0.289452 0.769103
O O4 0.946107 0.253851 0.653361
O O5 0.715173 0.500000 0.857430
O O6 0.659656 0.761035 0.889918
O O7 0.738967 0.671363 0.741702
O O8 0.918668 0.500000 0.253509
O O9 0.955116 0.706114 0.147603
O O10 0.866213 0.763143 0.301059
O O11 0.250000 0.250000 0.500000
O O12 0.098742 0.176186 0.550437
O O13 0.204650 0.244249 0.400074
O O14 0.222700 0.000000 0.456483
O O15 0.416156 0.000000 0.081047
O O16 0.500000 0.229882 0.000000
O O17 0.500000 0.273106 0.500000
O O18 0.527824 0.500000 0.409929
O O19 0.720873 0.500000 0.646306
#
# Coordination Sequence:
#
# PCOD8087401 Si02
#       7
#     8   8   8   8   8   8   8
#     4  10  20  34  52  74 100 131 168 208 250 298
#     4   9  19  34  52  75 101 130 163 200 246 298
#     4   9  18  33  53  75 101 134 168 205 250 297
#     4  11  22  34  49  70  97 129 167 212 258 300
#     4   9  18  34  56  80 104 132 167 203 241 292
#     4  10  22  37  51  70  98 133 171 211 254 297
#     4  10  19  32  50  71  96 127 167 210 249 297
#
# _framework density 18.883647
#
# number of rings (size 3 to 8) (size 9 to 14) (size 15 to 20)
#    0.000    2.286    0.000    2.571    0.000    5.714 
#    0.000    0.714    0.000    0.000    0.000    0.000 
#    0.000    0.000    0.000    0.000    0.000    0.000 
#
# Total GULP energy -347226.141571 kJ/mol
# GULP energy per Si atom -12400.933628 kJ/mol
# Density = 1.884067 g / cm^3
# Si number density = 18.883647 Si / 1000 Ang^3
#
#
#
# Elastic Constant Matrix: (Units=GPa)
#
#
# Indices 1 2 3 4 5 6 
#
# 1 100.9252 29.3021 20.5482 0.0000 -13.7859 0.0000
# 2 29.3021 75.1081 34.3647 0.0000 -11.6927 -0.0002
# 3 20.5482 34.3647 82.0006 0.0000 -17.9463 0.0000
# 4 0.0000 0.0000 0.0000 27.8438 0.0000 -4.7023
# 5 -13.7859 -11.6927 -17.9463 0.0000 25.9246 0.0000
# 6 0.0000 -0.0002 0.0000 -4.7023 0.0000 26.7808
#
#
#
# Elastic Compliance Matrix: (Units=1/GPa)
#
#
# Indices 1 2 3 4 5 6 
#
# 1 0.011645 -0.003679 -0.000453 0.000000 0.004220 0.000000
# 2 -0.003679 0.017853 -0.006159 0.000000 0.001832 0.000000
# 3 -0.000453 -0.006159 0.016769 0.000000 0.008590 0.000000
# 4 0.000000 0.000000 0.000000 0.037012 0.000000 0.006499
# 5 0.004220 0.001832 0.008590 0.000000 0.047590 0.000000
# 6 0.000000 0.000000 0.000000 0.006499 0.000000 0.038481
#
#
# Mechanical properties :
#
#
# Convention : Reuss Voigt Hill
#
# Bulk Modulus (GPa) = 38.93171 47.38490 43.15831
# Shear Modulus (GPa) = 25.18972 27.69777 26.44374
#
# Velocity S-wave (km/s) = 3.65628 3.83398 3.74619
# Velocity P-wave (km/s) = 6.20370 6.68931 6.45107
#
# Compressibility (1/GPa) = 0.02568601
#
# Stress axis : x y z
#
# Youngs Moduli (GPa) = 85.87333 56.01452 59.63218
#
# Poissons Ratio (x) = 0.20608 0.02700
# Poissons Ratio (y) = 0.31593 0.36726
# Poissons Ratio (z) = 0.03888 0.34498
#
# Static dielectric constant tensor:
#      x y z
#    x 3.575820 0.000000 -0.112320 
#    y 0.000000 3.536430 0.000000 
#    z -0.112320 0.000000 3.485630 
# 
# 
# High freq. dielectric constant tensor:
#      x y z
#    x 1.739630 0.000000 -0.006730 
#    y 0.000000 1.731490 0.000000 
#    z -0.006730 0.000000 1.717480 
# 
# From -- ./inp_files/275161.got.cif
#   From: 2010.06.25/outbox.cif.g09.slc.cpg/sg12_138_cif.got.tgz:275161.got - 2010.06.28 00:19:55.
