data_PCOD8087950
_publ_section_title
;
Structure prediction by ZEFSAII (Michael W. Deem and Ramdas Pophale) SiO2 
 PCOD8087950
Probable space group: C 2/M
;
_chemical_formula_sum "Si O2"
_cell_formula_units_Z 56
_cell_length_a 18.686201
_cell_length_b 9.174213
_cell_length_c 20.385462
_cell_angle_alpha 90.000000
_cell_angle_beta 61.002004
_cell_angle_gamma 90.000000
_cell_volume 3056.596221
_symmetry_space_group_name_H-M "C 2/M"
_symmetry_group_IT_number 12
_symmetry_cell_setting 'monoclinic'
loop_
_space_group_symop_operation_xyz
x,y,z
-x,y,-z
-x,-y,-z
x,-y,z
1/2+x,1/2+y,z
1/2-x,1/2+y,-z
1/2-x,1/2-y,-z
1/2+x,1/2-y,z
loop_
_atom_site_type_symbol
_atom_site_label
_atom_site_fract_x
_atom_site_fract_y
_atom_site_fract_z
Si Si1 0.347061 0.329764 0.655113
Si Si2 0.867465 0.171430 0.910335
Si Si3 0.589209 0.835443 0.491443
Si Si4 0.219523 0.832926 0.920716
Si Si5 0.696240 0.669416 0.783368
Si Si6 0.022758 0.830280 0.637394
Si Si7 0.463410 0.326995 0.220235
O O1 0.332696 0.500000 0.649937
O O2 0.349600 0.252404 0.583022
O O3 0.274048 0.263414 0.729289
O O4 0.429377 0.299429 0.659128
O O5 0.801649 0.239217 0.890047
O O6 0.956876 0.234629 0.852948
O O7 0.865142 0.000000 0.899465
O O8 0.846534 0.213977 0.994742
O O9 0.500000 0.833270 0.500000
O O10 0.585725 0.757884 0.563619
O O11 0.621817 0.000000 0.485427
O O12 0.178678 0.808035 0.868249
O O13 0.245086 0.000000 0.919891
O O14 0.713039 0.500000 0.759553
O O15 0.617645 0.731054 0.779701
O O16 0.036208 0.772607 0.704998
O O17 0.043840 0.000000 0.620605
O O18 0.465179 0.500000 0.216935
#
# Coordination Sequence:
#
# PCOD8087950 Si02
#       7
#     8   8   8   8   8   8   8
#     4  10  19  32  52  75  98 127 163 201 241 289
#     4   9  17  32  53  74  97 128 166 203 241 288
#     4   9  17  30  50  76 101 124 155 200 249 290
#     4   9  18  31  50  76 101 126 160 204 248 287
#     4  10  20  33  48  70 101 132 163 201 244 288
#     4   9  17  31  51  73  96 125 163 203 241 286
#     4   9  18  32  50  71  97 131 167 201 239 286
#
# _framework density 18.321031000000001
#
# number of rings (size 3 to 8) (size 9 to 14) (size 15 to 20)
#    0.000    2.714    0.000    1.714    0.000    4.571 
#    0.000    5.714    0.000    0.000    0.000    5.000 
#    0.000    0.000    0.000    0.000    0.000    0.000 
#
# Total GULP energy -347214.588165 kJ/mol
# GULP energy per Si atom -12400.521006 kJ/mol
# Density = 1.827933 g / cm^3
# Si number density = 18.321031 Si / 1000 Ang^3
#
#
#
# Elastic Constant Matrix: (Units=GPa)
#
#
# Indices 1 2 3 4 5 6 
#
# 1 84.7827 34.3992 55.0748 0.0000 18.4234 0.0000
# 2 34.3992 64.8874 43.7447 -0.0001 5.9208 0.0000
# 3 55.0748 43.7447 121.6623 0.0000 20.8853 0.0000
# 4 0.0000 -0.0001 0.0000 28.7078 0.0000 -1.5860
# 5 18.4234 5.9208 20.8853 0.0000 16.4439 0.0000
# 6 0.0000 0.0000 0.0000 -1.5860 0.0000 18.1149
#
#
#
# Elastic Compliance Matrix: (Units=1/GPa)
#
#
# Indices 1 2 3 4 5 6 
#
# 1 0.020594 -0.006606 -0.004342 0.000000 -0.015181 0.000000
# 2 -0.006606 0.022543 -0.006384 0.000000 0.007393 0.000000
# 3 -0.004342 -0.006384 0.014388 0.000000 -0.011111 0.000000
# 4 0.000000 0.000000 0.000000 0.035003 0.000000 0.003065
# 5 -0.015181 0.007393 -0.011111 0.000000 0.089271 0.000000
# 6 0.000000 0.000000 0.000000 0.003065 0.000000 0.055471
#
#
# Mechanical properties :
#
#
# Convention : Reuss Voigt Hill
#
# Bulk Modulus (GPa) = 43.74133 59.75220 51.74677
# Shear Modulus (GPa) = 17.88574 21.86093 19.87333
#
# Velocity S-wave (km/s) = 3.12788 3.45804 3.29709
# Velocity P-wave (km/s) = 6.08042 6.97344 6.54219
#
# Compressibility (1/GPa) = 0.02286167
#
# Stress axis : x y z
#
# Youngs Moduli (GPa) = 48.55789 44.36049 69.50412
#
# Poissons Ratio (x) = 0.29303 0.30175
# Poissons Ratio (y) = 0.32075 0.44373
# Poissons Ratio (z) = 0.21082 0.28321
#
# Static dielectric constant tensor:
#      x y z
#    x 3.262650 0.000000 0.068980 
#    y 0.000000 3.267500 0.000000 
#    z 0.068980 0.000000 3.576900 
# 
# 
# High freq. dielectric constant tensor:
#      x y z
#    x 1.685890 0.000000 0.005950 
#    y 0.000000 1.694090 0.000000 
#    z 0.005950 0.000000 1.725330 
# 
# From -- ./inp_files/313672.got.cif
#   From: 2010.06.25/outbox.cif.g09.slc.cpg/sg12_157_cif.got.tgz:313672.got - 2010.06.28 00:19:55.
