data_PCOD8087629
_publ_section_title
;
Structure prediction by ZEFSAII (Michael W. Deem and Ramdas Pophale) SiO2 
 PCOD8087629
Probable space group: C 2/M
;
_chemical_formula_sum "Si O2"
_cell_formula_units_Z 48
_cell_length_a 18.497875
_cell_length_b 8.759227
_cell_length_c 16.684468
_cell_angle_alpha 90.000000
_cell_angle_beta 85.918821
_cell_angle_gamma 90.000000
_cell_volume 2696.480656
_symmetry_space_group_name_H-M "C 2/M"
_symmetry_group_IT_number 12
_symmetry_cell_setting 'monoclinic'
loop_
_space_group_symop_operation_xyz
x,y,z
-x,y,-z
-x,-y,-z
x,-y,z
1/2+x,1/2+y,z
1/2-x,1/2+y,-z
1/2-x,1/2-y,-z
1/2+x,1/2-y,z
loop_
_atom_site_type_symbol
_atom_site_label
_atom_site_fract_x
_atom_site_fract_y
_atom_site_fract_z
Si Si1 0.472043 0.321536 0.590036
Si Si2 0.787967 0.319866 0.234942
Si Si3 0.838371 0.331143 0.670647
Si Si4 0.551121 0.818023 0.730585
Si Si5 0.221521 0.683037 0.084224
Si Si6 0.080499 0.333433 0.168463
O O1 0.500000 0.281781 0.500000
O O2 0.466915 0.500000 0.606994
O O3 0.391372 0.252399 0.604085
O O4 0.529765 0.250944 0.646965
O O5 0.780780 0.500000 0.224008
O O6 0.734860 0.265682 0.310293
O O7 0.868183 0.269152 0.254140
O O8 0.772430 0.239095 0.151865
O O9 0.818584 0.500000 0.639294
O O10 0.878548 0.347827 0.751038
O O11 0.496540 0.752232 0.805389
O O12 0.541419 0.000000 0.726269
O O13 0.221873 0.500000 0.083073
O O14 0.138319 0.746768 0.103768
O O15 0.250000 0.750000 0.000000
O O16 0.063511 0.500000 0.133717
#
# Coordination Sequence:
#
# PCOD8087629 Si02
#       6
#     8   8   8   8   8   8
#     4  10  20  33  51  76 103 130 165 210 253 293
#     4  10  19  32  52  77 102 128 164 209 253 298
#     4   9  17  31  51  72  97 132 169 201 242 300
#     4   9  18  33  53  75  99 130 167 206 251 302
#     4  10  19  32  51  73  99 132 169 209 253 300
#     4   7  13  28  48  68  90 122 163 199 236 289
#
# _framework density 17.800979999999999
#
# number of rings (size 3 to 8) (size 9 to 14) (size 15 to 20)
#    0.000    2.833    0.000    4.000    0.000    2.667 
#    0.000    2.500    0.000    5.000    0.000    0.000 
#    0.000    0.000    0.000    0.000    0.000    0.000 
#
# Total GULP energy -297353.871534 kJ/mol
# GULP energy per Si atom -12389.744647 kJ/mol
# Density = 1.776046 g / cm^3
# Si number density = 17.800980 Si / 1000 Ang^3
#
#
#
# Elastic Constant Matrix: (Units=GPa)
#
#
# Indices 1 2 3 4 5 6 
#
# 1 168.2281 51.0973 73.0650 0.0000 -25.5884 0.0000
# 2 51.0973 74.3637 43.3369 0.0000 -10.1355 0.0000
# 3 73.0650 43.3369 100.8054 0.0000 -26.2521 0.0000
# 4 0.0000 0.0000 0.0000 26.5201 0.0000 -3.1758
# 5 -25.5884 -10.1355 -26.2521 0.0000 28.1766 0.0000
# 6 0.0000 0.0000 0.0000 -3.1758 0.0000 25.8992
#
#
#
# Elastic Compliance Matrix: (Units=1/GPa)
#
#
# Indices 1 2 3 4 5 6 
#
# 1 0.009430 -0.003395 -0.004573 0.000000 0.003082 0.000000
# 2 -0.003395 0.019185 -0.006328 0.000000 -0.002078 0.000000
# 3 -0.004573 -0.006328 0.018856 0.000000 0.011139 0.000000
# 4 0.000000 0.000000 0.000000 0.038269 0.000000 0.004693
# 5 0.003082 -0.002078 0.011139 0.000000 0.047920 0.000000
# 6 0.000000 0.000000 0.000000 0.004693 0.000000 0.039187
#
#
# Mechanical properties :
#
#
# Convention : Reuss Voigt Hill
#
# Bulk Modulus (GPa) = 52.96886 75.37729 64.17308
# Shear Modulus (GPa) = 24.06940 27.84571 25.95756
#
# Velocity S-wave (km/s) = 3.68113 3.95939 3.82279
# Velocity P-wave (km/s) = 6.92015 7.95856 7.45745
#
# Compressibility (1/GPa) = 0.01887902
#
# Stress axis : x y z
#
# Youngs Moduli (GPa) = 106.03905 52.12486 53.03299
#
# Poissons Ratio (x) = 0.17695 0.24253
# Poissons Ratio (y) = 0.35997 0.33561
# Poissons Ratio (z) = 0.48494 0.32986
#
# Static dielectric constant tensor:
#      x y z
#    x 3.739240 0.000000 -0.452290 
#    y 0.000000 3.289940 0.000000 
#    z -0.452290 0.000000 3.135340 
# 
# 
# High freq. dielectric constant tensor:
#      x y z
#    x 1.697030 0.000000 -0.030690 
#    y 0.000000 1.682910 0.000000 
#    z -0.030690 0.000000 1.661930 
# 
# From -- ./inp_files/221514.got.cif
#   From: 2010.06.25/outbox.cif.g09.slc.cpg/sg12_111_cif.got.tgz:221514.got - 2010.06.28 00:19:55.
