data_PCOD8087688
_publ_section_title
;
Structure prediction by ZEFSAII (Michael W. Deem and Ramdas Pophale) SiO2 
 PCOD8087688
Probable space group: C 2/M
;
_chemical_formula_sum "Si O2"
_cell_formula_units_Z 64
_cell_length_a 20.181726
_cell_length_b 9.306732
_cell_length_c 23.364259
_cell_angle_alpha 90.000000
_cell_angle_beta 125.646021
_cell_angle_gamma 90.000000
_cell_volume 3566.169169
_symmetry_space_group_name_H-M "C 2/M"
_symmetry_group_IT_number 12
_symmetry_cell_setting 'monoclinic'
loop_
_space_group_symop_operation_xyz
x,y,z
-x,y,-z
-x,-y,-z
x,-y,z
1/2+x,1/2+y,z
1/2-x,1/2+y,-z
1/2-x,1/2-y,-z
1/2+x,1/2-y,z
loop_
_atom_site_type_symbol
_atom_site_label
_atom_site_fract_x
_atom_site_fract_y
_atom_site_fract_z
Si Si1 0.197588 0.333813 0.551058
Si Si2 0.545574 0.665873 0.681083
Si Si3 0.863905 0.166006 0.585991
Si Si4 0.071157 0.667345 0.578375
Si Si5 0.937430 0.162310 0.916562
Si Si6 0.633410 0.332830 0.840446
Si Si7 0.058147 0.668306 0.905446
Si Si8 0.678685 0.165501 0.068936
O O1 0.184870 0.500000 0.530199
O O2 0.146686 0.250733 0.477901
O O3 0.293738 0.291080 0.596965
O O4 0.159138 0.299119 0.593629
O O5 0.553802 0.500000 0.668691
O O6 0.453323 0.701505 0.655681
O O7 0.570352 0.753469 0.637982
O O8 0.606116 0.706844 0.762702
O O9 0.855551 0.000000 0.565829
O O10 0.058799 0.500000 0.584661
O O11 0.000000 0.722602 0.500000
O O12 0.854309 0.237465 0.895630
O O13 0.975345 0.253529 0.883776
O O14 0.918552 0.000000 0.886551
O O15 0.000000 0.162162 0.000000
O O16 0.616394 0.500000 0.845906
O O17 0.582522 0.233836 0.857227
O O18 0.727988 0.294453 0.894829
O O19 0.040303 0.500000 0.890040
O O20 0.130859 0.698870 0.986505
O O21 0.667647 0.000000 0.081506
#
# Coordination Sequence:
#
# PCOD8087688 Si02
#       8
#     8   8   8   8   8   8   8   8
#     4   9  17  30  49  73  97 122 157 200 245 289
#     4  10  21  35  51  72 101 135 168 205 252 305
#     4   9  17  30  49  72  97 125 158 198 241 291
#     4  10  19  32  51  74  99 129 163 205 253 300
#     4   9  17  30  51  78 105 132 165 210 261 309
#     4  10  21  36  51  71 104 142 174 214 265 311
#     4  10  19  32  53  79 103 133 176 219 259 309
#     4   9  18  33  53  76 104 137 174 218 262 305
#
# _framework density 17.946428000000001
#
# number of rings (size 3 to 8) (size 9 to 14) (size 15 to 20)
#    0.000    2.500    1.250    1.125    0.000    3.750 
#    0.000    1.250    0.000    1.500    0.000    0.000 
#    0.000    0.000    0.000    0.000    0.000    0.000 
#
# Total GULP energy -396769.075114 kJ/mol
# GULP energy per Si atom -12399.033597 kJ/mol
# Density = 1.790558 g / cm^3
# Si number density = 17.946428 Si / 1000 Ang^3
#
#
#
# Elastic Constant Matrix: (Units=GPa)
#
#
# Indices 1 2 3 4 5 6 
#
# 1 115.2263 54.9055 31.5336 0.0000 -20.6986 0.0000
# 2 54.9055 77.6799 28.2062 0.0000 -15.1241 0.0000
# 3 31.5336 28.2062 51.4562 0.0000 -13.9390 0.0000
# 4 0.0000 0.0000 0.0000 21.0470 0.0000 -6.5418
# 5 -20.6986 -15.1241 -13.9390 0.0000 18.1969 0.0000
# 6 0.0000 0.0000 0.0000 -6.5418 0.0000 35.1681
#
#
#
# Elastic Compliance Matrix: (Units=1/GPa)
#
#
# Indices 1 2 3 4 5 6 
#
# 1 0.014525 -0.007796 -0.002407 0.000000 0.008198 0.000000
# 2 -0.007796 0.021327 -0.005695 0.000000 0.004495 0.000000
# 3 -0.002407 -0.005695 0.027769 0.000000 0.013800 0.000000
# 4 0.000000 0.000000 0.000000 0.050428 0.000000 0.009380
# 5 0.008198 0.004495 0.013800 0.000000 0.078587 0.000000
# 6 0.000000 0.000000 0.000000 0.009380 0.000000 0.030180
#
#
# Mechanical properties :
#
#
# Convention : Reuss Voigt Hill
#
# Bulk Modulus (GPa) = 31.42219 52.62810 42.02514
# Shear Modulus (GPa) = 18.85220 23.53020 21.19120
#
# Velocity S-wave (km/s) = 3.24461 3.62489 3.44001
# Velocity P-wave (km/s) = 5.61993 6.84898 6.26467
#
# Compressibility (1/GPa) = 0.03182465
#
# Stress axis : x y z
#
# Youngs Moduli (GPa) = 68.84734 46.88878 36.01117
#
# Poissons Ratio (x) = 0.36556 0.08667
# Poissons Ratio (y) = 0.53676 0.20509
# Poissons Ratio (z) = 0.16569 0.26704
#
# Static dielectric constant tensor:
#      x y z
#    x 3.573390 0.000000 0.151720 
#    y 0.000000 3.357850 0.000000 
#    z 0.151720 0.000000 3.056290 
# 
# 
# High freq. dielectric constant tensor:
#      x y z
#    x 1.710060 0.000000 0.005350 
#    y 0.000000 1.696270 0.000000 
#    z 0.005350 0.000000 1.657730 
# 
# From -- ./inp_files/346285.got.cif
#   From: 2010.06.25/outbox.cif.g09.slc.cpg/sg12_174_cif.got.tgz:346285.got - 2010.06.28 00:19:55.
