data_PCOD8087112
_publ_section_title
;
Structure prediction by ZEFSAII (Michael W. Deem and Ramdas Pophale) SiO2 
 PCOD8087112
Probable space group: C 2/M
;
_chemical_formula_sum "Si O2"
_cell_formula_units_Z 40
_cell_length_a 24.835391
_cell_length_b 10.075340
_cell_length_c 21.513311
_cell_angle_alpha 90.000000
_cell_angle_beta 155.901860
_cell_angle_gamma 90.000000
_cell_volume 2197.952118
_symmetry_space_group_name_H-M "C 2/M"
_symmetry_group_IT_number 12
_symmetry_cell_setting 'monoclinic'
loop_
_space_group_symop_operation_xyz
x,y,z
-x,y,-z
-x,-y,-z
x,-y,z
1/2+x,1/2+y,z
1/2-x,1/2+y,-z
1/2-x,1/2-y,-z
1/2+x,1/2-y,z
loop_
_atom_site_type_symbol
_atom_site_label
_atom_site_fract_x
_atom_site_fract_y
_atom_site_fract_z
Si Si1 0.900160 0.000000 0.451863
Si Si2 0.012788 0.777646 0.653510
Si Si3 0.803654 0.755120 0.906577
Si Si4 0.129354 0.500000 0.095720
Si Si5 0.862434 0.151940 0.096123
Si Si6 0.286438 0.000000 0.257406
Si Si7 0.049441 0.500000 0.453917
O O1 0.000000 0.000000 0.500000
O O2 0.919299 0.869392 0.513497
O O3 0.753036 0.000000 0.271822
O O4 0.158656 0.783571 0.778086
O O5 0.014993 0.829733 0.727279
O O6 0.952256 0.630113 0.590910
O O7 0.872714 0.627777 0.950542
O O8 0.796120 0.868626 0.846054
O O9 0.895659 0.808611 0.060107
O O10 0.000000 0.500000 0.000000
O O11 0.811693 0.000000 0.044238
O O12 0.750000 0.250000 0.000000
O O13 0.420273 0.000000 0.359709
O O14 0.319856 0.000000 0.365696
#
# Coordination Sequence:
#
# PCOD8087112 Si02
#       7
#     4   8   8   4   8   4   4
#     4  12  20  35  58  82 116 152 184 237 288 339
#     4  10  19  31  53  86 114 144 178 232 282 339
#     4  10  19  34  54  77 116 148 185 230 282 334
#     4  12  26  39  56  84 116 153 195 238 290 339
#     4  10  20  31  50  83 119 149 184 229 291 341
#     4   9  16  29  49  73 102 143 176 217 273 335
#     4   9  18  25  42  77 114 136 167 214 279 328
#
# _framework density 18.198758999999999
#
# number of rings (size 3 to 8) (size 9 to 14) (size 15 to 20)
#    0.000    1.800    4.000    1.200   11.200    0.000 
#    0.000    0.500    0.000    1.200    0.000    0.000 
#    0.000    0.000    0.000    0.000    0.000    0.000 
#
# Total GULP energy -247952.499031 kJ/mol
# GULP energy per Si atom -12397.624952 kJ/mol
# Density = 1.815734 g / cm^3
# Si number density = 18.198759 Si / 1000 Ang^3
#
#
#
# Elastic Constant Matrix: (Units=GPa)
#
#
# Indices 1 2 3 4 5 6 
#
# 1 62.0573 55.8260 55.9975 -0.0001 -21.1009 0.0000
# 2 55.8260 181.5835 51.6793 0.0000 -23.4224 0.0000
# 3 55.9975 51.6793 95.0943 -0.0001 -30.4082 -0.0001
# 4 -0.0001 0.0000 -0.0001 27.0863 -0.0001 -17.6307
# 5 -21.1009 -23.4224 -30.4082 -0.0001 31.0793 0.0000
# 6 0.0000 0.0000 -0.0001 -17.6307 0.0000 23.1948
#
#
#
# Elastic Compliance Matrix: (Units=1/GPa)
#
#
# Indices 1 2 3 4 5 6 
#
# 1 0.040517 -0.006525 -0.019048 0.000000 0.003954 0.000000
# 2 -0.006525 0.007662 0.000158 0.000000 0.001498 0.000000
# 3 -0.019048 0.000158 0.025540 0.000000 0.012175 0.000000
# 4 0.000000 0.000000 0.000000 0.073073 0.000001 0.055544
# 5 0.003954 0.001498 0.012175 0.000001 0.047901 0.000001
# 6 0.000000 0.000000 0.000000 0.055544 0.000001 0.085333
#
#
# Mechanical properties :
#
#
# Convention : Reuss Voigt Hill
#
# Bulk Modulus (GPa) = 43.69308 73.97119 58.83213
# Shear Modulus (GPa) = 14.77159 27.95423 21.36291
#
# Velocity S-wave (km/s) = 2.85209 3.92350 3.42989
# Velocity P-wave (km/s) = 5.90820 7.82686 6.93421
#
# Compressibility (1/GPa) = 0.02288692
#
# Stress axis : x y z
#
# Youngs Moduli (GPa) = 24.68100 130.52161 39.15400
#
# Poissons Ratio (x) = 0.85169 0.74582
# Poissons Ratio (y) = 0.16105 -0.00618
# Poissons Ratio (z) = 0.47014 -0.02061
#
# Static dielectric constant tensor:
#      x y z
#    x 3.135650 0.000000 -0.674430 
#    y 0.000000 3.616100 0.000000 
#    z -0.674430 0.000000 3.301060 
# 
# 
# High freq. dielectric constant tensor:
#      x y z
#    x 1.650840 0.000000 -0.061000 
#    y 0.000000 1.732320 0.000000 
#    z -0.061000 0.000000 1.687570 
# 
# From -- ./inp_files/172625.got.cif
#   From: 2010.06.25/outbox.cif.g09.slc.cpg/sg12_87_cif.got.tgz:172625.got - 2010.06.28 00:19:55.
