data_PCOD8087543
_publ_section_title
;
Structure prediction by ZEFSAII (Michael W. Deem and Ramdas Pophale) SiO2 
 PCOD8087543
Probable space group: C 2/M
;
_chemical_formula_sum "Si O2"
_cell_formula_units_Z 64
_cell_length_a 24.943486
_cell_length_b 9.287931
_cell_length_c 14.622764
_cell_angle_alpha 90.000000
_cell_angle_beta 91.652299
_cell_angle_gamma 90.000000
_cell_volume 3386.296548
_symmetry_space_group_name_H-M "C 2/M"
_symmetry_group_IT_number 12
_symmetry_cell_setting 'monoclinic'
loop_
_space_group_symop_operation_xyz
x,y,z
-x,y,-z
-x,-y,-z
x,-y,z
1/2+x,1/2+y,z
1/2-x,1/2+y,-z
1/2-x,1/2-y,-z
1/2+x,1/2-y,z
loop_
_atom_site_type_symbol
_atom_site_label
_atom_site_fract_x
_atom_site_fract_y
_atom_site_fract_z
Si Si1 0.658785 0.830152 0.982099
Si Si2 0.560933 0.169744 0.482099
Si Si3 0.810529 0.830693 0.200665
Si Si4 0.087938 0.670212 0.278540
Si Si5 0.604731 0.332445 0.645255
Si Si6 0.056860 0.162602 0.963728
Si Si7 0.808568 0.667984 0.819795
Si Si8 0.988751 0.839377 0.229236
O O1 0.679290 0.748628 0.894003
O O2 0.598596 0.779460 0.002057
O O3 0.660929 0.000000 0.964125
O O4 0.691977 0.781697 0.073890
O O5 0.500000 0.220566 0.500000
O O6 0.579573 0.219899 0.382565
O O7 0.604351 0.243834 0.551289
O O8 0.565886 0.000000 0.495415
O O9 0.848672 0.774949 0.284278
O O10 0.749179 0.796219 0.227168
O O11 0.819755 0.000000 0.183394
O O12 0.085520 0.500000 0.270463
O O13 0.143590 0.734981 0.240091
O O14 0.038291 0.732093 0.217827
O O15 0.614503 0.500000 0.625123
O O16 0.545806 0.303059 0.683279
O O17 0.054325 0.171952 0.854178
O O18 0.072436 0.000000 0.995700
O O19 0.000000 0.208330 0.000000
O O20 0.819933 0.500000 0.821328
O O21 0.012893 0.000000 0.235076
#
# Coordination Sequence:
#
# PCOD8087543 Si02
#       8
#     8   8   8   8   8   8   8   8
#     4  11  21  33  53  83 111 138 182 230 271 313
#     4  10  20  34  54  81 109 138 173 215 270 326
#     4  10  20  39  60  77 105 146 187 221 262 319
#     4  10  20  36  56  79 108 142 178 218 271 327
#     4  10  20  34  55  79 104 136 178 221 262 315
#     4  10  20  34  51  74 109 150 186 219 263 322
#     4   9  20  37  57  79 106 143 184 223 264 319
#     4  10  19  32  50  77 107 138 177 217 264 316
#
# _framework density 18.899704
#
# number of rings (size 3 to 8) (size 9 to 14) (size 15 to 20)
#    0.000    2.000    2.500    1.500    0.000    2.000 
#    0.000    2.500    0.000    0.000    0.000    0.000 
#    0.000    0.000    0.000    0.000    0.000    0.000 
#
# Total GULP energy -396710.484471 kJ/mol
# GULP energy per Si atom -12397.202640 kJ/mol
# Density = 1.885669 g / cm^3
# Si number density = 18.899704 Si / 1000 Ang^3
#
#
#
# Elastic Constant Matrix: (Units=GPa)
#
#
# Indices 1 2 3 4 5 6 
#
# 1 101.4733 30.5123 47.1885 0.0000 10.8114 0.0000
# 2 30.5123 36.4974 27.1898 0.0000 4.3427 0.0000
# 3 47.1885 27.1898 83.0217 0.0000 9.5195 0.0000
# 4 0.0000 0.0000 0.0000 26.7352 0.0000 3.5975
# 5 10.8114 4.3427 9.5195 0.0000 24.5360 0.0000
# 6 0.0000 0.0000 0.0000 3.5975 0.0000 23.3548
#
#
#
# Elastic Compliance Matrix: (Units=1/GPa)
#
#
# Indices 1 2 3 4 5 6 
#
# 1 0.015273 -0.008197 -0.005642 0.000000 -0.003090 0.000000
# 2 -0.008197 0.040726 -0.008651 0.000000 -0.000240 0.000000
# 3 -0.005642 -0.008651 0.018445 0.000000 -0.003139 0.000000
# 4 0.000000 0.000000 0.000000 0.038196 0.000000 -0.005883
# 5 -0.003090 -0.000240 -0.003139 0.000000 0.043378 0.000000
# 6 0.000000 0.000000 0.000000 -0.005883 0.000000 0.043724
#
#
# Mechanical properties :
#
#
# Convention : Reuss Voigt Hill
#
# Bulk Modulus (GPa) = 33.94102 47.86372 40.90237
# Shear Modulus (GPa) = 19.64310 22.66530 21.15420
#
# Velocity S-wave (km/s) = 3.22737 3.46676 3.34920
# Velocity P-wave (km/s) = 5.64671 6.43465 6.05351
#
# Compressibility (1/GPa) = 0.02946287
#
# Stress axis : x y z
#
# Youngs Moduli (GPa) = 65.47712 24.55452 54.21551
#
# Poissons Ratio (x) = 0.20128 0.30587
# Poissons Ratio (y) = 0.53674 0.46902
# Poissons Ratio (z) = 0.36941 0.21242
#
# Static dielectric constant tensor:
#      x y z
#    x 3.566090 0.000000 -0.021960 
#    y 0.000000 3.228330 0.000000 
#    z -0.021960 0.000000 3.587800 
# 
# 
# High freq. dielectric constant tensor:
#      x y z
#    x 1.732680 0.000000 0.001300 
#    y 0.000000 1.712600 0.000000 
#    z 0.001300 0.000000 1.734810 
# 
# From -- ./inp_files/238565.got.cif
#   From: 2010.06.25/outbox.cif.g09.slc.cpg/sg12_120_cif.got.tgz:238565.got - 2010.06.28 00:19:55.
