data_PCOD8087266
_publ_section_title
;
Structure prediction by ZEFSAII (Michael W. Deem and Ramdas Pophale) SiO2 
 PCOD8087266
Probable space group: C 2/M
;
_chemical_formula_sum "Si O2"
_cell_formula_units_Z 44
_cell_length_a 14.870979
_cell_length_b 24.779851
_cell_length_c 7.941731
_cell_angle_alpha 90.000000
_cell_angle_beta 119.037589
_cell_angle_gamma 90.000000
_cell_volume 2558.672059
_symmetry_space_group_name_H-M "C 2/M"
_symmetry_group_IT_number 12
_symmetry_cell_setting 'monoclinic'
loop_
_space_group_symop_operation_xyz
x,y,z
-x,y,-z
-x,-y,-z
x,-y,z
1/2+x,1/2+y,z
1/2-x,1/2+y,-z
1/2-x,1/2-y,-z
1/2+x,1/2-y,z
loop_
_atom_site_type_symbol
_atom_site_label
_atom_site_fract_x
_atom_site_fract_y
_atom_site_fract_z
Si Si1 0.200201 0.841597 0.765963
Si Si2 0.500000 0.617017 0.000000
Si Si3 0.310040 0.692548 0.874172
Si Si4 0.109266 0.735962 0.535236
Si Si5 0.894147 0.297119 0.840431
Si Si6 0.430516 0.559531 0.274629
O O1 0.123372 0.797737 0.611547
O O2 0.307007 0.843434 0.757998
O O3 0.157896 0.901603 0.736431
O O4 0.227296 0.825218 0.978894
O O5 0.396352 0.652117 0.876744
O O6 0.512184 0.582056 0.840322
O O7 0.205530 0.697136 0.668489
O O8 0.360763 0.751402 0.944100
O O9 0.100191 0.735911 0.326844
O O10 0.000000 0.712784 0.500000
O O11 0.000000 0.323589 0.000000
O O12 0.500000 0.553653 0.500000
O O13 0.386604 0.500000 0.188514
#
# Coordination Sequence:
#
# PCOD8087266 Si02
#       6
#     8   4   8   8   8   8
#     4  10  20  33  51  70 103 136 173 212 258 306
#     4  10  21  34  58  76 112 138 173 214 264 314
#     4  10  19  32  48  75 103 141 167 208 250 312
#     4  11  21  30  48  75 106 141 171 206 248 318
#     4  11  20  31  48  74 107 136 173 206 250 314
#     4  10  22  36  55  77 103 135 178 224 263 307
#
# _framework density 17.196421000000001
#
# number of rings (size 3 to 8) (size 9 to 14) (size 15 to 20)
#    0.000    1.636    0.909    7.364    7.636    0.000 
#    0.000    0.000    0.000    0.545    0.000    0.000 
#    0.000    8.364    0.000    0.000    0.000    0.000 
#
# Total GULP energy -272576.369380 kJ/mol
# GULP energy per Si atom -12389.834972 kJ/mol
# Density = 1.715728 g / cm^3
# Si number density = 17.196421 Si / 1000 Ang^3
#
#
#
# Elastic Constant Matrix: (Units=GPa)
#
#
# Indices 1 2 3 4 5 6 
#
# 1 112.1243 57.1584 38.6593 0.0000 21.9903 0.0000
# 2 57.1584 108.1965 35.7163 0.0000 3.4501 0.0000
# 3 38.6593 35.7163 76.2656 0.0000 13.2280 0.0000
# 4 0.0000 0.0000 0.0000 20.7256 0.0000 -4.7423
# 5 21.9903 3.4501 13.2280 0.0000 25.8637 0.0000
# 6 0.0000 0.0000 0.0000 -4.7423 0.0000 22.0145
#
#
#
# Elastic Compliance Matrix: (Units=1/GPa)
#
#
# Indices 1 2 3 4 5 6 
#
# 1 0.015547 -0.006965 -0.002730 0.000000 -0.010893 0.000000
# 2 -0.006965 0.014091 -0.004137 0.000000 0.006158 0.000000
# 3 -0.002730 -0.004137 0.017486 0.000000 -0.006071 0.000000
# 4 0.000000 0.000000 0.000000 0.050751 0.000000 0.010933
# 5 -0.010893 0.006158 -0.006071 0.000000 0.050209 0.000000
# 6 0.000000 0.000000 0.000000 0.010933 0.000000 0.047780
#
#
# Mechanical properties :
#
#
# Convention : Reuss Voigt Hill
#
# Bulk Modulus (GPa) = 51.38286 62.18381 56.78334
# Shear Modulus (GPa) = 21.73795 24.72426 23.23111
#
# Velocity S-wave (km/s) = 3.55927 3.79589 3.67948
# Velocity P-wave (km/s) = 6.84369 7.44655 7.15147
#
# Compressibility (1/GPa) = 0.01946174
#
# Stress axis : x y z
#
# Youngs Moduli (GPa) = 64.32265 70.96781 57.18904
#
# Poissons Ratio (x) = 0.49426 0.15610
# Poissons Ratio (y) = 0.44798 0.23657
# Poissons Ratio (z) = 0.17558 0.29357
#
# Static dielectric constant tensor:
#      x y z
#    x 3.592220 0.000000 -0.014290 
#    y 0.000000 3.298320 0.000000 
#    z -0.014290 0.000000 3.238060 
# 
# 
# High freq. dielectric constant tensor:
#      x y z
#    x 1.677020 0.000000 -0.010620 
#    y 0.000000 1.618910 0.000000 
#    z -0.010620 0.000000 1.674260 
# 
# From -- ./inp_files/63691.got.cif
#   From: 2010.06.25/outbox.cif.g09.slc.cpg/sg12_32_cif.got.tgz:63691.got - 2010.06.28 00:19:55.
