data_PCOD8087197
_publ_section_title
;
Structure prediction by ZEFSAII (Michael W. Deem and Ramdas Pophale) SiO2 
 PCOD8087197
Probable space group: C 2/M
;
_chemical_formula_sum "Si O2"
_cell_formula_units_Z 56
_cell_length_a 25.074671
_cell_length_b 13.530427
_cell_length_c 19.673207
_cell_angle_alpha 90.000000
_cell_angle_beta 150.548568
_cell_angle_gamma 90.000000
_cell_volume 3281.779543
_symmetry_space_group_name_H-M "C 2/M"
_symmetry_group_IT_number 12
_symmetry_cell_setting 'monoclinic'
loop_
_space_group_symop_operation_xyz
x,y,z
-x,y,-z
-x,-y,-z
x,-y,z
1/2+x,1/2+y,z
1/2-x,1/2+y,-z
1/2-x,1/2-y,-z
1/2+x,1/2-y,z
loop_
_atom_site_type_symbol
_atom_site_label
_atom_site_fract_x
_atom_site_fract_y
_atom_site_fract_z
Si Si1 0.920233 0.806561 0.057544
Si Si2 0.338104 0.303817 0.684040
Si Si3 0.163912 0.610089 0.395805
Si Si4 0.582477 0.888279 0.879897
Si Si5 0.780735 0.616488 0.096609
Si Si6 0.392535 0.112847 0.351971
Si Si7 0.324083 0.386783 0.813578
O O1 0.906072 0.686692 0.043901
O O2 0.043835 0.834504 0.214269
O O3 0.844427 0.852417 0.032451
O O4 0.895055 0.846396 0.954772
O O5 0.244853 0.372258 0.548705
O O6 0.313221 0.189046 0.638631
O O7 0.343000 0.316922 0.770255
O O8 0.184836 0.500000 0.389776
O O9 0.040096 0.617497 0.285799
O O10 0.667878 0.850604 0.917683
O O11 0.609734 0.000000 0.934130
O O12 0.786228 0.500000 0.109793
O O13 0.850215 0.664581 0.235758
O O14 0.500000 0.167331 0.500000
O O15 0.302158 0.118866 0.309541
O O16 0.422212 0.000000 0.367424
O O17 0.359225 0.500000 0.837611
#
# Coordination Sequence:
#
# PCOD8087197 Si02
#       7
#     8   8   8   8   8   8   8
#     4  10  19  32  46  69 101 124 155 196 233 283
#     4  10  20  32  49  72  96 126 159 190 233 287
#     4   9  19  34  50  70  95 123 159 200 234 270
#     4   9  18  32  50  68  91 125 163 200 234 271
#     4   9  17  28  45  69  96 124 154 190 234 279
#     4   8  15  26  41  66  95 119 147 185 228 276
#     4  10  20  31  47  71  97 124 153 190 238 286
#
# _framework density 17.063912999999999
#
# number of rings (size 3 to 8) (size 9 to 14) (size 15 to 20)
#    0.000    2.714    0.000    2.571    2.000    2.857 
#    0.000    0.714    0.000    3.429    0.000    0.000 
#    0.000    3.429    0.000    0.000    0.000    0.000 
#
# Total GULP energy -347003.312086 kJ/mol
# GULP energy per Si atom -12392.975432 kJ/mol
# Density = 1.702507 g / cm^3
# Si number density = 17.063913 Si / 1000 Ang^3
#
#
#
# Elastic Constant Matrix: (Units=GPa)
#
#
# Indices 1 2 3 4 5 6 
#
# 1 62.1311 41.7251 24.3219 0.0000 -3.4110 0.0000
# 2 41.7251 61.5129 23.9709 0.0000 -7.3244 0.0000
# 3 24.3219 23.9709 74.0891 0.0000 8.0970 0.0000
# 4 0.0000 0.0000 0.0000 20.8432 0.0000 -0.3173
# 5 -3.4110 -7.3244 8.0970 0.0000 18.2979 0.0000
# 6 0.0000 0.0000 0.0000 -0.3173 0.0000 23.2494
#
#
#
# Elastic Compliance Matrix: (Units=1/GPa)
#
#
# Indices 1 2 3 4 5 6 
#
# 1 0.030467 -0.019258 -0.003730 0.000000 -0.000379 0.000000
# 2 -0.019258 0.032972 -0.005670 0.000000 0.012117 0.000000
# 3 -0.003730 -0.005670 0.017738 0.000000 -0.010814 0.000000
# 4 0.000000 0.000000 0.000000 0.047987 0.000000 0.000655
# 5 -0.000379 0.012117 -0.010814 0.000000 0.064216 0.000000
# 6 0.000000 0.000000 0.000000 0.000655 0.000000 0.043021
#
#
# Mechanical properties :
#
#
# Convention : Reuss Voigt Hill
#
# Bulk Modulus (GPa) = 41.90792 41.97433 41.94113
# Shear Modulus (GPa) = 16.57434 19.65911 18.11673
#
# Velocity S-wave (km/s) = 3.11997 3.39792 3.26191
# Velocity P-wave (km/s) = 6.13120 6.32821 6.23048
#
# Compressibility (1/GPa) = 0.02386184
#
# Stress axis : x y z
#
# Youngs Moduli (GPa) = 32.82218 30.32863 56.37624
#
# Poissons Ratio (x) = 0.58407 0.21026
# Poissons Ratio (y) = 0.63209 0.31966
# Poissons Ratio (z) = 0.12241 0.17197
#
# Static dielectric constant tensor:
#      x y z
#    x 3.161640 0.000000 0.180130 
#    y 0.000000 3.144600 0.000000 
#    z 0.180130 0.000000 3.351080 
# 
# 
# High freq. dielectric constant tensor:
#      x y z
#    x 1.647360 0.000000 0.019770 
#    y 0.000000 1.640000 0.000000 
#    z 0.019770 0.000000 1.660630 
# 
# From -- ./inp_files/327631.got.cif
#   From: 2010.06.25/outbox.cif.g09.slc.cpg/sg12_164_cif.got.tgz:327631.got - 2010.06.28 00:19:55.
