data_PCOD8087668
_publ_section_title
;
Structure prediction by ZEFSAII (Michael W. Deem and Ramdas Pophale) SiO2 
 PCOD8087668
Probable space group: C 2/M
;
_chemical_formula_sum "Si O2"
_cell_formula_units_Z 56
_cell_length_a 21.406455
_cell_length_b 32.599474
_cell_length_c 9.168096
_cell_angle_alpha 90.000000
_cell_angle_beta 28.804189
_cell_angle_gamma 90.000000
_cell_volume 3082.600783
_symmetry_space_group_name_H-M "C 2/M"
_symmetry_group_IT_number 12
_symmetry_cell_setting 'monoclinic'
loop_
_space_group_symop_operation_xyz
x,y,z
-x,y,-z
-x,-y,-z
x,-y,z
1/2+x,1/2+y,z
1/2-x,1/2+y,-z
1/2-x,1/2-y,-z
1/2+x,1/2-y,z
loop_
_atom_site_type_symbol
_atom_site_label
_atom_site_fract_x
_atom_site_fract_y
_atom_site_fract_z
Si Si1 0.246483 0.186670 0.382486
Si Si2 0.244793 0.953009 0.650911
Si Si3 0.615781 0.232223 0.651304
Si Si4 0.494255 0.547239 0.344183
Si Si5 0.210275 0.093406 0.433534
Si Si6 0.997504 0.324026 0.677569
Si Si7 0.995136 0.402994 0.176324
O O1 0.282767 0.203076 0.470635
O O2 0.153308 0.222591 0.518067
O O3 0.182239 0.141676 0.520517
O O4 0.358021 0.182784 0.034191
O O5 0.185800 0.928936 0.635564
O O6 0.389280 0.939024 0.403721
O O7 0.258069 0.000000 0.578442
O O8 0.141181 0.946067 0.990097
O O9 0.589263 0.211049 0.551760
O O10 0.500000 0.237302 0.000000
O O11 0.500000 0.559833 0.500000
O O12 0.450848 0.500000 0.410055
O O13 0.390075 0.576531 0.479722
O O14 0.358690 0.083362 0.078952
O O15 0.052657 0.367890 0.616466
O O16 0.000000 0.321543 0.500000
O O17 0.000000 0.385266 0.000000
#
# Coordination Sequence:
#
# PCOD8087668 Si02
#       7
#     8   8   8   8   8   8   8
#     4   9  19  34  52  75  99 130 171 211 255 304
#     4  10  20  34  55  81 105 132 172 219 261 304
#     4   9  17  33  53  72  99 133 168 207 254 307
#     4  10  22  38  52  71 106 146 175 206 257 315
#     4  10  19  34  56  80 104 132 173 220 259 303
#     4  10  19  32  51  74 103 135 166 207 257 305
#     4   9  19  35  56  80 105 133 172 217 261 309
#
# _framework density 18.166478999999999
#
# number of rings (size 3 to 8) (size 9 to 14) (size 15 to 20)
#    0.000    2.429    0.000    3.857    0.000    8.286 
#    0.000    2.143    0.000    3.000    0.000    0.000 
#    0.000    0.000    0.000    0.000    0.000    0.000 
#
# Total GULP energy -346979.263118 kJ/mol
# GULP energy per Si atom -12392.116540 kJ/mol
# Density = 1.812513 g / cm^3
# Si number density = 18.166479 Si / 1000 Ang^3
#
#
#
# Elastic Constant Matrix: (Units=GPa)
#
#
# Indices 1 2 3 4 5 6 
#
# 1 100.7188 68.2824 45.7260 0.0001 11.6008 -0.0001
# 2 68.2824 149.9420 47.8385 0.0000 4.3765 0.0000
# 3 45.7260 47.8385 58.5984 0.0001 6.1826 -0.0002
# 4 0.0001 0.0000 0.0001 28.0388 -0.0001 -7.4191
# 5 11.6008 4.3765 6.1826 -0.0001 30.6604 0.0001
# 6 -0.0001 0.0000 -0.0002 -7.4191 0.0001 26.2295
#
#
#
# Elastic Compliance Matrix: (Units=1/GPa)
#
#
# Indices 1 2 3 4 5 6 
#
# 1 0.018254 -0.005121 -0.009617 0.000000 -0.004237 0.000000
# 2 -0.005121 0.010456 -0.004687 0.000000 0.001390 0.000000
# 3 -0.009617 -0.004687 0.028548 0.000000 -0.001449 0.000000
# 4 0.000000 0.000000 0.000000 0.038550 0.000000 0.010904
# 5 -0.004237 0.001390 -0.001449 0.000000 0.034312 0.000000
# 6 0.000000 0.000000 0.000000 0.010904 0.000000 0.041209
#
#
# Mechanical properties :
#
#
# Convention : Reuss Voigt Hill
#
# Bulk Modulus (GPa) = 54.31801 70.32809 62.32305
# Shear Modulus (GPa) = 23.11435 26.81321 24.96378
#
# Velocity S-wave (km/s) = 3.57089 3.84601 3.71100
# Velocity P-wave (km/s) = 6.85323 7.64980 7.26244
#
# Compressibility (1/GPa) = 0.01841010
#
# Stress axis : x y z
#
# Youngs Moduli (GPa) = 54.78137 95.63868 35.02817
#
# Poissons Ratio (x) = 0.48977 0.33685
# Poissons Ratio (y) = 0.28054 0.16416
# Poissons Ratio (z) = 0.52681 0.44822
#
# Static dielectric constant tensor:
#      x y z
#    x 3.281300 0.000000 -0.146050 
#    y 0.000000 3.547030 0.000000 
#    z -0.146050 0.000000 3.295870 
# 
# 
# High freq. dielectric constant tensor:
#      x y z
#    x 1.689920 0.000000 -0.006030 
#    y 0.000000 1.713650 0.000000 
#    z -0.006030 0.000000 1.696030 
# 
# From -- ./inp_files/91562.got.cif
#   From: 2010.06.25/outbox.cif.g09.slc.cpg/sg12_46_cif.got.tgz:91562.got - 2010.06.28 00:19:55.
