data_PCOD8087530
_publ_section_title
;
Structure prediction by ZEFSAII (Michael W. Deem and Ramdas Pophale) SiO2 
 PCOD8087530
Probable space group: C 2/M
;
_chemical_formula_sum "Si O2"
_cell_formula_units_Z 56
_cell_length_a 29.518472
_cell_length_b 8.992132
_cell_length_c 11.848393
_cell_angle_alpha 90.000000
_cell_angle_beta 70.973547
_cell_angle_gamma 90.000000
_cell_volume 2973.151020
_symmetry_space_group_name_H-M "C 2/M"
_symmetry_group_IT_number 12
_symmetry_cell_setting 'monoclinic'
loop_
_space_group_symop_operation_xyz
x,y,z
-x,y,-z
-x,-y,-z
x,-y,z
1/2+x,1/2+y,z
1/2-x,1/2+y,-z
1/2-x,1/2-y,-z
1/2+x,1/2-y,z
loop_
_atom_site_type_symbol
_atom_site_label
_atom_site_fract_x
_atom_site_fract_y
_atom_site_fract_z
Si Si1 0.560356 0.822161 0.860566
Si Si2 0.270210 0.325674 0.285284
Si Si3 0.205028 0.174116 0.981719
Si Si4 0.838213 0.326607 0.620489
Si Si5 0.536466 0.324097 0.109432
Si Si6 0.880695 0.172948 0.794594
Si Si7 0.348506 0.172835 0.357836
O O1 0.514457 0.755516 0.832635
O O2 0.606627 0.772010 0.752215
O O3 0.555463 0.000000 0.874308
O O4 0.563978 0.748344 0.980747
O O5 0.268576 0.500000 0.309778
O O6 0.297748 0.283525 0.147678
O O7 0.215910 0.262959 0.324519
O O8 0.299424 0.252837 0.363226
O O9 0.211971 0.000000 0.990555
O O10 0.250000 0.250000 0.000000
O O11 0.157449 0.232158 0.082284
O O12 0.837798 0.500000 0.647371
O O13 0.873986 0.252706 0.680821
O O14 0.858996 0.290879 0.479945
O O15 0.530408 0.500000 0.092070
O O16 0.566731 0.293659 0.198230
O O17 0.872934 0.000000 0.779791
O O18 0.339532 0.000000 0.346574
#
# Coordination Sequence:
#
# PCOD8087530 Si02
#       7
#     8   8   8   8   8   8   8
#     4  10  20  36  57  83 110 136 174 220 267 319
#     4  10  20  34  54  79 106 141 182 222 265 314
#     4  10  19  32  50  76 107 136 169 212 259 309
#     4  10  21  37  54  75 107 145 184 221 260 312
#     4  10  20  36  59  84 109 137 171 217 271 321
#     4  10  21  35  53  79 110 141 176 217 266 319
#     4  10  22  37  54  78 107 141 181 223 265 313
#
# _framework density 18.835235999999998
#
# number of rings (size 3 to 8) (size 9 to 14) (size 15 to 20)
#    0.000    2.000    1.429    3.000    0.000    5.143 
#    0.000    0.714    0.000    4.286    0.000    0.000 
#    0.000    0.000    0.000    0.000    0.000    0.000 
#
# Total GULP energy -347232.234149 kJ/mol
# GULP energy per Si atom -12401.151220 kJ/mol
# Density = 1.879237 g / cm^3
# Si number density = 18.835236 Si / 1000 Ang^3
#
#
#
# Elastic Constant Matrix: (Units=GPa)
#
#
# Indices 1 2 3 4 5 6 
#
# 1 118.6302 40.1936 49.3587 0.0000 20.2913 0.0000
# 2 40.1936 53.3250 33.2617 0.0000 9.7342 0.0000
# 3 49.3587 33.2617 83.4132 0.0000 9.6234 0.0000
# 4 0.0000 0.0000 0.0000 25.4674 0.0000 6.6292
# 5 20.2913 9.7342 9.6234 0.0000 28.0775 0.0000
# 6 0.0000 0.0000 0.0000 6.6292 0.0000 32.3516
#
#
#
# Elastic Compliance Matrix: (Units=1/GPa)
#
#
# Indices 1 2 3 4 5 6 
#
# 1 0.013553 -0.006054 -0.004912 0.000000 -0.006012 0.000000
# 2 -0.006054 0.028496 -0.007440 0.000000 -0.002954 0.000000
# 3 -0.004912 -0.007440 0.017861 0.000000 0.000007 0.000000
# 4 0.000000 0.000000 0.000000 0.041478 0.000000 -0.008499
# 5 -0.006012 -0.002954 0.000007 0.000000 0.040982 0.000000
# 6 0.000000 0.000000 0.000000 -0.008499 0.000000 0.032652
#
#
# Mechanical properties :
#
#
# Convention : Reuss Voigt Hill
#
# Bulk Modulus (GPa) = 43.29359 55.66627 49.47993
# Shear Modulus (GPa) = 22.77555 26.01624 24.39589
#
# Velocity S-wave (km/s) = 3.48113 3.72055 3.60283
# Velocity P-wave (km/s) = 6.26043 6.93363 6.60561
#
# Compressibility (1/GPa) = 0.02309811
#
# Stress axis : x y z
#
# Youngs Moduli (GPa) = 73.78508 35.09258 55.98809
#
# Poissons Ratio (x) = 0.21245 0.27501
# Poissons Ratio (y) = 0.44670 0.41654
# Poissons Ratio (z) = 0.36243 0.26108
#
# Static dielectric constant tensor:
#      x y z
#    x 3.467830 0.000000 -0.092010 
#    y 0.000000 3.372570 0.000000 
#    z -0.092010 0.000000 3.569830 
# 
# 
# High freq. dielectric constant tensor:
#      x y z
#    x 1.733350 0.000000 0.005060 
#    y 0.000000 1.726920 0.000000 
#    z 0.005060 0.000000 1.728160 
# 
# From -- ./inp_files/180701.got.cif
#   From: 2010.06.25/outbox.cif.g09.slc.cpg/sg12_91_cif.got.tgz:180701.got - 2010.06.28 00:19:55.
