data_PCOD8087620
_publ_section_title
;
Structure prediction by ZEFSAII (Michael W. Deem and Ramdas Pophale) SiO2 
 PCOD8087620
Probable space group: C 2/M
;
_chemical_formula_sum "Si O2"
_cell_formula_units_Z 64
_cell_length_a 18.162518
_cell_length_b 9.223248
_cell_length_c 30.681925
_cell_angle_alpha 90.000000
_cell_angle_beta 42.228948
_cell_angle_gamma 90.000000
_cell_volume 3454.403575
_symmetry_space_group_name_H-M "C 2/M"
_symmetry_group_IT_number 12
_symmetry_cell_setting 'monoclinic'
loop_
_space_group_symop_operation_xyz
x,y,z
-x,y,-z
-x,-y,-z
x,-y,z
1/2+x,1/2+y,z
1/2-x,1/2+y,-z
1/2-x,1/2-y,-z
1/2+x,1/2-y,z
loop_
_atom_site_type_symbol
_atom_site_label
_atom_site_fract_x
_atom_site_fract_y
_atom_site_fract_z
Si Si1 0.328420 0.327912 0.570977
Si Si2 0.122209 0.829572 0.935201
Si Si3 0.509241 0.672129 0.427241
Si Si4 0.283671 0.829120 0.941680
Si Si5 0.913514 0.672636 0.307270
Si Si6 0.184863 0.668201 0.820708
Si Si7 0.027196 0.671747 0.814322
Si Si8 0.563735 0.331609 0.308243
O O1 0.326643 0.500000 0.574856
O O2 0.392700 0.267325 0.585213
O O3 0.392423 0.278897 0.499012
O O4 0.204479 0.269187 0.624466
O O5 0.199816 0.783267 0.940830
O O6 0.165793 0.752866 0.873312
O O7 0.126146 0.000000 0.924905
O O8 0.000000 0.776941 0.000000
O O9 0.518295 0.500000 0.422103
O O10 0.521051 0.731980 0.373160
O O11 0.403649 0.773788 0.875456
O O12 0.281745 0.000000 0.950924
O O13 0.250000 0.750000 0.000000
O O14 0.923225 0.500000 0.306023
O O15 0.929625 0.729016 0.250962
O O16 0.008186 0.740817 0.294671
O O17 0.160600 0.500000 0.840188
O O18 0.103897 0.732342 0.819292
O O19 0.307010 0.692979 0.750245
O O20 0.033094 0.500000 0.811821
O O21 0.533200 0.500000 0.315990
#
# Coordination Sequence:
#
# PCOD8087620 Si02
#       8
#     8   8   8   8   8   8   8   8
#     4   8  14  26  48  74  94 123 169 208 239 283
#     4  10  21  36  53  76 106 134 158 192 245 299
#     4   8  14  27  47  71  99 127 161 208 249 281
#     4  10  20  34  52  73  98 128 160 195 237 283
#     4  10  19  32  51  73  98 129 165 202 241 293
#     4  10  20  34  53  74  95 126 169 208 241 283
#     4   9  18  33  52  72  94 123 162 205 241 274
#     4  10  20  32  47  71 102 130 157 199 253 295
#
# _framework density 18.527076999999998
#
# number of rings (size 3 to 8) (size 9 to 14) (size 15 to 20)
#    0.000    2.625    0.000    3.000    0.000    5.750 
#    0.000    1.250    0.000    2.250    0.000    1.750 
#    0.000    0.000    0.000    0.000    0.000    0.000 
#
# Total GULP energy -396773.677305 kJ/mol
# GULP energy per Si atom -12399.177416 kJ/mol
# Density = 1.848491 g / cm^3
# Si number density = 18.527077 Si / 1000 Ang^3
#
#
#
# Elastic Constant Matrix: (Units=GPa)
#
#
# Indices 1 2 3 4 5 6 
#
# 1 152.3608 33.4739 77.1122 0.0002 4.5807 0.0012
# 2 33.4739 23.0238 32.3063 0.0019 4.7906 0.0044
# 3 77.1122 32.3063 145.5219 0.0000 9.0105 0.0000
# 4 0.0002 0.0019 0.0000 19.0115 0.0000 4.3408
# 5 4.5807 4.7906 9.0105 0.0000 41.4627 0.0003
# 6 0.0012 0.0044 0.0000 4.3408 0.0003 22.1354
#
#
#
# Elastic Compliance Matrix: (Units=1/GPa)
#
#
# Indices 1 2 3 4 5 6 
#
# 1 0.010594 -0.011072 -0.003206 0.000001 0.000806 0.000001
# 2 -0.011072 0.075423 -0.010555 -0.000004 -0.005197 -0.000013
# 3 -0.003206 -0.010555 0.010964 0.000001 -0.000809 0.000002
# 4 0.000001 -0.000004 0.000001 0.055065 0.000000 -0.010798
# 5 0.000806 -0.005197 -0.000809 0.000000 0.024805 0.000001
# 6 0.000001 -0.000013 0.000002 -0.010798 0.000001 0.047294
#
#
# Mechanical properties :
#
#
# Convention : Reuss Voigt Hill
#
# Bulk Modulus (GPa) = 21.13490 67.41015 44.27252
# Shear Modulus (GPa) = 17.26616 28.38951 22.82784
#
# Velocity S-wave (km/s) = 3.05608 3.91874 3.51398
# Velocity P-wave (km/s) = 4.88725 7.54579 6.35705
#
# Compressibility (1/GPa) = 0.04731510
#
# Stress axis : x y z
#
# Youngs Moduli (GPa) = 94.39151 13.25853 91.20851
#
# Poissons Ratio (x) = 0.14680 0.29239
# Poissons Ratio (y) = 1.04512 0.96272
# Poissons Ratio (z) = 0.30259 0.13995
#
# Static dielectric constant tensor:
#      x y z
#    x 3.622010 0.000000 -0.091290 
#    y 0.000000 2.936180 0.000000 
#    z -0.091290 0.000000 3.738560 
# 
# 
# High freq. dielectric constant tensor:
#      x y z
#    x 1.730170 0.000000 -0.001330 
#    y 0.000000 1.667360 0.000000 
#    z -0.001330 0.000000 1.738480 
# 
# From -- ./inp_files/378011.got.cif
#   From: 2010.06.25/outbox.cif.g09.slc.cpg/sg12_190_cif.got.tgz:378011.got - 2010.06.28 00:19:55.
