data_PCOD8087677
_publ_section_title
;
Structure prediction by ZEFSAII (Michael W. Deem and Ramdas Pophale) SiO2 
 PCOD8087677
Probable space group: C 2/M
;
_chemical_formula_sum "Si O2"
_cell_formula_units_Z 56
_cell_length_a 30.770521
_cell_length_b 13.687733
_cell_length_c 9.348461
_cell_angle_alpha 90.000000
_cell_angle_beta 130.348628
_cell_angle_gamma 90.000000
_cell_volume 3000.746777
_symmetry_space_group_name_H-M "C 2/M"
_symmetry_group_IT_number 12
_symmetry_cell_setting 'monoclinic'
loop_
_space_group_symop_operation_xyz
x,y,z
-x,y,-z
-x,-y,-z
x,-y,z
1/2+x,1/2+y,z
1/2-x,1/2+y,-z
1/2-x,1/2-y,-z
1/2+x,1/2-y,z
loop_
_atom_site_type_symbol
_atom_site_label
_atom_site_fract_x
_atom_site_fract_y
_atom_site_fract_z
Si Si1 0.332984 0.888043 0.844748
Si Si2 0.126559 0.110748 0.587515
Si Si3 0.178432 0.612450 0.511794
Si Si4 0.555629 0.389066 0.704952
Si Si5 0.942246 0.727833 0.057550
Si Si6 0.931474 0.730108 0.709213
Si Si7 0.760049 0.227439 0.185843
O O1 0.312628 0.872784 0.638338
O O2 0.296310 0.819933 0.869345
O O3 0.326294 0.000000 0.877529
O O4 0.399190 0.859045 0.007565
O O5 0.111315 0.117764 0.722672
O O6 0.079438 0.171010 0.400563
O O7 0.189077 0.150770 0.688923
O O8 0.123754 0.000000 0.526645
O O9 0.185116 0.500000 0.570496
O O10 0.115394 0.647457 0.424870
O O11 0.226087 0.673424 0.698301
O O12 0.500000 0.352883 0.500000
O O13 0.545981 0.500000 0.737837
O O14 0.567761 0.321840 0.866035
O O15 0.006963 0.687438 0.206306
O O16 0.929472 0.761952 0.869666
O O17 0.750000 0.250000 0.000000
#
# Coordination Sequence:
#
# PCOD8087677 Si02
#       7
#     8   8   8   8   8   8   8
#     4  10  21  38  58  81 109 144 181 222 269 321
#     4  10  20  35  53  76 106 141 178 219 269 319
#     4   9  20  38  59  81 108 141 181 224 271 323
#     4  10  19  32  51  74 105 143 178 214 263 317
#     4  10  19  34  54  79 110 140 179 220 265 318
#     4   9  19  33  54  81 107 139 176 223 270 314
#     4  11  22  37  58  81 109 143 180 226 272 323
#
# _framework density 18.662020999999999
#
# number of rings (size 3 to 8) (size 9 to 14) (size 15 to 20)
#    0.000    2.143    1.429    1.714    0.000    2.286 
#    0.000    5.000    0.000    0.429    0.000    0.000 
#    0.000    0.000    0.000    0.000    0.000    0.000 
#
# Total GULP energy -347243.206064 kJ/mol
# GULP energy per Si atom -12401.543074 kJ/mol
# Density = 1.861955 g / cm^3
# Si number density = 18.662021 Si / 1000 Ang^3
#
#
#
# Elastic Constant Matrix: (Units=GPa)
#
#
# Indices 1 2 3 4 5 6 
#
# 1 106.9418 59.2512 40.4747 0.0000 6.8890 0.0000
# 2 59.2512 135.6169 58.4033 0.0000 -3.3720 0.0000
# 3 40.4747 58.4033 85.5262 0.0000 2.3856 0.0000
# 4 0.0000 0.0000 0.0000 26.9035 0.0000 -2.1973
# 5 6.8890 -3.3720 2.3856 0.0000 25.1906 0.0000
# 6 0.0000 0.0000 0.0000 -2.1973 0.0000 26.3513
#
#
#
# Elastic Compliance Matrix: (Units=1/GPa)
#
#
# Indices 1 2 3 4 5 6 
#
# 1 0.013309 -0.004602 -0.003045 0.000000 -0.003967 0.000000
# 2 -0.004602 0.012146 -0.006214 0.000000 0.003473 0.000000
# 3 -0.003045 -0.006214 0.017422 0.000000 -0.001649 0.000000
# 4 0.000000 0.000000 0.000000 0.037425 0.000000 0.003121
# 5 -0.003967 0.003473 -0.001649 0.000000 0.041403 0.000000
# 6 0.000000 0.000000 0.000000 0.003121 0.000000 0.038209
#
#
# Mechanical properties :
#
#
# Convention : Reuss Voigt Hill
#
# Bulk Modulus (GPa) = 65.97804 71.59370 68.78587
# Shear Modulus (GPa) = 25.94874 27.01946 26.48410
#
# Velocity S-wave (km/s) = 3.73293 3.80917 3.77124
# Velocity P-wave (km/s) = 7.34919 7.60217 7.47675
#
# Compressibility (1/GPa) = 0.01515656
#
# Stress axis : x y z
#
# Youngs Moduli (GPa) = 75.13957 82.32856 57.39725
#
# Poissons Ratio (x) = 0.37886 0.17478
# Poissons Ratio (y) = 0.34578 0.35664
# Poissons Ratio (z) = 0.22881 0.51155
#
# Static dielectric constant tensor:
#      x y z
#    x 3.602880 0.000000 0.085970 
#    y 0.000000 3.335370 0.000000 
#    z 0.085970 0.000000 3.388260 
# 
# 
# High freq. dielectric constant tensor:
#      x y z
#    x 1.736680 0.000000 0.004180 
#    y 0.000000 1.717360 0.000000 
#    z 0.004180 0.000000 1.717040 
# 
# From -- ./inp_files/111588.got.cif
#   From: 2010.06.25/outbox.cif.g09.slc.cpg/sg12_56_cif.got.tgz:111588.got - 2010.06.28 00:19:55.
