data_PCOD8087003
_publ_section_title
;
Structure prediction by ZEFSAII (Michael W. Deem and Ramdas Pophale) SiO2 
 PCOD8087003
Probable space group: C 2/M
;
_chemical_formula_sum "Si O2"
_cell_formula_units_Z 64
_cell_length_a 24.330657
_cell_length_b 8.909823
_cell_length_c 16.531206
_cell_angle_alpha 90.000000
_cell_angle_beta 94.397310
_cell_angle_gamma 90.000000
_cell_volume 3573.116330
_symmetry_space_group_name_H-M "C 2/M"
_symmetry_group_IT_number 12
_symmetry_cell_setting 'monoclinic'
loop_
_space_group_symop_operation_xyz
x,y,z
-x,y,-z
-x,-y,-z
x,-y,z
1/2+x,1/2+y,z
1/2-x,1/2+y,-z
1/2-x,1/2-y,-z
1/2+x,1/2-y,z
loop_
_atom_site_type_symbol
_atom_site_label
_atom_site_fract_x
_atom_site_fract_y
_atom_site_fract_z
Si Si1 0.597692 0.175205 0.546867
Si Si2 0.376885 0.675089 0.205598
Si Si3 0.670376 0.825649 0.944525
Si Si4 0.707269 0.674784 0.104092
Si Si5 0.696591 0.175796 0.671040
Si Si6 0.695161 0.822497 0.275389
Si Si7 0.087998 0.323473 0.362395
Si Si8 0.975922 0.173833 0.331308
O O1 0.657964 0.211605 0.589951
O O2 0.597209 0.233008 0.455106
O O3 0.549943 0.258441 0.590286
O O4 0.584605 0.000000 0.552165
O O5 0.361463 0.500000 0.204565
O O6 0.375528 0.740625 0.114676
O O7 0.331411 0.764971 0.250786
O O8 0.437080 0.704246 0.249691
O O9 0.729319 0.796698 0.910169
O O10 0.655530 0.000000 0.948866
O O11 0.668690 0.754876 0.033509
O O12 0.692792 0.500000 0.104345
O O13 0.693848 0.746913 0.188147
O O14 0.754179 0.261042 0.665138
O O15 0.707791 0.000000 0.683327
O O16 0.639970 0.774337 0.315331
O O17 0.700656 0.000000 0.266649
O O18 0.079433 0.500000 0.359786
O O19 0.034255 0.248020 0.317910
O O20 0.984558 0.000000 0.348305
#
# Coordination Sequence:
#
# PCOD8087003 Si02
#       8
#     8   8   8   8   8   8   8   8
#     4   9  19  36  56  76 103 136 175 221 266 315
#     4  10  19  32  52  78 109 138 168 213 265 310
#     4  10  19  31  52  81 109 137 172 209 254 308
#     4  10  20  33  51  77 109 141 172 208 255 308
#     4  10  19  32  51  76 104 138 175 213 262 313
#     4  11  22  35  52  74 107 143 177 215 257 312
#     4  10  22  38  54  74 101 142 183 216 262 314
#     4  10  21  35  54  81 106 133 174 224 269 306
#
# _framework density 17.911535000000001
#
# number of rings (size 3 to 8) (size 9 to 14) (size 15 to 20)
#    0.000    2.000    1.250    2.625    0.000    6.500 
#    0.000    0.000    0.000    0.750    0.000    5.250 
#    0.000    0.000    0.000    0.000    0.000    0.000 
#
# Total GULP energy -396913.739109 kJ/mol
# GULP energy per Si atom -12403.554347 kJ/mol
# Density = 1.787077 g / cm^3
# Si number density = 17.911535 Si / 1000 Ang^3
#
#
#
# Elastic Constant Matrix: (Units=GPa)
#
#
# Indices 1 2 3 4 5 6 
#
# 1 112.1428 40.7909 46.7344 0.0000 2.0355 0.0000
# 2 40.7909 61.2971 35.1236 0.0000 3.2110 0.0000
# 3 46.7344 35.1236 79.1969 0.0000 14.9014 0.0000
# 4 0.0000 0.0000 0.0000 26.6997 0.0000 4.8198
# 5 2.0355 3.2110 14.9014 0.0000 20.9349 0.0000
# 6 0.0000 0.0000 0.0000 4.8198 0.0000 30.5190
#
#
#
# Elastic Compliance Matrix: (Units=1/GPa)
#
#
# Indices 1 2 3 4 5 6 
#
# 1 0.013476 -0.005619 -0.006207 0.000000 0.003970 0.000000
# 2 -0.005619 0.024524 -0.008031 0.000000 0.002502 0.000000
# 3 -0.006207 -0.008031 0.022523 0.000000 -0.014196 0.000000
# 4 0.000000 0.000000 0.000000 0.038553 0.000000 -0.006089
# 5 0.003970 0.002502 -0.014196 0.000000 0.057102 0.000000
# 6 0.000000 0.000000 0.000000 -0.006089 0.000000 0.033728
#
#
# Mechanical properties :
#
#
# Convention : Reuss Voigt Hill
#
# Bulk Modulus (GPa) = 48.05883 55.32606 51.69244
# Shear Modulus (GPa) = 21.13669 24.29657 22.71663
#
# Velocity S-wave (km/s) = 3.43893 3.68703 3.56514
# Velocity P-wave (km/s) = 6.53129 7.00580 6.77270
#
# Compressibility (1/GPa) = 0.02080783
#
# Stress axis : x y z
#
# Youngs Moduli (GPa) = 74.20795 40.77627 44.40001
#
# Poissons Ratio (x) = 0.22911 0.27559
# Poissons Ratio (y) = 0.41696 0.35659
# Poissons Ratio (z) = 0.46061 0.32749
#
# Static dielectric constant tensor:
#      x y z
#    x 3.241790 0.000000 0.228780 
#    y 0.000000 3.381360 0.000000 
#    z 0.228780 0.000000 3.363120 
# 
# 
# High freq. dielectric constant tensor:
#      x y z
#    x 1.673830 0.000000 0.022600 
#    y 0.000000 1.705790 0.000000 
#    z 0.022600 0.000000 1.691720 
# 
# From -- ./inp_files/238578.got.cif
#   From: 2010.06.25/outbox.cif.g09.slc.cpg/sg12_120_cif.got.tgz:238578.got - 2010.06.28 00:19:55.
