data_PCOD8087660
_publ_section_title
;
Structure prediction by ZEFSAII (Michael W. Deem and Ramdas Pophale) SiO2 
 PCOD8087660
Probable space group: C 2/M
;
_chemical_formula_sum "Si O2"
_cell_formula_units_Z 48
_cell_length_a 20.821683
_cell_length_b 8.691868
_cell_length_c 27.058171
_cell_angle_alpha 90.000000
_cell_angle_beta 149.969358
_cell_angle_gamma 90.000000
_cell_volume 2450.752395
_symmetry_space_group_name_H-M "C 2/M"
_symmetry_group_IT_number 12
_symmetry_cell_setting 'monoclinic'
loop_
_space_group_symop_operation_xyz
x,y,z
-x,y,-z
-x,-y,-z
x,-y,z
1/2+x,1/2+y,z
1/2-x,1/2+y,-z
1/2-x,1/2-y,-z
1/2+x,1/2-y,z
loop_
_atom_site_type_symbol
_atom_site_label
_atom_site_fract_x
_atom_site_fract_y
_atom_site_fract_z
Si Si1 0.879982 0.317470 0.280586
Si Si2 0.627913 0.682833 0.945529
Si Si3 0.875250 0.182855 0.944677
Si Si4 0.125659 0.182100 0.391681
Si Si5 0.623184 0.683043 0.277916
Si Si6 0.373123 0.182967 0.388908
O O1 0.897778 0.500000 0.288569
O O2 0.752413 0.259670 0.167906
O O3 0.870125 0.261831 0.330444
O O4 0.000279 0.236049 0.336414
O O5 0.634618 0.500000 0.948627
O O6 0.501553 0.745210 0.833764
O O7 0.750000 0.750000 0.000000
O O8 0.625303 0.744788 0.999801
O O9 0.880993 0.000000 0.947762
O O10 0.000000 0.250512 0.000000
O O11 0.250000 0.250000 0.500000
O O12 0.119733 0.243919 0.331624
O O13 0.134954 0.000000 0.399006
O O14 0.625473 0.500000 0.278091
O O15 0.749160 0.749614 0.334682
O O16 0.500000 0.248932 0.500000
O O17 0.372262 0.000000 0.390838
#
# Coordination Sequence:
#
# PCOD8087660 Si02
#       6
#     8   8   8   8   8   8
#     4  10  19  32  53  79 105 133 168 211 256 299
#     4  10  19  32  51  74 102 133 166 205 248 295
#     4   9  17  30  51  79 106 133 169 212 252 292
#     4  11  22  36  54  75 102 134 170 211 254 303
#     4   9  18  32  51  75 100 131 170 207 243 291
#     4   9  16  28  49  74  97 125 167 211 244 285
#
# _framework density 19.585823000000001
#
# number of rings (size 3 to 8) (size 9 to 14) (size 15 to 20)
#    0.000    2.333    0.000    3.500    0.000    6.667 
#    0.000    0.833    0.000   10.500    0.000    0.000 
#    0.000    0.000    0.000    0.000    0.000    0.000 
#
# Total GULP energy -297635.323093 kJ/mol
# GULP energy per Si atom -12401.471796 kJ/mol
# Density = 1.954125 g / cm^3
# Si number density = 19.585823 Si / 1000 Ang^3
#
#
#
# Elastic Constant Matrix: (Units=GPa)
#
#
# Indices 1 2 3 4 5 6 
#
# 1 201.1264 23.6545 109.8352 0.0001 1.4953 0.0001
# 2 23.6545 21.4469 22.4096 0.0000 -0.5334 -0.0002
# 3 109.8352 22.4096 214.7135 -0.0008 -1.0091 -0.0002
# 4 0.0001 0.0000 -0.0008 19.9160 -0.0002 6.6138
# 5 1.4953 -0.5334 -1.0091 -0.0002 49.5056 0.0000
# 6 0.0001 -0.0002 -0.0002 6.6138 0.0000 26.1274
#
#
#
# Elastic Compliance Matrix: (Units=1/GPa)
#
#
# Indices 1 2 3 4 5 6 
#
# 1 0.007296 -0.004663 -0.003247 0.000000 -0.000337 0.000000
# 2 -0.004663 0.055324 -0.003386 0.000000 0.000668 0.000000
# 3 -0.003247 -0.003386 0.006673 0.000000 0.000198 0.000000
# 4 0.000000 0.000000 0.000000 0.054819 0.000000 -0.013877
# 5 -0.000337 0.000668 0.000198 0.000000 0.020221 0.000000
# 6 0.000000 0.000000 0.000000 -0.013877 0.000000 0.041787
#
#
# Mechanical properties :
#
#
# Convention : Reuss Voigt Hill
#
# Bulk Modulus (GPa) = 21.41269 83.23171 52.32220
# Shear Modulus (GPa) = 22.29372 37.86895 30.08134
#
# Velocity S-wave (km/s) = 3.37747 4.40191 3.92327
# Velocity P-wave (km/s) = 5.11529 8.27188 6.87714
#
# Compressibility (1/GPa) = 0.04670127
#
# Stress axis : x y z
#
# Youngs Moduli (GPa) = 137.05756 18.07544 149.86198
#
# Poissons Ratio (x) = 0.08428 0.48664
# Poissons Ratio (y) = 0.63904 0.50742
# Poissons Ratio (z) = 0.44506 0.06120
#
# Static dielectric constant tensor:
#      x y z
#    x 3.827720 0.000000 -0.131430 
#    y 0.000000 3.006270 0.000000 
#    z -0.131430 0.000000 3.899510 
# 
# 
# High freq. dielectric constant tensor:
#      x y z
#    x 1.784640 0.000000 -0.000570 
#    y 0.000000 1.703400 0.000000 
#    z -0.000570 0.000000 1.786160 
# 
# From -- ./inp_files/315219.got.cif
#   From: 2010.06.25/outbox.cif.g09.slc.cpg/sg12_158_cif.got.tgz:315219.got - 2010.06.28 00:19:55.
