data_PCOD8087286
_publ_section_title
;
Structure prediction by ZEFSAII (Michael W. Deem and Ramdas Pophale) SiO2 
 PCOD8087286
Probable space group: C 2/M
;
_chemical_formula_sum "Si O2"
_cell_formula_units_Z 48
_cell_length_a 14.643138
_cell_length_b 41.265314
_cell_length_c 5.126313
_cell_angle_alpha 90.000000
_cell_angle_beta 109.386630
_cell_angle_gamma 90.000000
_cell_volume 2921.960421
_symmetry_space_group_name_H-M "C 2/M"
_symmetry_group_IT_number 12
_symmetry_cell_setting 'monoclinic'
loop_
_space_group_symop_operation_xyz
x,y,z
-x,y,-z
-x,-y,-z
x,-y,z
1/2+x,1/2+y,z
1/2-x,1/2+y,-z
1/2-x,1/2-y,-z
1/2+x,1/2-y,z
loop_
_atom_site_type_symbol
_atom_site_label
_atom_site_fract_x
_atom_site_fract_y
_atom_site_fract_z
Si Si1 0.114863 0.647987 0.585597
Si Si2 0.890798 0.251184 0.919200
Si Si3 0.890341 0.790850 0.419052
Si Si4 0.800645 0.680549 0.833454
Si Si5 0.384422 0.036604 0.887722
Si Si6 0.884977 0.574203 0.387805
O O1 0.145978 0.658237 0.325961
O O2 0.149853 0.611192 0.659263
O O3 0.000000 0.651850 0.500000
O O4 0.166944 0.670139 0.848263
O O5 0.870627 0.223704 0.685884
O O6 0.823006 0.281779 0.806447
O O7 0.871535 0.236952 0.187034
O O8 0.000000 0.264123 0.000000
O O9 0.816412 0.820983 0.305218
O O10 0.000000 0.804319 0.500000
O O11 0.343638 0.056426 0.603432
O O12 0.344376 0.000000 0.841618
O O13 0.500000 0.036283 0.000000
O O14 0.343398 0.054710 0.102360
O O15 0.000000 0.573125 0.500000
#
# Coordination Sequence:
#
# PCOD8087286 Si02
#       6
#     8   8   8   8   8   8
#     4  11  22  33  46  66  92 122 154 187 222 264
#     4  10  19  32  49  68  90 113 140 184 233 276
#     4  10  21  35  50  68  89 112 144 189 237 276
#     4  12  21  33  50  68  88 118 153 182 225 278
#     4   9  15  24  40  59  79 110 151 185 210 241
#     4   9  17  28  39  56  85 114 144 184 217 243
#
# _framework density 16.427326000000001
#
# number of rings (size 3 to 8) (size 9 to 14) (size 15 to 20)
#    0.000    1.833    0.000    6.000    0.000    6.000 
#    0.000    0.000    0.000    0.000    0.000    0.000 
#    0.000    0.000    0.000    0.000    0.000   58.333 
#
# Total GULP energy -297643.351623 kJ/mol
# GULP energy per Si atom -12401.806318 kJ/mol
# Density = 1.638994 g / cm^3
# Si number density = 16.427326 Si / 1000 Ang^3
#
#
#
# Elastic Constant Matrix: (Units=GPa)
#
#
# Indices 1 2 3 4 5 6 
#
# 1 51.7167 30.1234 23.2202 0.0000 4.5488 0.0000
# 2 30.1234 70.4414 22.7998 0.0000 5.0229 0.0000
# 3 23.2202 22.7998 90.9262 0.0000 -8.7113 0.0000
# 4 0.0000 0.0000 0.0000 8.0056 0.0000 -1.0043
# 5 4.5488 5.0229 -8.7113 0.0000 24.7370 0.0000
# 6 0.0000 0.0000 0.0000 -1.0043 0.0000 7.0657
#
#
#
# Elastic Compliance Matrix: (Units=1/GPa)
#
#
# Indices 1 2 3 4 5 6 
#
# 1 0.027819 -0.009899 -0.005091 0.000000 -0.004898 0.000000
# 2 -0.009899 0.019510 -0.002659 0.000000 -0.003077 0.000000
# 3 -0.005091 -0.002659 0.013564 0.000000 0.006253 0.000000
# 4 0.000000 0.000000 0.000000 0.127179 0.000000 0.018076
# 5 -0.004898 -0.003077 0.006253 0.000000 0.044153 0.000000
# 6 0.000000 0.000000 0.000000 0.018076 0.000000 0.144098
#
#
# Mechanical properties :
#
#
# Convention : Reuss Voigt Hill
#
# Bulk Modulus (GPa) = 39.07233 40.59677 39.83455
# Shear Modulus (GPa) = 11.90044 17.09106 14.49575
#
# Velocity S-wave (km/s) = 2.69444 3.22903 2.97377
# Velocity P-wave (km/s) = 5.78935 6.21842 6.00772
#
# Compressibility (1/GPa) = 0.02559356
#
# Stress axis : x y z
#
# Youngs Moduli (GPa) = 35.94678 51.25702 73.72530
#
# Poissons Ratio (x) = 0.50741 0.37536
# Poissons Ratio (y) = 0.35585 0.19602
# Poissons Ratio (z) = 0.18302 0.13628
#
# Static dielectric constant tensor:
#      x y z
#    x 2.996710 0.000000 -0.128670 
#    y 0.000000 3.021500 0.000000 
#    z -0.128670 0.000000 3.246570 
# 
# 
# High freq. dielectric constant tensor:
#      x y z
#    x 1.593840 0.000000 -0.023960 
#    y 0.000000 1.614910 0.000000 
#    z -0.023960 0.000000 1.649600 
# 
# From -- ./inp_files/12960.got.cif
#   From: 2010.06.25/outbox.cif.g09.slc.cpg/sg12_7_cif.got.tgz:12960.got - 2010.06.28 00:19:55.
