data_PCOD8087503
_publ_section_title
;
Structure prediction by ZEFSAII (Michael W. Deem and Ramdas Pophale) SiO2 
 PCOD8087503
Probable space group: C 2/M
;
_chemical_formula_sum "Si O2"
_cell_formula_units_Z 56
_cell_length_a 25.307178
_cell_length_b 8.775204
_cell_length_c 15.122700
_cell_angle_alpha 90.000000
_cell_angle_beta 106.363810
_cell_angle_gamma 90.000000
_cell_volume 3222.342433
_symmetry_space_group_name_H-M "C 2/M"
_symmetry_group_IT_number 12
_symmetry_cell_setting 'monoclinic'
loop_
_space_group_symop_operation_xyz
x,y,z
-x,y,-z
-x,-y,-z
x,-y,z
1/2+x,1/2+y,z
1/2-x,1/2+y,-z
1/2-x,1/2-y,-z
1/2+x,1/2-y,z
loop_
_atom_site_type_symbol
_atom_site_label
_atom_site_fract_x
_atom_site_fract_y
_atom_site_fract_z
Si Si1 0.008091 0.679404 0.405791
Si Si2 0.892111 0.678502 0.279915
Si Si3 0.295900 0.177372 0.909593
Si Si4 0.671359 0.323886 0.901498
Si Si5 0.126467 0.681099 0.409575
Si Si6 0.818441 0.180562 0.395736
Si Si7 0.199101 0.680592 0.284296
O O1 0.014890 0.500000 0.418963
O O2 0.064155 0.744781 0.388831
O O3 0.000000 0.750428 0.500000
O O4 0.956574 0.720923 0.319434
O O5 0.882168 0.500000 0.290898
O O6 0.873349 0.726670 0.173425
O O7 0.859358 0.771738 0.337585
O O8 0.231023 0.209388 0.888401
O O9 0.314037 0.237159 0.821403
O O10 0.308751 0.000000 0.930430
O O11 0.330440 0.272359 0.997396
O O12 0.655487 0.500000 0.887337
O O13 0.128578 0.500000 0.417646
O O14 0.164367 0.746868 0.504060
O O15 0.150789 0.736600 0.326895
O O16 0.757746 0.244457 0.344884
O O17 0.819313 0.000000 0.404705
O O18 0.203475 0.500000 0.283714
#
# Coordination Sequence:
#
# PCOD8087503 Si02
#       7
#     8   8   8   8   8   8   8
#     4   9  17  31  50  73  97 125 169 215 240 274
#     4  11  20  32  52  74  99 133 168 203 247 292
#     4   9  17  32  50  72 102 130 159 197 245 299
#     4  10  19  32  50  75 103 127 158 204 251 294
#     4  10  19  34  53  71  96 135 173 203 244 290
#     4  11  20  32  47  73 107 133 161 202 247 295
#     4   9  18  32  51  73 101 133 163 202 246 291
#
# _framework density 17.378661999999998
#
# number of rings (size 3 to 8) (size 9 to 14) (size 15 to 20)
#    0.000    2.143    2.857    1.714    0.000    0.571 
#    0.000    3.571    0.000    0.857    0.000    6.000 
#    0.000    0.000    0.000    0.000    0.000    0.000 
#
# Total GULP energy -347191.479597 kJ/mol
# GULP energy per Si atom -12399.695700 kJ/mol
# Density = 1.733911 g / cm^3
# Si number density = 17.378662 Si / 1000 Ang^3
#
#
#
# Elastic Constant Matrix: (Units=GPa)
#
#
# Indices 1 2 3 4 5 6 
#
# 1 109.6137 17.0915 63.9010 0.0000 -16.1267 0.0000
# 2 17.0915 14.8828 14.9600 0.0000 1.5522 0.0000
# 3 63.9010 14.9600 139.0627 0.0000 -10.2066 0.0000
# 4 0.0000 0.0000 0.0000 28.2958 0.0000 1.9944
# 5 -16.1267 1.5522 -10.2066 0.0000 24.2352 0.0000
# 6 0.0000 0.0000 0.0000 1.9944 0.0000 15.3646
#
#
#
# Elastic Compliance Matrix: (Units=1/GPa)
#
#
# Indices 1 2 3 4 5 6 
#
# 1 0.015510 -0.013757 -0.004979 0.000000 0.009105 0.000000
# 2 -0.013757 0.089277 -0.004514 0.000000 -0.016773 0.000000
# 3 -0.004979 -0.004514 0.010053 0.000000 0.001210 0.000000
# 4 0.000000 0.000000 0.000000 0.035667 0.000000 -0.004630
# 5 0.009105 -0.016773 0.001210 0.000000 0.048905 0.000000
# 6 0.000000 0.000000 0.000000 -0.004630 0.000000 0.065686
#
#
# Mechanical properties :
#
#
# Convention : Reuss Voigt Hill
#
# Bulk Modulus (GPa) = 14.63249 50.60713 32.61981
# Shear Modulus (GPa) = 14.95318 24.75290 19.85304
#
# Velocity S-wave (km/s) = 2.93650 3.77812 3.38358
# Velocity P-wave (km/s) = 4.46491 6.94376 5.83743
#
# Compressibility (1/GPa) = 0.06834109
#
# Stress axis : x y z
#
# Youngs Moduli (GPa) = 64.47443 11.20112 99.47040
#
# Poissons Ratio (x) = 0.15409 0.49525
# Poissons Ratio (y) = 0.88696 0.44899
# Poissons Ratio (z) = 0.32101 0.05056
#
# Static dielectric constant tensor:
#      x y z
#    x 3.336890 0.000000 -0.057720 
#    y 0.000000 3.028050 0.000000 
#    z -0.057720 0.000000 3.502010 
# 
# 
# High freq. dielectric constant tensor:
#      x y z
#    x 1.653300 0.000000 0.000030 
#    y 0.000000 1.650830 0.000000 
#    z 0.000030 0.000000 1.677480 
# 
# From -- ./inp_files/237434.got.cif
#   From: 2010.06.25/outbox.cif.g09.slc.cpg/sg12_119_cif.got.tgz:237434.got - 2010.06.28 00:19:55.
