data_PCOD8087208
_publ_section_title
;
Structure prediction by ZEFSAII (Michael W. Deem and Ramdas Pophale) SiO2 
 PCOD8087208
Probable space group: C 2/M
;
_chemical_formula_sum "Si O2"
_cell_formula_units_Z 40
_cell_length_a 37.794889
_cell_length_b 10.743875
_cell_length_c 5.011706
_cell_angle_alpha 90.000000
_cell_angle_beta 73.964539
_cell_angle_gamma 90.000000
_cell_volume 1955.888441
_symmetry_space_group_name_H-M "C 2/M"
_symmetry_group_IT_number 12
_symmetry_cell_setting 'monoclinic'
loop_
_space_group_symop_operation_xyz
x,y,z
-x,y,-z
-x,-y,-z
x,-y,z
1/2+x,1/2+y,z
1/2-x,1/2+y,-z
1/2-x,1/2-y,-z
1/2+x,1/2-y,z
loop_
_atom_site_type_symbol
_atom_site_label
_atom_site_fract_x
_atom_site_fract_y
_atom_site_fract_z
Si Si1 0.707435 0.257258 0.162085
Si Si2 0.274238 0.500000 0.625665
Si Si3 0.977407 0.851608 0.299786
Si Si4 0.723539 0.000000 0.235638
Si Si5 0.395743 0.358351 0.483304
Si Si6 0.849426 0.857100 0.099495
O O1 0.700607 0.374966 0.378814
O O2 0.698265 0.124144 0.321324
O O3 0.684412 0.274703 0.938571
O O4 0.750000 0.250000 0.000000
O O5 0.257944 0.500000 0.364788
O O6 0.240617 0.500000 0.903141
O O7 0.936030 0.795212 0.381598
O O8 0.000000 0.796927 0.500000
O O9 0.974930 0.000000 0.322705
O O10 0.000000 0.805189 0.000000
O O11 0.399428 0.500000 0.375225
O O12 0.381879 0.350522 0.813448
O O13 0.366349 0.297313 0.336472
O O14 0.835181 0.000000 0.168670
#
# Coordination Sequence:
#
# PCOD8087208 Si02
#       6
#     8   4   8   4   8   8
#     4  10  21  37  53  74  96 130 170 216 260 305
#     4  10  20  36  52  72  94 122 160 208 260 304
#     4   9  15  24  40  62  91 126 158 190 229 283
#     4  10  22  34  52  72  96 120 160 214 256 302
#     4   9  18  29  44  67  94 126 166 198 238 293
#     4  10  19  32  47  66  93 128 164 207 246 292
#
# _framework density 20.451066000000001
#
# number of rings (size 3 to 8) (size 9 to 14) (size 15 to 20)
#    0.000    2.400    1.000    1.800    0.000   11.200 
#    0.000    0.000    0.000    0.000    0.000    0.000 
#    0.000    0.000    0.000   18.000    0.000    8.000 
#
# Total GULP energy -247939.973181 kJ/mol
# GULP energy per Si atom -12396.998659 kJ/mol
# Density = 2.040452 g / cm^3
# Si number density = 20.451066 Si / 1000 Ang^3
#
#
#
# Elastic Constant Matrix: (Units=GPa)
#
#
# Indices 1 2 3 4 5 6 
#
# 1 116.0590 19.5815 5.9252 0.0000 24.7039 0.0000
# 2 19.5815 110.7350 9.7470 0.0000 12.1864 0.0000
# 3 5.9252 9.7470 48.8681 0.0000 27.7760 0.0000
# 4 0.0000 0.0000 0.0000 13.1520 0.0000 5.1300
# 5 24.7039 12.1864 27.7760 0.0000 36.8475 0.0000
# 6 0.0000 0.0000 0.0000 5.1300 0.0000 11.7855
#
#
#
# Elastic Compliance Matrix: (Units=1/GPa)
#
#
# Indices 1 2 3 4 5 6 
#
# 1 0.010817 -0.001183 0.004941 0.000000 -0.010585 0.000000
# 2 -0.001183 0.009502 -0.000728 0.000000 -0.001801 0.000000
# 3 0.004941 -0.000728 0.038064 0.000000 -0.031765 0.000000
# 4 0.000000 0.000000 0.000000 0.091583 0.000000 -0.039865
# 5 -0.010585 -0.001801 -0.031765 0.000000 0.058776 0.000000
# 6 0.000000 0.000000 0.000000 -0.039865 0.000000 0.102203
#
#
# Mechanical properties :
#
#
# Convention : Reuss Voigt Hill
#
# Bulk Modulus (GPa) = 15.51776 38.46328 26.99052
# Shear Modulus (GPa) = 15.32024 28.38423 21.85224
#
# Velocity S-wave (km/s) = 2.73997 3.72951 3.27236
# Velocity P-wave (km/s) = 4.19692 6.11506 5.24443
#
# Compressibility (1/GPa) = 0.06444229
#
# Stress axis : x y z
#
# Youngs Moduli (GPa) = 92.44909 105.24124 26.27151
#
# Poissons Ratio (x) = 0.12447 -0.12981
# Poissons Ratio (y) = 0.10934 0.01914
# Poissons Ratio (z) = -0.45678 0.07666
#
# Static dielectric constant tensor:
#      x y z
#    x 3.823650 0.000000 0.219800 
#    y 0.000000 4.592970 0.000000 
#    z 0.219800 0.000000 3.867960 
# 
# 
# High freq. dielectric constant tensor:
#      x y z
#    x 1.801380 0.000000 0.007820 
#    y 0.000000 1.722860 0.000000 
#    z 0.007820 0.000000 1.817020 
# 
# From -- ./inp_files/30634.got.cif
#   From: 2010.06.25/outbox.cif.g09.slc.cpg/sg12_16_cif.got.tgz:30634.got - 2010.06.28 00:19:55.
