data_PCOD8087272
_publ_section_title
;
Structure prediction by ZEFSAII (Michael W. Deem and Ramdas Pophale) SiO2 
 PCOD8087272
Probable space group: C 2/M
;
_chemical_formula_sum "Si O2"
_cell_formula_units_Z 64
_cell_length_a 31.037595
_cell_length_b 9.042831
_cell_length_c 14.281196
_cell_angle_alpha 90.000000
_cell_angle_beta 92.424736
_cell_angle_gamma 90.000000
_cell_volume 4004.682037
_symmetry_space_group_name_H-M "C 2/M"
_symmetry_group_IT_number 12
_symmetry_cell_setting 'monoclinic'
loop_
_space_group_symop_operation_xyz
x,y,z
-x,y,-z
-x,-y,-z
x,-y,z
1/2+x,1/2+y,z
1/2-x,1/2+y,-z
1/2-x,1/2-y,-z
1/2+x,1/2-y,z
loop_
_atom_site_type_symbol
_atom_site_label
_atom_site_fract_x
_atom_site_fract_y
_atom_site_fract_z
Si Si1 0.844857 0.331784 0.600231
Si Si2 0.999061 0.671417 0.609923
Si Si3 0.750507 0.169977 0.402005
Si Si4 0.450305 0.824773 0.888049
Si Si5 0.578901 0.674617 0.294131
Si Si6 0.548304 0.825065 0.904917
Si Si7 0.332180 0.827037 0.381094
Si Si8 0.915011 0.675724 0.281503
O O1 0.861753 0.500000 0.613638
O O2 0.797692 0.314583 0.644878
O O3 0.876539 0.218839 0.653071
O O4 0.842691 0.292628 0.490113
O O5 0.991664 0.500000 0.635746
O O6 0.960517 0.764432 0.649346
O O7 0.000000 0.696090 0.500000
O O8 0.044118 0.731261 0.655039
O O9 0.750000 0.250000 0.500000
O O10 0.788078 0.246034 0.343458
O O11 0.762570 0.000000 0.418553
O O12 0.420900 0.741090 0.810420
O O13 0.499715 0.773516 0.877356
O O14 0.444676 0.000000 0.874520
O O15 0.435965 0.771692 0.991185
O O16 0.575697 0.500000 0.288105
O O17 0.580037 0.767792 0.825594
O O18 0.547141 0.000000 0.906730
O O19 0.371013 0.761260 0.321628
O O20 0.325477 0.000000 0.363848
O O21 0.913506 0.500000 0.286392
#
# Coordination Sequence:
#
# PCOD8087272 Si02
#       8
#     8   8   8   8   8   8   8   8
#     4   9  18  32  47  64  89 125 163 190 217 267
#     4  10  19  32  49  64  87 127 165 191 216 258
#     4   9  17  30  48  68  91 119 153 191 230 270
#     4   9  16  30  50  67  86 117 158 199 233 270
#     4  12  23  31  43  67  96 124 152 191 240 278
#     4   8  14  26  49  72  86 112 158 203 231 258
#     4   9  17  29  48  72  96 121 151 188 229 273
#     4   9  15  26  46  71  93 117 155 192 221 266
#
# _framework density 15.981294
#
# number of rings (size 3 to 8) (size 9 to 14) (size 15 to 20)
#    0.000    2.625    1.250    3.750    0.000    4.750 
#    0.000    1.875    0.000    0.000    0.000    0.875 
#    0.000    0.000    0.000    0.000    0.000    0.000 
#
# Total GULP energy -396619.547929 kJ/mol
# GULP energy per Si atom -12394.360873 kJ/mol
# Density = 1.594492 g / cm^3
# Si number density = 15.981294 Si / 1000 Ang^3
#
#
#
# Elastic Constant Matrix: (Units=GPa)
#
#
# Indices 1 2 3 4 5 6 
#
# 1 124.6016 42.7030 53.4471 0.0000 -12.8878 0.0000
# 2 42.7030 66.7825 34.7568 0.0000 0.8997 0.0000
# 3 53.4471 34.7568 86.2813 0.0000 -12.5383 0.0000
# 4 0.0000 0.0000 0.0000 10.2173 0.0000 0.5620
# 5 -12.8878 0.8997 -12.5383 0.0000 11.9152 0.0000
# 6 0.0000 0.0000 0.0000 0.5620 0.0000 24.3918
#
#
#
# Elastic Compliance Matrix: (Units=1/GPa)
#
#
# Indices 1 2 3 4 5 6 
#
# 1 0.012984 -0.006375 -0.003972 0.000000 0.010346 0.000000
# 2 -0.006375 0.023425 -0.007964 0.000000 -0.017045 0.000000
# 3 -0.003972 -0.007964 0.019740 0.000000 0.017078 0.000000
# 4 0.000000 0.000000 0.000000 0.097997 0.000000 -0.002258
# 5 0.010346 -0.017045 0.017078 0.000000 0.114376 0.000000
# 6 0.000000 0.000000 0.000000 -0.002258 0.000000 0.041049
#
#
# Mechanical properties :
#
#
# Convention : Reuss Voigt Hill
#
# Bulk Modulus (GPa) = 51.20896 59.94211 55.57554
# Shear Modulus (GPa) = 14.17628 19.08876 16.63252
#
# Velocity S-wave (km/s) = 2.98158 3.45982 3.22956
# Velocity P-wave (km/s) = 6.63066 7.31776 6.98267
#
# Compressibility (1/GPa) = 0.01952783
#
# Stress axis : x y z
#
# Youngs Moduli (GPa) = 77.01785 42.68962 50.65803
#
# Poissons Ratio (x) = 0.27214 0.20119
# Poissons Ratio (y) = 0.49098 0.40346
# Poissons Ratio (z) = 0.30588 0.33999
#
# Static dielectric constant tensor:
#      x y z
#    x 3.251760 0.000000 -0.140190 
#    y 0.000000 2.845290 0.000000 
#    z -0.140190 0.000000 3.129220 
# 
# 
# High freq. dielectric constant tensor:
#      x y z
#    x 1.608360 0.000000 -0.005730 
#    y 0.000000 1.589490 0.000000 
#    z -0.005730 0.000000 1.596640 
# 
# From -- ./inp_files/248521.got.cif
#   From: 2010.06.25/outbox.cif.g09.slc.cpg/sg12_125_cif.got.tgz:248521.got - 2010.06.28 00:19:55.
