data_PCOD8087557
_publ_section_title
;
Structure prediction by ZEFSAII (Michael W. Deem and Ramdas Pophale) SiO2 
 PCOD8087557
Probable space group: C 2/M
;
_chemical_formula_sum "Si O2"
_cell_formula_units_Z 64
_cell_length_a 33.117115
_cell_length_b 13.854420
_cell_length_c 11.752700
_cell_angle_alpha 90.000000
_cell_angle_beta 39.055610
_cell_angle_gamma 90.000000
_cell_volume 3397.584863
_symmetry_space_group_name_H-M "C 2/M"
_symmetry_group_IT_number 12
_symmetry_cell_setting 'monoclinic'
loop_
_space_group_symop_operation_xyz
x,y,z
-x,y,-z
-x,-y,-z
x,-y,z
1/2+x,1/2+y,z
1/2-x,1/2+y,-z
1/2-x,1/2-y,-z
1/2+x,1/2-y,z
loop_
_atom_site_type_symbol
_atom_site_label
_atom_site_fract_x
_atom_site_fract_y
_atom_site_fract_z
Si Si1 0.234960 0.108865 0.607841
Si Si2 0.221896 0.196799 0.395098
Si Si3 0.037624 0.602802 0.302913
Si Si4 0.186407 0.385842 0.987583
Si Si5 0.859190 0.109753 0.994118
Si Si6 0.620885 0.608446 0.458811
Si Si7 0.784125 0.891178 0.951685
Si Si8 0.994192 0.195714 0.649266
O O1 0.223012 0.128530 0.502405
O O2 0.280916 0.190485 0.562221
O O3 0.166712 0.116473 0.821206
O O4 0.263599 0.000000 0.561308
O O5 0.285513 0.169636 0.183686
O O6 0.156772 0.177407 0.469164
O O7 0.035861 0.500000 0.238031
O O8 0.002757 0.691766 0.317617
O O9 0.000000 0.584402 0.500000
O O10 0.111290 0.633194 0.165743
O O11 0.202938 0.500000 0.938111
O O12 0.222283 0.344037 0.023279
O O13 0.868811 0.000000 0.932135
O O14 0.807037 0.159103 0.020084
O O15 0.926923 0.159419 0.840988
O O16 0.621584 0.500000 0.506098
O O17 0.654661 0.613257 0.263729
O O18 0.548145 0.640502 0.600380
O O19 0.763565 0.000000 0.026113
O O20 0.000000 0.184463 0.500000
#
# Coordination Sequence:
#
# PCOD8087557 Si02
#       8
#     8   8   8   8   8   8   8   8
#     4  10  21  37  56  79 110 140 173 225 277 316
#     4  10  20  37  58  81 105 138 184 224 263 318
#     4   9  19  34  48  69 106 144 180 219 262 314
#     4   9  16  31  56  80 102 138 182 221 265 317
#     4  10  19  32  50  80 114 140 169 216 276 323
#     4  10  19  33  54  81 108 138 182 224 260 311
#     4   8  15  28  48  77 108 134 167 215 265 317
#     4  11  20  32  51  76 106 149 187 214 259 322
#
# _framework density 18.83691
#
# number of rings (size 3 to 8) (size 9 to 14) (size 15 to 20)
#    0.000    2.375    1.250    3.000    0.000    0.500 
#    4.500    3.125    0.000    2.250    0.000    0.000 
#    0.000    8.000    0.000    0.000    0.000    0.000 
#
# Total GULP energy -396527.477459 kJ/mol
# GULP energy per Si atom -12391.483671 kJ/mol
# Density = 1.879404 g / cm^3
# Si number density = 18.836910 Si / 1000 Ang^3
#
#
#
# Elastic Constant Matrix: (Units=GPa)
#
#
# Indices 1 2 3 4 5 6 
#
# 1 78.9495 33.2736 46.0521 0.0000 3.4999 0.0000
# 2 33.2736 95.9834 28.5726 0.0000 -0.9158 0.0000
# 3 46.0521 28.5726 84.1848 0.0000 2.3219 0.0000
# 4 0.0000 0.0000 0.0000 58.5645 0.0000 -34.9685
# 5 3.4999 -0.9158 2.3219 0.0000 21.4294 0.0000
# 6 0.0000 0.0000 0.0000 -34.9685 0.0000 48.7866
#
#
#
# Elastic Compliance Matrix: (Units=1/GPa)
#
#
# Indices 1 2 3 4 5 6 
#
# 1 0.020065 -0.004151 -0.009501 0.000000 -0.002425 0.000000
# 2 -0.004151 0.012466 -0.002000 0.000000 0.001427 0.000000
# 3 -0.009501 -0.002000 0.017767 0.000000 -0.000459 0.000000
# 4 0.000000 0.000000 0.000000 0.029850 0.000000 0.021396
# 5 -0.002425 0.001427 -0.000459 0.000000 0.047172 0.000000
# 6 0.000000 0.000000 0.000000 0.021396 0.000000 0.035833
#
#
# Mechanical properties :
#
#
# Convention : Reuss Voigt Hill
#
# Bulk Modulus (GPa) = 52.64237 52.76825 52.70531
# Shear Modulus (GPa) = 24.90187 35.83741 30.36964
#
# Velocity S-wave (km/s) = 3.63984 4.36651 4.01963
# Velocity P-wave (km/s) = 6.75808 7.31409 7.04157
#
# Compressibility (1/GPa) = 0.01899611
#
# Stress axis : x y z
#
# Youngs Moduli (GPa) = 49.83808 80.21629 56.28337
#
# Poissons Ratio (x) = 0.33295 0.53473
# Poissons Ratio (y) = 0.20686 0.11256
# Poissons Ratio (z) = 0.47349 0.16042
#
# Static dielectric constant tensor:
#      x y z
#    x 3.284380 0.000000 -0.006650 
#    y 0.000000 3.912880 0.000000 
#    z -0.006650 0.000000 3.336750 
# 
# 
# High freq. dielectric constant tensor:
#      x y z
#    x 1.700610 0.000000 -0.005470 
#    y 0.000000 1.756070 0.000000 
#    z -0.005470 0.000000 1.717760 
# 
# From -- ./inp_files/189432.got.cif
#   From: 2010.06.25/outbox.cif.g09.slc.cpg/sg12_95_cif.got.tgz:189432.got - 2010.06.28 00:19:55.
