data_PCOD8087109
_publ_section_title
;
Structure prediction by ZEFSAII (Michael W. Deem and Ramdas Pophale) SiO2 
 PCOD8087109
Probable space group: C 2/M
;
_chemical_formula_sum "Si O2"
_cell_formula_units_Z 64
_cell_length_a 20.783378
_cell_length_b 8.611063
_cell_length_c 34.335804
_cell_angle_alpha 90.000000
_cell_angle_beta 147.238101
_cell_angle_gamma 90.000000
_cell_volume 3325.347868
_symmetry_space_group_name_H-M "C 2/M"
_symmetry_group_IT_number 12
_symmetry_cell_setting 'monoclinic'
loop_
_space_group_symop_operation_xyz
x,y,z
-x,y,-z
-x,-y,-z
x,-y,z
1/2+x,1/2+y,z
1/2-x,1/2+y,-z
1/2-x,1/2-y,-z
1/2+x,1/2-y,z
loop_
_atom_site_type_symbol
_atom_site_label
_atom_site_fract_x
_atom_site_fract_y
_atom_site_fract_z
Si Si1 0.415709 0.182664 0.715548
Si Si2 0.903838 0.316828 0.796477
Si Si3 0.658456 0.184868 0.803382
Si Si4 0.681047 0.181654 0.726339
Si Si5 0.886483 0.814992 0.965309
Si Si6 0.559941 0.320625 0.412952
Si Si7 0.871586 0.183660 0.045662
Si Si8 0.784829 0.680535 0.574120
O O1 0.387432 0.247883 0.744034
O O2 0.538433 0.253894 0.761233
O O3 0.307960 0.223939 0.631079
O O4 0.432034 0.000000 0.726965
O O5 0.923594 0.500000 0.807376
O O6 0.787685 0.274420 0.761313
O O7 0.019584 0.236871 0.872722
O O8 0.669751 0.242270 0.764781
O O9 0.768612 0.249843 0.884374
O O10 0.655969 0.000000 0.802489
O O11 0.558224 0.218729 0.641502
O O12 0.709342 0.000000 0.738421
O O13 0.887061 0.000000 0.964639
O O14 0.890913 0.753521 0.011694
O O15 0.000000 0.748527 0.000000
O O16 0.523055 0.500000 0.393769
O O17 0.648010 0.282806 0.493952
O O18 0.626314 0.281159 0.406682
O O19 0.863765 0.000000 0.041867
O O20 0.750000 0.250000 0.000000
O O21 0.814797 0.500000 0.581161
#
# Coordination Sequence:
#
# PCOD8087109 Si02
#       8
#     8   8   8   8   8   8   8   8
#     4   9  17  33  56  80 103 141 192 232 266 320
#     4  11  23  38  58  82 113 146 185 234 279 328
#     4   9  16  29  54  80 100 133 186 231 262 313
#     4  11  21  36  58  81 112 150 186 225 275 336
#     4   9  17  30  51  79 105 134 181 230 265 312
#     4  10  19  31  53  85 116 142 177 229 283 327
#     4  11  22  38  60  83 110 145 185 228 279 335
#     4   9  17  33  56  81 109 145 188 228 269 327
#
# _framework density 19.246108
#
# number of rings (size 3 to 8) (size 9 to 14) (size 15 to 20)
#    0.000    2.125    1.250    3.000    0.000    4.500 
#    0.000    1.875    0.000   12.750    0.000    0.000 
#    0.000    0.000    0.000    0.000    0.000    0.000 
#
# Total GULP energy -396804.323992 kJ/mol
# GULP energy per Si atom -12400.135125 kJ/mol
# Density = 1.920230 g / cm^3
# Si number density = 19.246108 Si / 1000 Ang^3
#
#
#
# Elastic Constant Matrix: (Units=GPa)
#
#
# Indices 1 2 3 4 5 6 
#
# 1 126.8471 24.3658 60.4488 0.0003 -12.9259 -0.0009
# 2 24.3658 29.1784 24.1269 -0.0003 -3.8835 -0.0003
# 3 60.4488 24.1269 153.1648 0.0002 -13.1518 -0.0003
# 4 0.0003 -0.0003 0.0002 27.4602 0.0000 3.2595
# 5 -12.9259 -3.8835 -13.1518 0.0000 32.0925 0.0000
# 6 -0.0009 -0.0003 -0.0003 3.2595 0.0000 25.8806
#
#
#
# Elastic Compliance Matrix: (Units=1/GPa)
#
#
# Indices 1 2 3 4 5 6 
#
# 1 0.010769 -0.006132 -0.003084 0.000000 0.002331 0.000000
# 2 -0.006132 0.043062 -0.004278 0.000001 0.000988 0.000000
# 3 -0.003084 -0.004278 0.008570 0.000000 0.001752 0.000000
# 4 0.000000 0.000001 0.000000 0.036969 0.000000 -0.004656
# 5 0.002331 0.000988 0.001752 0.000000 0.032937 0.000000
# 6 0.000000 0.000000 0.000000 -0.004656 0.000000 0.039225
#
#
# Mechanical properties :
#
#
# Convention : Reuss Voigt Hill
#
# Bulk Modulus (GPa) = 28.23890 58.56370 43.40130
# Shear Modulus (GPa) = 23.77283 30.43660 27.10472
#
# Velocity S-wave (km/s) = 3.51836 3.98105 3.75683
# Velocity P-wave (km/s) = 5.58655 7.18516 6.43568
#
# Compressibility (1/GPa) = 0.03541214
#
# Stress axis : x y z
#
# Youngs Moduli (GPa) = 92.86254 23.22254 116.68087
#
# Poissons Ratio (x) = 0.14241 0.35982
# Poissons Ratio (y) = 0.56945 0.49918
# Poissons Ratio (z) = 0.28637 0.09935
#
# Static dielectric constant tensor:
#      x y z
#    x 3.582600 0.000000 -0.124380 
#    y 0.000000 3.199530 0.000000 
#    z -0.124380 0.000000 3.807480 
# 
# 
# High freq. dielectric constant tensor:
#      x y z
#    x 1.741720 0.000000 -0.001610 
#    y 0.000000 1.716380 0.000000 
#    z -0.001610 0.000000 1.768440 
# 
# From -- ./inp_files/378331.got.cif
#   From: 2010.06.25/outbox.cif.g09.slc.cpg/sg12_190_cif.got.tgz:378331.got - 2010.06.28 00:19:55.
