data_PCOD8087239
_publ_section_title
;
Structure prediction by ZEFSAII (Michael W. Deem and Ramdas Pophale) SiO2 
 PCOD8087239
Probable space group: C 2/M
;
_chemical_formula_sum "Si O2"
_cell_formula_units_Z 64
_cell_length_a 23.181760
_cell_length_b 12.215811
_cell_length_c 29.828296
_cell_angle_alpha 90.000000
_cell_angle_beta 154.364459
_cell_angle_gamma 90.000000
_cell_volume 3654.508048
_symmetry_space_group_name_H-M "C 2/M"
_symmetry_group_IT_number 12
_symmetry_cell_setting 'monoclinic'
loop_
_space_group_symop_operation_xyz
x,y,z
-x,y,-z
-x,-y,-z
x,-y,z
1/2+x,1/2+y,z
1/2-x,1/2+y,-z
1/2-x,1/2-y,-z
1/2+x,1/2-y,z
loop_
_atom_site_type_symbol
_atom_site_label
_atom_site_fract_x
_atom_site_fract_y
_atom_site_fract_z
Si Si1 0.146964 0.257199 0.116176
Si Si2 0.422172 0.875313 0.844204
Si Si3 0.164990 0.629751 0.315387
Si Si4 0.147732 0.259421 0.495824
Si Si5 0.451458 0.778334 0.233569
Si Si6 0.781945 0.373548 0.922893
Si Si7 0.099188 0.624229 0.709786
Si Si8 0.345036 0.377916 0.583650
O O1 0.148558 0.307424 0.166601
O O2 0.197087 0.347116 0.115246
O O3 0.246590 0.154836 0.188365
O O4 0.000000 0.214148 0.000000
O O5 0.362753 0.838539 0.755132
O O6 0.386913 0.000000 0.829575
O O7 0.580710 0.858136 0.954211
O O8 0.189785 0.500000 0.339168
O O9 0.298189 0.700940 0.421128
O O10 0.033932 0.666325 0.251400
O O11 0.227808 0.370142 0.538880
O O12 0.198802 0.173929 0.494132
O O13 0.991668 0.292353 0.384520
O O14 0.313975 0.719126 0.121817
O O15 0.434340 0.868095 0.260816
O O16 0.522706 0.675388 0.305289
O O17 0.731795 0.500000 0.892336
O O18 0.077005 0.500000 0.678184
O O19 0.382035 0.500000 0.598722
#
# Coordination Sequence:
#
# PCOD8087239 Si02
#       8
#     8   8   8   8   8   8   8   8
#     4   9  18  33  53  75  96 120 155 199 240 278
#     4   9  18  32  51  71  93 127 162 195 238 282
#     4  10  19  32  48  67  98 133 161 191 232 284
#     4   9  18  28  43  67  92 124 159 194 233 273
#     4   9  18  28  45  74 100 125 153 189 236 282
#     4   9  16  29  50  75 100 123 155 198 239 278
#     4  10  19  32  51  73  96 121 156 199 239 281
#     4   9  15  25  42  64  93 124 155 190 229 275
#
# _framework density 17.512616999999999
#
# number of rings (size 3 to 8) (size 9 to 14) (size 15 to 20)
#    0.000    2.750    0.000    2.625    0.000    2.250 
#    0.000    2.500    0.000    6.750    0.000    0.000 
#    0.000    0.000    0.000    0.000    0.000    0.000 
#
# Total GULP energy -396523.802058 kJ/mol
# GULP energy per Si atom -12391.368814 kJ/mol
# Density = 1.747276 g / cm^3
# Si number density = 17.512617 Si / 1000 Ang^3
#
#
#
# Elastic Constant Matrix: (Units=GPa)
#
#
# Indices 1 2 3 4 5 6 
#
# 1 66.9707 29.5004 41.7212 0.0004 -5.4992 -0.0002
# 2 29.5004 88.3048 44.9016 0.0007 -3.7904 -0.0001
# 3 41.7212 44.9016 98.2944 0.0007 -5.7913 -0.0002
# 4 0.0004 0.0007 0.0007 23.5956 0.0004 -0.2531
# 5 -5.4992 -3.7904 -5.7913 0.0004 28.8217 0.0000
# 6 -0.0002 -0.0001 -0.0002 -0.2531 0.0000 14.3144
#
#
#
# Elastic Compliance Matrix: (Units=1/GPa)
#
#
# Indices 1 2 3 4 5 6 
#
# 1 0.021112 -0.003216 -0.007367 0.000000 0.002125 0.000000
# 2 -0.003216 0.015251 -0.005586 0.000000 0.000270 0.000000
# 3 -0.007367 -0.005586 0.015914 0.000000 0.001058 0.000000
# 4 0.000000 0.000000 0.000000 0.042389 -0.000001 0.000750
# 5 0.002125 0.000270 0.001058 -0.000001 0.035350 0.000000
# 6 0.000000 0.000000 0.000000 0.000750 0.000000 0.069873
#
#
# Mechanical properties :
#
#
# Convention : Reuss Voigt Hill
#
# Bulk Modulus (GPa) = 50.14990 53.97960 52.06475
# Shear Modulus (GPa) = 20.93164 22.50943 21.72054
#
# Velocity S-wave (km/s) = 3.46096 3.58903 3.52558
# Velocity P-wave (km/s) = 6.68353 6.93290 6.80936
#
# Compressibility (1/GPa) = 0.01994022
#
# Stress axis : x y z
#
# Youngs Moduli (GPa) = 47.36543 65.57122 62.83649
#
# Poissons Ratio (x) = 0.21087 0.46291
# Poissons Ratio (y) = 0.15232 0.35098
# Poissons Ratio (z) = 0.34894 0.36626
#
# Static dielectric constant tensor:
#      x y z
#    x 3.073080 0.000000 0.087990 
#    y 0.000000 3.113290 0.000000 
#    z 0.087990 0.000000 3.425740 
# 
# 
# High freq. dielectric constant tensor:
#      x y z
#    x 1.644950 0.000000 0.007590 
#    y 0.000000 1.668560 0.000000 
#    z 0.007590 0.000000 1.683750 
# 
# From -- ./inp_files/182018.got.cif
#   From: 2010.06.25/outbox.cif.g09.slc.cpg/sg12_92_cif.got.tgz:182018.got - 2010.06.28 00:19:55.
