data_PCOD8087563
_publ_section_title
;
Structure prediction by ZEFSAII (Michael W. Deem and Ramdas Pophale) SiO2 
 PCOD8087563
Probable space group: C 2/M
;
_chemical_formula_sum "Si O2"
_cell_formula_units_Z 60
_cell_length_a 14.317203
_cell_length_b 13.872303
_cell_length_c 16.696962
_cell_angle_alpha 90.000000
_cell_angle_beta 105.799465
_cell_angle_gamma 90.000000
_cell_volume 3190.941403
_symmetry_space_group_name_H-M "C 2/M"
_symmetry_group_IT_number 12
_symmetry_cell_setting 'monoclinic'
loop_
_space_group_symop_operation_xyz
x,y,z
-x,y,-z
-x,-y,-z
x,-y,z
1/2+x,1/2+y,z
1/2-x,1/2+y,-z
1/2-x,1/2-y,-z
1/2+x,1/2-y,z
loop_
_atom_site_type_symbol
_atom_site_label
_atom_site_fract_x
_atom_site_fract_y
_atom_site_fract_z
Si Si1 0.790054 0.773813 0.422516
Si Si2 0.169884 0.389094 0.275898
Si Si3 0.895221 0.301367 0.895469
Si Si4 0.101266 0.611808 0.938073
Si Si5 0.504986 0.108642 0.352902
Si Si6 0.713683 0.105729 0.694670
Si Si7 0.293434 0.609365 0.884394
Si Si8 0.500000 0.764108 0.500000
O O1 0.750000 0.750000 0.500000
O O2 0.746739 0.863762 0.363805
O O3 0.756405 0.680086 0.365854
O O4 0.905726 0.796507 0.451504
O O5 0.184848 0.500000 0.256501
O O6 0.176464 0.327014 0.195639
O O7 0.064372 0.366516 0.287349
O O8 0.875912 0.190491 0.920179
O O9 0.008075 0.319675 0.897599
O O10 0.867828 0.371601 0.962566
O O11 0.071797 0.500000 0.917869
O O12 0.192501 0.639100 0.903531
O O13 0.395130 0.127533 0.301420
O O14 0.538563 0.171821 0.435731
O O15 0.525236 0.000000 0.385065
O O16 0.782802 0.111203 0.786644
O O17 0.719914 0.000000 0.656425
O O18 0.324635 0.500000 0.918772
#
# Coordination Sequence:
#
# PCOD8087563 Si02
#       8
#     8   8   8   8   8   8   8   4
#     4  11  21  35  51  78 105 143 179 227 278 330
#     4  11  21  34  54  81 109 141 186 232 275 330
#     4  11  20  36  59  88 117 150 184 233 284 337
#     4  10  21  37  60  90 119 151 187 229 283 340
#     4   9  17  29  50  78 102 127 169 230 284 319
#     4   9  18  33  54  79 105 137 175 227 283 330
#     4  10  20  36  58  85 115 148 191 232 278 337
#     4  10  19  32  51  70 104 132 176 222 274 326
#
# _framework density 18.803228000000001
#
# number of rings (size 3 to 8) (size 9 to 14) (size 15 to 20)
#    0.000    1.867    2.667    3.000    0.000    3.200 
#    0.000    1.667    0.000    2.400    0.000    0.000 
#    0.000    0.000    0.000    0.000    0.000    0.000 
#
# Total GULP energy -371801.832908 kJ/mol
# GULP energy per Si atom -12393.394430 kJ/mol
# Density = 1.876043 g / cm^3
# Si number density = 18.803228 Si / 1000 Ang^3
#
#
#
# Elastic Constant Matrix: (Units=GPa)
#
#
# Indices 1 2 3 4 5 6 
#
# 1 74.8223 49.7231 21.6407 0.0000 -3.1224 0.0000
# 2 49.7231 93.7041 19.1831 0.0000 -2.2694 0.0000
# 3 21.6407 19.1831 82.5304 0.0000 -4.4779 0.0000
# 4 0.0000 0.0000 0.0000 27.9316 0.0000 -0.0183
# 5 -3.1224 -2.2694 -4.4779 0.0000 25.1251 0.0000
# 6 0.0000 0.0000 0.0000 -0.0183 0.0000 26.4307
#
#
#
# Elastic Compliance Matrix: (Units=1/GPa)
#
#
# Indices 1 2 3 4 5 6 
#
# 1 0.021416 -0.010709 -0.003064 0.000000 0.001148 0.000000
# 2 -0.010709 0.016568 -0.001044 0.000000 -0.000020 0.000000
# 3 -0.003064 -0.001044 0.013265 0.000000 0.001889 0.000000
# 4 0.000000 0.000000 0.000000 0.035802 0.000000 0.000025
# 5 0.001148 -0.000020 0.001889 0.000000 0.040278 0.000000
# 6 0.000000 0.000000 0.000000 0.000025 0.000000 0.037835
#
#
# Mechanical properties :
#
#
# Convention : Reuss Voigt Hill
#
# Bulk Modulus (GPa) = 46.26473 48.01673 47.14073
# Shear Modulus (GPa) = 24.75211 26.59812 25.67512
#
# Velocity S-wave (km/s) = 3.63213 3.76513 3.69923
# Velocity P-wave (km/s) = 6.49984 6.67034 6.58564
#
# Compressibility (1/GPa) = 0.02161474
#
# Stress axis : x y z
#
# Youngs Moduli (GPa) = 46.69454 60.35824 75.38426
#
# Poissons Ratio (x) = 0.64638 0.23098
# Poissons Ratio (y) = 0.50005 0.07870
# Poissons Ratio (z) = 0.14308 0.06301
#
# Static dielectric constant tensor:
#      x y z
#    x 3.713420 0.000000 0.152440 
#    y 0.000000 3.473350 0.000000 
#    z 0.152440 0.000000 3.653280 
# 
# 
# High freq. dielectric constant tensor:
#      x y z
#    x 1.712660 0.000000 -0.007900 
#    y 0.000000 1.717140 0.000000 
#    z -0.007900 0.000000 1.739760 
# 
# From -- ./inp_files/269920.got.cif
#   From: 2010.06.25/outbox.cif.g09.slc.cpg/sg12_135_cif.got.tgz:269920.got - 2010.06.28 00:19:55.
