data_PCOD8087311
_publ_section_title
;
Structure prediction by ZEFSAII (Michael W. Deem and Ramdas Pophale) SiO2 
 PCOD8087311
Probable space group: C 2/M
;
_chemical_formula_sum "Si O2"
_cell_formula_units_Z 64
_cell_length_a 30.414064
_cell_length_b 8.877137
_cell_length_c 21.416285
_cell_angle_alpha 90.000000
_cell_angle_beta 138.734611
_cell_angle_gamma 90.000000
_cell_volume 3813.622871
_symmetry_space_group_name_H-M "C 2/M"
_symmetry_group_IT_number 12
_symmetry_cell_setting 'monoclinic'
loop_
_space_group_symop_operation_xyz
x,y,z
-x,y,-z
-x,-y,-z
x,-y,z
1/2+x,1/2+y,z
1/2-x,1/2+y,-z
1/2-x,1/2-y,-z
1/2+x,1/2-y,z
loop_
_atom_site_type_symbol
_atom_site_label
_atom_site_fract_x
_atom_site_fract_y
_atom_site_fract_z
Si Si1 0.193804 0.824881 0.398372
Si Si2 0.000033 0.822619 0.902848
Si Si3 0.512098 0.824996 0.369567
Si Si4 0.778256 0.321972 0.701160
Si Si5 0.858846 0.675597 0.411294
Si Si6 0.044544 0.174851 0.277295
Si Si7 0.065593 0.169622 0.611624
Si Si8 0.892916 0.177760 0.887867
O O1 0.250000 0.750000 0.500000
O O2 0.190384 0.748332 0.327506
O O3 0.123656 0.800793 0.357682
O O4 0.210435 0.000000 0.407152
O O5 0.991210 0.760440 0.823370
O O6 0.942059 0.760936 0.886141
O O7 0.989638 0.000000 0.890197
O O8 0.072864 0.782713 0.008801
O O9 0.581938 0.789186 0.477427
O O10 0.514673 0.770289 0.301579
O O11 0.451399 0.740742 0.339420
O O12 0.495671 0.000000 0.354275
O O13 0.778764 0.500000 0.696588
O O14 0.703304 0.267625 0.629651
O O15 0.823252 0.266397 0.807528
O O16 0.841539 0.500000 0.389547
O O17 0.877664 0.732603 0.362089
O O18 0.027698 0.000000 0.270236
O O19 0.000000 0.172659 0.500000
O O20 0.092000 0.000000 0.649123
O O21 0.879535 0.000000 0.867801
#
# Coordination Sequence:
#
# PCOD8087311 Si02
#       8
#     8   8   8   8   8   8   8   8
#     4  11  22  35  49  66  96 134 171 205 242 288
#     4   8  15  30  53  73  90 121 165 208 251 298
#     4  10  20  32  48  72 100 131 165 201 241 287
#     4  12  23  33  47  71 101 132 167 203 245 295
#     4  10  20  34  51  70  97 132 170 207 243 286
#     4  10  19  32  49  70  95 128 166 203 243 290
#     4   9  17  31  51  73  97 125 159 202 249 291
#     4   9  16  32  54  71  91 123 164 208 252 296
#
# _framework density 16.781942999999998
#
# number of rings (size 3 to 8) (size 9 to 14) (size 15 to 20)
#    0.000    2.125    1.250    4.125    0.000    6.000 
#    0.000    1.875    0.000    0.000    0.000    0.875 
#    0.000    0.000    0.000    0.000    0.000    0.000 
#
# Total GULP energy -396797.303899 kJ/mol
# GULP energy per Si atom -12399.915747 kJ/mol
# Density = 1.674375 g / cm^3
# Si number density = 16.781943 Si / 1000 Ang^3
#
#
#
# Elastic Constant Matrix: (Units=GPa)
#
#
# Indices 1 2 3 4 5 6 
#
# 1 70.2037 28.7089 20.2263 0.0000 -21.9894 0.0000
# 2 28.7089 84.0301 31.0699 0.0000 -7.1092 0.0000
# 3 20.2263 31.0699 79.9060 0.0000 -19.2514 0.0000
# 4 0.0000 0.0000 0.0000 20.9632 0.0000 -1.3023
# 5 -21.9894 -7.1092 -19.2514 0.0000 18.2143 0.0000
# 6 0.0000 0.0000 0.0000 -1.3023 0.0000 30.3206
#
#
#
# Elastic Compliance Matrix: (Units=1/GPa)
#
#
# Indices 1 2 3 4 5 6 
#
# 1 0.026892 -0.007969 0.004513 0.000000 0.034125 0.000000
# 2 -0.007969 0.016262 -0.006835 0.000000 -0.010498 0.000000
# 3 0.004513 -0.006835 0.019722 0.000000 0.023626 0.000000
# 4 0.000000 0.000000 0.000000 0.047830 0.000000 0.002054
# 5 0.034125 -0.010498 0.023626 0.000000 0.116973 0.000000
# 6 0.000000 0.000000 0.000000 0.002054 0.000000 0.033069
#
#
# Mechanical properties :
#
#
# Convention : Reuss Voigt Hill
#
# Bulk Modulus (GPa) = 23.64431 43.79448 33.71939
# Shear Modulus (GPa) = 16.92452 24.17527 20.54989
#
# Velocity S-wave (km/s) = 3.17913 3.79958 3.50312
# Velocity P-wave (km/s) = 5.25314 6.73809 6.04142
#
# Compressibility (1/GPa) = 0.04229348
#
# Stress axis : x y z
#
# Youngs Moduli (GPa) = 37.18639 61.49163 50.70434
#
# Poissons Ratio (x) = 0.49004 -0.22884
# Poissons Ratio (y) = 0.29635 0.34658
# Poissons Ratio (z) = -0.16783 0.42032
#
# Static dielectric constant tensor:
#      x y z
#    x 3.110460 0.000000 -0.131660 
#    y 0.000000 3.115720 0.000000 
#    z -0.131660 0.000000 3.217920 
# 
# 
# High freq. dielectric constant tensor:
#      x y z
#    x 1.632740 0.000000 -0.007980 
#    y 0.000000 1.645860 0.000000 
#    z -0.007980 0.000000 1.628970 
# 
# From -- ./inp_files/326989.got.cif
#   From: 2010.06.25/outbox.cif.g09.slc.cpg/sg12_164_cif.got.tgz:326989.got - 2010.06.28 00:19:55.
