data_PCOD8087835
_publ_section_title
;
Structure prediction by ZEFSAII (Michael W. Deem and Ramdas Pophale) SiO2 
 PCOD8087835
Probable space group: C 2/M
;
_chemical_formula_sum "Si O2"
_cell_formula_units_Z 56
_cell_length_a 19.273703
_cell_length_b 18.220012
_cell_length_c 16.161027
_cell_angle_alpha 90.000000
_cell_angle_beta 33.017755
_cell_angle_gamma 90.000000
_cell_volume 3092.421664
_symmetry_space_group_name_H-M "C 2/M"
_symmetry_group_IT_number 12
_symmetry_cell_setting 'monoclinic'
loop_
_space_group_symop_operation_xyz
x,y,z
-x,y,-z
-x,-y,-z
x,-y,z
1/2+x,1/2+y,z
1/2-x,1/2+y,-z
1/2-x,1/2-y,-z
1/2+x,1/2-y,z
loop_
_atom_site_type_symbol
_atom_site_label
_atom_site_fract_x
_atom_site_fract_y
_atom_site_fract_z
Si Si1 0.750000 0.250000 0.838050
Si Si2 0.179641 0.082090 0.475775
Si Si3 0.481894 0.721128 0.174242
Si Si4 0.873863 0.346553 0.167298
Si Si5 0.981895 0.778873 0.361972
Si Si6 0.679641 0.582090 0.664942
Si Si7 0.373863 0.153446 0.584977
O O1 0.717187 0.179507 0.815403
O O2 0.782813 0.320496 0.749780
O O3 0.866795 0.225050 0.778505
O O4 0.633205 0.274948 0.012098
O O5 0.302918 0.094470 0.294889
O O6 0.066736 0.139087 0.568263
O O7 0.225321 0.090968 0.524679
O O8 0.127448 0.000000 0.511555
O O9 0.409649 0.775331 0.185261
O O10 0.447028 0.742602 0.302974
O O11 0.433265 0.639087 0.201736
O O12 0.000000 0.382419 0.000000
O O13 0.909650 0.724670 0.495445
O O14 0.627449 0.500000 0.733548
O O15 0.802918 0.594470 0.599273
O O16 0.500000 0.117578 0.500000
#
# Coordination Sequence:
#
# PCOD8087835 Si02
#       7
#     8   8   8   8   8   8   8
#     4  10  19  32  51  78 106 126 172 224 269 310
#     4  10  20  34  53  77 106 141 179 216 260 318
#     4  10  19  33  54  77 102 138 179 220 263 310
#     4  10  19  32  53  75 104 135 175 223 266 308
#     4  10  19  33  54  77 102 138 179 220 263 310
#     4  10  20  34  53  77 106 141 179 216 260 318
#     4  10  19  32  53  75 104 135 175 223 266 308
#
# _framework density 18.108785999999998
#
# number of rings (size 3 to 8) (size 9 to 14) (size 15 to 20)
#    0.000    2.000    2.857    1.286    0.000    2.857 
#    0.000    2.857    0.000    1.714    0.000   16.000 
#    0.000    0.000    0.000    0.000    0.000    0.000 
#
# Total GULP energy -347198.622229 kJ/mol
# GULP energy per Si atom -12399.950794 kJ/mol
# Density = 1.806757 g / cm^3
# Si number density = 18.108786 Si / 1000 Ang^3
#
#
#
# Elastic Constant Matrix: (Units=GPa)
#
#
# Indices 1 2 3 4 5 6 
#
# 1 81.6095 32.8910 21.7970 0.0000 -8.6037 -0.0003
# 2 32.8910 87.9846 37.0848 0.0003 -3.7775 -0.0005
# 3 21.7970 37.0848 90.6561 0.0001 0.4535 -0.0007
# 4 0.0000 0.0003 0.0001 19.5369 -0.0002 -0.9209
# 5 -8.6037 -3.7775 0.4535 -0.0002 26.5249 0.0004
# 6 -0.0003 -0.0005 -0.0007 -0.9209 0.0004 18.5141
#
#
#
# Elastic Compliance Matrix: (Units=1/GPa)
#
#
# Indices 1 2 3 4 5 6 
#
# 1 0.015063 -0.004729 -0.001709 0.000000 0.004242 0.000000
# 2 -0.004729 0.015331 -0.005138 0.000000 0.000737 0.000000
# 3 -0.001709 -0.005138 0.013551 0.000000 -0.001518 0.000000
# 4 0.000000 0.000000 0.000000 0.051306 0.000000 0.002552
# 5 0.004242 0.000737 -0.001518 0.000000 0.039207 -0.000001
# 6 0.000000 0.000000 0.000000 0.002552 -0.000001 0.054140
#
#
# Mechanical properties :
#
#
# Convention : Reuss Voigt Hill
#
# Bulk Modulus (GPa) = 48.09107 49.31064 48.70086
# Shear Modulus (GPa) = 22.86460 24.14699 23.50579
#
# Velocity S-wave (km/s) = 3.55720 3.65559 3.60673
# Velocity P-wave (km/s) = 6.59439 6.71619 6.65557
#
# Compressibility (1/GPa) = 0.02079388
#
# Stress axis : x y z
#
# Youngs Moduli (GPa) = 66.38890 65.22888 73.79576
#
# Poissons Ratio (x) = 0.30844 0.12608
# Poissons Ratio (y) = 0.31393 0.37917
# Poissons Ratio (z) = 0.11343 0.33515
#
# Static dielectric constant tensor:
#      x y z
#    x 3.474650 0.000000 0.018560 
#    y 0.000000 3.118120 0.000000 
#    z 0.018560 0.000000 3.454060 
# 
# 
# High freq. dielectric constant tensor:
#      x y z
#    x 1.711140 0.000000 0.005510 
#    y 0.000000 1.673550 0.000000 
#    z 0.005510 0.000000 1.705020 
# 
# From -- ./inp_files/284976.got.cif
#   From: 2010.06.25/outbox.cif.g09.slc.cpg/sg12_143_cif.got.tgz:284976.got - 2010.06.28 00:19:55.
