data_PCOD8087393
_publ_section_title
;
Structure prediction by ZEFSAII (Michael W. Deem and Ramdas Pophale) SiO2 
 PCOD8087393
Probable space group: C 2/M
;
_chemical_formula_sum "Si O2"
_cell_formula_units_Z 60
_cell_length_a 27.036256
_cell_length_b 9.214909
_cell_length_c 16.852907
_cell_angle_alpha 90.000000
_cell_angle_beta 50.588582
_cell_angle_gamma 90.000000
_cell_volume 3243.927220
_symmetry_space_group_name_H-M "C 2/M"
_symmetry_group_IT_number 12
_symmetry_cell_setting 'monoclinic'
loop_
_space_group_symop_operation_xyz
x,y,z
-x,y,-z
-x,-y,-z
x,-y,z
1/2+x,1/2+y,z
1/2-x,1/2+y,-z
1/2-x,1/2-y,-z
1/2+x,1/2-y,z
loop_
_atom_site_type_symbol
_atom_site_label
_atom_site_fract_x
_atom_site_fract_y
_atom_site_fract_z
Si Si1 0.252562 0.170931 0.262692
Si Si2 0.154140 0.331820 0.124422
Si Si3 0.500000 0.257945 0.500000
Si Si4 0.704771 0.168573 0.606796
Si Si5 0.631631 0.159727 0.418192
Si Si6 0.417244 0.165470 0.360214
Si Si7 0.212996 0.831908 0.923630
Si Si8 0.967105 0.838633 0.703191
O O1 0.282261 0.217921 0.316583
O O2 0.178447 0.219918 0.333862
O O3 0.293420 0.253925 0.154567
O O4 0.255940 0.000000 0.243423
O O5 0.140871 0.500000 0.119397
O O6 0.215039 0.312200 0.118659
O O7 0.094857 0.262794 0.231249
O O8 0.163570 0.246726 0.032626
O O9 0.562823 0.159383 0.445631
O O10 0.492080 0.353300 0.587332
O O11 0.750000 0.250000 0.500000
O O12 0.630004 0.201241 0.664738
O O13 0.720220 0.000000 0.580237
O O14 0.624456 0.191221 0.518502
O O15 0.661801 0.000000 0.373192
O O16 0.478262 0.270862 0.295795
O O17 0.442443 0.000000 0.331389
O O18 0.193832 0.000000 0.936024
O O19 0.951241 0.000000 0.750347
#
# Coordination Sequence:
#
# PCOD8087393 Si02
#       8
#     8   8   4   8   8   8   8   8
#     4  11  22  33  52  81 112 141 176 225 276 323
#     4  10  21  38  59  81 109 144 181 222 270 321
#     4  10  22  34  48  74 112 144 182 218 260 312
#     4  10  20  35  54  78 108 145 183 225 274 324
#     4  10  19  32  50  71 101 143 184 220 260 314
#     4   9  19  35  52  72 103 142 183 220 263 319
#     4  10  21  37  58  83 109 141 182 224 268 321
#     4  11  22  35  53  78 108 144 182 221 267 320
#
# _framework density 18.496100999999999
#
# number of rings (size 3 to 8) (size 9 to 14) (size 15 to 20)
#    0.000    1.867    1.333    2.800    0.000    9.067 
#    0.000    0.000    0.000    0.800    0.000    5.600 
#    0.000    0.000    0.000    0.000    0.000    0.000 
#
# Total GULP energy -372039.328466 kJ/mol
# GULP energy per Si atom -12401.310949 kJ/mol
# Density = 1.845400 g / cm^3
# Si number density = 18.496101 Si / 1000 Ang^3
#
#
#
# Elastic Constant Matrix: (Units=GPa)
#
#
# Indices 1 2 3 4 5 6 
#
# 1 87.1659 33.6977 38.3845 0.0005 10.1724 -0.0001
# 2 33.6977 117.3617 47.8944 0.0031 6.3619 -0.0013
# 3 38.3845 47.8944 79.8877 0.0016 9.0185 -0.0006
# 4 0.0005 0.0031 0.0016 32.2263 -0.0004 -1.8273
# 5 10.1724 6.3619 9.0185 -0.0004 27.2570 0.0001
# 6 -0.0001 -0.0013 -0.0006 -1.8273 0.0001 23.1009
#
#
#
# Elastic Compliance Matrix: (Units=1/GPa)
#
#
# Indices 1 2 3 4 5 6 
#
# 1 0.015109 -0.001786 -0.005817 0.000000 -0.003297 0.000000
# 2 -0.001786 0.011496 -0.006032 -0.000001 -0.000021 0.000000
# 3 -0.005817 -0.006032 0.019243 0.000000 -0.002788 0.000000
# 4 0.000000 -0.000001 0.000000 0.031170 0.000001 0.002466
# 5 -0.003297 -0.000021 -0.002788 0.000001 0.038846 0.000000
# 6 0.000000 0.000000 0.000000 0.002466 0.000000 0.043483
#
#
# Mechanical properties :
#
#
# Convention : Reuss Voigt Hill
#
# Bulk Modulus (GPa) = 53.82143 58.26317 56.04230
# Shear Modulus (GPa) = 25.93227 27.47941 26.70584
#
# Velocity S-wave (km/s) = 3.74844 3.85864 3.80394
# Velocity P-wave (km/s) = 6.92072 7.17083 7.04689
#
# Compressibility (1/GPa) = 0.01857996
#
# Stress axis : x y z
#
# Youngs Moduli (GPa) = 66.18568 86.98646 51.96594
#
# Poissons Ratio (x) = 0.15533 0.30228
# Poissons Ratio (y) = 0.11819 0.31345
# Poissons Ratio (z) = 0.38499 0.52468
#
# Static dielectric constant tensor:
#      x y z
#    x 3.444870 0.000000 0.099950 
#    y 0.000000 3.399950 0.000000 
#    z 0.099950 0.000000 3.246810 
# 
# 
# High freq. dielectric constant tensor:
#      x y z
#    x 1.707620 0.000000 0.003930 
#    y 0.000000 1.725020 0.000000 
#    z 0.003930 0.000000 1.699080 
# 
# From -- ./inp_files/292208.got.cif
#   From: 2010.06.25/outbox.cif.g09.slc.cpg/sg12_147_cif.got.tgz:292208.got - 2010.06.28 00:19:55.
