data_PCOD8087590
_publ_section_title
;
Structure prediction by ZEFSAII (Michael W. Deem and Ramdas Pophale) SiO2 
 PCOD8087590
Probable space group: C 2/M
;
_chemical_formula_sum "Si O2"
_cell_formula_units_Z 48
_cell_length_a 22.595709
_cell_length_b 8.962667
_cell_length_c 23.572263
_cell_angle_alpha 90.000000
_cell_angle_beta 35.037247
_cell_angle_gamma 90.000000
_cell_volume 2740.682582
_symmetry_space_group_name_H-M "C 2/M"
_symmetry_group_IT_number 12
_symmetry_cell_setting 'monoclinic'
loop_
_space_group_symop_operation_xyz
x,y,z
-x,y,-z
-x,-y,-z
x,-y,z
1/2+x,1/2+y,z
1/2-x,1/2+y,-z
1/2-x,1/2-y,-z
1/2+x,1/2-y,z
loop_
_atom_site_type_symbol
_atom_site_label
_atom_site_fract_x
_atom_site_fract_y
_atom_site_fract_z
Si Si1 0.922141 0.164249 0.009194
Si Si2 0.733722 0.323938 0.779031
Si Si3 0.050813 0.172603 0.400579
Si Si4 0.841166 0.173069 0.354019
Si Si5 0.366117 0.671591 0.463766
Si Si6 0.578339 0.175810 0.815180
O O1 0.966264 0.277752 0.927785
O O2 0.910432 0.000000 0.990443
O O3 0.813941 0.218887 0.121603
O O4 0.000000 0.154189 0.000000
O O5 0.723774 0.500000 0.776402
O O6 0.851291 0.275355 0.686576
O O7 0.672673 0.242912 0.776722
O O8 0.000000 0.215819 0.500000
O O9 0.971598 0.209664 0.412611
O O10 0.084617 0.000000 0.373599
O O11 0.723336 0.226201 0.440115
O O12 0.882660 0.205587 0.384509
O O13 0.914613 0.264722 0.254374
O O14 0.846310 0.000000 0.334049
O O15 0.333552 0.500000 0.499147
O O16 0.587507 0.000000 0.809002
#
# Coordination Sequence:
#
# PCOD8087590 Si02
#       6
#     8   8   8   8   8   8
#     4   8  16  31  48  69  98 127 157 197 245 292
#     4  10  20  33  50  73 101 131 161 197 243 293
#     4  10  20  33  50  73 102 132 160 195 239 288
#     4  10  19  32  51  72  98 131 165 203 242 285
#     4   9  19  34  50  72 101 132 164 198 242 290
#     4  11  20  30  49  75 100 127 163 204 244 288
#
# _framework density 17.513884999999998
#
# number of rings (size 3 to 8) (size 9 to 14) (size 15 to 20)
#    0.000    2.333    0.000    4.500    0.000    6.667 
#    0.000    0.000    0.000    1.000    0.000    0.000 
#    0.000    0.000    0.000    0.000    0.000    0.000 
#
# Total GULP energy -297605.963394 kJ/mol
# GULP energy per Si atom -12400.248475 kJ/mol
# Density = 1.747402 g / cm^3
# Si number density = 17.513885 Si / 1000 Ang^3
#
#
#
# Elastic Constant Matrix: (Units=GPa)
#
#
# Indices 1 2 3 4 5 6 
#
# 1 67.0925 36.3288 50.1279 -0.0003 2.9666 0.0002
# 2 36.3288 106.4521 69.6293 -0.0006 7.3466 0.0005
# 3 50.1279 69.6293 142.2051 -0.0003 6.7884 0.0002
# 4 -0.0003 -0.0006 -0.0003 31.5058 0.0003 -1.3339
# 5 2.9666 7.3466 6.7884 0.0003 21.8333 -0.0002
# 6 0.0002 0.0005 0.0002 -1.3339 -0.0002 22.3766
#
#
#
# Elastic Compliance Matrix: (Units=1/GPa)
#
#
# Indices 1 2 3 4 5 6 
#
# 1 0.021051 -0.003433 -0.005744 0.000000 0.000081 0.000000
# 2 -0.003433 0.014525 -0.005777 0.000000 -0.002625 0.000000
# 3 -0.005744 -0.005777 0.011932 0.000000 -0.000986 0.000000
# 4 0.000000 0.000000 0.000000 0.031821 0.000000 0.001897
# 5 0.000081 -0.002625 -0.000986 0.000000 0.046980 0.000000
# 6 0.000000 0.000000 0.000000 0.001897 0.000000 0.044803
#
#
# Mechanical properties :
#
#
# Convention : Reuss Voigt Hill
#
# Bulk Modulus (GPa) = 56.81054 69.76908 63.28981
# Shear Modulus (GPa) = 24.16789 25.78738 24.97763
#
# Velocity S-wave (km/s) = 3.71877 3.84134 3.78055
# Velocity P-wave (km/s) = 7.13770 7.71994 7.43452
#
# Compressibility (1/GPa) = 0.01760237
#
# Stress axis : x y z
#
# Youngs Moduli (GPa) = 47.50278 68.84671 83.80614
#
# Poissons Ratio (x) = 0.23634 0.48136
# Poissons Ratio (y) = 0.16307 0.48412
# Poissons Ratio (z) = 0.27284 0.39770
#
# Static dielectric constant tensor:
#      x y z
#    x 3.019050 0.000000 0.102780 
#    y 0.000000 3.282120 0.000000 
#    z 0.102780 0.000000 3.572800 
# 
# 
# High freq. dielectric constant tensor:
#      x y z
#    x 1.642710 0.000000 0.010500 
#    y 0.000000 1.682720 0.000000 
#    z 0.010500 0.000000 1.686910 
# 
# From -- ./inp_files/172117.got.cif
#   From: 2010.06.25/outbox.cif.g09.slc.cpg/sg12_87_cif.got.tgz:172117.got - 2010.06.28 00:19:55.
