data_PCOD8087470
_publ_section_title
;
Structure prediction by ZEFSAII (Michael W. Deem and Ramdas Pophale) SiO2 
 PCOD8087470
Probable space group: C 2/M
;
_chemical_formula_sum "Si O2"
_cell_formula_units_Z 64
_cell_length_a 27.042211
_cell_length_b 20.425354
_cell_length_c 9.284644
_cell_angle_alpha 90.000000
_cell_angle_beta 46.632249
_cell_angle_gamma 90.000000
_cell_volume 3728.106649
_symmetry_space_group_name_H-M "C 2/M"
_symmetry_group_IT_number 12
_symmetry_cell_setting 'monoclinic'
loop_
_space_group_symop_operation_xyz
x,y,z
-x,y,-z
-x,-y,-z
x,-y,z
1/2+x,1/2+y,z
1/2-x,1/2+y,-z
1/2-x,1/2-y,-z
1/2+x,1/2-y,z
loop_
_atom_site_type_symbol
_atom_site_label
_atom_site_fract_x
_atom_site_fract_y
_atom_site_fract_z
Si Si1 0.565134 0.727305 0.285603
Si Si2 0.287663 0.692349 0.343005
Si Si3 0.694142 0.926340 0.197567
Si Si4 0.434866 0.727305 0.046139
Si Si5 0.066776 0.379679 0.947943
Si Si6 0.066776 0.620321 0.284953
Si Si7 0.805858 0.426340 0.474137
Si Si8 0.287663 0.307650 0.006343
O O1 0.500000 0.699274 0.500000
O O2 0.577526 0.803318 0.296135
O O3 0.633124 0.689104 0.198555
O O4 0.548772 0.716166 0.152456
O O5 0.250000 0.750000 0.500000
O O6 0.366876 0.689104 0.231053
O O7 0.254623 0.622770 0.449066
O O8 0.282463 0.708883 0.185073
O O9 0.630916 0.918265 0.218075
O O10 0.670550 0.912182 0.408900
O O11 0.722552 0.000000 0.125039
O O12 0.754623 0.877230 0.032440
O O13 0.422474 0.803318 0.106240
O O14 0.500000 0.699274 0.000000
O O15 0.130916 0.418265 0.758262
O O16 0.059309 0.394634 0.131381
O O17 0.000000 0.405795 0.000000
O O18 0.000000 0.594204 0.500000
O O19 0.777448 0.500000 0.515247
O O20 0.250000 0.250000 0.000000
#
# Coordination Sequence:
#
# PCOD8087470 Si02
#       8
#     8   8   8   8   8   8   8   8
#     4   9  18  31  49  75 101 127 162 203 249 294
#     4  10  19  33  53  76 101 129 167 209 250 296
#     4  10  21  35  51  73 102 136 170 206 252 302
#     4   9  18  31  49  75 101 127 162 203 249 294
#     4  10  19  32  50  73 102 135 171 208 247 296
#     4  10  19  32  50  73 102 135 171 208 247 296
#     4  10  21  35  51  73 102 136 170 206 252 302
#     4  10  19  33  53  76 101 129 167 209 250 296
#
# _framework density 17.166892000000001
#
# number of rings (size 3 to 8) (size 9 to 14) (size 15 to 20)
#    0.000    2.250    2.500    0.750    0.000    3.000 
#    0.000    0.000    0.000    0.750    0.000    0.000 
#    0.000    0.000    0.000    0.000    0.000    0.000 
#
# Total GULP energy -396841.552491 kJ/mol
# GULP energy per Si atom -12401.298515 kJ/mol
# Density = 1.712782 g / cm^3
# Si number density = 17.166892 Si / 1000 Ang^3
#
#
#
# Elastic Constant Matrix: (Units=GPa)
#
#
# Indices 1 2 3 4 5 6 
#
# 1 116.3984 55.4889 51.5979 0.0000 -20.2546 0.0000
# 2 55.4889 89.8101 54.5042 0.0000 -13.1928 0.0000
# 3 51.5979 54.5042 113.3421 0.0000 -20.6861 0.0000
# 4 0.0000 0.0000 0.0000 18.2601 0.0000 -2.5170
# 5 -20.2546 -13.1928 -20.6861 0.0000 25.8619 0.0000
# 6 0.0000 0.0000 0.0000 -2.5170 0.0000 18.4481
#
#
#
# Elastic Compliance Matrix: (Units=1/GPa)
#
#
# Indices 1 2 3 4 5 6 
#
# 1 0.013479 -0.006210 -0.002109 0.000000 0.005701 0.000000
# 2 -0.006210 0.018703 -0.006222 0.000000 -0.000299 0.000000
# 3 -0.002109 -0.006222 0.013927 0.000000 0.006314 0.000000
# 4 0.000000 0.000000 0.000000 0.055814 0.000000 0.007615
# 5 0.005701 -0.000299 0.006314 0.000000 0.048030 0.000000
# 6 0.000000 0.000000 0.000000 0.007615 0.000000 0.055245
#
#
# Mechanical properties :
#
#
# Convention : Reuss Voigt Hill
#
# Bulk Modulus (GPa) = 58.72854 71.41474 65.07164
# Shear Modulus (GPa) = 20.83710 23.04465 21.94088
#
# Velocity S-wave (km/s) = 3.48774 3.66784 3.57892
# Velocity P-wave (km/s) = 7.10660 7.72191 7.42064
#
# Compressibility (1/GPa) = 0.01702750
#
# Stress axis : x y z
#
# Youngs Moduli (GPa) = 74.19079 53.46596 71.80159
#
# Poissons Ratio (x) = 0.33204 0.15144
# Poissons Ratio (y) = 0.46075 0.44672
# Poissons Ratio (z) = 0.15647 0.33264
#
# Static dielectric constant tensor:
#      x y z
#    x 3.309860 0.000000 -0.076660 
#    y 0.000000 3.066030 0.000000 
#    z -0.076660 0.000000 3.304140 
# 
# 
# High freq. dielectric constant tensor:
#      x y z
#    x 1.665340 0.000000 -0.000080 
#    y 0.000000 1.636170 0.000000 
#    z -0.000080 0.000000 1.665330 
# 
# From -- ./inp_files/77523.got.cif
#   From: 2010.06.25/outbox.cif.g09.slc.cpg/sg12_39_cif.got.tgz:77523.got - 2010.06.28 00:19:55.
