data_PCOD8087552
_publ_section_title
;
Structure prediction by ZEFSAII (Michael W. Deem and Ramdas Pophale) SiO2 
 PCOD8087552
Probable space group: C 2/M
;
_chemical_formula_sum "Si O2"
_cell_formula_units_Z 64
_cell_length_a 29.826727
_cell_length_b 9.356254
_cell_length_c 15.382308
_cell_angle_alpha 90.000000
_cell_angle_beta 131.825893
_cell_angle_gamma 90.000000
_cell_volume 3198.800904
_symmetry_space_group_name_H-M "C 2/M"
_symmetry_group_IT_number 12
_symmetry_cell_setting 'monoclinic'
loop_
_space_group_symop_operation_xyz
x,y,z
-x,y,-z
-x,-y,-z
x,-y,z
1/2+x,1/2+y,z
1/2-x,1/2+y,-z
1/2-x,1/2-y,-z
1/2+x,1/2-y,z
loop_
_atom_site_type_symbol
_atom_site_label
_atom_site_fract_x
_atom_site_fract_y
_atom_site_fract_z
Si Si1 0.566647 0.670098 0.613252
Si Si2 0.698880 0.834225 0.087552
Si Si3 0.979264 0.338976 0.119282
Si Si4 0.112627 0.164842 0.096920
Si Si5 0.608209 0.840122 0.831279
Si Si6 0.591956 0.657593 0.264786
Si Si7 0.288695 0.338203 0.481755
Si Si8 0.683443 0.333275 0.669581
O O1 0.500000 0.725538 0.500000
O O2 0.566777 0.500000 0.620720
O O3 0.586336 0.729044 0.731817
O O4 0.617159 0.725838 0.609835
O O5 0.667610 0.738781 0.119790
O O6 0.770390 0.804298 0.190213
O O7 0.683499 0.000000 0.087767
O O8 0.673499 0.797298 0.957984
O O9 0.985899 0.500000 0.092998
O O10 0.939109 0.333688 0.152603
O O11 0.044160 0.277854 0.226957
O O12 0.950343 0.241527 0.006854
O O13 0.123792 0.184694 0.213444
O O14 0.109169 0.000000 0.064014
O O15 0.611187 0.000000 0.795051
O O16 0.561358 0.500000 0.225078
O O17 0.641945 0.664851 0.402668
O O18 0.263103 0.500000 0.448334
O O19 0.250000 0.250000 0.500000
O O20 0.289414 0.268690 0.385242
O O21 0.676104 0.500000 0.642324
#
# Coordination Sequence:
#
# PCOD8087552 Si02
#       8
#     8   8   8   8   8   8   8   8
#     4  10  22  38  60  87 112 146 192 232 274 341
#     4   9  18  35  58  80 109 148 188 230 279 340
#     4  10  21  35  53  78 108 146 191 231 276 341
#     4  10  19  32  50  78 114 146 182 232 286 333
#     4   9  20  37  55  80 111 143 181 230 287 333
#     4  10  21  33  50  77 110 147 186 236 288 334
#     4  10  21  37  57  81 113 149 188 234 284 334
#     4   9  19  37  59  84 113 149 191 236 282 330
#
# _framework density 20.007496
#
# number of rings (size 3 to 8) (size 9 to 14) (size 15 to 20)
#    0.000    2.375    0.000    2.625    1.750    6.250 
#    0.000    1.250    0.000    0.000    0.000    0.000 
#    0.000    0.000    0.000    0.000    0.000    0.000 
#
# Total GULP energy -396665.079265 kJ/mol
# GULP energy per Si atom -12395.783727 kJ/mol
# Density = 1.996196 g / cm^3
# Si number density = 20.007496 Si / 1000 Ang^3
#
#
#
# Elastic Constant Matrix: (Units=GPa)
#
#
# Indices 1 2 3 4 5 6 
#
# 1 78.0303 31.1608 51.2654 0.0000 14.9354 0.0000
# 2 31.1608 72.4203 36.1048 0.0000 3.8508 0.0000
# 3 51.2654 36.1048 127.3423 0.0000 2.5364 0.0000
# 4 0.0000 0.0000 0.0000 25.0480 0.0000 -3.6296
# 5 14.9354 3.8508 2.5364 0.0000 29.4774 0.0000
# 6 0.0000 0.0000 0.0000 -3.6296 0.0000 27.2670
#
#
#
# Elastic Compliance Matrix: (Units=1/GPa)
#
#
# Indices 1 2 3 4 5 6 
#
# 1 0.021230 -0.005198 -0.006884 0.000000 -0.009485 0.000000
# 2 -0.005198 0.017441 -0.002864 0.000000 0.000602 0.000000
# 3 -0.006884 -0.002864 0.011379 0.000000 0.002883 0.000000
# 4 0.000000 0.000000 0.000000 0.040709 0.000000 0.005419
# 5 -0.009485 0.000602 0.002883 0.000000 0.038403 0.000000
# 6 0.000000 0.000000 0.000000 0.005419 0.000000 0.037396
#
#
# Mechanical properties :
#
#
# Convention : Reuss Voigt Hill
#
# Bulk Modulus (GPa) = 49.61159 57.20610 53.40885
# Shear Modulus (GPa) = 24.61011 26.97593 25.79302
#
# Velocity S-wave (km/s) = 3.51100 3.67589 3.59439
# Velocity P-wave (km/s) = 6.42546 6.83159 6.63164
#
# Compressibility (1/GPa) = 0.02015658
#
# Stress axis : x y z
#
# Youngs Moduli (GPa) = 47.10414 57.33632 87.88293
#
# Poissons Ratio (x) = 0.29806 0.60497
# Poissons Ratio (y) = 0.24486 0.25171
# Poissons Ratio (z) = 0.32426 0.16422
#
# Static dielectric constant tensor:
#      x y z
#    x 3.540580 0.000000 0.102370 
#    y 0.000000 3.585520 0.000000 
#    z 0.102370 0.000000 3.863110 
# 
# 
# High freq. dielectric constant tensor:
#      x y z
#    x 1.771560 0.000000 0.005920 
#    y 0.000000 1.764000 0.000000 
#    z 0.005920 0.000000 1.789150 
# 
# From -- ./inp_files/250129.got.cif
#   From: 2010.06.25/outbox.cif.g09.slc.cpg/sg12_126_cif.got.tgz:250129.got - 2010.06.28 00:19:55.
