data_PCOD8087199
_publ_section_title
;
Structure prediction by ZEFSAII (Michael W. Deem and Ramdas Pophale) SiO2 
 PCOD8087199
Probable space group: C 2/M
;
_chemical_formula_sum "Si O2"
_cell_formula_units_Z 56
_cell_length_a 23.882477
_cell_length_b 22.971653
_cell_length_c 9.249492
_cell_angle_alpha 90.000000
_cell_angle_beta 41.355515
_cell_angle_gamma 90.000000
_cell_volume 3352.841664
_symmetry_space_group_name_H-M "C 2/M"
_symmetry_group_IT_number 12
_symmetry_cell_setting 'monoclinic'
loop_
_space_group_symop_operation_xyz
x,y,z
-x,y,-z
-x,-y,-z
x,-y,z
1/2+x,1/2+y,z
1/2-x,1/2+y,-z
1/2-x,1/2-y,-z
1/2+x,1/2-y,z
loop_
_atom_site_type_symbol
_atom_site_label
_atom_site_fract_x
_atom_site_fract_y
_atom_site_fract_z
Si Si1 0.515334 0.341642 0.633171
Si Si2 0.735537 0.067622 0.469764
Si Si3 0.586663 0.851158 0.751498
Si Si4 0.002059 0.704672 0.332371
Si Si5 0.668287 0.785461 0.843418
Si Si6 0.358862 0.344580 0.130910
Si Si7 0.173955 0.140088 0.493336
O O1 0.500000 0.362610 0.500000
O O2 0.522053 0.272304 0.631098
O O3 0.603673 0.371965 0.508213
O O4 0.441298 0.363989 0.882269
O O5 0.638591 0.088570 0.646925
O O6 0.789155 0.104236 0.246214
O O7 0.774574 0.082126 0.554278
O O8 0.741721 0.000000 0.423585
O O9 0.568213 0.829055 0.625388
O O10 0.641098 0.801928 0.731535
O O11 0.500000 0.864952 0.000000
O O12 0.000000 0.681710 0.500000
O O13 0.096047 0.691178 0.091427
O O14 0.678416 0.716724 0.851292
O O15 0.758704 0.814082 0.702560
O O16 0.377345 0.335395 0.266636
#
# Coordination Sequence:
#
# PCOD8087199 Si02
#       7
#     8   8   8   8   8   8   8
#     4  10  19  32  46  75 105 130 157 195 245 302
#     4   9  20  33  51  75  94 123 174 214 240 272
#     4   9  17  30  53  76 101 129 157 199 242 298
#     4   9  18  30  45  74 112 132 151 186 241 306
#     4   9  16  30  47  78 100 126 162 193 248 295
#     4   9  18  30  51  71  97 129 160 204 244 287
#     4   9  18  30  52  70  97 126 162 202 246 286
#
# _framework density 16.702249999999999
#
# number of rings (size 3 to 8) (size 9 to 14) (size 15 to 20)
#    0.857    2.000    0.000    1.714    2.000    2.571 
#    2.571    3.571    0.000    2.143    0.000    0.000 
#    0.000    0.000    0.000    0.000    0.000    0.000 
#
# Total GULP energy -346970.896616 kJ/mol
# GULP energy per Si atom -12391.817736 kJ/mol
# Density = 1.666424 g / cm^3
# Si number density = 16.702250 Si / 1000 Ang^3
#
#
#
# Elastic Constant Matrix: (Units=GPa)
#
#
# Indices 1 2 3 4 5 6 
#
# 1 87.6714 27.1088 47.8630 0.0000 -3.3579 0.0000
# 2 27.1088 86.2679 28.2990 0.0000 -11.3149 0.0000
# 3 47.8630 28.2990 71.3904 0.0000 -2.5455 0.0000
# 4 0.0000 0.0000 0.0000 12.5904 0.0000 -5.0475
# 5 -3.3579 -11.3149 -2.5455 0.0000 28.7983 0.0000
# 6 0.0000 0.0000 0.0000 -5.0475 0.0000 11.5719
#
#
#
# Elastic Compliance Matrix: (Units=1/GPa)
#
#
# Indices 1 2 3 4 5 6 
#
# 1 0.018285 -0.001933 -0.011480 0.000000 0.000358 0.000000
# 2 -0.001933 0.014220 -0.004163 0.000000 0.004994 0.000000
# 3 -0.011480 -0.004163 0.023322 0.000000 -0.000913 0.000000
# 4 0.000000 0.000000 0.000000 0.096258 0.000000 0.041986
# 5 0.000358 0.004994 -0.000913 0.000000 0.036647 0.000000
# 6 0.000000 0.000000 0.000000 0.041986 0.000000 0.104730
#
#
# Mechanical properties :
#
#
# Convention : Reuss Voigt Hill
#
# Bulk Modulus (GPa) = 48.36756 50.20792 49.28774
# Shear Modulus (GPa) = 14.90293 20.06272 17.48282
#
# Velocity S-wave (km/s) = 2.99033 3.46959 3.23884
# Velocity P-wave (km/s) = 6.39878 6.79534 6.60004
#
# Compressibility (1/GPa) = 0.02067501
#
# Stress axis : x y z
#
# Youngs Moduli (GPa) = 54.68965 70.32502 42.87869
#
# Poissons Ratio (x) = 0.13595 0.49225
# Poissons Ratio (y) = 0.10572 0.17849
# Poissons Ratio (z) = 0.62783 0.29273
#
# Static dielectric constant tensor:
#      x y z
#    x 3.012040 0.000000 -0.094140 
#    y 0.000000 2.667280 0.000000 
#    z -0.094140 0.000000 3.220250 
# 
# 
# High freq. dielectric constant tensor:
#      x y z
#    x 1.629320 0.000000 -0.016120 
#    y 0.000000 1.598260 0.000000 
#    z -0.016120 0.000000 1.647680 
# 
# From -- ./inp_files/90325.got.cif
#   From: 2010.06.25/outbox.cif.g09.slc.cpg/sg12_46_cif.got.tgz:90325.got - 2010.06.28 00:19:55.
