data_PCOD8087729
_publ_section_title
;
Structure prediction by ZEFSAII (Michael W. Deem and Ramdas Pophale) SiO2 
 PCOD8087729
Probable space group: C 2/M
;
_chemical_formula_sum "Si O2"
_cell_formula_units_Z 56
_cell_length_a 19.275881
_cell_length_b 8.729505
_cell_length_c 28.652284
_cell_angle_alpha 90.000000
_cell_angle_beta 141.163468
_cell_angle_gamma 90.000000
_cell_volume 3023.432750
_symmetry_space_group_name_H-M "C 2/M"
_symmetry_group_IT_number 12
_symmetry_cell_setting 'monoclinic'
loop_
_space_group_symop_operation_xyz
x,y,z
-x,y,-z
-x,-y,-z
x,-y,z
1/2+x,1/2+y,z
1/2-x,1/2+y,-z
1/2-x,1/2-y,-z
1/2+x,1/2-y,z
loop_
_atom_site_type_symbol
_atom_site_label
_atom_site_fract_x
_atom_site_fract_y
_atom_site_fract_z
Si Si1 0.701157 0.821561 0.406642
Si Si2 0.345383 0.180047 0.196046
Si Si3 0.541755 0.677273 0.249717
Si Si4 0.900631 0.819513 0.918018
Si Si5 0.850156 0.178149 0.789611
Si Si6 0.373158 0.320337 0.310465
Si Si7 0.090987 0.678312 0.446803
O O1 0.631624 0.771906 0.325539
O O2 0.817547 0.731895 0.467889
O O3 0.632142 0.779963 0.416521
O O4 0.727495 0.000000 0.417723
O O5 0.417842 0.265687 0.195112
O O6 0.217099 0.224427 0.120520
O O7 0.383101 0.230764 0.266977
O O8 0.366293 0.000000 0.202623
O O9 0.553332 0.500000 0.269205
O O10 0.562903 0.705987 0.206076
O O11 0.904661 0.761514 0.866511
O O12 0.916350 0.000000 0.926397
O O13 0.000000 0.742465 0.000000
O O14 0.738131 0.272126 0.720734
O O15 0.817350 0.000000 0.777356
O O16 0.373969 0.500000 0.301330
O O17 0.477857 0.271115 0.396737
O O18 0.067947 0.500000 0.441475
#
# Coordination Sequence:
#
# PCOD8087729 Si02
#       7
#     8   8   8   8   8   8   8
#     4  10  20  32  50  75 105 139 176 222 267 310
#     4  10  19  32  53  79 106 138 177 218 259 310
#     4  11  21  34  52  76 108 143 177 217 264 316
#     4   8  15  32  58  82 103 134 177 217 255 308
#     4   9  20  36  54  77 107 141 176 215 265 317
#     4  11  20  32  53  78 104 137 180 224 264 312
#     4  10  19  32  51  75 105 138 176 223 268 310
#
# _framework density 18.521993999999999
#
# number of rings (size 3 to 8) (size 9 to 14) (size 15 to 20)
#    0.000    2.143    1.429    3.857    0.000    2.286 
#    0.000    1.429    0.000   15.000    0.000    0.000 
#    0.000    0.000    0.000    0.000    0.000    0.000 
#
# Total GULP energy -347234.193748 kJ/mol
# GULP energy per Si atom -12401.221205 kJ/mol
# Density = 1.847984 g / cm^3
# Si number density = 18.521994 Si / 1000 Ang^3
#
#
#
# Elastic Constant Matrix: (Units=GPa)
#
#
# Indices 1 2 3 4 5 6 
#
# 1 98.0313 26.4771 39.4392 0.0000 8.8684 -0.0001
# 2 26.4771 48.8898 20.9414 0.0001 4.9152 -0.0005
# 3 39.4392 20.9414 114.3282 0.0000 13.6160 0.0001
# 4 0.0000 0.0001 0.0000 18.5730 0.0000 5.5333
# 5 8.8684 4.9152 13.6160 0.0000 22.2388 0.0000
# 6 -0.0001 -0.0005 0.0001 5.5333 0.0000 26.5597
#
#
#
# Elastic Compliance Matrix: (Units=1/GPa)
#
#
# Indices 1 2 3 4 5 6 
#
# 1 0.013207 -0.005535 -0.003301 0.000000 -0.002022 0.000000
# 2 -0.005535 0.024656 -0.002395 0.000000 -0.001776 0.000001
# 3 -0.003301 -0.002395 0.010899 0.000000 -0.004827 0.000000
# 4 0.000000 0.000000 0.000000 0.057404 0.000000 -0.011959
# 5 -0.002022 -0.001776 -0.004827 0.000000 0.049121 0.000000
# 6 0.000000 0.000001 0.000000 -0.011959 0.000000 0.040143
#
#
# Mechanical properties :
#
#
# Convention : Reuss Voigt Hill
#
# Bulk Modulus (GPa) = 38.02424 48.32940 43.17682
# Shear Modulus (GPa) = 22.05950 25.10042 23.57996
#
# Velocity S-wave (km/s) = 3.45482 3.68525 3.57189
# Velocity P-wave (km/s) = 6.04054 6.65265 6.35397
#
# Compressibility (1/GPa) = 0.02629901
#
# Stress axis : x y z
#
# Youngs Moduli (GPa) = 75.71839 40.55758 91.74959
#
# Poissons Ratio (x) = 0.22449 0.30289
# Poissons Ratio (y) = 0.41910 0.21978
# Poissons Ratio (z) = 0.24996 0.09715
#
# Static dielectric constant tensor:
#      x y z
#    x 3.327060 0.000000 0.169280 
#    y 0.000000 3.317280 0.000000 
#    z 0.169280 0.000000 3.561400 
# 
# 
# High freq. dielectric constant tensor:
#      x y z
#    x 1.700200 0.000000 0.016440 
#    y 0.000000 1.714870 0.000000 
#    z 0.016440 0.000000 1.711480 
# 
# From -- ./inp_files/342031.got.cif
#   From: 2010.06.25/outbox.cif.g09.slc.cpg/sg12_172_cif.got.tgz:342031.got - 2010.06.28 00:19:55.
