data_PCOD8087983
_publ_section_title
;
Structure prediction by ZEFSAII (Michael W. Deem and Ramdas Pophale) SiO2 
 PCOD8087983
Probable space group: C 2/M
;
_chemical_formula_sum "Si O2"
_cell_formula_units_Z 40
_cell_length_a 31.034527
_cell_length_b 9.079712
_cell_length_c 26.446227
_cell_angle_alpha 90.000000
_cell_angle_beta 162.779265
_cell_angle_gamma 90.000000
_cell_volume 2206.233514
_symmetry_space_group_name_H-M "C 2/M"
_symmetry_group_IT_number 12
_symmetry_cell_setting 'monoclinic'
loop_
_space_group_symop_operation_xyz
x,y,z
-x,y,-z
-x,-y,-z
x,-y,z
1/2+x,1/2+y,z
1/2-x,1/2+y,-z
1/2-x,1/2-y,-z
1/2+x,1/2-y,z
loop_
_atom_site_type_symbol
_atom_site_label
_atom_site_fract_x
_atom_site_fract_y
_atom_site_fract_z
Si Si1 0.074640 0.329515 0.758510
Si Si2 0.654096 0.166190 0.145389
Si Si3 0.977397 0.827135 0.091161
Si Si4 0.860063 0.671377 0.053873
Si Si5 0.224226 0.671163 0.628558
O O1 0.109945 0.500000 0.787387
O O2 0.196087 0.232199 0.867077
O O3 0.919463 0.282118 0.562550
O O4 0.071467 0.297426 0.814596
O O5 0.772235 0.239857 0.314869
O O6 0.702804 0.000000 0.187626
O O7 0.500000 0.170773 0.000000
O O8 0.643564 0.257342 0.081647
O O9 0.139175 0.789063 0.253648
O O10 0.948862 0.000000 0.062032
O O11 0.962264 0.756357 0.129236
O O12 0.858009 0.500000 0.038004
O O13 0.225794 0.500000 0.644405
#
# Coordination Sequence:
#
# PCOD8087983 Si02
#       5
#     8   8   8   8   8
#     4   9  19  36  54  72  99 134 168 204 249 298
#     4   9  17  30  49  74 103 132 162 201 249 295
#     4  10  19  32  52  76 102 133 167 203 245 295
#     4  10  20  34  52  74 101 133 168 206 248 294
#     4   9  18  33  53  76 101 131 167 204 245 296
#
# _framework density 18.130447
#
# number of rings (size 3 to 8) (size 9 to 14) (size 15 to 20)
#    0.000    2.600    0.000    1.800    0.000    5.600 
#    0.000    1.000    0.000    6.000    0.000    0.000 
#    0.000    0.000    0.000    0.000    0.000    0.000 
#
# Total GULP energy -248052.909073 kJ/mol
# GULP energy per Si atom -12402.645454 kJ/mol
# Density = 1.808918 g / cm^3
# Si number density = 18.130447 Si / 1000 Ang^3
#
#
#
# Elastic Constant Matrix: (Units=GPa)
#
#
# Indices 1 2 3 4 5 6 
#
# 1 27.9646 18.9327 25.2267 0.0004 -4.9946 0.0005
# 2 18.9327 83.5523 43.7628 -0.0008 -3.7434 -0.0002
# 3 25.2267 43.7628 127.0980 -0.0008 -12.7155 -0.0006
# 4 0.0004 -0.0008 -0.0008 26.5754 -0.0005 -3.9880
# 5 -4.9946 -3.7434 -12.7155 -0.0005 16.3652 -0.0002
# 6 0.0005 -0.0002 -0.0006 -3.9880 -0.0002 36.9324
#
#
#
# Elastic Compliance Matrix: (Units=1/GPa)
#
#
# Indices 1 2 3 4 5 6 
#
# 1 0.047646 -0.007204 -0.006166 -0.000001 0.008103 -0.000001
# 2 -0.007204 0.015697 -0.004159 0.000000 -0.001840 0.000000
# 3 -0.006166 -0.004159 0.011103 0.000000 0.005794 0.000000
# 4 -0.000001 0.000000 0.000000 0.038249 0.000001 0.004130
# 5 0.008103 -0.001840 0.005794 0.000001 0.067659 0.000000
# 6 -0.000001 0.000000 0.000000 0.004130 0.000000 0.027522
#
#
# Mechanical properties :
#
#
# Convention : Reuss Voigt Hill
#
# Bulk Modulus (GPa) = 25.38777 46.05102 35.71940
# Shear Modulus (GPa) = 19.52638 26.02079 22.77359
#
# Velocity S-wave (km/s) = 3.28532 3.79251 3.54799
# Velocity P-wave (km/s) = 5.33145 6.68076 6.04387
#
# Compressibility (1/GPa) = 0.03938904
#
# Stress axis : x y z
#
# Youngs Moduli (GPa) = 20.98808 63.70679 90.06198
#
# Poissons Ratio (x) = 0.45894 0.55530
# Poissons Ratio (y) = 0.15120 0.37457
# Poissons Ratio (z) = 0.12941 0.26496
#
# Static dielectric constant tensor:
#      x y z
#    x 3.246120 0.000000 -0.161080 
#    y 0.000000 3.438650 0.000000 
#    z -0.161080 0.000000 3.298780 
# 
# 
# High freq. dielectric constant tensor:
#      x y z
#    x 1.692490 0.000000 -0.016280 
#    y 0.000000 1.711580 0.000000 
#    z -0.016280 0.000000 1.692520 
# 
# From -- ./inp_files/92734.got.cif
#   From: 2010.06.25/outbox.cif.g09.slc.cpg/sg12_47_cif.got.tgz:92734.got - 2010.06.28 00:19:55.
