data_PCOD8087848
_publ_section_title
;
Structure prediction by ZEFSAII (Michael W. Deem and Ramdas Pophale) SiO2 
 PCOD8087848
Probable space group: C 2/M
;
_chemical_formula_sum "Si O2"
_cell_formula_units_Z 64
_cell_length_a 19.892907
_cell_length_b 8.704001
_cell_length_c 21.528292
_cell_angle_alpha 90.000000
_cell_angle_beta 63.458046
_cell_angle_gamma 90.000000
_cell_volume 3334.719016
_symmetry_space_group_name_H-M "C 2/M"
_symmetry_group_IT_number 12
_symmetry_cell_setting 'monoclinic'
loop_
_space_group_symop_operation_xyz
x,y,z
-x,y,-z
-x,-y,-z
x,-y,z
1/2+x,1/2+y,z
1/2-x,1/2+y,-z
1/2-x,1/2-y,-z
1/2+x,1/2-y,z
loop_
_atom_site_type_symbol
_atom_site_label
_atom_site_fract_x
_atom_site_fract_y
_atom_site_fract_z
Si Si1 0.209607 0.169758 0.426359
Si Si2 0.431519 0.181794 0.286612
Si Si3 0.863324 0.669789 0.438455
Si Si4 0.276197 0.818504 0.924395
Si Si5 0.811186 0.679147 0.149802
Si Si6 0.286266 0.320051 0.285243
Si Si7 0.563299 0.678474 0.159438
Si Si8 0.967553 0.823257 0.079679
O O1 0.140584 0.225565 0.498335
O O2 0.284115 0.168431 0.436340
O O3 0.222088 0.279140 0.361951
O O4 0.190347 0.000000 0.409914
O O5 0.424601 0.227524 0.362645
O O6 0.369047 0.271186 0.273075
O O7 0.513253 0.231371 0.230221
O O8 0.417770 0.000000 0.283836
O O9 0.883948 0.500000 0.453294
O O10 0.214253 0.776889 0.898911
O O11 0.354060 0.746152 0.870300
O O12 0.283879 0.000000 0.927891
O O13 0.250000 0.750000 0.000000
O O14 0.797236 0.500000 0.143677
O O15 0.766173 0.733019 0.229636
O O16 0.898974 0.712495 0.124753
O O17 0.286125 0.500000 0.272806
O O18 0.564609 0.500000 0.176816
O O19 0.532800 0.704735 0.102709
O O20 0.940134 0.000000 0.091572
O O21 0.000000 0.775167 0.000000
#
# Coordination Sequence:
#
# PCOD8087848 Si02
#       8
#     8   8   8   8   8   8   8   8
#     4   9  16  26  42  68 103 143 185 228 276 330
#     4  10  19  32  51  78 112 148 188 234 281 332
#     4   8  15  26  41  66 103 145 184 224 274 329
#     4  12  26  45  65  85 114 148 190 236 286 342
#     4  12  24  39  60  85 114 147 190 235 285 340
#     4  11  20  32  51  77 111 149 188 232 284 335
#     4  11  22  37  59  86 116 150 189 233 286 340
#     4  10  21  37  58  84 114 145 181 227 281 339
#
# _framework density 19.192021
#
# number of rings (size 3 to 8) (size 9 to 14) (size 15 to 20)
#    0.000    1.625    1.250    6.000    0.000    5.250 
#    0.000    0.000    0.000    0.000    0.000    0.875 
#    0.000    7.000    0.000    0.000    0.000    0.000 
#
# Total GULP energy -396851.038945 kJ/mol
# GULP energy per Si atom -12401.594967 kJ/mol
# Density = 1.914834 g / cm^3
# Si number density = 19.192021 Si / 1000 Ang^3
#
#
#
# Elastic Constant Matrix: (Units=GPa)
#
#
# Indices 1 2 3 4 5 6 
#
# 1 32.1686 12.4640 9.3003 0.0001 0.0452 -0.0003
# 2 12.4640 84.7012 35.2982 0.0001 -2.4026 -0.0004
# 3 9.3003 35.2982 132.1866 0.0000 -6.9941 -0.0001
# 4 0.0001 0.0001 0.0000 36.5198 -0.0001 -0.3936
# 5 0.0452 -2.4026 -6.9941 -0.0001 20.6897 -0.0001
# 6 -0.0003 -0.0004 -0.0001 -0.3936 -0.0001 23.0200
#
#
#
# Elastic Compliance Matrix: (Units=1/GPa)
#
#
# Indices 1 2 3 4 5 6 
#
# 1 0.033143 -0.004401 -0.001209 0.000000 -0.000992 0.000000
# 2 -0.004401 0.013872 -0.003369 0.000000 0.000482 0.000000
# 3 -0.001209 -0.003369 0.008685 0.000000 0.002547 0.000000
# 4 0.000000 0.000000 0.000000 0.027387 0.000000 0.000468
# 5 -0.000992 0.000482 0.002547 0.000000 0.049252 0.000000
# 6 0.000000 0.000000 0.000000 0.000468 0.000000 0.043448
#
#
# Mechanical properties :
#
#
# Convention : Reuss Voigt Hill
#
# Bulk Modulus (GPa) = 26.49716 40.35347 33.42532
# Shear Modulus (GPa) = 24.23355 28.84549 26.53952
#
# Velocity S-wave (km/s) = 3.55729 3.88105 3.72269
# Velocity P-wave (km/s) = 5.54154 6.41524 5.99433
#
# Compressibility (1/GPa) = 0.03773989
#
# Stress axis : x y z
#
# Youngs Moduli (GPa) = 30.17274 72.09010 115.14722
#
# Poissons Ratio (x) = 0.31729 0.13921
# Poissons Ratio (y) = 0.13280 0.38793
# Poissons Ratio (z) = 0.03648 0.24287
#
# Static dielectric constant tensor:
#      x y z
#    x 3.074940 0.000000 -0.007920 
#    y 0.000000 3.605100 0.000000 
#    z -0.007920 0.000000 3.896440 
# 
# 
# High freq. dielectric constant tensor:
#      x y z
#    x 1.690790 0.000000 -0.000410 
#    y 0.000000 1.757110 0.000000 
#    z -0.000410 0.000000 1.769680 
# 
# From -- ./inp_files/319773.got.cif
#   From: 2010.06.25/outbox.cif.g09.slc.cpg/sg12_160_cif.got.tgz:319773.got - 2010.06.28 00:19:55.
