data_PCOD8087995
_publ_section_title
;
Structure prediction by ZEFSAII (Michael W. Deem and Ramdas Pophale) SiO2 
 PCOD8087995
Probable space group: C 2/M
;
_chemical_formula_sum "Si O2"
_cell_formula_units_Z 64
_cell_length_a 20.606578
_cell_length_b 9.001298
_cell_length_c 21.596882
_cell_angle_alpha 90.000000
_cell_angle_beta 61.122175
_cell_angle_gamma 90.000000
_cell_volume 3507.788265
_symmetry_space_group_name_H-M "C 2/M"
_symmetry_group_IT_number 12
_symmetry_cell_setting 'monoclinic'
loop_
_space_group_symop_operation_xyz
x,y,z
-x,y,-z
-x,-y,-z
x,-y,z
1/2+x,1/2+y,z
1/2-x,1/2+y,-z
1/2-x,1/2-y,-z
1/2+x,1/2-y,z
loop_
_atom_site_type_symbol
_atom_site_label
_atom_site_fract_x
_atom_site_fract_y
_atom_site_fract_z
Si Si1 0.282050 0.824535 0.546198
Si Si2 0.174774 0.673381 0.155573
Si Si3 0.084761 0.825705 0.447736
Si Si4 0.668492 0.176573 0.923685
Si Si5 0.649649 0.830096 0.304534
Si Si6 0.696359 0.330982 0.707754
Si Si7 0.085407 0.324116 0.840209
Si Si8 0.919601 0.323764 0.916998
O O1 0.250000 0.750000 0.500000
O O2 0.362085 0.758506 0.528071
O O3 0.222715 0.787790 0.626937
O O4 0.291747 0.000000 0.532136
O O5 0.194437 0.500000 0.140680
O O6 0.248809 0.765362 0.113402
O O7 0.134628 0.706194 0.239614
O O8 0.119026 0.728239 0.128389
O O9 0.100917 0.777187 0.369758
O O10 0.000000 0.783385 0.500000
O O11 0.099300 0.000000 0.448158
O O12 0.626507 0.236476 0.882314
O O13 0.670528 0.000000 0.923149
O O14 0.625396 0.239145 0.003537
O O15 0.736547 0.802359 0.275751
O O16 0.629356 0.000000 0.331014
O O17 0.669585 0.500000 0.722599
O O18 0.627342 0.229990 0.759209
O O19 0.083945 0.500000 0.839644
O O20 0.002520 0.258439 0.879082
O O21 0.922679 0.500000 0.919740
#
# Coordination Sequence:
#
# PCOD8087995 Si02
#       8
#     8   8   8   8   8   8   8   8
#     4  10  21  38  60  85 114 147 183 224 271 325
#     4  10  19  34  54  74 102 137 175 221 266 315
#     4  10  21  37  58  84 114 145 181 226 274 323
#     4  10  19  32  53  77 101 135 177 220 265 316
#     4   9  18  33  54  77 103 139 181 220 264 320
#     4   9  18  34  54  77 106 137 173 217 262 309
#     4  10  19  32  52  76 103 137 179 217 259 316
#     4   9  19  34  50  73 106 138 172 219 269 315
#
# _framework density 18.245114000000001
#
# number of rings (size 3 to 8) (size 9 to 14) (size 15 to 20)
#    0.000    2.375    1.250    2.250    0.000    5.500 
#    2.250    1.250    0.000    1.500    0.000    0.000 
#    0.000    0.000    0.000    0.000    0.000    0.000 
#
# Total GULP energy -396825.254312 kJ/mol
# GULP energy per Si atom -12400.789197 kJ/mol
# Density = 1.820359 g / cm^3
# Si number density = 18.245114 Si / 1000 Ang^3
#
#
#
# Elastic Constant Matrix: (Units=GPa)
#
#
# Indices 1 2 3 4 5 6 
#
# 1 129.8451 41.2006 78.6571 0.0001 3.6365 0.0000
# 2 41.2006 47.3588 41.8579 -0.0005 -0.1930 0.0000
# 3 78.6571 41.8579 125.3551 -0.0001 4.3776 0.0003
# 4 0.0001 -0.0005 -0.0001 28.5310 0.0001 -0.6505
# 5 3.6365 -0.1930 4.3776 0.0001 31.0575 0.0002
# 6 0.0000 0.0000 0.0003 -0.6505 0.0002 20.7591
#
#
#
# Elastic Compliance Matrix: (Units=1/GPa)
#
#
# Indices 1 2 3 4 5 6 
#
# 1 0.013565 -0.006105 -0.006448 0.000000 -0.000717 0.000000
# 2 -0.006105 0.032783 -0.007184 0.000001 0.001931 0.000000
# 3 -0.006448 -0.007184 0.014468 0.000000 -0.001329 0.000000
# 4 0.000000 0.000001 0.000000 0.035075 0.000000 0.001099
# 5 -0.000717 0.001931 -0.001329 0.000000 0.032482 0.000000
# 6 0.000000 0.000000 0.000000 0.001099 0.000000 0.048206
#
#
# Mechanical properties :
#
#
# Convention : Reuss Voigt Hill
#
# Bulk Modulus (GPa) = 46.85225 69.55445 58.20335
# Shear Modulus (GPa) = 22.40481 25.45910 23.93195
#
# Velocity S-wave (km/s) = 3.50807 3.73955 3.62566
# Velocity P-wave (km/s) = 6.49183 7.53993 7.03543
#
# Compressibility (1/GPa) = 0.02134369
#
# Stress axis : x y z
#
# Youngs Moduli (GPa) = 73.72095 30.50319 69.11593
#
# Poissons Ratio (x) = 0.18621 0.44566
# Poissons Ratio (y) = 0.45004 0.49651
# Poissons Ratio (z) = 0.47535 0.21913
#
# Static dielectric constant tensor:
#      x y z
#    x 3.421380 0.000000 0.105950 
#    y 0.000000 3.171110 0.000000 
#    z 0.105950 0.000000 3.482150 
# 
# 
# High freq. dielectric constant tensor:
#      x y z
#    x 1.702090 0.000000 0.003710 
#    y 0.000000 1.690640 0.000000 
#    z 0.003710 0.000000 1.716980 
# 
# From -- ./inp_files/319768.got.cif
#   From: 2010.06.25/outbox.cif.g09.slc.cpg/sg12_160_cif.got.tgz:319768.got - 2010.06.28 00:19:55.
