data_PCOD8087505
_publ_section_title
;
Structure prediction by ZEFSAII (Michael W. Deem and Ramdas Pophale) SiO2 
 PCOD8087505
Probable space group: C 2/M
;
_chemical_formula_sum "Si O2"
_cell_formula_units_Z 48
_cell_length_a 9.213816
_cell_length_b 18.890817
_cell_length_c 15.874707
_cell_angle_alpha 90.000000
_cell_angle_beta 65.715301
_cell_angle_gamma 90.000000
_cell_volume 2518.598429
_symmetry_space_group_name_H-M "C 2/M"
_symmetry_group_IT_number 12
_symmetry_cell_setting 'monoclinic'
loop_
_space_group_symop_operation_xyz
x,y,z
-x,y,-z
-x,-y,-z
x,-y,z
1/2+x,1/2+y,z
1/2-x,1/2+y,-z
1/2-x,1/2-y,-z
1/2+x,1/2-y,z
loop_
_atom_site_type_symbol
_atom_site_label
_atom_site_fract_x
_atom_site_fract_y
_atom_site_fract_z
Si Si1 0.796962 0.205373 0.747671
Si Si2 0.959112 0.083343 0.912632
Si Si3 0.171215 0.077761 0.559457
Si Si4 0.137627 0.837259 0.723174
Si Si5 0.814562 0.689712 0.047463
Si Si6 0.294783 0.420367 0.632879
O O1 0.769185 0.277632 0.705127
O O2 0.701279 0.218599 0.855338
O O3 0.725150 0.136738 0.715505
O O4 0.982700 0.198762 0.720689
O O5 0.786281 0.117617 0.938340
O O6 0.090426 0.117729 0.818316
O O7 0.949274 0.000000 0.895336
O O8 0.000000 0.098412 0.000000
O O9 0.226435 0.117594 0.630183
O O10 0.237823 0.108285 0.454577
O O11 0.981694 0.075135 0.602861
O O12 0.242908 0.000000 0.550695
O O13 0.750000 0.750000 0.000000
O O14 0.000000 0.671575 0.000000
O O15 0.223276 0.500000 0.664648
#
# Coordination Sequence:
#
# PCOD8087505 Si02
#       6
#     8   8   8   8   8   8
#     4  10  20  31  50  74  98 131 163 203 250 293
#     4  10  21  36  54  76 103 135 172 215 257 300
#     4   8  14  27  49  72  96 128 164 204 246 292
#     4  10  19  32  50  75 103 130 167 204 249 303
#     4  11  21  35  54  75 104 139 172 207 253 305
#     4   8  15  29  48  72  98 125 163 207 249 292
#
# _framework density 19.058219000000001
#
# number of rings (size 3 to 8) (size 9 to 14) (size 15 to 20)
#    0.000    2.500    0.000    5.000    0.000    5.000 
#    0.000    0.000    0.000    2.000    0.000    2.333 
#    0.000    0.000    0.000    0.000    0.000    0.000 
#
# Total GULP energy -297348.245390 kJ/mol
# GULP energy per Si atom -12389.510225 kJ/mol
# Density = 1.901484 g / cm^3
# Si number density = 19.058219 Si / 1000 Ang^3
#
#
#
# Elastic Constant Matrix: (Units=GPa)
#
#
# Indices 1 2 3 4 5 6 
#
# 1 37.6355 23.6841 19.2174 0.0000 10.1176 0.0000
# 2 23.6841 114.8765 58.3688 0.0000 22.6302 0.0000
# 3 19.2174 58.3688 123.2599 0.0000 35.2942 0.0000
# 4 0.0000 0.0000 0.0000 32.6522 0.0000 10.9114
# 5 10.1176 22.6302 35.2942 0.0000 24.6644 0.0000
# 6 0.0000 0.0000 0.0000 10.9114 0.0000 26.9924
#
#
#
# Elastic Compliance Matrix: (Units=1/GPa)
#
#
# Indices 1 2 3 4 5 6 
#
# 1 0.031977 -0.004790 -0.000372 0.000000 -0.008190 0.000000
# 2 -0.004790 0.012506 -0.004155 0.000000 -0.003564 0.000000
# 3 -0.000372 -0.004155 0.015253 0.000000 -0.017862 0.000000
# 4 0.000000 0.000000 0.000000 0.035409 0.000000 -0.014314
# 5 -0.008190 -0.003564 -0.017862 0.000000 0.072734 0.000000
# 6 0.000000 0.000000 0.000000 -0.014314 0.000000 0.042834
#
#
# Mechanical properties :
#
#
# Convention : Reuss Voigt Hill
#
# Bulk Modulus (GPa) = 24.33001 53.14584 38.73793
# Shear Modulus (GPa) = 20.57218 28.49522 24.53370
#
# Velocity S-wave (km/s) = 3.28905 3.87093 3.59179
# Velocity P-wave (km/s) = 5.21705 6.92282 6.12956
#
# Compressibility (1/GPa) = 0.04110150
#
# Stress axis : x y z
#
# Youngs Moduli (GPa) = 31.27268 79.96375 65.56123
#
# Poissons Ratio (x) = 0.38305 0.02440
# Poissons Ratio (y) = 0.14981 0.27238
# Poissons Ratio (z) = 0.01164 0.33221
#
# Static dielectric constant tensor:
#      x y z
#    x 3.716970 0.000000 -2.443230 
#    y 0.000000 3.691720 0.000000 
#    z -2.443230 0.000000 17.241470 
# 
# 
# High freq. dielectric constant tensor:
#      x y z
#    x 1.703060 0.000000 0.027790 
#    y 0.000000 1.744550 0.000000 
#    z 0.027790 0.000000 1.752940 
# 
# From -- ./inp_files/196890.got.cif
#   From: 2010.06.25/outbox.cif.g09.slc.cpg/sg12_99_cif.got.tgz:196890.got - 2010.06.28 00:19:55.
