data_PCOD8087399
_publ_section_title
;
Structure prediction by ZEFSAII (Michael W. Deem and Ramdas Pophale) SiO2 
 PCOD8087399
Probable space group: C 2/M
;
_chemical_formula_sum "Si O2"
_cell_formula_units_Z 56
_cell_length_a 31.493239
_cell_length_b 13.106882
_cell_length_c 8.478655
_cell_angle_alpha 90.000000
_cell_angle_beta 115.280693
_cell_angle_gamma 90.000000
_cell_volume 3164.615245
_symmetry_space_group_name_H-M "C 2/M"
_symmetry_group_IT_number 12
_symmetry_cell_setting 'monoclinic'
loop_
_space_group_symop_operation_xyz
x,y,z
-x,y,-z
-x,-y,-z
x,-y,z
1/2+x,1/2+y,z
1/2-x,1/2+y,-z
1/2-x,1/2-y,-z
1/2+x,1/2-y,z
loop_
_atom_site_type_symbol
_atom_site_label
_atom_site_fract_x
_atom_site_fract_y
_atom_site_fract_z
Si Si1 0.267802 0.883179 0.891016
Si Si2 0.635924 0.116393 0.112197
Si Si3 0.684790 0.248084 0.782908
Si Si4 0.014674 0.883302 0.843858
Si Si5 0.539287 0.778508 0.456370
Si Si6 0.599669 0.284593 0.837288
Si Si7 0.377830 0.118351 0.552248
O O1 0.308657 0.867965 0.827656
O O2 0.220336 0.827264 0.756893
O O3 0.254998 0.000000 0.896053
O O4 0.284565 0.839128 0.084740
O O5 0.627602 0.152158 0.276515
O O6 0.620769 0.000000 0.061007
O O7 0.603081 0.178979 0.940216
O O8 0.652963 0.309790 0.863504
O O9 0.654525 0.191449 0.602829
O O10 0.070946 0.864022 0.902671
O O11 0.983827 0.807411 0.690309
O O12 0.003462 0.000000 0.779882
O O13 0.000000 0.862377 0.000000
O O14 0.500000 0.835558 0.500000
O O15 0.573139 0.721769 0.630535
O O16 0.567488 0.863001 0.402610
O O17 0.364801 0.000000 0.503916
#
# Coordination Sequence:
#
# PCOD8087399 Si02
#       7
#     8   8   8   8   8   8   8
#     4   9  17  31  49  70  97 126 159 197 239 286
#     4   9  18  32  51  72  96 127 158 195 242 287
#     4   9  18  31  49  73  96 126 162 198 240 283
#     4  10  20  34  52  72  97 128 159 195 238 282
#     4   9  19  33  50  73  96 124 160 197 236 280
#     4   9  18  32  50  71  96 125 160 197 234 281
#     4  10  19  32  50  71  96 126 160 198 242 288
#
# _framework density 17.695675000000001
#
# number of rings (size 3 to 8) (size 9 to 14) (size 15 to 20)
#    0.000    2.714    0.000    1.286    0.000    7.429 
#    0.000    4.286    0.000    8.571    0.000    0.000 
#    0.000    0.000    0.000    0.000    0.000    0.000 
#
# Total GULP energy -346921.537928 kJ/mol
# GULP energy per Si atom -12390.054926 kJ/mol
# Density = 1.765540 g / cm^3
# Si number density = 17.695675 Si / 1000 Ang^3
#
#
#
# Elastic Constant Matrix: (Units=GPa)
#
#
# Indices 1 2 3 4 5 6 
#
# 1 100.6569 49.7429 45.4776 0.0000 -7.7061 0.0000
# 2 49.7429 72.3680 41.9435 0.0000 -0.2179 0.0000
# 3 45.4776 41.9435 82.6139 0.0000 -6.1068 0.0000
# 4 0.0000 0.0000 0.0000 22.9015 0.0000 3.1761
# 5 -7.7061 -0.2179 -6.1068 0.0000 28.0292 0.0000
# 6 0.0000 0.0000 0.0000 3.1761 0.0000 31.6001
#
#
#
# Elastic Compliance Matrix: (Units=1/GPa)
#
#
# Indices 1 2 3 4 5 6 
#
# 1 0.016539 -0.008830 -0.004360 0.000000 0.003528 0.000000
# 2 -0.008830 0.024411 -0.007824 0.000000 -0.003943 0.000000
# 3 -0.004360 -0.007824 0.018685 0.000000 0.002811 0.000000
# 4 0.000000 0.000000 0.000000 0.044283 0.000000 -0.004451
# 5 0.003528 -0.003943 0.002811 0.000000 0.037229 0.000000
# 6 0.000000 0.000000 0.000000 -0.004451 0.000000 0.032093
#
#
# Mechanical properties :
#
#
# Convention : Reuss Voigt Hill
#
# Bulk Modulus (GPa) = 56.80144 58.88520 57.84332
# Shear Modulus (GPa) = 22.61057 24.40447 23.50752
#
# Velocity S-wave (km/s) = 3.57843 3.71768 3.64872
# Velocity P-wave (km/s) = 7.01729 7.19563 7.10702
#
# Compressibility (1/GPa) = 0.01760519
#
# Stress axis : x y z
#
# Youngs Moduli (GPa) = 60.46463 40.96596 53.51942
#
# Poissons Ratio (x) = 0.36174 0.23336
# Poissons Ratio (y) = 0.53391 0.41873
# Poissons Ratio (z) = 0.26364 0.32051
#
# Static dielectric constant tensor:
#      x y z
#    x 3.841780 0.000000 -0.070760 
#    y 0.000000 3.143720 0.000000 
#    z -0.070760 0.000000 3.167240 
# 
# 
# High freq. dielectric constant tensor:
#      x y z
#    x 1.703130 0.000000 -0.008220 
#    y 0.000000 1.665390 0.000000 
#    z -0.008220 0.000000 1.675140 
# 
# From -- ./inp_files/103275.got.cif
#   From: 2010.06.25/outbox.cif.g09.slc.cpg/sg12_52_cif.got.tgz:103275.got - 2010.06.28 00:19:55.
