data_PCOD8087473
_publ_section_title
;
Structure prediction by ZEFSAII (Michael W. Deem and Ramdas Pophale) SiO2 
 PCOD8087473
Probable space group: C 2/M
;
_chemical_formula_sum "Si O2"
_cell_formula_units_Z 64
_cell_length_a 31.428299
_cell_length_b 9.048121
_cell_length_c 14.433082
_cell_angle_alpha 90.000000
_cell_angle_beta 61.776360
_cell_angle_gamma 90.000000
_cell_volume 3616.327041
_symmetry_space_group_name_H-M "C 2/M"
_symmetry_group_IT_number 12
_symmetry_cell_setting 'monoclinic'
loop_
_space_group_symop_operation_xyz
x,y,z
-x,y,-z
-x,-y,-z
x,-y,z
1/2+x,1/2+y,z
1/2-x,1/2+y,-z
1/2-x,1/2-y,-z
1/2+x,1/2-y,z
loop_
_atom_site_type_symbol
_atom_site_label
_atom_site_fract_x
_atom_site_fract_y
_atom_site_fract_z
Si Si1 0.700744 0.673280 0.654430
Si Si2 0.297979 0.674132 0.557973
Si Si3 0.966850 0.328379 0.188313
Si Si4 0.385684 0.329174 0.594107
Si Si5 0.973520 0.171620 0.368226
Si Si6 0.420364 0.831869 0.933689
Si Si7 0.392756 0.674036 0.135865
Si Si8 0.926635 0.673081 0.718193
O O1 0.709473 0.500000 0.652666
O O2 0.690136 0.722117 0.559661
O O3 0.748520 0.752432 0.643658
O O4 0.656106 0.724351 0.763152
O O5 0.292063 0.500000 0.570827
O O6 0.341284 0.730100 0.578390
O O7 0.953818 0.500000 0.211646
O O8 0.952310 0.247168 0.298086
O O9 0.937804 0.258005 0.134026
O O10 0.022969 0.304950 0.109627
O O11 0.378342 0.500000 0.627744
O O12 0.435165 0.305295 0.488479
O O13 0.387300 0.233706 0.686351
O O14 0.022984 0.244532 0.350895
O O15 0.982489 0.000000 0.337734
O O16 0.406602 0.794898 0.841819
O O17 0.406712 0.000000 0.972288
O O18 0.390142 0.723038 0.031183
O O19 0.400841 0.500000 0.135869
O O20 0.935916 0.500000 0.694500
#
# Coordination Sequence:
#
# PCOD8087473 Si02
#       8
#     8   8   8   8   8   8   8   8
#     4   9  19  35  52  75 105 129 156 198 245 294
#     4   9  18  34  54  75 101 131 160 194 242 298
#     4  10  20  33  49  72 104 137 168 205 246 291
#     4  10  20  33  51  75 102 132 167 207 249 294
#     4  10  19  32  50  73 104 137 167 204 248 292
#     4   9  20  36  49  67  99 134 168 209 249 285
#     4  11  21  32  51  76 100 130 167 206 248 297
#     4  10  21  35  50  71 101 135 171 210 247 288
#
# _framework density 17.697513000000001
#
# number of rings (size 3 to 8) (size 9 to 14) (size 15 to 20)
#    0.000    2.250    0.000    3.750    0.000   10.500 
#    0.000    2.500    0.000    0.750    0.000    0.000 
#    0.000    0.000    0.000    0.000    0.000    0.000 
#
# Total GULP energy -396899.874950 kJ/mol
# GULP energy per Si atom -12403.121092 kJ/mol
# Density = 1.765723 g / cm^3
# Si number density = 17.697513 Si / 1000 Ang^3
#
#
#
# Elastic Constant Matrix: (Units=GPa)
#
#
# Indices 1 2 3 4 5 6 
#
# 1 104.9129 44.9129 54.2775 0.0000 14.1928 0.0000
# 2 44.9129 81.0346 53.2663 0.0000 5.4520 0.0000
# 3 54.2775 53.2663 103.2827 0.0000 7.7172 0.0000
# 4 0.0000 0.0000 0.0000 29.9698 0.0000 3.3930
# 5 14.1928 5.4520 7.7172 0.0000 20.2595 0.0000
# 6 0.0000 0.0000 0.0000 3.3930 0.0000 31.4635
#
#
#
# Elastic Compliance Matrix: (Units=1/GPa)
#
#
# Indices 1 2 3 4 5 6 
#
# 1 0.015087 -0.004562 -0.005021 0.000000 -0.007429 0.000000
# 2 -0.004562 0.020087 -0.008026 0.000000 0.000847 0.000000
# 3 -0.005021 -0.008026 0.016505 0.000000 -0.000610 0.000000
# 4 0.000000 0.000000 0.000000 0.033779 0.000000 -0.003643
# 5 -0.007429 0.000847 -0.000610 0.000000 0.054568 0.000000
# 6 0.000000 0.000000 0.000000 -0.003643 0.000000 0.032176
#
#
# Mechanical properties :
#
#
# Convention : Reuss Voigt Hill
#
# Bulk Modulus (GPa) = 60.74139 66.01594 63.37866
# Shear Modulus (GPa) = 23.48436 25.45681 24.47059
#
# Velocity S-wave (km/s) = 3.64673 3.79679 3.72252
# Velocity P-wave (km/s) = 7.21998 7.52358 7.37334
#
# Compressibility (1/GPa) = 0.01646324
#
# Stress axis : x y z
#
# Youngs Moduli (GPa) = 66.28115 49.78299 60.58608
#
# Poissons Ratio (x) = 0.22710 0.30420
# Poissons Ratio (y) = 0.30236 0.48624
# Poissons Ratio (z) = 0.33279 0.39954
#
# Static dielectric constant tensor:
#      x y z
#    x 3.229540 0.000000 0.139470 
#    y 0.000000 3.294710 0.000000 
#    z 0.139470 0.000000 3.271970 
# 
# 
# High freq. dielectric constant tensor:
#      x y z
#    x 1.669800 0.000000 0.012810 
#    y 0.000000 1.690270 0.000000 
#    z 0.012810 0.000000 1.677270 
# 
# From -- ./inp_files/248990.got.cif
#   From: 2010.06.25/outbox.cif.g09.slc.cpg/sg12_125_cif.got.tgz:248990.got - 2010.06.28 00:19:55.
