data_PCOD8087767
_publ_section_title
;
Structure prediction by ZEFSAII (Michael W. Deem and Ramdas Pophale) SiO2 
 PCOD8087767
Probable space group: C 2/M
;
_chemical_formula_sum "Si O2"
_cell_formula_units_Z 56
_cell_length_a 30.058955
_cell_length_b 9.315873
_cell_length_c 14.090654
_cell_angle_alpha 90.000000
_cell_angle_beta 49.111950
_cell_angle_gamma 90.000000
_cell_volume 2982.940873
_symmetry_space_group_name_H-M "C 2/M"
_symmetry_group_IT_number 12
_symmetry_cell_setting 'monoclinic'
loop_
_space_group_symop_operation_xyz
x,y,z
-x,y,-z
-x,-y,-z
x,-y,z
1/2+x,1/2+y,z
1/2-x,1/2+y,-z
1/2-x,1/2-y,-z
1/2+x,1/2-y,z
loop_
_atom_site_type_symbol
_atom_site_label
_atom_site_fract_x
_atom_site_fract_y
_atom_site_fract_z
Si Si1 0.692644 0.665697 0.615174
Si Si2 0.635474 0.663456 0.505009
Si Si3 0.803040 0.839599 0.885505
Si Si4 0.488967 0.329287 0.407914
Si Si5 0.160138 0.833419 0.864538
Si Si6 0.708684 0.164973 0.271299
Si Si7 0.086647 0.160485 0.133876
O O1 0.711935 0.500000 0.605699
O O2 0.750000 0.750000 0.500000
O O3 0.638940 0.673607 0.614544
O O4 0.666465 0.733201 0.749926
O O5 0.648140 0.500000 0.454468
O O6 0.574035 0.716208 0.546037
O O7 0.686815 0.771522 0.401307
O O8 0.824969 0.759398 0.760303
O O9 0.855937 0.847007 0.883086
O O10 0.781026 0.000000 0.891898
O O11 0.750000 0.750000 0.000000
O O12 0.500000 0.269318 0.500000
O O13 0.497131 0.500000 0.399448
O O14 0.535722 0.261157 0.266622
O O15 0.221414 0.814336 0.835072
O O16 0.145170 0.000000 0.874796
O O17 0.107512 0.765026 0.004239
O O18 0.690296 0.000000 0.286554
O O19 0.064305 0.000000 0.141925
#
# Coordination Sequence:
#
# PCOD8087767 Si02
#       7
#     8   8   8   8   8   8   8
#     4  10  19  32  51  76 107 135 169 218 267 317
#     4  10  20  33  52  80 104 131 178 226 262 309
#     4  11  20  31  49  76 106 137 174 217 263 318
#     4   9  17  31  51  75 103 136 176 220 262 310
#     4   9  17  30  47  72 103 133 166 206 259 317
#     4  11  20  32  50  74 105 141 173 211 266 322
#     4   9  17  31  51  72 101 140 174 209 261 318
#
# _framework density 18.773420000000002
#
# number of rings (size 3 to 8) (size 9 to 14) (size 15 to 20)
#    0.000    2.143    2.857    1.714    0.000    2.286 
#    0.000    0.714    0.000    9.000    0.000    0.000 
#    0.000    2.286    0.000    0.000    0.000    0.000 
#
# Total GULP energy -346873.618722 kJ/mol
# GULP energy per Si atom -12388.343526 kJ/mol
# Density = 1.873069 g / cm^3
# Si number density = 18.773420 Si / 1000 Ang^3
#
#
#
# Elastic Constant Matrix: (Units=GPa)
#
#
# Indices 1 2 3 4 5 6 
#
# 1 76.7791 17.9137 40.3161 0.0000 12.3566 0.0000
# 2 17.9137 62.8114 27.5000 0.0001 3.4321 -0.0001
# 3 40.3161 27.5000 160.1387 0.0000 15.6226 0.0000
# 4 0.0000 0.0001 0.0000 19.8396 0.0000 1.8558
# 5 12.3566 3.4321 15.6226 0.0000 31.3493 0.0000
# 6 0.0000 -0.0001 0.0000 1.8558 0.0000 14.4009
#
#
#
# Elastic Compliance Matrix: (Units=1/GPa)
#
#
# Indices 1 2 3 4 5 6 
#
# 1 0.016064 -0.002982 -0.003097 0.000000 -0.004462 0.000000
# 2 -0.002982 0.017774 -0.002340 0.000000 0.000396 0.000000
# 3 -0.003097 -0.002340 0.007654 0.000000 -0.002337 0.000000
# 4 0.000000 0.000000 0.000000 0.051019 0.000000 -0.006575
# 5 -0.004462 0.000396 -0.002337 0.000000 0.034779 0.000000
# 6 0.000000 0.000000 0.000000 -0.006575 0.000000 0.070288
#
#
# Mechanical properties :
#
#
# Convention : Reuss Voigt Hill
#
# Bulk Modulus (GPa) = 40.56019 52.35431 46.45725
# Shear Modulus (GPa) = 22.45833 27.38458 24.92146
#
# Velocity S-wave (km/s) = 3.46249 3.82342 3.64742
# Velocity P-wave (km/s) = 6.13491 6.88763 6.52214
#
# Compressibility (1/GPa) = 0.02465472
#
# Stress axis : x y z
#
# Youngs Moduli (GPa) = 62.24945 56.26180 130.64758
#
# Poissons Ratio (x) = 0.16776 0.40461
# Poissons Ratio (y) = 0.18562 0.30574
# Poissons Ratio (z) = 0.19278 0.13166
#
# Static dielectric constant tensor:
#      x y z
#    x 3.513690 0.000000 0.394480 
#    y 0.000000 3.249990 0.000000 
#    z 0.394480 0.000000 4.556010 
# 
# 
# High freq. dielectric constant tensor:
#      x y z
#    x 1.716140 0.000000 0.020230 
#    y 0.000000 1.678600 0.000000 
#    z 0.020230 0.000000 1.743220 
# 
# From -- ./inp_files/237312.got.cif
#   From: 2010.06.25/outbox.cif.g09.slc.cpg/sg12_119_cif.got.tgz:237312.got - 2010.06.28 00:19:55.
