data_PCOD8087051
_publ_section_title
;
Structure prediction by ZEFSAII (Michael W. Deem and Ramdas Pophale) SiO2 
 PCOD8087051
Probable space group: C 2/M
;
_chemical_formula_sum "Si O2"
_cell_formula_units_Z 36
_cell_length_a 18.698723
_cell_length_b 14.612855
_cell_length_c 19.776171
_cell_angle_alpha 90.000000
_cell_angle_beta 159.383108
_cell_angle_gamma 90.000000
_cell_volume 1902.729137
_symmetry_space_group_name_H-M "C 2/M"
_symmetry_group_IT_number 12
_symmetry_cell_setting 'monoclinic'
loop_
_space_group_symop_operation_xyz
x,y,z
-x,y,-z
-x,-y,-z
x,-y,z
1/2+x,1/2+y,z
1/2-x,1/2+y,-z
1/2-x,1/2-y,-z
1/2+x,1/2-y,z
loop_
_atom_site_type_symbol
_atom_site_label
_atom_site_fract_x
_atom_site_fract_y
_atom_site_fract_z
Si Si1 0.783692 0.104979 0.290915
Si Si2 0.222194 0.500000 0.992318
Si Si3 0.601614 0.646446 0.018764
Si Si4 0.076727 0.500000 0.713929
Si Si5 0.119643 0.655056 0.004604
Si Si6 0.611476 0.500000 0.257053
O O1 0.619203 0.156303 0.190538
O O2 0.000000 0.149718 0.500000
O O3 0.777301 0.000000 0.307711
O O4 0.745347 0.112225 0.177417
O O5 0.463716 0.500000 0.191537
O O6 0.091663 0.500000 0.808259
O O7 0.167869 0.593778 0.982425
O O8 0.806795 0.588474 0.212654
O O9 0.500000 0.674233 0.000000
O O10 0.671817 0.737856 0.040578
O O11 0.436860 0.589955 0.829831
O O12 0.844256 0.500000 0.485421
#
# Coordination Sequence:
#
# PCOD8087051 Si02
#       6
#     8   4   8   4   8   4
#     4  10  19  31  52  87 121 153 190 227 287 351
#     4  10  22  39  61  82 120 164 186 228 286 354
#     4  10  21  39  64  89 111 147 196 241 303 343
#     4  10  24  42  58  82 115 156 204 245 279 332
#     4  11  19  37  59  87 122 152 184 237 293 344
#     4  10  24  42  58  82 115 156 204 245 279 332
#
# _framework density 18.920190999999999
#
# number of rings (size 3 to 8) (size 9 to 14) (size 15 to 20)
#    0.000    2.000    4.444    2.000    0.000    8.889 
#    0.000    2.222    0.000    0.000    0.000    0.000 
#    0.000    0.000    0.000    0.000    0.000    0.000 
#
# Total GULP energy -223165.289550 kJ/mol
# GULP energy per Si atom -12398.071642 kJ/mol
# Density = 1.887713 g / cm^3
# Si number density = 18.920191 Si / 1000 Ang^3
#
#
#
# Elastic Constant Matrix: (Units=GPa)
#
#
# Indices 1 2 3 4 5 6 
#
# 1 93.0238 36.0743 32.7260 0.1322 -1.9860 -0.0181
# 2 36.0743 136.9733 23.7257 0.6851 5.4194 0.1169
# 3 32.7260 23.7257 154.7940 0.9719 24.8486 0.4075
# 4 0.1322 0.6851 0.9719 -86.0666 0.0657 -1.3937
# 5 -1.9860 5.4194 24.8486 0.0657 13.7179 -0.1255
# 6 -0.0181 0.1169 0.4075 -1.3937 -0.1255 0.8347
#
#
#
# Elastic Compliance Matrix: (Units=1/GPa)
#
#
# Indices 1 2 3 4 5 6 
#
# 1 0.013733 -0.003331 -0.004145 -0.000112 0.010852 0.004231
# 2 -0.003331 0.008323 0.000057 0.000086 -0.003889 -0.001706
# 3 -0.004145 0.000057 0.010517 0.000224 -0.019745 -0.007825
# 4 -0.000112 0.000086 0.000224 -0.011307 -0.000578 -0.019090
# 5 0.010852 -0.003889 -0.019745 -0.000578 0.112015 0.026296
# 6 0.004231 -0.001706 -0.007825 -0.019090 0.026296 1.174250
#
#
# Mechanical properties :
#
#
# Convention : Reuss Voigt Hill
#
# Bulk Modulus (GPa) = 56.39061 63.31589 59.85325
# Shear Modulus (GPa) = 3.76426 5.18155 4.47291
#
# Velocity S-wave (km/s) = 1.41204 1.65668 1.53923
# Velocity P-wave (km/s) = 5.70330 6.09892 5.90442
#
# Compressibility (1/GPa) = 0.01773345
#
# Stress axis : x y z
#
# Youngs Moduli (GPa) = 72.81891 120.14803 95.08701
#
# Poissons Ratio (x) = 0.40023 0.39416
# Poissons Ratio (y) = 0.24257 -0.00541
# Poissons Ratio (z) = 0.30185 -0.00683
#
# Static dielectric constant tensor:
#      x y z
#    x 3.382590 -0.000010 0.069210 
#    y -0.000010 3.565700 -0.000060 
#    z 0.069210 -0.000060 3.457430 
# 
# 
# High freq. dielectric constant tensor:
#      x y z
#    x 1.727230 0.000000 0.004510 
#    y 0.000000 1.746560 -0.000010 
#    z 0.004510 -0.000010 1.725390 
# 
# From -- ./inp_files/284207.got.cif
#   From: 2010.06.25/outbox.cif.g09.slc.cpg/sg12_143_cif.got.tgz:284207.got - 2010.06.28 00:19:55.
