data_PCOD8087967
_publ_section_title
;
Structure prediction by ZEFSAII (Michael W. Deem and Ramdas Pophale) SiO2 
 PCOD8087967
Probable space group: C 2/M
;
_chemical_formula_sum "Si O2"
_cell_formula_units_Z 40
_cell_length_a 18.363921
_cell_length_b 8.939368
_cell_length_c 26.472055
_cell_angle_alpha 90.000000
_cell_angle_beta 29.507212
_cell_angle_gamma 90.000000
_cell_volume 2140.401859
_symmetry_space_group_name_H-M "C 2/M"
_symmetry_group_IT_number 12
_symmetry_cell_setting 'monoclinic'
loop_
_space_group_symop_operation_xyz
x,y,z
-x,y,-z
-x,-y,-z
x,-y,z
1/2+x,1/2+y,z
1/2-x,1/2+y,-z
1/2-x,1/2-y,-z
1/2+x,1/2-y,z
loop_
_atom_site_type_symbol
_atom_site_label
_atom_site_fract_x
_atom_site_fract_y
_atom_site_fract_z
Si Si1 0.340170 0.324454 0.490159
Si Si2 0.411664 0.174184 0.103845
Si Si3 0.901412 0.322970 0.710545
Si Si4 0.062251 0.325140 0.713855
Si Si5 0.591315 0.823107 0.093848
O O1 0.358574 0.500000 0.469461
O O2 0.250000 0.250000 0.500000
O O3 0.501985 0.248154 0.393980
O O4 0.239094 0.293552 0.601051
O O5 0.265652 0.272385 0.193982
O O6 0.512128 0.223907 0.090052
O O7 0.368696 0.000000 0.132383
O O8 0.500000 0.213064 0.000000
O O9 0.912532 0.500000 0.699684
O O10 0.967397 0.260958 0.723859
O O11 0.032543 0.500000 0.732476
O O12 0.004980 0.257433 0.801239
O O13 0.610005 0.000000 0.085863
O O14 0.750000 0.750000 0.000000
#
# Coordination Sequence:
#
# PCOD8087967 Si02
#       5
#     8   8   8   8   8
#     4   9  16  29  50  75 102 131 166 205 245 291
#     4  10  21  35  51  74 102 131 164 204 251 298
#     4  10  19  32  52  76 101 131 168 206 245 292
#     4   8  16  31  51  74  98 129 167 202 239 288
#     4  10  20  35  53  73  99 129 164 204 246 295
#
# _framework density 18.688079999999999
#
# number of rings (size 3 to 8) (size 9 to 14) (size 15 to 20)
#    0.000    2.600    0.000    3.600    0.000    1.200 
#    0.000    6.000    0.000    6.000    0.000    0.000 
#    0.000    0.000    0.000    0.000    0.000    0.000 
#
# Total GULP energy -247886.071690 kJ/mol
# GULP energy per Si atom -12394.303584 kJ/mol
# Density = 1.864554 g / cm^3
# Si number density = 18.688080 Si / 1000 Ang^3
#
#
#
# Elastic Constant Matrix: (Units=GPa)
#
#
# Indices 1 2 3 4 5 6 
#
# 1 107.7279 34.3617 79.0540 -0.0001 4.8425 0.0000
# 2 34.3617 66.7046 60.8715 -0.0002 -4.5437 0.0001
# 3 79.0540 60.8715 185.9352 -0.0015 5.3880 0.0002
# 4 -0.0001 -0.0002 -0.0015 35.7009 0.0003 -8.3844
# 5 4.8425 -4.5437 5.3880 0.0003 29.7342 0.0000
# 6 0.0000 0.0001 0.0002 -8.3844 0.0000 18.0312
#
#
#
# Elastic Compliance Matrix: (Units=1/GPa)
#
#
# Indices 1 2 3 4 5 6 
#
# 1 0.013869 -0.002755 -0.004943 0.000000 -0.001784 0.000000
# 2 -0.002755 0.022559 -0.006360 0.000000 0.005048 0.000000
# 3 -0.004943 -0.006360 0.009617 0.000000 -0.001910 0.000000
# 4 0.000000 0.000000 0.000000 0.031444 0.000000 0.014621
# 5 -0.001784 0.005048 -0.001910 0.000000 0.035039 0.000000
# 6 0.000000 0.000000 0.000000 0.014621 0.000000 0.062258
#
#
# Mechanical properties :
#
#
# Convention : Reuss Voigt Hill
#
# Bulk Modulus (GPa) = 55.77749 78.77135 67.27442
# Shear Modulus (GPa) = 23.93727 29.09864 26.51796
#
# Velocity S-wave (km/s) = 3.58283 3.95025 3.77102
# Velocity P-wave (km/s) = 6.85762 7.94028 7.41873
#
# Compressibility (1/GPa) = 0.01792838
#
# Stress axis : x y z
#
# Youngs Moduli (GPa) = 72.10351 44.32906 103.97885
#
# Poissons Ratio (x) = 0.12213 0.51397
# Poissons Ratio (y) = 0.19865 0.66132
# Poissons Ratio (z) = 0.35641 0.28194
#
# Static dielectric constant tensor:
#      x y z
#    x 3.390850 0.000000 0.277900 
#    y 0.000000 3.314720 0.000000 
#    z 0.277900 0.000000 4.015920 
# 
# 
# High freq. dielectric constant tensor:
#      x y z
#    x 1.696550 0.000000 0.003700 
#    y 0.000000 1.709900 0.000000 
#    z 0.003700 0.000000 1.750820 
# 
# From -- ./inp_files/151733.got.cif
#   From: 2010.06.25/outbox.cif.g09.slc.cpg/sg12_76_cif.got.tgz:151733.got - 2010.06.28 00:19:55.
