data_PCOD8087243
_publ_section_title
;
Structure prediction by ZEFSAII (Michael W. Deem and Ramdas Pophale) SiO2 
 PCOD8087243
Probable space group: C 2/M
;
_chemical_formula_sum "Si O2"
_cell_formula_units_Z 48
_cell_length_a 24.730471
_cell_length_b 9.078301
_cell_length_c 15.123795
_cell_angle_alpha 90.000000
_cell_angle_beta 61.778662
_cell_angle_gamma 90.000000
_cell_volume 2991.826857
_symmetry_space_group_name_H-M "C 2/M"
_symmetry_group_IT_number 12
_symmetry_cell_setting 'monoclinic'
loop_
_space_group_symop_operation_xyz
x,y,z
-x,y,-z
-x,-y,-z
x,-y,z
1/2+x,1/2+y,z
1/2-x,1/2+y,-z
1/2-x,1/2-y,-z
1/2+x,1/2-y,z
loop_
_atom_site_type_symbol
_atom_site_label
_atom_site_fract_x
_atom_site_fract_y
_atom_site_fract_z
Si Si1 0.035199 0.325921 0.669724
Si Si2 0.043934 0.174075 0.837842
Si Si3 0.685269 0.327198 0.049858
Si Si4 0.086410 0.826200 0.991029
Si Si5 0.430480 0.337313 0.521317
Si Si6 0.408492 0.672287 0.727924
O O1 0.034033 0.500000 0.674081
O O2 0.066630 0.261512 0.733929
O O3 0.076884 0.276188 0.553786
O O4 0.966377 0.265019 0.716271
O O5 0.975738 0.231329 0.914922
O O6 0.045483 0.000000 0.817858
O O7 0.088551 0.216671 0.885588
O O8 0.696088 0.500000 0.032392
O O9 0.645616 0.265093 0.997487
O O10 0.650203 0.287902 0.167714
O O11 0.750000 0.250000 0.000000
O O12 0.084045 0.000000 0.002491
O O13 0.500000 0.340671 0.500000
O O14 0.410491 0.500000 0.504103
O O15 0.391512 0.289727 0.638596
O O16 0.426294 0.500000 0.723681
#
# Coordination Sequence:
#
# PCOD8087243 Si02
#       6
#     8   8   8   8   8   8
#     4  11  19  25  39  67  97 120 140 177 232 277
#     4   9  15  28  48  65  84 118 154 185 217 260
#     4  10  19  32  48  68  91 118 152 187 221 262
#     4   8  15  28  48  66  83 114 157 190 215 253
#     4   8  15  27  43  61  82 116 154 183 214 261
#     4   9  17  31  47  60  84 121 158 188 212 255
#
# _framework density 16.043709
#
# number of rings (size 3 to 8) (size 9 to 14) (size 15 to 20)
#    0.000    2.833    1.667    3.500    0.000    3.667 
#    0.000    2.500    0.000    0.000    0.000    1.167 
#    0.000    0.000    0.000    0.000    0.000    0.000 
#
# Total GULP energy -297423.377626 kJ/mol
# GULP energy per Si atom -12392.640734 kJ/mol
# Density = 1.600719 g / cm^3
# Si number density = 16.043709 Si / 1000 Ang^3
#
#
#
# Elastic Constant Matrix: (Units=GPa)
#
#
# Indices 1 2 3 4 5 6 
#
# 1 85.6940 29.7197 60.4807 0.0000 11.8184 0.0000
# 2 29.7197 70.8833 55.2754 0.0000 12.1098 0.0000
# 3 60.4807 55.2754 141.7777 0.0000 25.9790 0.0000
# 4 0.0000 0.0000 0.0000 10.5661 0.0000 -3.0533
# 5 11.8184 12.1098 25.9790 0.0000 23.6523 0.0000
# 6 0.0000 0.0000 0.0000 -3.0533 0.0000 17.1271
#
#
#
# Elastic Compliance Matrix: (Units=1/GPa)
#
#
# Indices 1 2 3 4 5 6 
#
# 1 0.016916 -0.002088 -0.006321 0.000000 -0.000440 0.000000
# 2 -0.002088 0.020614 -0.006765 0.000000 -0.002081 0.000000
# 3 -0.006321 -0.006765 0.013990 0.000000 -0.008743 0.000000
# 4 0.000000 0.000000 0.000000 0.099782 0.000000 0.017789
# 5 -0.000440 -0.002081 -0.008743 0.000000 0.053168 0.000000
# 6 0.000000 0.000000 0.000000 0.017789 0.000000 0.061558
#
#
# Mechanical properties :
#
#
# Convention : Reuss Voigt Hill
#
# Bulk Modulus (GPa) = 47.23464 65.47853 56.35658
# Shear Modulus (GPa) = 16.47810 20.46104 18.46957
#
# Velocity S-wave (km/s) = 3.20828 3.57505 3.39662
# Velocity P-wave (km/s) = 6.57489 7.61200 7.11237
#
# Compressibility (1/GPa) = 0.02117090
#
# Stress axis : x y z
#
# Youngs Moduli (GPa) = 59.11668 48.51113 71.48163
#
# Poissons Ratio (x) = 0.10127 0.45187
# Poissons Ratio (y) = 0.12341 0.48357
# Poissons Ratio (z) = 0.37371 0.32818
#
# Static dielectric constant tensor:
#      x y z
#    x 2.868350 0.000000 0.373260 
#    y 0.000000 2.791210 0.000000 
#    z 0.373260 0.000000 3.484510 
# 
# 
# High freq. dielectric constant tensor:
#      x y z
#    x 1.566720 0.000000 0.030840 
#    y 0.000000 1.594860 0.000000 
#    z 0.030840 0.000000 1.626730 
# 
# From -- ./inp_files/229965.got.cif
#   From: 2010.06.25/outbox.cif.g09.slc.cpg/sg12_115_cif.got.tgz:229965.got - 2010.06.28 00:19:55.
