data_PCOD8087405
_publ_section_title
;
Structure prediction by ZEFSAII (Michael W. Deem and Ramdas Pophale) SiO2 
 PCOD8087405
Probable space group: C 2/M
;
_chemical_formula_sum "Si O2"
_cell_formula_units_Z 64
_cell_length_a 14.541959
_cell_length_b 9.247709
_cell_length_c 26.297110
_cell_angle_alpha 90.000000
_cell_angle_beta 101.937700
_cell_angle_gamma 90.000000
_cell_volume 3459.948181
_symmetry_space_group_name_H-M "C 2/M"
_symmetry_group_IT_number 12
_symmetry_cell_setting 'monoclinic'
loop_
_space_group_symop_operation_xyz
x,y,z
-x,y,-z
-x,-y,-z
x,-y,z
1/2+x,1/2+y,z
1/2-x,1/2+y,-z
1/2-x,1/2-y,-z
1/2+x,1/2-y,z
loop_
_atom_site_type_symbol
_atom_site_label
_atom_site_fract_x
_atom_site_fract_y
_atom_site_fract_z
Si Si1 0.830586 0.168291 0.709229
Si Si2 0.785423 0.330570 0.553494
Si Si3 0.166992 0.832497 0.639257
Si Si4 0.619081 0.328165 0.881281
Si Si5 0.573284 0.332743 0.180107
Si Si6 0.450014 0.331780 0.624367
Si Si7 0.795004 0.833860 0.897514
Si Si8 0.401596 0.671901 0.007303
O O1 0.732562 0.246685 0.686023
O O2 0.870067 0.237550 0.766423
O O3 0.912041 0.194632 0.676936
O O4 0.805803 0.000000 0.711263
O O5 0.799116 0.500000 0.544289
O O6 0.750000 0.250000 0.500000
O O7 0.706207 0.303433 0.587244
O O8 0.886434 0.263907 0.579626
O O9 0.058583 0.780509 0.631792
O O10 0.173986 0.000000 0.654655
O O11 0.620802 0.500000 0.881142
O O12 0.531281 0.268430 0.838563
O O13 0.711188 0.263214 0.865859
O O14 0.618989 0.267189 0.939045
O O15 0.565168 0.500000 0.193143
O O16 0.619459 0.309105 0.130744
O O17 0.440612 0.500000 0.607659
O O18 0.763373 0.000000 0.894547
O O19 0.823259 0.780217 0.957309
O O20 0.408542 0.500000 0.009541
O O21 0.500000 0.737812 0.000000
#
# Coordination Sequence:
#
# PCOD8087405 Si02
#       8
#     8   8   8   8   8   8   8   8
#     4   9  18  33  53  74  96 126 168 212 247 289
#     4  10  20  34  52  77 109 140 171 206 246 291
#     4   9  19  35  54  76 103 136 169 205 253 299
#     4  10  19  32  51  73  96 125 165 204 243 297
#     4   9  18  33  51  71  97 130 164 199 245 304
#     4   9  18  34  54  74  99 133 171 208 248 294
#     4  10  19  32  50  71  97 127 161 200 246 298
#     4   9  15  28  51  71  90 127 167 196 236 299
#
# _framework density 18.497388000000001
#
# number of rings (size 3 to 8) (size 9 to 14) (size 15 to 20)
#    0.000    2.625    1.250    0.750    0.000    2.500 
#    0.000    5.625    0.000    0.750    0.000    0.000 
#    0.000    0.000    0.000    0.000    0.000    0.000 
#
# Total GULP energy -396678.859646 kJ/mol
# GULP energy per Si atom -12396.214364 kJ/mol
# Density = 1.845529 g / cm^3
# Si number density = 18.497388 Si / 1000 Ang^3
#
#
#
# Elastic Constant Matrix: (Units=GPa)
#
#
# Indices 1 2 3 4 5 6 
#
# 1 127.1708 41.0021 39.2990 0.0000 32.3763 0.0000
# 2 41.0021 46.0488 39.9576 0.0000 14.7112 0.0000
# 3 39.2990 39.9576 112.4219 0.0000 30.9848 0.0000
# 4 0.0000 0.0000 0.0000 18.5184 0.0000 5.3392
# 5 32.3763 14.7112 30.9848 0.0000 24.2259 0.0000
# 6 0.0000 0.0000 0.0000 5.3392 0.0000 28.1194
#
#
#
# Elastic Compliance Matrix: (Units=1/GPa)
#
#
# Indices 1 2 3 4 5 6 
#
# 1 0.014646 -0.010381 0.003440 0.000000 -0.017668 0.000000
# 2 -0.010381 0.039642 -0.011815 0.000000 0.004911 0.000000
# 3 0.003440 -0.011815 0.017269 0.000000 -0.019509 0.000000
# 4 0.000000 0.000000 0.000000 0.057128 0.000000 -0.010847
# 5 -0.017668 0.004911 -0.019509 0.000000 0.086861 0.000000
# 6 0.000000 0.000000 0.000000 -0.010847 0.000000 0.037622
#
#
# Mechanical properties :
#
#
# Convention : Reuss Voigt Hill
#
# Bulk Modulus (GPa) = 29.37291 58.46208 43.91750
# Shear Modulus (GPa) = 16.55484 25.19825 20.87654
#
# Velocity S-wave (km/s) = 2.99487 3.69488 3.36314
# Velocity P-wave (km/s) = 5.27949 7.06237 6.23498
#
# Compressibility (1/GPa) = 0.03404497
#
# Stress axis : x y z
#
# Youngs Moduli (GPa) = 68.27987 25.22589 57.90773
#
# Poissons Ratio (x) = 0.26186 -0.19917
# Poissons Ratio (y) = 0.70878 0.68416
# Poissons Ratio (z) = -0.23485 0.29803
#
# Static dielectric constant tensor:
#      x y z
#    x 3.480370 0.000000 0.096320 
#    y 0.000000 3.113920 0.000000 
#    z 0.096320 0.000000 3.506450 
# 
# 
# High freq. dielectric constant tensor:
#      x y z
#    x 1.725150 0.000000 0.008430 
#    y 0.000000 1.684910 0.000000 
#    z 0.008430 0.000000 1.718470 
# 
# From -- ./inp_files/359860.got.cif
#   From: 2010.06.25/outbox.cif.g09.slc.cpg/sg12_180_cif.got.tgz:359860.got - 2010.06.28 00:19:55.
