data_PCOD8087368
_publ_section_title
;
Structure prediction by ZEFSAII (Michael W. Deem and Ramdas Pophale) SiO2 
 PCOD8087368
Probable space group: C 2/M
;
_chemical_formula_sum "Si O2"
_cell_formula_units_Z 64
_cell_length_a 16.709641
_cell_length_b 17.829258
_cell_length_c 19.002244
_cell_angle_alpha 90.000000
_cell_angle_beta 144.014409
_cell_angle_gamma 90.000000
_cell_volume 3326.393311
_symmetry_space_group_name_H-M "C 2/M"
_symmetry_group_IT_number 12
_symmetry_cell_setting 'monoclinic'
loop_
_space_group_symop_operation_xyz
x,y,z
-x,y,-z
-x,-y,-z
x,-y,z
1/2+x,1/2+y,z
1/2-x,1/2+y,-z
1/2-x,1/2-y,-z
1/2+x,1/2-y,z
loop_
_atom_site_type_symbol
_atom_site_label
_atom_site_fract_x
_atom_site_fract_y
_atom_site_fract_z
Si Si1 0.912117 0.413066 0.375154
Si Si2 0.926460 0.810538 0.253618
Si Si3 0.624740 0.670932 0.944850
Si Si4 0.831340 0.086559 0.582306
Si Si5 0.627886 0.184185 0.039404
Si Si6 0.635813 0.414896 0.229083
Si Si7 0.107244 0.588625 0.893111
Si Si8 0.551091 0.151131 0.343772
O O1 0.898165 0.500000 0.384111
O O2 0.758788 0.380604 0.269858
O O3 0.000000 0.374194 0.500000
O O4 0.976101 0.404364 0.344324
O O5 0.903501 0.804403 0.154312
O O6 0.023907 0.880820 0.341762
O O7 0.004233 0.734778 0.332215
O O8 0.777007 0.824774 0.183890
O O9 0.655506 0.744140 0.010881
O O10 0.493990 0.632392 0.885573
O O11 0.748606 0.612569 0.037465
O O12 0.822963 0.092635 0.660126
O O13 0.712734 0.138546 0.465350
O O14 0.818053 0.000000 0.548107
O O15 0.595120 0.113552 0.965930
O O16 0.500000 0.194308 0.000000
O O17 0.601244 0.500000 0.185510
O O18 0.090867 0.500000 0.877897
O O19 0.988844 0.628572 0.763848
#
# Coordination Sequence:
#
# PCOD8087368 Si02
#       8
#     8   8   8   8   8   8   8   8
#     4  10  19  32  49  78 122 156 183 221 276 348
#     4  10  21  38  59  84 115 150 194 241 285 345
#     4  10  19  38  58  82 114 151 189 240 290 344
#     4  10  20  35  58  84 112 152 194 235 282 339
#     4  11  23  41  61  83 117 155 195 247 293 343
#     4   9  18  31  51  82 115 152 189 223 272 342
#     4  11  22  38  61  87 115 152 198 244 292 343
#     4  12  20  35  57  87 118 151 187 236 292 343
#
# _framework density 19.240058999999999
#
# number of rings (size 3 to 8) (size 9 to 14) (size 15 to 20)
#    0.000    1.625    3.750    2.625    1.750    3.250 
#    0.000    0.000    0.000    3.000    0.000    1.750 
#    0.000    0.000    0.000    0.000    0.000    0.000 
#
# Total GULP energy -396713.080628 kJ/mol
# GULP energy per Si atom -12397.283770 kJ/mol
# Density = 1.919627 g / cm^3
# Si number density = 19.240059 Si / 1000 Ang^3
#
#
#
# Elastic Constant Matrix: (Units=GPa)
#
#
# Indices 1 2 3 4 5 6 
#
# 1 55.6518 11.1043 26.8938 0.0000 28.8579 0.0002
# 2 11.1043 72.1512 22.9630 -0.0003 9.3012 0.0003
# 3 26.8938 22.9630 96.6369 -0.0002 27.7962 0.0004
# 4 0.0000 -0.0003 -0.0002 29.5677 -0.0003 6.8877
# 5 28.8579 9.3012 27.7962 -0.0003 34.4185 0.0001
# 6 0.0002 0.0003 0.0004 6.8877 0.0001 16.3385
#
#
#
# Elastic Compliance Matrix: (Units=1/GPa)
#
#
# Indices 1 2 3 4 5 6 
#
# 1 0.032068 -0.001235 -0.001294 0.000000 -0.025508 0.000000
# 2 -0.001235 0.015103 -0.003086 0.000000 -0.000554 0.000000
# 3 -0.001294 -0.003086 0.014184 0.000000 -0.009537 0.000000
# 4 0.000000 0.000000 0.000000 0.037504 0.000001 -0.015810
# 5 -0.025508 -0.000554 -0.009537 0.000001 0.058293 0.000000
# 6 0.000000 0.000000 0.000000 -0.015810 0.000000 0.067870
#
#
# Mechanical properties :
#
#
# Convention : Reuss Voigt Hill
#
# Bulk Modulus (GPa) = 19.94982 38.48467 29.21725
# Shear Modulus (GPa) = 19.76596 26.96352 23.36474
#
# Velocity S-wave (km/s) = 3.20868 3.74762 3.48858
# Velocity P-wave (km/s) = 4.91110 6.22672 5.60763
#
# Compressibility (1/GPa) = 0.05012576
#
# Stress axis : x y z
#
# Youngs Moduli (GPa) = 31.18405 66.21036 70.50000
#
# Poissons Ratio (x) = 0.08179 0.09121
# Poissons Ratio (y) = 0.03852 0.21755
# Poissons Ratio (z) = 0.04034 0.20431
#
# Static dielectric constant tensor:
#      x y z
#    x 3.344620 0.000000 0.307070 
#    y 0.000000 3.475860 0.000000 
#    z 0.307070 0.000000 3.801440 
# 
# 
# High freq. dielectric constant tensor:
#      x y z
#    x 1.718090 0.000000 0.022960 
#    y 0.000000 1.742850 0.000000 
#    z 0.022960 0.000000 1.759490 
# 
# From -- ./inp_files/317350.got.cif
#   From: 2010.06.25/outbox.cif.g09.slc.cpg/sg12_159_cif.got.tgz:317350.got - 2010.06.28 00:19:55.
