data_PCOD8087720
_publ_section_title
;
Structure prediction by ZEFSAII (Michael W. Deem and Ramdas Pophale) SiO2 
 PCOD8087720
Probable space group: C 2/M
;
_chemical_formula_sum "Si O2"
_cell_formula_units_Z 56
_cell_length_a 29.740482
_cell_length_b 9.098201
_cell_length_c 21.757421
_cell_angle_alpha 90.000000
_cell_angle_beta 149.162971
_cell_angle_gamma 90.000000
_cell_volume 3017.781244
_symmetry_space_group_name_H-M "C 2/M"
_symmetry_group_IT_number 12
_symmetry_cell_setting 'monoclinic'
loop_
_space_group_symop_operation_xyz
x,y,z
-x,y,-z
-x,-y,-z
x,-y,z
1/2+x,1/2+y,z
1/2-x,1/2+y,-z
1/2-x,1/2-y,-z
1/2+x,1/2-y,z
loop_
_atom_site_type_symbol
_atom_site_label
_atom_site_fract_x
_atom_site_fract_y
_atom_site_fract_z
Si Si1 0.279313 0.673364 0.819360
Si Si2 0.420457 0.825832 0.636495
Si Si3 0.456473 0.833709 0.012099
Si Si4 0.627101 0.833402 0.287792
Si Si5 0.232319 0.672821 0.628714
Si Si6 0.730336 0.671468 0.881993
Si Si7 0.616169 0.171862 0.846285
O O1 0.274515 0.500000 0.823783
O O2 0.235630 0.722116 0.703514
O O3 0.225933 0.752324 0.810602
O O4 0.379772 0.722880 0.939120
O O5 0.373833 0.767612 0.644138
O O6 0.360537 0.775313 0.508794
O O7 0.518848 0.764406 0.744177
O O8 0.427330 0.000000 0.650065
O O9 0.526712 0.827237 0.148575
O O10 0.419125 0.000000 0.961183
O O11 0.500000 0.780680 0.000000
O O12 0.687149 0.738989 0.314023
O O13 0.662609 0.000000 0.327888
O O14 0.243176 0.500000 0.635583
O O15 0.712326 0.500000 0.852676
O O16 0.653547 0.739499 0.832670
O O17 0.824993 0.700670 0.024290
O O18 0.615668 0.000000 0.828606
#
# Coordination Sequence:
#
# PCOD8087720 Si02
#       7
#     8   8   8   8   8   8   8
#     4  11  22  34  51  76 108 143 177 211 257 309
#     4   9  18  34  55  76 101 136 177 217 257 306
#     4  10  19  32  51  75 104 136 172 214 261 310
#     4  10  19  33  54  77 102 138 178 215 261 310
#     4  10  21  35  50  73 106 141 178 217 253 299
#     4  10  20  35  58  84 108 132 165 212 266 317
#     4   9  18  36  60  82 104 131 169 215 263 312
#
# _framework density 18.55668
#
# number of rings (size 3 to 8) (size 9 to 14) (size 15 to 20)
#    0.000    2.143    1.429    2.143    0.000    4.286 
#    0.000    2.143    0.000    4.286    0.000    0.000 
#    0.000    0.000    0.000    0.000    0.000    0.000 
#
# Total GULP energy -347238.330927 kJ/mol
# GULP energy per Si atom -12401.368962 kJ/mol
# Density = 1.851444 g / cm^3
# Si number density = 18.556680 Si / 1000 Ang^3
#
#
#
# Elastic Constant Matrix: (Units=GPa)
#
#
# Indices 1 2 3 4 5 6 
#
# 1 136.4501 52.6471 57.0687 0.0000 -21.2261 0.0000
# 2 52.6471 50.9381 31.2231 0.0000 -6.9184 0.0000
# 3 57.0687 31.2231 89.9622 0.0000 -13.3963 0.0000
# 4 0.0000 0.0000 0.0000 17.2112 0.0000 1.9365
# 5 -21.2261 -6.9184 -13.3963 0.0000 24.9076 0.0000
# 6 0.0000 0.0000 0.0000 1.9365 0.0000 31.2980
#
#
#
# Elastic Compliance Matrix: (Units=1/GPa)
#
#
# Indices 1 2 3 4 5 6 
#
# 1 0.014670 -0.011617 -0.004232 0.000000 0.006998 0.000000
# 2 -0.011617 0.034277 -0.004982 0.000000 -0.003059 0.000000
# 3 -0.004232 -0.004982 0.016074 0.000000 0.003655 0.000000
# 4 0.000000 0.000000 0.000000 0.058509 0.000000 -0.003620
# 5 0.006998 -0.003059 0.003655 0.000000 0.047228 0.000000
# 6 0.000000 0.000000 0.000000 -0.003620 0.000000 0.032175
#
#
# Mechanical properties :
#
#
# Convention : Reuss Voigt Hill
#
# Bulk Modulus (GPa) = 42.81256 62.13647 52.47451
# Shear Modulus (GPa) = 19.81121 23.77745 21.79433
#
# Velocity S-wave (km/s) = 3.27097 3.58347 3.43078
# Velocity P-wave (km/s) = 6.11449 7.11892 6.63574
#
# Compressibility (1/GPa) = 0.02335763
#
# Stress axis : x y z
#
# Youngs Moduli (GPa) = 68.16816 29.17371 62.21332
#
# Poissons Ratio (x) = 0.33892 0.26327
# Poissons Ratio (y) = 0.79194 0.30998
# Poissons Ratio (z) = 0.28847 0.14536
#
# Static dielectric constant tensor:
#      x y z
#    x 3.465930 0.000000 -0.161910 
#    y 0.000000 3.267410 0.000000 
#    z -0.161910 0.000000 3.533230 
# 
# 
# High freq. dielectric constant tensor:
#      x y z
#    x 1.724890 0.000000 -0.010540 
#    y 0.000000 1.703460 0.000000 
#    z -0.010540 0.000000 1.715970 
# 
# From -- ./inp_files/237388.got.cif
#   From: 2010.06.25/outbox.cif.g09.slc.cpg/sg12_119_cif.got.tgz:237388.got - 2010.06.28 00:19:55.
