data_PCOD8087252
_publ_section_title
;
Structure prediction by ZEFSAII (Michael W. Deem and Ramdas Pophale) SiO2 
 PCOD8087252
Probable space group: C 2/M
;
_chemical_formula_sum "Si O2"
_cell_formula_units_Z 64
_cell_length_a 25.241317
_cell_length_b 9.256857
_cell_length_c 21.218851
_cell_angle_alpha 90.000000
_cell_angle_beta 52.210610
_cell_angle_gamma 90.000000
_cell_volume 3918.069168
_symmetry_space_group_name_H-M "C 2/M"
_symmetry_group_IT_number 12
_symmetry_cell_setting 'monoclinic'
loop_
_space_group_symop_operation_xyz
x,y,z
-x,y,-z
-x,-y,-z
x,-y,z
1/2+x,1/2+y,z
1/2-x,1/2+y,-z
1/2-x,1/2-y,-z
1/2+x,1/2-y,z
loop_
_atom_site_type_symbol
_atom_site_label
_atom_site_fract_x
_atom_site_fract_y
_atom_site_fract_z
Si Si1 0.197905 0.832957 0.994964
Si Si2 0.202917 0.832983 0.318946
Si Si3 0.253409 0.668826 0.400043
Si Si4 0.762602 0.833146 0.847586
Si Si5 0.105325 0.164741 0.170808
Si Si6 0.497000 0.170332 0.680018
Si Si7 0.449401 0.332415 0.592267
Si Si8 0.650484 0.832261 0.583258
O O1 0.125789 0.816460 0.082075
O O2 0.218356 0.000000 0.975199
O O3 0.250000 0.750000 0.000000
O O4 0.201967 0.760686 0.922659
O O5 0.241606 0.734693 0.340197
O O6 0.234372 0.797381 0.228179
O O7 0.124639 0.793493 0.377306
O O8 0.213380 0.000000 0.329118
O O9 0.266553 0.500000 0.383489
O O10 0.319519 0.739956 0.381508
O O11 0.189227 0.703138 0.490350
O O12 0.833387 0.791821 0.827847
O O13 0.746547 0.000000 0.872034
O O14 0.042585 0.268006 0.230658
O O15 0.084273 0.000000 0.199962
O O16 0.466212 0.236965 0.639845
O O17 0.574191 0.215655 0.629520
O O18 0.488098 0.000000 0.683831
O O19 0.500000 0.291701 0.500000
O O20 0.454418 0.500000 0.608142
O O21 0.657273 0.000000 0.596035
#
# Coordination Sequence:
#
# PCOD8087252 Si02
#       8
#     8   8   8   8   8   8   8   8
#     4   9  17  28  44  65  92 126 161 197 235 278
#     4  10  19  32  48  69  99 131 159 194 242 286
#     4  10  20  34  53  73  91 120 165 209 244 283
#     4   9  17  30  46  66  96 130 161 195 233 282
#     4   9  17  31  46  65  97 130 161 195 231 284
#     4  11  21  31  48  72  98 127 159 200 243 282
#     4  10  20  33  48  66  94 133 167 191 230 291
#     4   9  20  37  51  68  96 125 158 204 252 288
#
# _framework density 16.334575999999998
#
# number of rings (size 3 to 8) (size 9 to 14) (size 15 to 20)
#    0.000    2.375    1.250    2.625    0.000    5.250 
#    0.000    0.000    0.000    0.000    0.000    0.875 
#    0.000    7.000    0.000    0.000    0.000    0.000 
#
# Total GULP energy -396794.479716 kJ/mol
# GULP energy per Si atom -12399.827491 kJ/mol
# Density = 1.629740 g / cm^3
# Si number density = 16.334576 Si / 1000 Ang^3
#
#
#
# Elastic Constant Matrix: (Units=GPa)
#
#
# Indices 1 2 3 4 5 6 
#
# 1 46.7047 27.3531 25.5802 -0.0001 14.7903 0.0000
# 2 27.3531 66.8645 41.4942 0.0002 8.2500 -0.0001
# 3 25.5802 41.4942 89.5377 -0.0002 10.4327 -0.0001
# 4 -0.0001 0.0002 -0.0002 32.7505 0.0000 3.4920
# 5 14.7903 8.2500 10.4327 0.0000 16.7380 0.0001
# 6 0.0000 -0.0001 -0.0001 3.4920 0.0001 24.6213
#
#
#
# Elastic Compliance Matrix: (Units=1/GPa)
#
#
# Indices 1 2 3 4 5 6 
#
# 1 0.037227 -0.010243 -0.002851 0.000000 -0.026069 0.000000
# 2 -0.010243 0.024148 -0.008553 0.000000 0.002480 0.000000
# 3 -0.002851 -0.008553 0.016349 0.000000 -0.003455 0.000000
# 4 0.000000 0.000000 0.000000 0.031003 0.000000 -0.004397
# 5 -0.026069 0.002480 -0.003455 0.000000 0.083711 0.000000
# 6 0.000000 0.000000 0.000000 -0.004397 0.000000 0.041239
#
#
# Mechanical properties :
#
#
# Convention : Reuss Voigt Hill
#
# Bulk Modulus (GPa) = 29.04492 43.55133 36.29813
# Shear Modulus (GPa) = 17.33407 22.06727 19.70067
#
# Velocity S-wave (km/s) = 3.26112 3.67952 3.47662
# Velocity P-wave (km/s) = 5.65683 6.69117 6.19562
#
# Compressibility (1/GPa) = 0.03442943
#
# Stress axis : x y z
#
# Youngs Moduli (GPa) = 26.86205 41.41141 61.16408
#
# Poissons Ratio (x) = 0.42419 0.17438
# Poissons Ratio (y) = 0.27515 0.52316
# Poissons Ratio (z) = 0.07658 0.35421
#
# Static dielectric constant tensor:
#      x y z
#    x 2.783840 0.000000 -0.018880 
#    y 0.000000 3.163050 0.000000 
#    z -0.018880 0.000000 3.545030 
# 
# 
# High freq. dielectric constant tensor:
#      x y z
#    x 1.588870 0.000000 0.003760 
#    y 0.000000 1.635810 0.000000 
#    z 0.003760 0.000000 1.636450 
# 
# From -- ./inp_files/319822.got.cif
#   From: 2010.06.25/outbox.cif.g09.slc.cpg/sg12_160_cif.got.tgz:319822.got - 2010.06.28 00:19:55.
