data_PCOD8087515
_publ_section_title
;
Structure prediction by ZEFSAII (Michael W. Deem and Ramdas Pophale) SiO2 
 PCOD8087515
Probable space group: C 2/M
;
_chemical_formula_sum "Si O2"
_cell_formula_units_Z 40
_cell_length_a 29.866102
_cell_length_b 9.322249
_cell_length_c 14.990133
_cell_angle_alpha 90.000000
_cell_angle_beta 30.458653
_cell_angle_gamma 90.000000
_cell_volume 2115.636779
_symmetry_space_group_name_H-M "C 2/M"
_symmetry_group_IT_number 12
_symmetry_cell_setting 'monoclinic'
loop_
_space_group_symop_operation_xyz
x,y,z
-x,y,-z
-x,-y,-z
x,-y,z
1/2+x,1/2+y,z
1/2-x,1/2+y,-z
1/2-x,1/2-y,-z
1/2+x,1/2-y,z
loop_
_atom_site_type_symbol
_atom_site_label
_atom_site_fract_x
_atom_site_fract_y
_atom_site_fract_z
Si Si1 0.283350 0.168245 0.719830
Si Si2 0.116569 0.670504 0.055066
Si Si3 0.522969 0.829611 0.558707
Si Si4 0.198430 0.666437 0.513354
Si Si5 0.994284 0.330480 0.108536
O O1 0.380311 0.226997 0.579329
O O2 0.264451 0.200635 0.648284
O O3 0.275576 0.000000 0.754214
O O4 0.211166 0.252821 0.902361
O O5 0.129907 0.500000 0.036172
O O6 0.052536 0.725073 0.244057
O O7 0.073903 0.722060 0.034591
O O8 0.500000 0.771205 0.500000
O O9 0.524605 0.000000 0.558954
O O10 0.206832 0.500000 0.522418
O O11 0.250000 0.750000 0.500000
O O12 0.096787 0.715749 0.688976
O O13 0.999983 0.500000 0.090779
O O14 0.000000 0.260478 0.000000
#
# Coordination Sequence:
#
# PCOD8087515 Si02
#       5
#     8   8   8   8   8
#     4  10  20  35  54  79 111 141 173 221 273 315
#     4  10  19  34  56  80 104 139 184 220 258 318
#     4   9  18  35  58  80 105 141 182 221 264 318
#     4  10  19  32  50  75 106 140 177 217 262 313
#     4   9  16  28  48  72  99 133 175 214 248 301
#
# _framework density 18.906838
#
# number of rings (size 3 to 8) (size 9 to 14) (size 15 to 20)
#    0.000    2.400    2.000    1.200    0.000    3.200 
#    0.000    2.000    0.000    4.800    0.000    0.000 
#    0.000    0.000    0.000    0.000    0.000    0.000 
#
# Total GULP energy -247959.865365 kJ/mol
# GULP energy per Si atom -12397.993268 kJ/mol
# Density = 1.886381 g / cm^3
# Si number density = 18.906838 Si / 1000 Ang^3
#
#
#
# Elastic Constant Matrix: (Units=GPa)
#
#
# Indices 1 2 3 4 5 6 
#
# 1 118.4458 31.3617 64.9043 0.0000 2.1804 0.0000
# 2 31.3617 31.8510 40.8379 0.0000 -5.3437 0.0000
# 3 64.9043 40.8379 166.1443 0.0000 -5.5376 0.0000
# 4 0.0000 0.0000 0.0000 28.6971 0.0000 -3.4142
# 5 2.1804 -5.3437 -5.5376 0.0000 32.1137 0.0000
# 6 0.0000 0.0000 0.0000 -3.4142 0.0000 14.6956
#
#
#
# Elastic Compliance Matrix: (Units=1/GPa)
#
#
# Indices 1 2 3 4 5 6 
#
# 1 0.012412 -0.009288 -0.002661 0.000000 -0.002847 0.000000
# 2 -0.009288 0.053862 -0.009345 0.000000 0.007982 0.000000
# 3 -0.002661 -0.009345 0.009363 0.000000 0.000240 0.000000
# 4 0.000000 0.000000 0.000000 0.035837 0.000000 0.008326
# 5 -0.002847 0.007982 0.000240 0.000000 0.032702 0.000000
# 6 0.000000 0.000000 0.000000 0.008326 0.000000 0.069982
#
#
# Mechanical properties :
#
#
# Convention : Reuss Voigt Hill
#
# Bulk Modulus (GPa) = 30.25661 65.62765 47.94213
# Shear Modulus (GPa) = 18.67327 27.05710 22.86518
#
# Velocity S-wave (km/s) = 3.14609 3.78706 3.48136
# Velocity P-wave (km/s) = 5.40694 7.34226 6.44763
#
# Compressibility (1/GPa) = 0.03305063
#
# Stress axis : x y z
#
# Youngs Moduli (GPa) = 80.56523 18.56607 106.80000
#
# Poissons Ratio (x) = 0.17243 0.28418
# Poissons Ratio (y) = 0.74826 0.99803
# Poissons Ratio (z) = 0.21438 0.17350
#
# Static dielectric constant tensor:
#      x y z
#    x 3.711330 0.000000 -0.039550 
#    y 0.000000 2.922650 0.000000 
#    z -0.039550 0.000000 3.751280 
# 
# 
# High freq. dielectric constant tensor:
#      x y z
#    x 1.739490 0.000000 -0.000460 
#    y 0.000000 1.677790 0.000000 
#    z -0.000460 0.000000 1.749610 
# 
# From -- ./inp_files/202861.got.cif
#   From: 2010.06.25/outbox.cif.g09.slc.cpg/sg12_102_cif.got.tgz:202861.got - 2010.06.28 00:19:55.
