data_PCOD8087713
_publ_section_title
;
Structure prediction by ZEFSAII (Michael W. Deem and Ramdas Pophale) SiO2 
 PCOD8087713
Probable space group: C 2/M
;
_chemical_formula_sum "Si O2"
_cell_formula_units_Z 64
_cell_length_a 25.542013
_cell_length_b 8.810446
_cell_length_c 18.847941
_cell_angle_alpha 90.000000
_cell_angle_beta 64.492716
_cell_angle_gamma 90.000000
_cell_volume 3828.060902
_symmetry_space_group_name_H-M "C 2/M"
_symmetry_group_IT_number 12
_symmetry_cell_setting 'monoclinic'
loop_
_space_group_symop_operation_xyz
x,y,z
-x,y,-z
-x,-y,-z
x,-y,z
1/2+x,1/2+y,z
1/2-x,1/2+y,-z
1/2-x,1/2-y,-z
1/2+x,1/2-y,z
loop_
_atom_site_type_symbol
_atom_site_label
_atom_site_fract_x
_atom_site_fract_y
_atom_site_fract_z
Si Si1 0.635178 0.821037 0.665272
Si Si2 0.896486 0.320077 0.797044
Si Si3 0.456528 0.678769 0.466928
Si Si4 0.659182 0.822914 0.492367
Si Si5 0.295476 0.671514 0.922697
Si Si6 0.482857 0.679470 0.292415
Si Si7 0.741306 0.321610 0.670413
Si Si8 0.306461 0.328209 0.760446
O O1 0.660060 0.770913 0.573790
O O2 0.573658 0.740778 0.715787
O O3 0.680219 0.763796 0.698045
O O4 0.626977 0.000000 0.676213
O O5 0.896869 0.500000 0.791324
O O6 0.856393 0.264909 0.886827
O O7 0.869584 0.248297 0.739750
O O8 0.960758 0.258166 0.773405
O O9 0.500000 0.747408 0.500000
O O10 0.453133 0.500000 0.475173
O O11 0.392662 0.742064 0.519576
O O12 0.478432 0.729928 0.376920
O O13 0.718856 0.775315 0.419902
O O14 0.647923 0.000000 0.492577
O O15 0.307016 0.500000 0.942276
O O16 0.270991 0.670718 0.855861
O O17 0.250000 0.750000 0.000000
O O18 0.487343 0.500000 0.280412
O O19 0.730100 0.500000 0.679847
O O20 0.771145 0.270587 0.725440
O O21 0.315894 0.500000 0.726735
#
# Coordination Sequence:
#
# PCOD8087713 Si02
#       8
#     8   8   8   8   8   8   8   8
#     4  10  20  35  51  68  93 131 174 216 262 303
#     4  10  19  32  51  75 104 133 163 199 244 295
#     4   9  19  31  44  64  89 123 162 203 253 304
#     4   9  20  34  47  67  92 124 168 214 259 305
#     4   9  18  32  52  78 109 138 166 197 239 292
#     4  10  19  33  49  68  97 128 166 211 250 297
#     4  11  21  33  50  73  99 128 168 215 260 304
#     4   9  20  34  49  74 104 134 165 199 246 298
#
# _framework density 16.718647000000001
#
# number of rings (size 3 to 8) (size 9 to 14) (size 15 to 20)
#    0.750    1.625    0.000    3.000    1.750    2.250 
#    0.000    0.000    0.000    0.000    0.000    0.875 
#    0.000    7.000    0.000    0.000    0.000    0.000 
#
# Total GULP energy -396697.944874 kJ/mol
# GULP energy per Si atom -12396.810777 kJ/mol
# Density = 1.668059 g / cm^3
# Si number density = 16.718647 Si / 1000 Ang^3
#
#
#
# Elastic Constant Matrix: (Units=GPa)
#
#
# Indices 1 2 3 4 5 6 
#
# 1 98.3125 33.1375 29.5228 0.0001 -22.0218 -0.0001
# 2 33.1375 82.8487 29.1700 0.0003 -15.0507 0.0012
# 3 29.5228 29.1700 55.2234 0.0000 -20.0524 -0.0001
# 4 0.0001 0.0003 0.0000 25.1701 0.0000 -3.5457
# 5 -22.0218 -15.0507 -20.0524 0.0000 21.9103 0.0000
# 6 -0.0001 0.0012 -0.0001 -3.5457 0.0000 33.0782
#
#
#
# Elastic Compliance Matrix: (Units=1/GPa)
#
#
# Indices 1 2 3 4 5 6 
#
# 1 0.014126 -0.003014 -0.002331 0.000000 0.009995 0.000000
# 2 -0.003014 0.015776 -0.005821 0.000000 0.002480 -0.000001
# 3 -0.002331 -0.005821 0.030144 0.000000 0.021247 0.000000
# 4 0.000000 0.000000 0.000000 0.040339 0.000000 0.004324
# 5 0.009995 0.002480 0.021247 0.000000 0.076835 0.000000
# 6 0.000000 -0.000001 0.000000 0.004324 0.000000 0.030695
#
#
# Mechanical properties :
#
#
# Convention : Reuss Voigt Hill
#
# Bulk Modulus (GPa) = 26.51522 46.67170 36.59346
# Shear Modulus (GPa) = 20.59156 25.66868 23.13012
#
# Velocity S-wave (km/s) = 3.51330 3.92258 3.72357
# Velocity P-wave (km/s) = 5.68786 6.96363 6.35783
#
# Compressibility (1/GPa) = 0.03771418
#
# Stress axis : x y z
#
# Youngs Moduli (GPa) = 70.79029 63.38830 33.17386
#
# Poissons Ratio (x) = 0.19104 0.07732
# Poissons Ratio (y) = 0.21335 0.19312
# Poissons Ratio (z) = 0.16500 0.36901
#
# Static dielectric constant tensor:
#      x y z
#    x 3.100740 0.000000 -0.084630 
#    y 0.000000 3.162760 0.000000 
#    z -0.084630 0.000000 2.879940 
# 
# 
# High freq. dielectric constant tensor:
#      x y z
#    x 1.636800 0.000000 -0.013550 
#    y 0.000000 1.658900 0.000000 
#    z -0.013550 0.000000 1.607180 
# 
# From -- ./inp_files/326582.got.cif
#   From: 2010.06.25/outbox.cif.g09.slc.cpg/sg12_164_cif.got.tgz:326582.got - 2010.06.28 00:19:55.
