data_PCOD8087546
_publ_section_title
;
Structure prediction by ZEFSAII (Michael W. Deem and Ramdas Pophale) SiO2 
 PCOD8087546
Probable space group: C 2/M
;
_chemical_formula_sum "Si O2"
_cell_formula_units_Z 64
_cell_length_a 27.615664
_cell_length_b 18.736364
_cell_length_c 21.311627
_cell_angle_alpha 90.000000
_cell_angle_beta 18.995344
_cell_angle_gamma 90.000000
_cell_volume 3589.193070
_symmetry_space_group_name_H-M "C 2/M"
_symmetry_group_IT_number 12
_symmetry_cell_setting 'monoclinic'
loop_
_space_group_symop_operation_xyz
x,y,z
-x,y,-z
-x,-y,-z
x,-y,z
1/2+x,1/2+y,z
1/2-x,1/2+y,-z
1/2-x,1/2-y,-z
1/2+x,1/2-y,z
loop_
_atom_site_type_symbol
_atom_site_label
_atom_site_fract_x
_atom_site_fract_y
_atom_site_fract_z
Si Si1 0.982783 0.419269 0.299548
Si Si2 0.844681 0.824591 0.078839
Si Si3 0.846550 0.330394 0.571061
Si Si4 0.908191 0.765083 0.671425
Si Si5 0.150899 0.758067 0.713932
Si Si6 0.221271 0.830558 0.056490
Si Si7 0.448478 0.418261 0.840775
Si Si8 0.235983 0.365091 0.529387
O O1 0.036619 0.500000 0.243329
O O2 0.882438 0.397116 0.482282
O O3 0.886554 0.414430 0.353922
O O4 0.122856 0.367929 0.121331
O O5 0.752576 0.858207 0.249483
O O6 0.746849 0.768874 0.159719
O O7 0.896037 0.890224 0.972818
O O8 0.982921 0.779662 0.936826
O O9 0.756980 0.269007 0.643765
O O10 0.999986 0.297907 0.407859
O O11 0.873074 0.828690 0.763168
O O12 0.000000 0.796973 0.500000
O O13 0.161777 0.675302 0.679729
O O14 0.204268 0.806606 0.591630
O O15 0.127142 0.872060 0.120528
O O16 0.250000 0.750000 0.000000
O O17 0.398284 0.500000 0.895472
O O18 0.626574 0.413123 0.615681
#
# Coordination Sequence:
#
# PCOD8087546 Si02
#       8
#     8   8   8   8   8   8   8   8
#     4  11  22  35  53  80 112 148 182 220 272 332
#     4  10  19  32  50  77 111 143 177 216 265 326
#     4  10  19  32  50  77 111 143 177 216 265 326
#     4  10  20  34  54  80 105 133 176 228 275 313
#     4   9  17  30  51  77  99 137 182 228 260 302
#     4  12  21  36  59  80 107 143 184 233 273 312
#     4  11  22  35  53  80 112 148 182 220 272 332
#     4   9  19  32  53  73 106 136 184 228 270 305
#
# _framework density 17.831306000000001
#
# number of rings (size 3 to 8) (size 9 to 14) (size 15 to 20)
#    0.000    1.750    2.500    2.625    3.500    0.500 
#    0.000    0.000    0.000    9.750    0.000    0.000 
#    0.000   10.000    0.000    0.000    0.000    0.000 
#
# Total GULP energy -396841.859725 kJ/mol
# GULP energy per Si atom -12401.308116 kJ/mol
# Density = 1.779072 g / cm^3
# Si number density = 17.831306 Si / 1000 Ang^3
#
#
#
# Elastic Constant Matrix: (Units=GPa)
#
#
# Indices 1 2 3 4 5 6 
#
# 1 78.5665 38.8938 34.7650 0.0028 -3.2098 -0.0016
# 2 38.8938 98.1051 48.6537 -0.0209 12.3964 0.0127
# 3 34.7650 48.6537 94.2385 -0.0106 -6.3122 0.0086
# 4 0.0028 -0.0209 -0.0106 16.0800 0.0142 0.7102
# 5 -3.2098 12.3964 -6.3122 0.0142 35.4966 -0.0075
# 6 -0.0016 0.0127 0.0086 0.7102 -0.0075 17.9561
#
#
#
# Elastic Compliance Matrix: (Units=1/GPa)
#
#
# Indices 1 2 3 4 5 6 
#
# 1 0.017001 -0.005497 -0.003241 -0.000015 0.002881 0.000009
# 2 -0.005497 0.016929 -0.007228 0.000026 -0.007694 -0.000013
# 3 -0.003241 -0.007228 0.015877 -0.000003 0.005054 -0.000001
# 4 -0.000015 0.000026 -0.000003 0.062298 -0.000036 -0.002464
# 5 0.002881 -0.007694 0.005054 -0.000036 0.032018 0.000018
# 6 0.000009 -0.000013 -0.000001 -0.002464 0.000018 0.055789
#
#
# Mechanical properties :
#
#
# Convention : Reuss Voigt Hill
#
# Bulk Modulus (GPa) = 55.94015 57.28166 56.61091
# Shear Modulus (GPa) = 21.02589 23.81305 22.41947
#
# Velocity S-wave (km/s) = 3.43761 3.65836 3.54970
# Velocity P-wave (km/s) = 6.86995 7.07381 6.97262
#
# Compressibility (1/GPa) = 0.01787625
#
# Stress axis : x y z
#
# Youngs Moduli (GPa) = 58.82026 59.06976 62.98371
#
# Poissons Ratio (x) = 0.32469 0.20412
# Poissons Ratio (y) = 0.32332 0.45524
# Poissons Ratio (z) = 0.19063 0.42695
#
# Static dielectric constant tensor:
#      x y z
#    x 3.513750 -0.000030 -0.026320 
#    y -0.000030 3.020760 0.000050 
#    z -0.026320 0.000050 3.505880 
# 
# 
# High freq. dielectric constant tensor:
#      x y z
#    x 1.700050 0.000000 -0.014330 
#    y 0.000000 1.653380 0.000000 
#    z -0.014330 0.000000 1.698160 
# 
# From -- ./inp_files/87981.got.cif
#   From: 2010.06.25/outbox.cif.g09.slc.cpg/sg12_44_cif.got.tgz:87981.got - 2010.06.28 00:19:55.
