data_PCOD8087092
_publ_section_title
;
Structure prediction by ZEFSAII (Michael W. Deem and Ramdas Pophale) SiO2 
 PCOD8087092
Probable space group: C 2/M
;
_chemical_formula_sum "Si O2"
_cell_formula_units_Z 56
_cell_length_a 32.324275
_cell_length_b 9.078656
_cell_length_c 11.281049
_cell_angle_alpha 90.000000
_cell_angle_beta 59.739060
_cell_angle_gamma 90.000000
_cell_volume 2859.450080
_symmetry_space_group_name_H-M "C 2/M"
_symmetry_group_IT_number 12
_symmetry_cell_setting 'monoclinic'
loop_
_space_group_symop_operation_xyz
x,y,z
-x,y,-z
-x,-y,-z
x,-y,z
1/2+x,1/2+y,z
1/2-x,1/2+y,-z
1/2-x,1/2-y,-z
1/2+x,1/2-y,z
loop_
_atom_site_type_symbol
_atom_site_label
_atom_site_fract_x
_atom_site_fract_y
_atom_site_fract_z
Si Si1 0.393087 0.330422 0.682101
Si Si2 0.477004 0.165575 0.662091
Si Si3 0.805797 0.674396 0.176408
Si Si4 0.936250 0.827597 0.369903
Si Si5 0.300192 0.672431 0.952051
Si Si6 0.635654 0.166909 0.674541
Si Si7 0.270026 0.169355 0.584332
O O1 0.406834 0.500000 0.681397
O O2 0.424855 0.239414 0.730286
O O3 0.404855 0.283298 0.530578
O O4 0.336981 0.302132 0.789972
O O5 0.500000 0.169542 0.500000
O O6 0.511474 0.253631 0.701659
O O7 0.471161 0.000000 0.718358
O O8 0.800971 0.500000 0.167419
O O9 0.825333 0.751516 0.029804
O O10 0.840337 0.716850 0.236092
O O11 0.752108 0.742244 0.272462
O O12 0.909105 0.770217 0.291744
O O13 0.943663 0.000000 0.347986
O O14 0.291389 0.500000 0.987772
O O15 0.250000 0.750000 0.000000
O O16 0.672632 0.178270 0.510221
O O17 0.617332 0.000000 0.713558
O O18 0.250000 0.250000 0.500000
O O19 0.252779 0.000000 0.612789
#
# Coordination Sequence:
#
# PCOD8087092 Si02
#       7
#     8   8   8   8   8   8   8
#     4   9  20  37  54  77 109 143 178 220 268 319
#     4   9  17  31  53  80 108 139 174 216 266 321
#     4  10  21  37  54  73 104 143 184 228 272 321
#     4  10  19  31  53  83 112 141 173 216 270 326
#     4  11  24  40  57  79 108 145 187 228 268 317
#     4   9  19  33  50  76 107 138 174 221 272 320
#     4   9  17  30  48  72 100 136 176 219 268 317
#
# _framework density 19.584185000000002
#
# number of rings (size 3 to 8) (size 9 to 14) (size 15 to 20)
#    0.000    2.429    0.000    3.000    2.000    6.857 
#    0.000    0.000    0.000    0.857    0.000    6.000 
#    0.000    0.000    0.000    0.000    0.000    0.000 
#
# Total GULP energy -347088.031990 kJ/mol
# GULP energy per Si atom -12396.001142 kJ/mol
# Density = 1.953961 g / cm^3
# Si number density = 19.584185 Si / 1000 Ang^3
#
#
#
# Elastic Constant Matrix: (Units=GPa)
#
#
# Indices 1 2 3 4 5 6 
#
# 1 119.2295 60.2714 18.5943 0.0000 3.0836 0.0000
# 2 60.2714 113.3877 18.5291 0.0000 1.2127 0.0000
# 3 18.5943 18.5291 40.2219 0.0000 2.1696 0.0000
# 4 0.0000 0.0000 0.0000 24.5551 0.0000 0.0062
# 5 3.0836 1.2127 2.1696 0.0000 21.4507 0.0000
# 6 0.0000 0.0000 0.0000 0.0062 0.0000 38.8137
#
#
#
# Elastic Compliance Matrix: (Units=1/GPa)
#
#
# Indices 1 2 3 4 5 6 
#
# 1 0.011771 -0.005803 -0.002710 0.000000 -0.001090 0.000000
# 2 -0.005803 0.012398 -0.003053 0.000000 0.000442 0.000000
# 3 -0.002710 -0.003053 0.027642 0.000000 -0.002234 0.000000
# 4 0.000000 0.000000 0.000000 0.040725 0.000000 -0.000007
# 5 -0.001090 0.000442 -0.002234 0.000000 0.046976 0.000000
# 6 0.000000 0.000000 0.000000 -0.000007 0.000000 0.025764
#
#
# Mechanical properties :
#
#
# Convention : Reuss Voigt Hill
#
# Bulk Modulus (GPa) = 34.86699 51.95873 43.41286
# Shear Modulus (GPa) = 25.25688 28.66019 26.95853
#
# Velocity S-wave (km/s) = 3.59508 3.82964 3.71421
# Velocity P-wave (km/s) = 5.92242 6.79289 6.37254
#
# Compressibility (1/GPa) = 0.02868042
#
# Stress axis : x y z
#
# Youngs Moduli (GPa) = 84.95307 80.65974 36.17731
#
# Poissons Ratio (x) = 0.46803 0.09804
# Poissons Ratio (y) = 0.49294 0.11044
# Poissons Ratio (z) = 0.23021 0.24623
#
# Static dielectric constant tensor:
#      x y z
#    x 3.476090 0.000000 -0.058970 
#    y 0.000000 3.690050 0.000000 
#    z -0.058970 0.000000 3.508290 
# 
# 
# High freq. dielectric constant tensor:
#      x y z
#    x 1.756420 0.000000 0.001870 
#    y 0.000000 1.774210 0.000000 
#    z 0.001870 0.000000 1.726670 
# 
# From -- ./inp_files/186482.got.cif
#   From: 2010.06.25/outbox.cif.g09.slc.cpg/sg12_94_cif.got.tgz:186482.got - 2010.06.28 00:19:55.
