data_PCOD8087389
_publ_section_title
;
Structure prediction by ZEFSAII (Michael W. Deem and Ramdas Pophale) SiO2 
 PCOD8087389
Probable space group: C 2/M
;
_chemical_formula_sum "Si O2"
_cell_formula_units_Z 48
_cell_length_a 10.831404
_cell_length_b 27.412777
_cell_length_c 14.568035
_cell_angle_alpha 90.000000
_cell_angle_beta 149.888103
_cell_angle_gamma 90.000000
_cell_volume 2170.073918
_symmetry_space_group_name_H-M "C 2/M"
_symmetry_group_IT_number 12
_symmetry_cell_setting 'monoclinic'
loop_
_space_group_symop_operation_xyz
x,y,z
-x,y,-z
-x,-y,-z
x,-y,z
1/2+x,1/2+y,z
1/2-x,1/2+y,-z
1/2-x,1/2-y,-z
1/2+x,1/2-y,z
loop_
_atom_site_type_symbol
_atom_site_label
_atom_site_fract_x
_atom_site_fract_y
_atom_site_fract_z
Si Si1 0.099819 0.946676 0.253854
Si Si2 0.047301 0.287017 0.909588
Si Si3 0.553817 0.946206 0.682794
Si Si4 0.542603 0.649990 0.770175
Si Si5 0.317950 0.306169 0.806039
Si Si6 0.891677 0.652207 0.637836
O O1 0.336051 0.945230 0.470029
O O2 0.191421 0.936244 0.208449
O O3 0.909084 0.905765 0.165901
O O4 0.972297 0.000000 0.176528
O O5 0.841710 0.253386 0.826376
O O6 0.914654 0.319063 0.746952
O O7 0.250000 0.250000 0.000000
O O8 0.193257 0.323649 0.072680
O O9 0.501869 0.902777 0.722014
O O10 0.565150 0.000000 0.738034
O O11 0.381494 0.675193 0.746110
O O12 0.392702 0.651731 0.577978
O O13 0.040894 0.320335 0.652996
O O14 0.500000 0.329102 0.000000
#
# Coordination Sequence:
#
# PCOD8087389 Si02
#       6
#     8   8   8   8   8   8
#     4   8  13  23  42  69  96 124 158 189 230 288
#     4  10  22  35  46  68  97 129 169 210 245 276
#     4   8  14  24  43  71  97 124 157 192 229 283
#     4  10  19  32  50  70  96 133 166 198 235 288
#     4  11  20  35  49  66  97 134 164 206 249 275
#     4  11  19  34  53  70  99 134 167 197 239 293
#
# _framework density 22.119062
#
# number of rings (size 3 to 8) (size 9 to 14) (size 15 to 20)
#    0.000    2.333    5.000    1.500    0.000    2.667 
#    3.000    0.833    0.000    3.000    0.000    0.000 
#    0.000    2.667    0.000    8.333    0.000    7.833 
#
# Total GULP energy -297377.883799 kJ/mol
# GULP energy per Si atom -12390.745158 kJ/mol
# Density = 2.206872 g / cm^3
# Si number density = 22.119062 Si / 1000 Ang^3
#
#
#
# Elastic Constant Matrix: (Units=GPa)
#
#
# Indices 1 2 3 4 5 6 
#
# 1 15.8706 14.9218 7.8159 -0.0001 -0.6591 0.0000
# 2 14.9218 167.7584 43.3909 0.0000 4.4198 0.0000
# 3 7.8159 43.3909 80.1022 -0.0002 -15.0689 0.0001
# 4 -0.0001 0.0000 -0.0002 10.7631 -0.0001 15.1379
# 5 -0.6591 4.4198 -15.0689 -0.0001 23.1378 0.0000
# 6 0.0000 0.0000 0.0001 15.1379 0.0000 22.9908
#
#
#
# Elastic Compliance Matrix: (Units=1/GPa)
#
#
# Indices 1 2 3 4 5 6 
#
# 1 0.069855 -0.005214 -0.003909 0.000008 0.000440 -0.000005
# 2 -0.005214 0.007718 -0.004532 -0.000003 -0.004574 0.000002
# 3 -0.003909 -0.004532 0.017621 0.000007 0.012231 -0.000005
# 4 0.000008 -0.000003 0.000007 1.256699 0.000014 -0.827455
# 5 0.000440 -0.004574 0.012231 0.000014 0.052071 -0.000009
# 6 -0.000005 0.000002 -0.000005 -0.827455 -0.000009 0.588322
#
#
# Mechanical properties :
#
#
# Convention : Reuss Voigt Hill
#
# Bulk Modulus (GPa) = 14.73106 43.99871 29.36488
# Shear Modulus (GPa) = 2.44831 24.55185 13.50008
#
# Velocity S-wave (km/s) = 1.05322 3.33526 2.47318
# Velocity P-wave (km/s) = 2.85541 5.89634 4.63251
#
# Compressibility (1/GPa) = 0.06788379
#
# Stress axis : x y z
#
# Youngs Moduli (GPa) = 14.31529 129.57481 56.74900
#
# Poissons Ratio (x) = 0.67561 0.22183
# Poissons Ratio (y) = 0.07464 0.25721
# Poissons Ratio (z) = 0.05596 0.58728
#
# Static dielectric constant tensor:
#      x y z
#    x 3.463870 0.000000 -0.008770 
#    y 0.000000 5.016240 0.000000 
#    z -0.008770 0.000000 3.868500 
# 
# 
# High freq. dielectric constant tensor:
#      x y z
#    x 1.805750 0.000000 -0.014790 
#    y 0.000000 1.889730 0.000000 
#    z -0.014790 0.000000 1.858750 
# 
# From -- ./inp_files/66309.got.cif
#   From: 2010.06.25/outbox.cif.g09.slc.cpg/sg12_34_cif.got.tgz:66309.got - 2010.06.28 00:19:55.
