data_PCOD8087129
_publ_section_title
;
Structure prediction by ZEFSAII (Michael W. Deem and Ramdas Pophale) SiO2 
 PCOD8087129
Probable space group: C 2/M
;
_chemical_formula_sum "Si O2"
_cell_formula_units_Z 48
_cell_length_a 27.162385
_cell_length_b 9.234091
_cell_length_c 11.379580
_cell_angle_alpha 90.000000
_cell_angle_beta 58.974600
_cell_angle_gamma 90.000000
_cell_volume 2445.896853
_symmetry_space_group_name_H-M "C 2/M"
_symmetry_group_IT_number 12
_symmetry_cell_setting 'monoclinic'
loop_
_space_group_symop_operation_xyz
x,y,z
-x,y,-z
-x,-y,-z
x,-y,z
1/2+x,1/2+y,z
1/2-x,1/2+y,-z
1/2-x,1/2-y,-z
1/2+x,1/2-y,z
loop_
_atom_site_type_symbol
_atom_site_label
_atom_site_fract_x
_atom_site_fract_y
_atom_site_fract_z
Si Si1 0.435986 0.330516 0.048998
Si Si2 0.327402 0.668000 0.324909
Si Si3 0.875631 0.832477 0.672931
Si Si4 0.037960 0.657674 0.567848
Si Si5 0.775536 0.833575 0.631910
Si Si6 0.426048 0.828842 0.828355
O O1 0.436664 0.500000 0.016459
O O2 0.393493 0.295796 0.210443
O O3 0.500000 0.275446 0.000000
O O4 0.410026 0.242907 0.971278
O O5 0.315558 0.500000 0.323155
O O6 0.283725 0.746172 0.288819
O O7 0.314882 0.719801 0.473328
O O8 0.914560 0.779430 0.514883
O O9 0.810102 0.811181 0.710966
O O10 0.885771 0.739578 0.777050
O O11 0.890233 0.000000 0.679344
O O12 0.066019 0.500000 0.563251
O O13 0.000000 0.636900 0.500000
O O14 0.993640 0.706762 0.724017
O O15 0.759514 0.000000 0.633324
O O16 0.414309 0.000000 0.844757
#
# Coordination Sequence:
#
# PCOD8087129 Si02
#       6
#     8   8   8   8   8   8
#     4  10  22  38  59  82 110 146 183 225 272 327
#     4   9  19  37  57  81 111 143 181 224 272 324
#     4  10  19  31  54  83 109 140 183 229 275 325
#     4   8  16  30  46  70 107 143 175 217 265 315
#     4   9  19  35  57  84 111 140 180 228 273 322
#     4  10  21  36  52  76 113 148 183 224 269 328
#
# _framework density 19.624704000000001
#
# number of rings (size 3 to 8) (size 9 to 14) (size 15 to 20)
#    0.000    2.667    0.000    2.000    2.333    6.000 
#    0.000    0.833    0.000    0.000    0.000    0.000 
#    0.000    0.000    0.000    0.000    0.000    0.000 
#
# Total GULP energy -297508.379315 kJ/mol
# GULP energy per Si atom -12396.182471 kJ/mol
# Density = 1.958004 g / cm^3
# Si number density = 19.624704 Si / 1000 Ang^3
#
#
#
# Elastic Constant Matrix: (Units=GPa)
#
#
# Indices 1 2 3 4 5 6 
#
# 1 101.9411 44.1899 34.0531 0.0000 -6.9395 0.0000
# 2 44.1899 73.4372 26.6234 0.0000 -0.3132 0.0000
# 3 34.0531 26.6234 69.5570 0.0000 -5.9417 0.0000
# 4 0.0000 0.0000 0.0000 21.2449 0.0000 -1.0694
# 5 -6.9395 -0.3132 -5.9417 0.0000 26.3160 0.0000
# 6 0.0000 0.0000 0.0000 -1.0694 0.0000 28.2332
#
#
#
# Elastic Compliance Matrix: (Units=1/GPa)
#
#
# Indices 1 2 3 4 5 6 
#
# 1 0.014503 -0.007231 -0.004092 0.000000 0.002814 0.000000
# 2 -0.007231 0.019454 -0.004129 0.000000 -0.002608 0.000000
# 3 -0.004092 -0.004129 0.018215 0.000000 0.002985 0.000000
# 4 0.000000 0.000000 0.000000 0.047160 0.000000 0.001786
# 5 0.002814 -0.002608 0.002985 0.000000 0.039385 0.000000
# 6 0.000000 0.000000 0.000000 0.001786 0.000000 0.035487
#
#
# Mechanical properties :
#
#
# Convention : Reuss Voigt Hill
#
# Bulk Modulus (GPa) = 47.01848 50.51868 48.76858
# Shear Modulus (GPa) = 23.56302 24.49675 24.02989
#
# Velocity S-wave (km/s) = 3.46884 3.53691 3.50304
# Velocity P-wave (km/s) = 6.32888 6.51751 6.42388
#
# Compressibility (1/GPa) = 0.02126823
#
# Stress axis : x y z
#
# Youngs Moduli (GPa) = 68.95240 51.40290 54.89931
#
# Poissons Ratio (x) = 0.37172 0.22464
# Poissons Ratio (y) = 0.49862 0.22666
# Poissons Ratio (z) = 0.28214 0.21222
#
# Static dielectric constant tensor:
#      x y z
#    x 3.426850 0.000000 -0.125210 
#    y 0.000000 3.551020 0.000000 
#    z -0.125210 0.000000 3.622470 
# 
# 
# High freq. dielectric constant tensor:
#      x y z
#    x 1.752350 0.000000 0.001420 
#    y 0.000000 1.765600 0.000000 
#    z 0.001420 0.000000 1.745930 
# 
# From -- ./inp_files/179728.got.cif
#   From: 2010.06.25/outbox.cif.g09.slc.cpg/sg12_90_cif.got.tgz:179728.got - 2010.06.28 00:19:55.
