data_PCOD8087712
_publ_section_title
;
Structure prediction by ZEFSAII (Michael W. Deem and Ramdas Pophale) SiO2 
 PCOD8087712
Probable space group: C 2/M
;
_chemical_formula_sum "Si O2"
_cell_formula_units_Z 64
_cell_length_a 17.377613
_cell_length_b 11.001684
_cell_length_c 28.074528
_cell_angle_alpha 90.000000
_cell_angle_beta 36.225167
_cell_angle_gamma 90.000000
_cell_volume 3171.902911
_symmetry_space_group_name_H-M "C 2/M"
_symmetry_group_IT_number 12
_symmetry_cell_setting 'monoclinic'
loop_
_space_group_symop_operation_xyz
x,y,z
-x,y,-z
-x,-y,-z
x,-y,z
1/2+x,1/2+y,z
1/2-x,1/2+y,-z
1/2-x,1/2-y,-z
1/2+x,1/2-y,z
loop_
_atom_site_type_symbol
_atom_site_label
_atom_site_fract_x
_atom_site_fract_y
_atom_site_fract_z
Si Si1 0.737523 0.634555 0.755478
Si Si2 0.395910 0.288318 0.087641
Si Si3 0.675828 0.858423 0.638500
Si Si4 0.788738 0.135430 0.883125
Si Si5 0.468942 0.755574 0.206681
Si Si6 0.477651 0.141027 0.377357
Si Si7 0.923471 0.635522 0.938069
Si Si8 0.870472 0.360446 0.533793
O O1 0.758725 0.500000 0.724365
O O2 0.659429 0.622512 0.844337
O O3 0.659819 0.705323 0.753965
O O4 0.877573 0.700763 0.692807
O O5 0.272417 0.233713 0.121845
O O6 0.474273 0.181792 0.074132
O O7 0.500000 0.354794 0.000000
O O8 0.575691 0.856745 0.732820
O O9 0.604833 0.811206 0.626134
O O10 0.780960 0.751468 0.596532
O O11 0.728394 0.000000 0.607629
O O12 0.944255 0.154531 0.809707
O O13 0.764918 0.000000 0.874870
O O14 0.722072 0.148391 0.968569
O O15 0.568662 0.804539 0.117493
O O16 0.399995 0.168888 0.464122
O O17 0.500861 0.000000 0.357208
O O18 0.966730 0.500000 0.907477
O O19 0.812143 0.500000 0.567579
O O20 0.000000 0.354690 0.500000
#
# Coordination Sequence:
#
# PCOD8087712 Si02
#       8
#     8   8   8   8   8   8   8   8
#     4  10  20  35  54  76 107 146 184 227 278 331
#     4   9  18  32  51  75 103 139 183 229 280 337
#     4  11  23  38  59  86 116 149 184 227 278 330
#     4  10  19  32  51  75 103 138 184 236 285 332
#     4  11  21  33  51  77 109 142 182 228 278 335
#     4   9  19  37  58  80 109 146 187 228 275 330
#     4   9  18  33  51  70  99 141 185 230 279 333
#     4  10  21  39  64  90 116 148 185 225 273 332
#
# _framework density 20.177163
#
# number of rings (size 3 to 8) (size 9 to 14) (size 15 to 20)
#    0.000    2.125    0.000    3.375    0.000    4.000 
#    0.000    0.625    0.000    3.750    0.000    0.000 
#    0.000    0.000    0.000    0.000    0.000    0.000 
#
# Total GULP energy -396501.602242 kJ/mol
# GULP energy per Si atom -12390.675070 kJ/mol
# Density = 2.013124 g / cm^3
# Si number density = 20.177163 Si / 1000 Ang^3
#
#
#
# Elastic Constant Matrix: (Units=GPa)
#
#
# Indices 1 2 3 4 5 6 
#
# 1 87.4921 22.0480 33.7140 0.0000 6.3556 0.0000
# 2 22.0480 81.7473 27.7379 0.0000 -7.5767 0.0000
# 3 33.7140 27.7379 67.3250 0.0000 -1.0619 0.0000
# 4 0.0000 0.0000 0.0000 24.7648 0.0000 -0.6709
# 5 6.3556 -7.5767 -1.0619 0.0000 36.6709 0.0000
# 6 0.0000 0.0000 0.0000 -0.6709 0.0000 15.9841
#
#
#
# Elastic Compliance Matrix: (Units=1/GPa)
#
#
# Indices 1 2 3 4 5 6 
#
# 1 0.014705 -0.002026 -0.006578 0.000000 -0.003158 0.000000
# 2 -0.002026 0.014787 -0.005026 0.000000 0.003261 0.000000
# 3 -0.006578 -0.005026 0.020229 0.000000 0.000687 0.000000
# 4 0.000000 0.000000 0.000000 0.040426 0.000000 0.001697
# 5 -0.003158 0.003261 0.000687 0.000000 0.028510 0.000000
# 6 0.000000 0.000000 0.000000 0.001697 0.000000 0.062634
#
#
# Mechanical properties :
#
#
# Convention : Reuss Voigt Hill
#
# Bulk Modulus (GPa) = 44.52588 44.84046 44.68317
# Shear Modulus (GPa) = 23.14399 25.68825 24.41612
#
# Velocity S-wave (km/s) = 3.39047 3.57197 3.48240
# Velocity P-wave (km/s) = 6.11902 6.26766 6.19379
#
# Compressibility (1/GPa) = 0.02245885
#
# Stress axis : x y z
#
# Youngs Moduli (GPa) = 68.00610 67.62692 49.43371
#
# Poissons Ratio (x) = 0.13705 0.32520
# Poissons Ratio (y) = 0.13781 0.24845
# Poissons Ratio (z) = 0.44737 0.33989
#
# Static dielectric constant tensor:
#      x y z
#    x 3.730810 0.000000 0.096520 
#    y 0.000000 3.400920 0.000000 
#    z 0.096520 0.000000 3.739020 
# 
# 
# High freq. dielectric constant tensor:
#      x y z
#    x 1.796870 0.000000 0.006760 
#    y 0.000000 1.762960 0.000000 
#    z 0.006760 0.000000 1.788140 
# 
# From -- ./inp_files/361033.got.cif
#   From: 2010.06.25/outbox.cif.g09.slc.cpg/sg12_181_cif.got.tgz:361033.got - 2010.06.28 00:19:55.
