data_PCOD8087874
_publ_section_title
;
Structure prediction by ZEFSAII (Michael W. Deem and Ramdas Pophale) SiO2 
 PCOD8087874
Probable space group: C 2/M
;
_chemical_formula_sum "Si O2"
_cell_formula_units_Z 56
_cell_length_a 30.478924
_cell_length_b 8.831257
_cell_length_c 12.688649
_cell_angle_alpha 90.000000
_cell_angle_beta 52.173255
_cell_angle_gamma 90.000000
_cell_volume 2697.692928
_symmetry_space_group_name_H-M "C 2/M"
_symmetry_group_IT_number 12
_symmetry_cell_setting 'monoclinic'
loop_
_space_group_symop_operation_xyz
x,y,z
-x,y,-z
-x,-y,-z
x,-y,z
1/2+x,1/2+y,z
1/2-x,1/2+y,-z
1/2-x,1/2-y,-z
1/2+x,1/2-y,z
loop_
_atom_site_type_symbol
_atom_site_label
_atom_site_fract_x
_atom_site_fract_y
_atom_site_fract_z
Si Si1 0.451391 0.336901 0.495032
Si Si2 0.799895 0.321132 0.647649
Si Si3 0.880846 0.319821 0.345164
Si Si4 0.312198 0.178289 0.246864
Si Si5 0.620250 0.821804 0.061123
Si Si6 0.003777 0.324958 0.761015
Si Si7 0.655187 0.677968 0.222254
O O1 0.500000 0.378093 0.500000
O O2 0.436199 0.500000 0.461209
O O3 0.471500 0.202759 0.390630
O O4 0.401486 0.274154 0.638324
O O5 0.799679 0.500000 0.661076
O O6 0.852322 0.265939 0.497849
O O7 0.745033 0.268748 0.667602
O O8 0.798580 0.246640 0.766657
O O9 0.880478 0.500000 0.344168
O O10 0.846887 0.259025 0.295312
O O11 0.945485 0.262239 0.239710
O O12 0.300169 0.000000 0.273012
O O13 0.346848 0.218294 0.092155
O O14 0.557642 0.750547 0.138326
O O15 0.654593 0.749025 0.106841
O O16 0.616400 0.000000 0.088304
O O17 0.995588 0.500000 0.796062
O O18 0.664943 0.500000 0.196542
#
# Coordination Sequence:
#
# PCOD8087874 Si02
#       7
#     8   8   8   8   8   8   8
#     4  10  19  32  51  81 115 148 183 226 281 338
#     4  11  22  38  61  88 113 143 189 241 288 333
#     4   9  19  36  60  87 114 144 186 238 285 330
#     4  10  22  41  59  80 114 154 194 233 276 333
#     4  10  22  37  57  85 117 154 191 226 274 338
#     4  10  19  33  56  86 116 147 182 228 282 332
#     4  11  22  36  58  85 116 151 186 230 286 340
#
# _framework density 20.758476999999999
#
# number of rings (size 3 to 8) (size 9 to 14) (size 15 to 20)
#    0.000    1.857    2.857    1.286    0.000    2.571 
#    0.000    4.286    0.000    0.000    0.000    3.000 
#    0.000    0.000    0.000    0.000    0.000    0.000 
#
# Total GULP energy -346949.781530 kJ/mol
# GULP energy per Si atom -12391.063626 kJ/mol
# Density = 2.071123 g / cm^3
# Si number density = 20.758477 Si / 1000 Ang^3
#
#
#
# Elastic Constant Matrix: (Units=GPa)
#
#
# Indices 1 2 3 4 5 6 
#
# 1 118.8022 20.6790 24.7238 0.0000 22.8382 0.0000
# 2 20.6790 38.8835 20.1446 0.0000 6.6347 0.0000
# 3 24.7238 20.1446 71.8597 0.0000 15.3279 0.0000
# 4 0.0000 0.0000 0.0000 19.7131 0.0000 -1.0079
# 5 22.8382 6.6347 15.3279 0.0000 31.9625 0.0000
# 6 0.0000 0.0000 0.0000 -1.0079 0.0000 27.6229
#
#
#
# Elastic Compliance Matrix: (Units=1/GPa)
#
#
# Indices 1 2 3 4 5 6 
#
# 1 0.010532 -0.003925 -0.001216 0.000000 -0.006127 0.000000
# 2 -0.003925 0.031724 -0.007504 0.000000 -0.000182 0.000000
# 3 -0.001216 -0.007504 0.017735 0.000000 -0.006078 0.000000
# 4 0.000000 0.000000 0.000000 0.050822 0.000000 0.001854
# 5 -0.006127 -0.000182 -0.006078 0.000000 0.038617 0.000000
# 6 0.000000 0.000000 0.000000 0.001854 0.000000 0.036270
#
#
# Mechanical properties :
#
#
# Convention : Reuss Voigt Hill
#
# Bulk Modulus (GPa) = 28.81908 40.07114 34.44511
# Shear Modulus (GPa) = 22.46620 26.79291 24.62955
#
# Velocity S-wave (km/s) = 3.29335 3.59653 3.44827
# Velocity P-wave (km/s) = 5.32679 6.04914 5.69942
#
# Compressibility (1/GPa) = 0.03469923
#
# Stress axis : x y z
#
# Youngs Moduli (GPa) = 94.95274 31.52182 56.38722
#
# Poissons Ratio (x) = 0.12374 0.06857
# Poissons Ratio (y) = 0.37273 0.42313
# Poissons Ratio (z) = 0.11547 0.23654
#
# Static dielectric constant tensor:
#      x y z
#    x 4.162220 0.000000 -0.055260 
#    y 0.000000 3.480220 0.000000 
#    z -0.055260 0.000000 3.628290 
# 
# 
# High freq. dielectric constant tensor:
#      x y z
#    x 1.833710 0.000000 -0.004200 
#    y 0.000000 1.785920 0.000000 
#    z -0.004200 0.000000 1.797370 
# 
# From -- ./inp_files/187164.got.cif
#   From: 2010.06.25/outbox.cif.g09.slc.cpg/sg12_94_cif.got.tgz:187164.got - 2010.06.28 00:19:55.
