data_PCOD8087248
_publ_section_title
;
Structure prediction by ZEFSAII (Michael W. Deem and Ramdas Pophale) SiO2 
 PCOD8087248
Probable space group: C 2/M
;
_chemical_formula_sum "Si O2"
_cell_formula_units_Z 64
_cell_length_a 30.677457
_cell_length_b 9.060026
_cell_length_c 14.312650
_cell_angle_alpha 90.000000
_cell_angle_beta 88.688182
_cell_angle_gamma 90.000000
_cell_volume 3976.994693
_symmetry_space_group_name_H-M "C 2/M"
_symmetry_group_IT_number 12
_symmetry_cell_setting 'monoclinic'
loop_
_space_group_symop_operation_xyz
x,y,z
-x,y,-z
-x,-y,-z
x,-y,z
1/2+x,1/2+y,z
1/2-x,1/2+y,-z
1/2-x,1/2-y,-z
1/2+x,1/2-y,z
loop_
_atom_site_type_symbol
_atom_site_label
_atom_site_fract_x
_atom_site_fract_y
_atom_site_fract_z
Si Si1 0.665606 0.172370 0.793977
Si Si2 0.251692 0.672618 0.901504
Si Si3 0.799760 0.173046 0.589945
Si Si4 0.336692 0.673805 0.784359
Si Si5 0.799305 0.672055 0.406207
Si Si6 0.993878 0.661866 0.110002
Si Si7 0.909294 0.174468 0.092494
Si Si8 0.589721 0.174732 0.106308
O O1 0.709905 0.217919 0.843462
O O2 0.671013 0.209490 0.684416
O O3 0.627155 0.273828 0.833576
O O4 0.654865 0.000000 0.810493
O O5 0.252798 0.500000 0.919076
O O6 0.294679 0.724171 0.845057
O O7 0.250000 0.750000 0.000000
O O8 0.829097 0.217653 0.677006
O O9 0.819287 0.248139 0.496091
O O10 0.750143 0.226646 0.610293
O O11 0.800896 0.000000 0.574600
O O12 0.345317 0.500000 0.795545
O O13 0.377954 0.765212 0.817113
O O14 0.799378 0.500000 0.426768
O O15 0.980884 0.500000 0.150939
O O16 0.956004 0.778900 0.134298
O O17 0.041031 0.713141 0.146743
O O18 0.000000 0.647486 0.000000
O O19 0.907957 0.000000 0.080095
O O20 0.900280 0.248588 0.993049
O O21 0.595454 0.000000 0.091783
#
# Coordination Sequence:
#
# PCOD8087248 Si02
#       8
#     8   8   8   8   8   8   8   8
#     4  10  19  33  49  65  93 130 163 195 234 279
#     4  10  20  32  44  61  90 128 164 193 224 269
#     4   9  17  31  49  69  94 122 154 199 246 280
#     4  10  19  32  48  68  96 127 159 196 238 280
#     4   9  17  31  50  69  90 122 161 199 238 280
#     4   8  16  32  50  67  91 123 157 194 236 280
#     4  11  21  31  47  72  98 124 159 199 238 282
#     4  10  20  33  49  70  96 127 162 196 233 281
#
# _framework density 16.092554
#
# number of rings (size 3 to 8) (size 9 to 14) (size 15 to 20)
#    0.000    2.375    1.250    3.000    0.000    6.750 
#    0.000    0.000    0.000    0.000    0.000    0.875 
#    0.000    7.000    0.000    0.000    0.000    0.000 
#
# Total GULP energy -396756.134719 kJ/mol
# GULP energy per Si atom -12398.629210 kJ/mol
# Density = 1.605593 g / cm^3
# Si number density = 16.092554 Si / 1000 Ang^3
#
#
#
# Elastic Constant Matrix: (Units=GPa)
#
#
# Indices 1 2 3 4 5 6 
#
# 1 111.2311 52.0546 55.0872 0.0000 15.3550 0.0000
# 2 52.0546 70.6030 50.6778 0.0000 6.5027 0.0000
# 3 55.0872 50.6778 110.2533 0.0000 12.2264 0.0000
# 4 0.0000 0.0000 0.0000 28.2868 0.0000 1.1716
# 5 15.3550 6.5027 12.2264 0.0000 6.7937 0.0000
# 6 0.0000 0.0000 0.0000 1.1716 0.0000 23.3256
#
#
#
# Elastic Compliance Matrix: (Units=1/GPa)
#
#
# Indices 1 2 3 4 5 6 
#
# 1 0.018353 -0.009819 -0.001373 0.000000 -0.029612 0.000000
# 2 -0.009819 0.026455 -0.008629 0.000000 0.012400 0.000000
# 3 -0.001373 -0.008629 0.015570 0.000000 -0.016657 0.000000
# 4 0.000000 0.000000 0.000000 0.035426 0.000000 -0.001779
# 5 -0.029612 0.012400 -0.016657 0.000000 0.232233 0.000000
# 6 0.000000 0.000000 0.000000 -0.001779 0.000000 0.042961
#
#
# Mechanical properties :
#
#
# Convention : Reuss Voigt Hill
#
# Bulk Modulus (GPa) = 48.22566 67.52517 57.87542
# Shear Modulus (GPa) = 11.97459 20.63239 16.30349
#
# Velocity S-wave (km/s) = 2.73079 3.58454 3.18639
# Velocity P-wave (km/s) = 6.32264 7.69308 7.04128
#
# Compressibility (1/GPa) = 0.02073585
#
# Stress axis : x y z
#
# Youngs Moduli (GPa) = 54.48661 37.80060 64.22763
#
# Poissons Ratio (x) = 0.37115 0.08819
# Poissons Ratio (y) = 0.53498 0.55423
# Poissons Ratio (z) = 0.07481 0.32619
#
# Static dielectric constant tensor:
#      x y z
#    x 3.255320 0.000000 0.075450 
#    y 0.000000 2.998360 0.000000 
#    z 0.075450 0.000000 2.945790 
# 
# 
# High freq. dielectric constant tensor:
#      x y z
#    x 1.609730 0.000000 0.003620 
#    y 0.000000 1.617870 0.000000 
#    z 0.003620 0.000000 1.599790 
# 
# From -- ./inp_files/248390.got.cif
#   From: 2010.06.25/outbox.cif.g09.slc.cpg/sg12_125_cif.got.tgz:248390.got - 2010.06.28 00:19:55.
