data_PCOD8087696
_publ_section_title
;
Structure prediction by ZEFSAII (Michael W. Deem and Ramdas Pophale) SiO2 
 PCOD8087696
Probable space group: C 2/M
;
_chemical_formula_sum "Si O2"
_cell_formula_units_Z 40
_cell_length_a 20.070197
_cell_length_b 8.826973
_cell_length_c 16.804199
_cell_angle_alpha 90.000000
_cell_angle_beta 124.229273
_cell_angle_gamma 90.000000
_cell_volume 2461.377317
_symmetry_space_group_name_H-M "C 2/M"
_symmetry_group_IT_number 12
_symmetry_cell_setting 'monoclinic'
loop_
_space_group_symop_operation_xyz
x,y,z
-x,y,-z
-x,-y,-z
x,-y,z
1/2+x,1/2+y,z
1/2-x,1/2+y,-z
1/2-x,1/2-y,-z
1/2+x,1/2-y,z
loop_
_atom_site_type_symbol
_atom_site_label
_atom_site_fract_x
_atom_site_fract_y
_atom_site_fract_z
Si Si1 0.541867 0.179178 0.236995
Si Si2 0.786313 0.676514 0.908527
Si Si3 0.815238 0.171259 0.598249
Si Si4 0.625040 0.323639 0.891896
Si Si5 0.338982 0.671517 0.787985
O O1 0.599197 0.238833 0.347805
O O2 0.451695 0.234224 0.192566
O O3 0.574810 0.249963 0.175466
O O4 0.545006 0.000000 0.234651
O O5 0.806549 0.500000 0.927528
O O6 0.696659 0.711649 0.878610
O O7 0.791742 0.733349 0.822062
O O8 0.851626 0.765208 0.004967
O O9 0.750000 0.250000 0.500000
O O10 0.785433 0.172697 0.670719
O O11 0.828837 0.000000 0.577373
O O12 0.604642 0.500000 0.883357
O O13 0.354091 0.500000 0.827746
#
# Coordination Sequence:
#
# PCOD8087696 Si02
#       5
#     8   8   8   8   8
#     4  10  19  32  51  75 100 129 167 206 244 290
#     4  10  20  33  51  73  99 134 170 202 243 294
#     4   9  18  32  52  76 100 128 160 201 251 296
#     4  10  20  34  50  71 102 135 167 203 245 292
#     4   9  19  33  50  74 101 129 163 205 248 290
#
# _framework density 16.251065000000001
#
# number of rings (size 3 to 8) (size 9 to 14) (size 15 to 20)
#    1.200    1.200    0.000    3.600    0.000    3.200 
#    0.000    4.000    0.000    1.200    0.000    8.400 
#    0.000    0.000    0.000    0.000    0.000    0.000 
#
# Total GULP energy -247879.125703 kJ/mol
# GULP energy per Si atom -12393.956285 kJ/mol
# Density = 1.621408 g / cm^3
# Si number density = 16.251065 Si / 1000 Ang^3
#
#
#
# Elastic Constant Matrix: (Units=GPa)
#
#
# Indices 1 2 3 4 5 6 
#
# 1 64.8101 43.3439 40.2999 0.0000 14.1178 0.0000
# 2 43.3439 115.0767 38.7187 0.0000 14.9645 0.0000
# 3 40.2999 38.7187 81.3490 0.0000 22.2247 0.0000
# 4 0.0000 0.0000 0.0000 32.7934 0.0000 2.3221
# 5 14.1178 14.9645 22.2247 0.0000 18.5983 0.0000
# 6 0.0000 0.0000 0.0000 2.3221 0.0000 29.6577
#
#
#
# Elastic Compliance Matrix: (Units=1/GPa)
#
#
# Indices 1 2 3 4 5 6 
#
# 1 0.025990 -0.006305 -0.008716 0.000000 -0.004240 0.000000
# 2 -0.006305 0.012044 -0.001884 0.000000 -0.002653 0.000000
# 3 -0.008716 -0.001884 0.022695 0.000000 -0.018988 0.000000
# 4 0.000000 0.000000 0.000000 0.030664 0.000000 -0.002401
# 5 -0.004240 -0.002653 -0.018988 0.000000 0.081812 0.000000
# 6 0.000000 0.000000 0.000000 -0.002401 0.000000 0.033906
#
#
# Mechanical properties :
#
#
# Convention : Reuss Voigt Hill
#
# Bulk Modulus (GPa) = 37.14944 56.21787 46.68365
# Shear Modulus (GPa) = 20.00861 25.46810 22.73835
#
# Velocity S-wave (km/s) = 3.51268 3.96304 3.74463
# Velocity P-wave (km/s) = 6.27385 7.45717 6.89096
#
# Compressibility (1/GPa) = 0.02691831
#
# Stress axis : x y z
#
# Youngs Moduli (GPa) = 38.47674 83.03181 44.06324
#
# Poissons Ratio (x) = 0.52353 0.38405
# Poissons Ratio (y) = 0.24260 0.08301
# Poissons Ratio (z) = 0.33535 0.15642
#
# Static dielectric constant tensor:
#      x y z
#    x 2.880740 0.000000 0.030390 
#    y 0.000000 3.224950 0.000000 
#    z 0.030390 0.000000 2.857520 
# 
# 
# High freq. dielectric constant tensor:
#      x y z
#    x 1.604110 0.000000 0.006150 
#    y 0.000000 1.649550 0.000000 
#    z 0.006150 0.000000 1.604580 
# 
# From -- ./inp_files/273776.got.cif
#   From: 2010.06.25/outbox.cif.g09.slc.cpg/sg12_137_cif.got.tgz:273776.got - 2010.06.28 00:19:55.
