data_PCOD8087147
_publ_section_title
;
Structure prediction by ZEFSAII (Michael W. Deem and Ramdas Pophale) SiO2 
 PCOD8087147
Probable space group: C 2/M
;
_chemical_formula_sum "Si O2"
_cell_formula_units_Z 40
_cell_length_a 25.317073
_cell_length_b 7.714731
_cell_length_c 21.517178
_cell_angle_alpha 90.000000
_cell_angle_beta 31.899744
_cell_angle_gamma 90.000000
_cell_volume 2220.806868
_symmetry_space_group_name_H-M "C 2/M"
_symmetry_group_IT_number 12
_symmetry_cell_setting 'monoclinic'
loop_
_space_group_symop_operation_xyz
x,y,z
-x,y,-z
-x,-y,-z
x,-y,z
1/2+x,1/2+y,z
1/2-x,1/2+y,-z
1/2-x,1/2-y,-z
1/2+x,1/2-y,z
loop_
_atom_site_type_symbol
_atom_site_label
_atom_site_fract_x
_atom_site_fract_y
_atom_site_fract_z
Si Si1 0.106851 0.200687 0.117927
Si Si2 0.112629 0.701469 0.672813
Si Si3 0.884786 0.000000 0.688351
Si Si4 0.699276 0.194735 0.148608
Si Si5 0.305672 0.804367 0.540906
Si Si6 0.616521 0.500000 0.456237
O O1 0.125553 0.304443 0.162856
O O2 0.999841 0.249333 0.196369
O O3 0.114326 0.000000 0.127905
O O4 0.189530 0.250142 0.984068
O O5 0.133641 0.500000 0.660611
O O6 0.187300 0.801450 0.644310
O O7 0.133419 0.757010 0.580944
O O8 0.834892 0.826475 0.764560
O O9 0.866952 0.000000 0.633303
O O10 0.000779 0.000000 0.590424
O O11 0.698145 0.000000 0.177505
O O12 0.332098 0.673764 0.569530
O O13 0.335211 0.000000 0.531322
#
# Coordination Sequence:
#
# PCOD8087147 Si02
#       6
#     8   8   4   8   8   4
#     4  10  19  31  54  86 118 145 176 225 281 336
#     4  10  19  31  55  87 116 145 178 222 282 339
#     4  11  24  40  59  77 111 151 189 234 268 326
#     4  10  21  36  54  83 114 146 185 225 278 329
#     4  10  21  36  54  82 116 145 182 229 276 327
#     4  11  24  40  57  81 107 151 195 224 276 326
#
# _framework density 18.011471
#
# number of rings (size 3 to 8) (size 9 to 14) (size 15 to 20)
#    0.000    1.800    2.000    2.400    5.600    3.200 
#    0.000    2.000    0.000    2.400    0.000    4.200 
#    0.000    0.000    0.000    0.000    0.000    0.000 
#
# Total GULP energy -248072.230387 kJ/mol
# GULP energy per Si atom -12403.611519 kJ/mol
# Density = 1.797048 g / cm^3
# Si number density = 18.011471 Si / 1000 Ang^3
#
#
#
# Elastic Constant Matrix: (Units=GPa)
#
#
# Indices 1 2 3 4 5 6 
#
# 1 87.2969 45.3154 52.3237 -0.0362 -11.1274 0.0026
# 2 45.3154 106.4548 41.4302 -0.0965 8.6435 0.0164
# 3 52.3237 41.4302 103.9208 -0.0273 -13.7233 0.0057
# 4 -0.0362 -0.0965 -0.0273 26.5909 0.0301 -3.4947
# 5 -11.1274 8.6435 -13.7233 0.0301 26.8540 -0.0026
# 6 0.0026 0.0164 0.0057 -3.4947 -0.0026 23.4542
#
#
#
# Elastic Compliance Matrix: (Units=1/GPa)
#
#
# Indices 1 2 3 4 5 6 
#
# 1 0.019433 -0.006360 -0.006343 -0.000011 0.006858 0.000003
# 2 -0.006360 0.014280 -0.003695 0.000049 -0.009120 -0.000002
# 3 -0.006343 -0.003695 0.015120 -0.000014 0.006288 -0.000002
# 4 -0.000011 0.000049 -0.000014 0.038358 -0.000070 0.005715
# 5 0.006858 -0.009120 0.006288 -0.000070 0.046229 -0.000001
# 6 0.000003 -0.000002 -0.000002 0.005715 -0.000001 0.043488
#
#
# Mechanical properties :
#
#
# Convention : Reuss Voigt Hill
#
# Bulk Modulus (GPa) = 62.36040 63.97901 63.16971
# Shear Modulus (GPa) = 23.25058 25.95337 24.60197
#
# Velocity S-wave (km/s) = 3.59677 3.80008 3.69983
# Velocity P-wave (km/s) = 7.20741 7.40625 7.30751
#
# Compressibility (1/GPa) = 0.01603582
#
# Stress axis : x y z
#
# Youngs Moduli (GPa) = 51.45933 70.03008 66.13892
#
# Poissons Ratio (x) = 0.44542 0.41952
# Poissons Ratio (y) = 0.32730 0.24437
# Poissons Ratio (z) = 0.32641 0.25874
#
# Static dielectric constant tensor:
#      x y z
#    x 3.050420 -0.000050 -0.251090 
#    y -0.000050 3.443710 0.000060 
#    z -0.251090 0.000060 3.378900 
# 
# 
# High freq. dielectric constant tensor:
#      x y z
#    x 1.668090 0.000000 -0.027600 
#    y 0.000000 1.716890 0.000000 
#    z -0.027600 0.000000 1.688010 
# 
# From -- ./inp_files/172614.got.cif
#   From: 2010.06.25/outbox.cif.g09.slc.cpg/sg12_87_cif.got.tgz:172614.got - 2010.06.28 00:19:55.
