data_PCOD8087482
_publ_section_title
;
Structure prediction by ZEFSAII (Michael W. Deem and Ramdas Pophale) SiO2 
 PCOD8087482
Probable space group: C 2/M
;
_chemical_formula_sum "Si O2"
_cell_formula_units_Z 48
_cell_length_a 20.805508
_cell_length_b 9.039730
_cell_length_c 25.312014
_cell_angle_alpha 90.000000
_cell_angle_beta 34.146511
_cell_angle_gamma 90.000000
_cell_volume 2672.169742
_symmetry_space_group_name_H-M "C 2/M"
_symmetry_group_IT_number 12
_symmetry_cell_setting 'monoclinic'
loop_
_space_group_symop_operation_xyz
x,y,z
-x,y,-z
-x,-y,-z
x,-y,z
1/2+x,1/2+y,z
1/2-x,1/2+y,-z
1/2-x,1/2-y,-z
1/2+x,1/2-y,z
loop_
_atom_site_type_symbol
_atom_site_label
_atom_site_fract_x
_atom_site_fract_y
_atom_site_fract_z
Si Si1 0.166599 0.671698 0.700240
Si Si2 0.283681 0.326193 0.896944
Si Si3 0.417416 0.830093 0.895767
Si Si4 0.349813 0.324619 0.399718
Si Si5 0.607723 0.676039 0.393263
Si Si6 0.086869 0.824913 0.289950
O O1 0.182126 0.500000 0.673428
O O2 0.154908 0.770455 0.656776
O O3 0.274566 0.729428 0.660118
O O4 0.052567 0.693717 0.813660
O O5 0.302718 0.500000 0.885909
O O6 0.378201 0.261356 0.871898
O O7 0.310419 0.270810 0.819047
O O8 0.155057 0.280928 0.002773
O O9 0.389771 0.000000 0.901829
O O10 0.336131 0.500000 0.410585
O O11 0.250000 0.250000 0.500000
O O12 0.467461 0.271557 0.346485
O O13 0.500000 0.737334 0.500000
O O14 0.603029 0.500000 0.394414
O O15 0.603112 0.744054 0.337241
O O16 0.087823 0.000000 0.294787
#
# Coordination Sequence:
#
# PCOD8087482 Si02
#       6
#     8   8   8   8   8   8
#     4  10  19  32  50  74 100 127 163 204 248 294
#     4   9  16  29  48  71  98 128 162 199 242 295
#     4   9  17  28  46  73 102 126 154 200 253 292
#     4  11  21  33  51  74  98 126 164 209 249 288
#     4   9  17  30  48  68  95 132 169 203 243 294
#     4   9  17  30  49  72  95 127 169 203 238 292
#
# _framework density 17.962931000000001
#
# number of rings (size 3 to 8) (size 9 to 14) (size 15 to 20)
#    0.000    2.500    1.667    1.500    0.000    2.667 
#    0.000    0.833    0.000   11.500    0.000    0.000 
#    0.000    6.667    0.000    0.000    0.000    0.000 
#
# Total GULP energy -297480.893331 kJ/mol
# GULP energy per Si atom -12395.037222 kJ/mol
# Density = 1.792205 g / cm^3
# Si number density = 17.962931 Si / 1000 Ang^3
#
#
#
# Elastic Constant Matrix: (Units=GPa)
#
#
# Indices 1 2 3 4 5 6 
#
# 1 145.2832 22.2103 88.1319 -0.0012 6.3772 0.0024
# 2 22.2103 27.7087 23.9010 -0.0021 -0.6648 0.0042
# 3 88.1319 23.9010 170.9218 0.0000 6.9407 0.0002
# 4 -0.0012 -0.0021 0.0000 19.8648 0.0004 1.2595
# 5 6.3772 -0.6648 6.9407 0.0004 35.3528 -0.0014
# 6 0.0024 0.0042 0.0002 1.2595 -0.0014 19.4946
#
#
#
# Elastic Compliance Matrix: (Units=1/GPa)
#
#
# Indices 1 2 3 4 5 6 
#
# 1 0.010473 -0.004319 -0.004754 0.000000 -0.001037 0.000000
# 2 -0.004319 0.042950 -0.003874 0.000005 0.002347 -0.000009
# 3 -0.004754 -0.003874 0.008883 -0.000001 -0.000959 0.000001
# 4 0.000000 0.000005 -0.000001 0.050547 -0.000001 -0.003266
# 5 -0.001037 0.002347 -0.000959 -0.000001 0.028706 0.000002
# 6 0.000000 -0.000009 0.000001 -0.003266 0.000002 0.051507
#
#
# Mechanical properties :
#
#
# Convention : Reuss Voigt Hill
#
# Bulk Modulus (GPa) = 27.46429 68.04444 47.75437
# Shear Modulus (GPa) = 21.63596 28.92047 25.27821
#
# Velocity S-wave (km/s) = 3.47432 4.01684 3.75539
# Velocity P-wave (km/s) = 5.60510 7.71207 6.74141
#
# Compressibility (1/GPa) = 0.03641092
#
# Stress axis : x y z
#
# Youngs Moduli (GPa) = 95.48599 23.28302 112.57904
#
# Poissons Ratio (x) = 0.10055 0.53520
# Poissons Ratio (y) = 0.41238 0.43617
# Poissons Ratio (z) = 0.45394 0.09021
#
# Static dielectric constant tensor:
#      x y z
#    x 3.411660 0.000000 0.185570 
#    y 0.000000 3.015530 0.000000 
#    z 0.185570 0.000000 3.972790 
# 
# 
# High freq. dielectric constant tensor:
#      x y z
#    x 1.676990 0.000000 0.005900 
#    y 0.000000 1.658090 0.000000 
#    z 0.005900 0.000000 1.720080 
# 
# From -- ./inp_files/229295.got.cif
#   From: 2010.06.25/outbox.cif.g09.slc.cpg/sg12_115_cif.got.tgz:229295.got - 2010.06.28 00:19:55.
