data_PCOD8087097
_publ_section_title
;
Structure prediction by ZEFSAII (Michael W. Deem and Ramdas Pophale) SiO2 
 PCOD8087097
Probable space group: C 2/M
;
_chemical_formula_sum "Si O2"
_cell_formula_units_Z 56
_cell_length_a 29.765226
_cell_length_b 8.771182
_cell_length_c 21.833001
_cell_angle_alpha 90.000000
_cell_angle_beta 33.205221
_cell_angle_gamma 90.000000
_cell_volume 3121.587287
_symmetry_space_group_name_H-M "C 2/M"
_symmetry_group_IT_number 12
_symmetry_cell_setting 'monoclinic'
loop_
_space_group_symop_operation_xyz
x,y,z
-x,y,-z
-x,-y,-z
x,-y,z
1/2+x,1/2+y,z
1/2-x,1/2+y,-z
1/2-x,1/2-y,-z
1/2+x,1/2-y,z
loop_
_atom_site_type_symbol
_atom_site_label
_atom_site_fract_x
_atom_site_fract_y
_atom_site_fract_z
Si Si1 0.262742 0.674897 0.083300
Si Si2 0.951054 0.324118 0.311634
Si Si3 0.664644 0.177526 0.887110
Si Si4 0.017914 0.677355 0.864237
Si Si5 0.369964 0.174855 0.860624
Si Si6 0.168911 0.821344 0.753480
Si Si7 0.784808 0.821177 0.521880
O O1 0.274845 0.500000 0.088625
O O2 0.270035 0.779445 0.134906
O O3 0.173050 0.703082 0.155838
O O4 0.331973 0.715672 0.954828
O O5 0.924915 0.500000 0.346557
O O6 0.879984 0.221519 0.421715
O O7 0.965259 0.278659 0.224971
O O8 0.033564 0.290329 0.255940
O O9 0.686390 0.275470 0.803076
O O10 0.671714 0.000000 0.863211
O O11 0.574682 0.221490 0.013954
O O12 0.034812 0.500000 0.857318
O O13 0.076878 0.773708 0.840658
O O14 0.356826 0.000000 0.897758
O O15 0.234867 0.736925 0.636663
O O16 0.179902 0.000000 0.732306
O O17 0.750000 0.750000 0.500000
O O18 0.773952 0.000000 0.529562
#
# Coordination Sequence:
#
# PCOD8087097 Si02
#       7
#     8   8   8   8   8   8   8
#     4  10  19  31  53  83 114 145 184 227 269 324
#     4  10  19  35  58  82 112 147 183 225 273 325
#     4  11  22  38  57  79 113 153 186 222 275 332
#     4  10  20  35  56  80 112 151 185 219 271 329
#     4   9  18  34  54  80 113 149 182 221 277 329
#     4  12  25  39  56  80 110 146 188 231 274 325
#     4  12  24  39  58  81 108 144 186 230 276 321
#
# _framework density 17.939591
#
# number of rings (size 3 to 8) (size 9 to 14) (size 15 to 20)
#    0.000    1.429    2.857    3.857    0.000    4.000 
#    0.000    0.000    0.000    0.857    0.000    6.000 
#    0.000    0.000    0.000    0.000    0.000    0.000 
#
# Total GULP energy -347334.155934 kJ/mol
# GULP energy per Si atom -12404.791283 kJ/mol
# Density = 1.789876 g / cm^3
# Si number density = 17.939591 Si / 1000 Ang^3
#
#
#
# Elastic Constant Matrix: (Units=GPa)
#
#
# Indices 1 2 3 4 5 6 
#
# 1 116.4069 41.6671 46.0580 -0.0011 -8.6746 0.0018
# 2 41.6671 93.4697 38.6775 0.0003 -2.8032 -0.0050
# 3 46.0580 38.6775 80.1128 -0.0071 -3.6123 -0.0006
# 4 -0.0011 0.0003 -0.0071 28.5423 0.0005 1.3550
# 5 -8.6746 -2.8032 -3.6123 0.0005 26.0849 -0.0004
# 6 0.0018 -0.0050 -0.0006 1.3550 -0.0004 30.2915
#
#
#
# Elastic Compliance Matrix: (Units=1/GPa)
#
#
# Indices 1 2 3 4 5 6 
#
# 1 0.012000 -0.003076 -0.005282 -0.000001 0.002929 -0.000001
# 2 -0.003076 0.014166 -0.005080 -0.000002 -0.000204 0.000002
# 3 -0.005282 -0.005080 0.017980 0.000004 0.000188 0.000000
# 4 -0.000001 -0.000002 0.000004 0.035110 -0.000001 -0.001571
# 5 0.002929 -0.000204 0.000188 -0.000001 0.039314 0.000000
# 6 -0.000001 0.000002 0.000000 -0.001571 0.000000 0.033083
#
#
# Mechanical properties :
#
#
# Convention : Reuss Voigt Hill
#
# Bulk Modulus (GPa) = 57.90280 60.31053 59.10667
# Shear Modulus (GPa) = 27.13201 27.88953 27.51077
#
# Velocity S-wave (km/s) = 3.89319 3.94716 3.92027
# Velocity P-wave (km/s) = 7.24954 7.38005 7.31509
#
# Compressibility (1/GPa) = 0.01727032
#
# Stress axis : x y z
#
# Youngs Moduli (GPa) = 83.33658 70.59292 55.61764
#
# Poissons Ratio (x) = 0.21713 0.29376
# Poissons Ratio (y) = 0.25633 0.28253
# Poissons Ratio (z) = 0.44016 0.35861
#
# Static dielectric constant tensor:
#      x y z
#    x 3.455200 0.000000 -0.104600 
#    y 0.000000 3.397370 0.000020 
#    z -0.104600 0.000020 3.332020 
# 
# 
# High freq. dielectric constant tensor:
#      x y z
#    x 1.696440 0.000000 -0.008270 
#    y 0.000000 1.700990 0.000000 
#    z -0.008270 0.000000 1.675810 
# 
# From -- ./inp_files/329487.got.cif
#   From: 2010.06.25/outbox.cif.g09.slc.cpg/sg12_165_cif.got.tgz:329487.got - 2010.06.28 00:19:55.
