data_PCOD8087127
_publ_section_title
;
Structure prediction by ZEFSAII (Michael W. Deem and Ramdas Pophale) SiO2 
 PCOD8087127
Probable space group: C 2/M
;
_chemical_formula_sum "Si O2"
_cell_formula_units_Z 56
_cell_length_a 18.986669
_cell_length_b 9.117606
_cell_length_c 28.389245
_cell_angle_alpha 90.000000
_cell_angle_beta 141.002949
_cell_angle_gamma 90.000000
_cell_volume 3092.627703
_symmetry_space_group_name_H-M "C 2/M"
_symmetry_group_IT_number 12
_symmetry_cell_setting 'monoclinic'
loop_
_space_group_symop_operation_xyz
x,y,z
-x,y,-z
-x,-y,-z
x,-y,z
1/2+x,1/2+y,z
1/2-x,1/2+y,-z
1/2-x,1/2-y,-z
1/2+x,1/2-y,z
loop_
_atom_site_type_symbol
_atom_site_label
_atom_site_fract_x
_atom_site_fract_y
_atom_site_fract_z
Si Si1 0.369508 0.167939 0.304986
Si Si2 0.620475 0.329806 0.194935
Si Si3 0.904673 0.331362 0.914007
Si Si4 0.301864 0.828851 0.596189
Si Si5 0.394624 0.168094 0.543135
Si Si6 0.027957 0.325625 0.236031
Si Si7 0.346464 0.330863 0.197759
O O1 0.253425 0.195271 0.271812
O O2 0.472566 0.198572 0.394419
O O3 0.382221 0.275160 0.267647
O O4 0.376774 0.000000 0.289967
O O5 0.588409 0.500000 0.183137
O O6 0.584189 0.274414 0.124813
O O7 0.554157 0.235447 0.198309
O O8 0.917940 0.500000 0.904344
O O9 0.786041 0.308474 0.878231
O O10 0.000000 0.285023 0.000000
O O11 0.364345 0.784232 0.580642
O O12 0.177920 0.758048 0.532483
O O13 0.375948 0.770234 0.678048
O O14 0.284881 0.000000 0.592174
O O15 0.364338 0.000000 0.518813
O O16 0.020012 0.500000 0.230235
O O17 0.908623 0.261747 0.189909
O O18 0.381471 0.500000 0.211594
#
# Coordination Sequence:
#
# PCOD8087127 Si02
#       7
#     8   8   8   8   8   8   8
#     4   9  17  33  52  73 103 138 174 217 265 311
#     4  10  21  35  55  81 108 137 175 217 258 308
#     4   9  19  38  61  84 110 138 167 204 255 312
#     4   9  18  30  46  70  99 134 174 217 262 307
#     4   9  16  29  48  71  98 131 174 218 263 309
#     4  11  21  36  53  73 108 145 176 214 265 313
#     4  10  19  31  54  83 105 132 175 216 250 303
#
# _framework density 18.107579000000001
#
# number of rings (size 3 to 8) (size 9 to 14) (size 15 to 20)
#    0.000    2.429    1.429    1.286    0.000    3.143 
#    0.000    1.429    0.000    4.286    0.000    0.000 
#    0.000    0.000    0.000    0.000    0.000    0.000 
#
# Total GULP energy -347211.343720 kJ/mol
# GULP energy per Si atom -12400.405133 kJ/mol
# Density = 1.806637 g / cm^3
# Si number density = 18.107579 Si / 1000 Ang^3
#
#
#
# Elastic Constant Matrix: (Units=GPa)
#
#
# Indices 1 2 3 4 5 6 
#
# 1 93.1709 49.7491 38.4066 0.0000 5.3821 -0.0001
# 2 49.7491 81.7884 43.0007 0.0001 3.6701 -0.0005
# 3 38.4066 43.0007 110.9720 0.0000 10.4969 0.0000
# 4 0.0000 0.0001 0.0000 27.1677 0.0000 -0.1800
# 5 5.3821 3.6701 10.4969 0.0000 17.6358 0.0000
# 6 -0.0001 -0.0005 0.0000 -0.1800 0.0000 27.7880
#
#
#
# Elastic Compliance Matrix: (Units=1/GPa)
#
#
# Indices 1 2 3 4 5 6 
#
# 1 0.016399 -0.008791 -0.002086 0.000000 -0.001933 0.000000
# 2 -0.008791 0.020070 -0.004867 0.000000 0.001403 0.000000
# 3 -0.002086 -0.004867 0.012147 0.000000 -0.005581 0.000000
# 4 0.000000 0.000000 0.000000 0.036810 0.000000 0.000238
# 5 -0.001933 0.001403 -0.005581 0.000000 0.060323 0.000000
# 6 0.000000 0.000000 0.000000 0.000238 0.000000 0.035988
#
#
# Mechanical properties :
#
#
# Convention : Reuss Voigt Hill
#
# Bulk Modulus (GPa) = 58.38742 60.91602 59.65172
# Shear Modulus (GPa) = 22.83788 24.83661 23.83724
#
# Velocity S-wave (km/s) = 3.55524 3.70755 3.63219
# Velocity P-wave (km/s) = 7.01197 7.21402 7.11371
#
# Compressibility (1/GPa) = 0.01712698
#
# Stress axis : x y z
#
# Youngs Moduli (GPa) = 60.98046 49.82553 82.32429
#
# Poissons Ratio (x) = 0.43803 0.17173
# Poissons Ratio (y) = 0.53609 0.40068
# Poissons Ratio (z) = 0.12721 0.24251
#
# Static dielectric constant tensor:
#      x y z
#    x 3.164560 0.000000 0.237160 
#    y 0.000000 3.360100 0.000000 
#    z 0.237160 0.000000 3.393430 
# 
# 
# High freq. dielectric constant tensor:
#      x y z
#    x 1.679030 0.000000 0.016840 
#    y 0.000000 1.706150 0.000000 
#    z 0.016840 0.000000 1.695330 
# 
# From -- ./inp_files/280156.got.cif
#   From: 2010.06.25/outbox.cif.g09.slc.cpg/sg12_141_cif.got.tgz:280156.got - 2010.06.28 00:19:55.
