data_PCOD8087373
_publ_section_title
;
Structure prediction by ZEFSAII (Michael W. Deem and Ramdas Pophale) SiO2 
 PCOD8087373
Probable space group: C 2/M
;
_chemical_formula_sum "Si O2"
_cell_formula_units_Z 48
_cell_length_a 28.144190
_cell_length_b 9.164084
_cell_length_c 19.882846
_cell_angle_alpha 90.000000
_cell_angle_beta 146.581389
_cell_angle_gamma 90.000000
_cell_volume 2824.309973
_symmetry_space_group_name_H-M "C 2/M"
_symmetry_group_IT_number 12
_symmetry_cell_setting 'monoclinic'
loop_
_space_group_symop_operation_xyz
x,y,z
-x,y,-z
-x,-y,-z
x,-y,z
1/2+x,1/2+y,z
1/2-x,1/2+y,-z
1/2-x,1/2-y,-z
1/2+x,1/2-y,z
loop_
_atom_site_type_symbol
_atom_site_label
_atom_site_fract_x
_atom_site_fract_y
_atom_site_fract_z
Si Si1 0.099383 0.327757 0.606844
Si Si2 0.183981 0.829907 0.829321
Si Si3 0.367858 0.832344 0.103414
Si Si4 0.154015 0.331226 0.527702
Si Si5 0.692713 0.330205 0.377611
Si Si6 0.446098 0.829783 0.720785
O O1 0.115254 0.500000 0.631585
O O2 0.157912 0.249512 0.730710
O O3 0.129269 0.261506 0.570121
O O4 0.000000 0.287088 0.500000
O O5 0.129780 0.766855 0.827607
O O6 0.163641 0.000000 0.799334
O O7 0.285267 0.798123 0.960041
O O8 0.452015 0.798113 0.158121
O O9 0.368172 0.000000 0.128299
O O10 0.130386 0.500000 0.505181
O O11 0.256489 0.307947 0.633188
O O12 0.094548 0.268321 0.397137
O O13 0.684586 0.500000 0.385547
O O14 0.750000 0.250000 0.500000
O O15 0.597750 0.256286 0.268037
O O16 0.424872 0.000000 0.704635
#
# Coordination Sequence:
#
# PCOD8087373 Si02
#       6
#     8   8   8   8   8   8
#     4  10  19  32  50  68  90 126 163 187 221 280
#     4  10  20  32  47  71  98 121 152 195 237 274
#     4   9  18  33  51  68  92 126 157 188 231 284
#     4   8  15  27  44  66  91 119 151 186 222 269
#     4   9  16  27  43  66  95 122 151 189 232 274
#     4   9  16  29  49  70  90 116 155 195 230 272
#
# _framework density 16.995301000000001
#
# number of rings (size 3 to 8) (size 9 to 14) (size 15 to 20)
#    0.000    2.833    0.000    3.000    0.000    4.333 
#    0.000    4.167    0.000    1.000    0.000    7.000 
#    0.000    0.000    0.000    0.000    0.000    0.000 
#
# Total GULP energy -297473.512802 kJ/mol
# GULP energy per Si atom -12394.729700 kJ/mol
# Density = 1.695662 g / cm^3
# Si number density = 16.995301 Si / 1000 Ang^3
#
#
#
# Elastic Constant Matrix: (Units=GPa)
#
#
# Indices 1 2 3 4 5 6 
#
# 1 131.3392 48.8457 52.3865 0.0000 17.5431 0.0000
# 2 48.8457 60.8667 32.5274 0.0000 8.2298 0.0000
# 3 52.3865 32.5274 69.6015 0.0000 9.1013 0.0000
# 4 0.0000 0.0000 0.0000 25.7877 0.0000 2.4313
# 5 17.5431 8.2298 9.1013 0.0000 28.9136 0.0000
# 6 0.0000 0.0000 0.0000 2.4313 0.0000 26.8340
#
#
#
# Elastic Compliance Matrix: (Units=1/GPa)
#
#
# Indices 1 2 3 4 5 6 
#
# 1 0.013119 -0.006641 -0.006233 0.000000 -0.004107 0.000000
# 2 -0.006641 0.025538 -0.006792 0.000000 -0.001101 0.000000
# 3 -0.006233 -0.006792 0.022408 0.000000 -0.001338 0.000000
# 4 0.000000 0.000000 0.000000 0.039112 0.000000 -0.003544
# 5 -0.004107 -0.001101 -0.001338 0.000000 0.037813 0.000000
# 6 0.000000 0.000000 0.000000 -0.003544 0.000000 0.037587
#
#
# Mechanical properties :
#
#
# Convention : Reuss Voigt Hill
#
# Bulk Modulus (GPa) = 46.01615 58.81408 52.41512
# Shear Modulus (GPa) = 22.50701 24.84358 23.67530
#
# Velocity S-wave (km/s) = 3.64305 3.82749 3.73641
# Velocity P-wave (km/s) = 6.69555 7.36302 7.03720
#
# Compressibility (1/GPa) = 0.02173150
#
# Stress axis : x y z
#
# Youngs Moduli (GPa) = 76.22767 39.15783 44.62680
#
# Poissons Ratio (x) = 0.26006 0.27816
# Poissons Ratio (y) = 0.50626 0.30310
# Poissons Ratio (z) = 0.47513 0.26596
#
# Static dielectric constant tensor:
#      x y z
#    x 3.575550 0.000000 0.304810 
#    y 0.000000 3.161490 0.000000 
#    z 0.304810 0.000000 3.106970 
# 
# 
# High freq. dielectric constant tensor:
#      x y z
#    x 1.657890 0.000000 0.023630 
#    y 0.000000 1.644760 0.000000 
#    z 0.023630 0.000000 1.629720 
# 
# From -- ./inp_files/280537.got.cif
#   From: 2010.06.25/outbox.cif.g09.slc.cpg/sg12_141_cif.got.tgz:280537.got - 2010.06.28 00:19:55.
