data_PCOD8087993
_publ_section_title
;
Structure prediction by ZEFSAII (Michael W. Deem and Ramdas Pophale) SiO2 
 PCOD8087993
Probable space group: C 2/M
;
_chemical_formula_sum "Si O2"
_cell_formula_units_Z 48
_cell_length_a 27.569298
_cell_length_b 8.804707
_cell_length_c 11.436640
_cell_angle_alpha 90.000000
_cell_angle_beta 77.488900
_cell_angle_gamma 90.000000
_cell_volume 2710.203605
_symmetry_space_group_name_H-M "C 2/M"
_symmetry_group_IT_number 12
_symmetry_cell_setting 'monoclinic'
loop_
_space_group_symop_operation_xyz
x,y,z
-x,y,-z
-x,-y,-z
x,-y,z
1/2+x,1/2+y,z
1/2-x,1/2+y,-z
1/2-x,1/2-y,-z
1/2+x,1/2-y,z
loop_
_atom_site_type_symbol
_atom_site_label
_atom_site_fract_x
_atom_site_fract_y
_atom_site_fract_z
Si Si1 0.610591 0.677878 0.529393
Si Si2 0.220933 0.323606 0.853039
Si Si3 0.205485 0.678997 0.595053
Si Si4 0.513467 0.166905 0.627850
Si Si5 0.674387 0.676091 0.091886
Si Si6 0.405528 0.821190 0.711209
O O1 0.620280 0.500000 0.527471
O O2 0.653283 0.761529 0.577378
O O3 0.558494 0.715514 0.621733
O O4 0.611368 0.731839 0.395336
O O5 0.209163 0.500000 0.880453
O O6 0.211142 0.272072 0.726456
O O7 0.278104 0.287424 0.852547
O O8 0.184742 0.225552 0.953690
O O9 0.208146 0.500000 0.578847
O O10 0.250000 0.750000 0.500000
O O11 0.500000 0.154587 0.500000
O O12 0.462511 0.220701 0.717649
O O13 0.530116 0.000000 0.664830
O O14 0.660180 0.500000 0.102453
O O15 0.628454 0.773279 0.163120
O O16 0.400942 0.000000 0.687798
#
# Coordination Sequence:
#
# PCOD8087993 Si02
#       6
#     8   8   8   8   8   8
#     4  11  21  32  49  75 106 136 168 208 255 301
#     4   9  20  36  51  71 100 135 170 202 244 298
#     4  11  22  36  54  75 103 137 172 207 245 297
#     4   8  16  31  49  71  99 132 168 205 250 301
#     4  10  19  32  53  78 102 128 164 210 253 296
#     4  10  19  32  52  76 103 134 169 208 251 301
#
# _framework density 17.710847000000001
#
# number of rings (size 3 to 8) (size 9 to 14) (size 15 to 20)
#    0.000    2.167    0.000    5.000    0.000    7.000 
#    0.000    0.000    0.000    1.000    0.000    7.000 
#    0.000    0.000    0.000    0.000    0.000    0.000 
#
# Total GULP energy -297610.849643 kJ/mol
# GULP energy per Si atom -12400.452068 kJ/mol
# Density = 1.767054 g / cm^3
# Si number density = 17.710847 Si / 1000 Ang^3
#
#
#
# Elastic Constant Matrix: (Units=GPa)
#
#
# Indices 1 2 3 4 5 6 
#
# 1 104.2117 31.7923 61.4090 0.0000 -13.9888 0.0000
# 2 31.7923 58.3877 42.0069 0.0000 -3.4226 0.0000
# 3 61.4090 42.0069 98.4727 0.0000 -8.9835 0.0000
# 4 0.0000 0.0000 0.0000 29.3051 0.0000 -5.0523
# 5 -13.9888 -3.4226 -8.9835 0.0000 30.0253 0.0000
# 6 0.0000 0.0000 0.0000 -5.0523 0.0000 27.5483
#
#
#
# Elastic Compliance Matrix: (Units=1/GPa)
#
#
# Indices 1 2 3 4 5 6 
#
# 1 0.015949 -0.002252 -0.008564 0.000000 0.004611 0.000000
# 2 -0.002252 0.025032 -0.009365 0.000000 -0.000998 0.000000
# 3 -0.008564 -0.009365 0.019563 0.000000 0.000796 0.000000
# 4 0.000000 0.000000 0.000000 0.035238 0.000000 0.006463
# 5 0.004611 -0.000998 0.000796 0.000000 0.035578 0.000000
# 6 0.000000 0.000000 0.000000 0.006463 0.000000 0.037485
#
#
# Mechanical properties :
#
#
# Convention : Reuss Voigt Hill
#
# Bulk Modulus (GPa) = 49.55040 59.05428 54.30234
# Shear Modulus (GPa) = 23.15506 25.76668 24.46087
#
# Velocity S-wave (km/s) = 3.61971 3.81839 3.72038
# Velocity P-wave (km/s) = 6.74596 7.27022 7.01299
#
# Compressibility (1/GPa) = 0.02018147
#
# Stress axis : x y z
#
# Youngs Moduli (GPa) = 62.70111 39.94845 51.11564
#
# Poissons Ratio (x) = 0.08997 0.43777
# Poissons Ratio (y) = 0.14121 0.47869
# Poissons Ratio (z) = 0.53700 0.37411
#
# Static dielectric constant tensor:
#      x y z
#    x 3.611310 0.000000 -0.273270 
#    y 0.000000 3.329940 0.000000 
#    z -0.273270 0.000000 3.176560 
# 
# 
# High freq. dielectric constant tensor:
#      x y z
#    x 1.684950 0.000000 -0.020890 
#    y 0.000000 1.693950 0.000000 
#    z -0.020890 0.000000 1.663620 
# 
# From -- ./inp_files/172176.got.cif
#   From: 2010.06.25/outbox.cif.g09.slc.cpg/sg12_87_cif.got.tgz:172176.got - 2010.06.28 00:19:55.
