data_PCOD8087657
_publ_section_title
;
Structure prediction by ZEFSAII (Michael W. Deem and Ramdas Pophale) SiO2 
 PCOD8087657
Probable space group: C 2/M
;
_chemical_formula_sum "Si O2"
_cell_formula_units_Z 56
_cell_length_a 5.184764
_cell_length_b 17.470517
_cell_length_c 34.863669
_cell_angle_alpha 90.000000
_cell_angle_beta 111.132901
_cell_angle_gamma 90.000000
_cell_volume 2945.584882
_symmetry_space_group_name_H-M "C 2/M"
_symmetry_group_IT_number 12
_symmetry_cell_setting 'monoclinic'
loop_
_space_group_symop_operation_xyz
x,y,z
-x,y,-z
-x,-y,-z
x,-y,z
1/2+x,1/2+y,z
1/2-x,1/2+y,-z
1/2-x,1/2-y,-z
1/2+x,1/2-y,z
loop_
_atom_site_type_symbol
_atom_site_label
_atom_site_fract_x
_atom_site_fract_y
_atom_site_fract_z
Si Si1 0.775731 0.590728 0.905055
Si Si2 0.692405 0.591351 0.476243
Si Si3 0.361847 0.701150 0.738114
Si Si4 0.972465 0.090874 0.383748
Si Si5 0.354572 0.909244 0.334951
Si Si6 0.393650 0.590924 0.953910
Si Si7 0.057812 0.201160 0.832006
O O1 0.761697 0.500000 0.899274
O O2 0.594609 0.619706 0.931139
O O3 0.661214 0.626742 0.859945
O O4 0.085537 0.620447 0.929081
O O5 0.500000 0.622602 0.500000
O O6 0.690672 0.500000 0.475491
O O7 0.580013 0.624207 0.429931
O O8 0.000000 0.622594 0.500000
O O9 0.616171 0.737670 0.728654
O O10 0.258551 0.626706 0.710182
O O11 0.459871 0.672633 0.785061
O O12 0.172229 0.119898 0.360817
O O13 0.664115 0.120491 0.359184
O O14 0.974828 0.000000 0.385778
O O15 0.340856 0.000000 0.329238
O O16 0.395576 0.500000 0.956156
O O17 0.500000 0.625100 0.000000
O O18 0.303368 0.262383 0.841462
#
# Coordination Sequence:
#
# PCOD8087657 Si02
#       7
#     8   8   8   8   8   8   8
#     4  10  19  32  54  80 102 131 174 214 244 290
#     4   9  15  23  37  59  92 132 164 191 233 292
#     4  10  21  37  55  75 100 132 170 206 245 302
#     4   9  17  28  43  68 101 132 162 200 250 297
#     4  10  19  32  51  74 102 132 161 204 256 296
#     4   9  17  30  50  77 106 134 167 209 252 290
#     4  10  21  37  55  74 102 137 165 202 258 305
#
# _framework density 19.011503999999999
#
# number of rings (size 3 to 8) (size 9 to 14) (size 15 to 20)
#    0.000    2.429    0.000    3.000    0.000    5.714 
#    0.000    0.000    0.000   18.857    0.000    0.000 
#    0.000   40.000    0.000    0.000    0.000    0.000 
#
# Total GULP energy -347246.988376 kJ/mol
# GULP energy per Si atom -12401.678156 kJ/mol
# Density = 1.896823 g / cm^3
# Si number density = 19.011504 Si / 1000 Ang^3
#
#
#
# Elastic Constant Matrix: (Units=GPa)
#
#
# Indices 1 2 3 4 5 6 
#
# 1 159.1100 18.7417 69.5393 0.0000 12.9642 0.0000
# 2 18.7417 26.2992 46.9811 0.0000 4.3232 0.0000
# 3 69.5393 46.9811 164.0381 0.0000 11.2027 0.0000
# 4 0.0000 0.0000 0.0000 14.0574 0.0000 2.5433
# 5 12.9642 4.3232 11.2027 0.0000 32.5759 0.0000
# 6 0.0000 0.0000 0.0000 2.5433 0.0000 8.9089
#
#
#
# Elastic Compliance Matrix: (Units=1/GPa)
#
#
# Indices 1 2 3 4 5 6 
#
# 1 0.007853 0.000897 -0.003445 0.000000 -0.002059 0.000000
# 2 0.000897 0.078200 -0.022574 0.000000 -0.002972 0.000000
# 3 -0.003445 -0.022574 0.014054 0.000000 -0.000466 0.000000
# 4 0.000000 0.000000 0.000000 0.075011 0.000000 -0.021414
# 5 -0.002059 -0.002972 -0.000466 0.000000 0.032072 0.000000
# 6 0.000000 0.000000 0.000000 -0.021414 0.000000 0.118360
#
#
# Mechanical properties :
#
#
# Convention : Reuss Voigt Hill
#
# Bulk Modulus (GPa) = 20.05547 68.88574 44.47061
# Shear Modulus (GPa) = 12.74165 25.38748 19.06456
#
# Velocity S-wave (km/s) = 2.59164 3.65824 3.17012
# Velocity P-wave (km/s) = 4.41900 7.35908 6.06974
#
# Compressibility (1/GPa) = 0.04986171
#
# Stress axis : x y z
#
# Youngs Moduli (GPa) = 127.34221 12.78780 71.15545
#
# Poissons Ratio (x) = -0.01147 0.24515
# Poissons Ratio (y) = -0.11422 1.60626
# Poissons Ratio (z) = 0.43872 0.28867
#
# Static dielectric constant tensor:
#      x y z
#    x 3.834290 0.000000 0.028460 
#    y 0.000000 2.832760 0.000000 
#    z 0.028460 0.000000 3.652650 
# 
# 
# High freq. dielectric constant tensor:
#      x y z
#    x 1.762730 0.000000 0.002340 
#    y 0.000000 1.682190 0.000000 
#    z 0.002340 0.000000 1.753050 
# 
# From -- ./inp_files/371591.got.cif
#   From: 2010.06.25/outbox.cif.g09.slc.cpg/sg12_186_cif.got.tgz:371591.got - 2010.06.28 00:19:55.
