data_PCOD8087671
_publ_section_title
;
Structure prediction by ZEFSAII (Michael W. Deem and Ramdas Pophale) SiO2 
 PCOD8087671
Probable space group: C 2/M
;
_chemical_formula_sum "Si O2"
_cell_formula_units_Z 56
_cell_length_a 30.925538
_cell_length_b 9.035283
_cell_length_c 17.796081
_cell_angle_alpha 90.000000
_cell_angle_beta 37.310311
_cell_angle_gamma 90.000000
_cell_volume 3014.048828
_symmetry_space_group_name_H-M "C 2/M"
_symmetry_group_IT_number 12
_symmetry_cell_setting 'monoclinic'
loop_
_space_group_symop_operation_xyz
x,y,z
-x,y,-z
-x,-y,-z
x,-y,z
1/2+x,1/2+y,z
1/2-x,1/2+y,-z
1/2-x,1/2-y,-z
1/2+x,1/2-y,z
loop_
_atom_site_type_symbol
_atom_site_label
_atom_site_fract_x
_atom_site_fract_y
_atom_site_fract_z
Si Si1 0.336706 0.171734 0.454431
Si Si2 0.548943 0.668270 0.364582
Si Si3 0.459931 0.333998 0.339220
Si Si4 0.921645 0.326292 0.908240
Si Si5 0.067515 0.831581 0.952957
Si Si6 0.324745 0.333263 0.326239
Si Si7 0.828165 0.323717 0.894189
O O1 0.381679 0.262329 0.453941
O O2 0.359868 0.224835 0.338935
O O3 0.255455 0.216276 0.580818
O O4 0.352437 0.000000 0.442255
O O5 0.500000 0.734718 0.500000
O O6 0.573402 0.500000 0.349747
O O7 0.494837 0.670121 0.371335
O O8 0.620104 0.762192 0.244449
O O9 0.455871 0.500000 0.313138
O O10 0.502191 0.234369 0.221759
O O11 0.926200 0.500000 0.910027
O O12 0.861749 0.282030 0.929076
O O13 0.906807 0.258652 0.010099
O O14 0.135548 0.822232 0.806544
O O15 0.049342 0.000000 0.002048
O O16 0.000000 0.764944 0.000000
O O17 0.326257 0.500000 0.356788
O O18 0.821356 0.500000 0.893008
O O19 0.750000 0.250000 0.000000
#
# Coordination Sequence:
#
# PCOD8087671 Si02
#       7
#     8   8   8   8   8   8   8
#     4  10  19  32  51  74 103 138 175 219 263 310
#     4   9  19  37  59  83 112 143 182 231 279 332
#     4  10  19  33  55  78 102 138 176 213 264 323
#     4  10  21  36  55  81 109 138 179 226 266 317
#     4  10  20  34  53  77 107 143 180 219 265 318
#     4   9  19  34  50  72 105 140 176 216 261 314
#     4  10  21  38  60  85 114 150 189 232 283 339
#
# _framework density 18.579660000000001
#
# number of rings (size 3 to 8) (size 9 to 14) (size 15 to 20)
#    0.000    2.286    0.000    2.571    0.000    5.143 
#    2.571    0.000    0.000    0.000    0.000    0.000 
#    0.000    0.000    0.000    0.000    0.000    0.000 
#
# Total GULP energy -347099.918337 kJ/mol
# GULP energy per Si atom -12396.425655 kJ/mol
# Density = 1.853737 g / cm^3
# Si number density = 18.579660 Si / 1000 Ang^3
#
#
#
# Elastic Constant Matrix: (Units=GPa)
#
#
# Indices 1 2 3 4 5 6 
#
# 1 75.1448 48.8774 48.6143 -0.0051 -15.1761 0.0038
# 2 48.8774 82.9639 44.9226 -0.0051 -6.0327 0.0062
# 3 48.6143 44.9226 106.1135 -0.0132 -3.7402 0.0100
# 4 -0.0051 -0.0051 -0.0132 30.4546 0.0070 -2.8568
# 5 -15.1761 -6.0327 -3.7402 0.0070 27.2094 -0.0041
# 6 0.0038 0.0062 0.0100 -2.8568 -0.0041 32.5101
#
#
#
# Elastic Compliance Matrix: (Units=1/GPa)
#
#
# Indices 1 2 3 4 5 6 
#
# 1 0.028236 -0.011651 -0.007576 -0.000003 0.012124 0.000002
# 2 -0.011651 0.020627 -0.003479 0.000000 -0.002403 -0.000002
# 3 -0.007576 -0.003479 0.014261 0.000005 -0.003037 -0.000003
# 4 -0.000003 0.000000 0.000005 0.033109 -0.000009 0.002909
# 5 0.012124 -0.002403 -0.003037 -0.000009 0.042564 0.000005
# 6 0.000002 -0.000002 -0.000003 0.002909 0.000005 0.031015
#
#
# Mechanical properties :
#
#
# Convention : Reuss Voigt Hill
#
# Bulk Modulus (GPa) = 56.46364 61.00563 58.73464
# Shear Modulus (GPa) = 22.61147 26.15535 24.38341
#
# Velocity S-wave (km/s) = 3.49234 3.75606 3.62660
# Velocity P-wave (km/s) = 6.83505 7.19142 7.01550
#
# Compressibility (1/GPa) = 0.01771051
#
# Stress axis : x y z
#
# Youngs Moduli (GPa) = 35.41611 48.48105 70.12343
#
# Poissons Ratio (x) = 0.56485 0.53126
# Poissons Ratio (y) = 0.41263 0.24397
# Poissons Ratio (z) = 0.26831 0.16867
#
# Static dielectric constant tensor:
#      x y z
#    x 3.420300 -0.000010 -0.063240 
#    y -0.000010 3.559380 0.000030 
#    z -0.063240 0.000030 3.465470 
# 
# 
# High freq. dielectric constant tensor:
#      x y z
#    x 1.719400 0.000000 -0.008520 
#    y 0.000000 1.724220 0.000000 
#    z -0.008520 0.000000 1.717450 
# 
# From -- ./inp_files/295098.got.cif
#   From: 2010.06.25/outbox.cif.g09.slc.cpg/sg12_148_cif.got.tgz:295098.got - 2010.06.28 00:19:55.
