data_PCOD8087165
_publ_section_title
;
Structure prediction by ZEFSAII (Michael W. Deem and Ramdas Pophale) SiO2 
 PCOD8087165
Probable space group: C 2/M
;
_chemical_formula_sum "Si O2"
_cell_formula_units_Z 64
_cell_length_a 9.178054
_cell_length_b 18.320241
_cell_length_c 28.517258
_cell_angle_alpha 90.000000
_cell_angle_beta 139.140566
_cell_angle_gamma 90.000000
_cell_volume 3136.922182
_symmetry_space_group_name_H-M "C 2/M"
_symmetry_group_IT_number 12
_symmetry_cell_setting 'monoclinic'
loop_
_space_group_symop_operation_xyz
x,y,z
-x,y,-z
-x,-y,-z
x,-y,z
1/2+x,1/2+y,z
1/2-x,1/2+y,-z
1/2-x,1/2-y,-z
1/2+x,1/2-y,z
loop_
_atom_site_type_symbol
_atom_site_label
_atom_site_fract_x
_atom_site_fract_y
_atom_site_fract_z
Si Si1 0.742854 0.083795 0.425597
Si Si2 0.972398 0.086464 0.846222
Si Si3 0.248156 0.083964 0.747460
Si Si4 0.040917 0.288955 0.427250
Si Si5 0.381748 0.916493 0.886192
Si Si6 0.933740 0.787800 0.659807
Si Si7 0.872409 0.913139 0.014619
Si Si8 0.495662 0.144511 0.721010
O O1 0.598576 0.128114 0.428032
O O2 0.685770 0.112028 0.359612
O O3 0.000000 0.097433 0.500000
O O4 0.675788 0.000000 0.414256
O O5 0.744293 0.117930 0.769717
O O6 0.178007 0.119597 0.865721
O O7 0.961482 0.000000 0.838216
O O8 0.998649 0.110173 0.906861
O O9 0.351798 0.090567 0.823633
O O10 0.430422 0.116872 0.756572
O O11 0.022656 0.131117 0.691036
O O12 0.191733 0.000000 0.720972
O O13 0.250000 0.250000 0.500000
O O14 0.961777 0.243600 0.362417
O O15 0.833425 0.291375 0.412109
O O16 0.621055 0.880523 0.956494
O O17 0.388563 0.000000 0.904061
O O18 0.996725 0.732645 0.717580
O O19 0.858218 0.000000 0.006524
O O20 0.000000 0.881232 0.000000
#
# Coordination Sequence:
#
# PCOD8087165 Si02
#       8
#     8   8   8   8   8   8   8   8
#     4  10  22  38  62  91 121 158 202 254 309 370
#     4  10  19  31  55  86 119 160 207 258 306 359
#     4  11  23  39  61  90 124 160 204 259 309 359
#     4  11  22  42  63  86 117 158 203 248 311 380
#     4   9  19  32  51  83 122 159 201 254 307 360
#     4  11  24  40  62  88 118 159 205 252 307 374
#     4   9  16  29  50  80 120 163 205 248 301 365
#     4  11  22  40  60  85 122 162 206 250 310 375
#
# _framework density 20.402163000000002
#
# number of rings (size 3 to 8) (size 9 to 14) (size 15 to 20)
#    0.000    1.750    1.250    4.125    3.500    4.000 
#    0.000    0.000    0.000    2.250    0.000    0.000 
#    0.000    0.000    0.000    0.000    0.000    0.000 
#
# Total GULP energy -396784.292131 kJ/mol
# GULP energy per Si atom -12399.509129 kJ/mol
# Density = 2.035573 g / cm^3
# Si number density = 20.402163 Si / 1000 Ang^3
#
#
#
# Elastic Constant Matrix: (Units=GPa)
#
#
# Indices 1 2 3 4 5 6 
#
# 1 119.0507 22.8339 41.3959 0.0002 11.3858 0.0001
# 2 22.8339 89.8035 23.4081 0.0004 1.8795 0.0002
# 3 41.3959 23.4081 101.0639 0.0014 17.4664 0.0008
# 4 0.0002 0.0004 0.0014 12.3983 0.0005 -0.1780
# 5 11.3858 1.8795 17.4664 0.0005 36.2864 0.0002
# 6 0.0001 0.0002 0.0008 -0.1780 0.0002 21.5559
#
#
#
# Elastic Compliance Matrix: (Units=1/GPa)
#
#
# Indices 1 2 3 4 5 6 
#
# 1 0.010062 -0.001615 -0.003508 0.000000 -0.001385 0.000000
# 2 -0.001615 0.012130 -0.002320 0.000000 0.000995 0.000000
# 3 -0.003508 -0.002320 0.012716 -0.000001 -0.004900 0.000000
# 4 0.000000 0.000000 -0.000001 0.080666 -0.000001 0.000666
# 5 -0.001385 0.000995 -0.004900 -0.000001 0.030300 0.000000
# 6 0.000000 0.000000 0.000000 0.000666 0.000000 0.046396
#
#
# Mechanical properties :
#
#
# Convention : Reuss Voigt Hill
#
# Bulk Modulus (GPa) = 49.94585 53.91043 51.92814
# Shear Modulus (GPa) = 23.38313 28.86681 26.12497
#
# Velocity S-wave (km/s) = 3.38910 3.76558 3.58229
# Velocity P-wave (km/s) = 6.31256 6.73702 6.52824
#
# Compressibility (1/GPa) = 0.02002168
#
# Stress axis : x y z
#
# Youngs Moduli (GPa) = 99.38633 82.44053 78.64274
#
# Poissons Ratio (x) = 0.13314 0.27587
# Poissons Ratio (y) = 0.16051 0.18245
# Poissons Ratio (z) = 0.34864 0.19126
#
# Static dielectric constant tensor:
#      x y z
#    x 3.851940 0.000000 0.072040 
#    y 0.000000 3.540090 0.000000 
#    z 0.072040 0.000000 3.731490 
# 
# 
# High freq. dielectric constant tensor:
#      x y z
#    x 1.807790 0.000000 0.005050 
#    y 0.000000 1.763860 0.000000 
#    z 0.005050 0.000000 1.802320 
# 
# From -- ./inp_files/372984.got.cif
#   From: 2010.06.25/outbox.cif.g09.slc.cpg/sg12_187_cif.got.tgz:372984.got - 2010.06.28 00:19:55.
