data_PCOD8087575
_publ_section_title
;
Structure prediction by ZEFSAII (Michael W. Deem and Ramdas Pophale) SiO2 
 PCOD8087575
Probable space group: C 2/M
;
_chemical_formula_sum "Si O2"
_cell_formula_units_Z 56
_cell_length_a 15.497843
_cell_length_b 9.253366
_cell_length_c 21.359138
_cell_angle_alpha 90.000000
_cell_angle_beta 90.000000
_cell_angle_gamma 90.000000
_cell_volume 3063.054463
_symmetry_space_group_name_H-M "C 2/M"
_symmetry_group_IT_number 12
_symmetry_cell_setting 'monoclinic'
loop_
_space_group_symop_operation_xyz
x,y,z
-x,y,-z
-x,-y,-z
x,-y,z
1/2+x,1/2+y,z
1/2-x,1/2+y,-z
1/2-x,1/2-y,-z
1/2+x,1/2-y,z
loop_
_atom_site_type_symbol
_atom_site_label
_atom_site_fract_x
_atom_site_fract_y
_atom_site_fract_z
Si Si1 0.664311 0.671481 0.367321
Si Si2 0.500000 0.671502 0.289102
Si Si3 0.500000 0.327885 0.851970
Si Si4 0.903704 0.828814 0.500000
Si Si5 0.335463 0.331202 0.927690
Si Si6 0.835689 0.828519 0.367321
Si Si7 0.335463 0.668798 0.072310
O O1 0.676460 0.500000 0.362601
O O2 0.585249 0.726371 0.324653
O O3 0.646795 0.723119 0.438414
O O4 0.750000 0.750000 0.342607
O O5 0.500000 0.500000 0.289063
O O6 0.500000 0.732839 0.218618
O O7 0.414752 0.726372 0.324653
O O8 0.500000 0.500000 0.853385
O O9 0.415165 0.270370 0.887394
O O10 0.584835 0.270370 0.887394
O O11 0.853205 0.776881 0.438414
O O12 0.000000 0.762028 0.500000
O O13 0.912141 0.000000 0.500000
O O14 0.320837 0.500000 0.916229
O O15 0.250000 0.250000 0.904676
O O16 0.355620 0.297608 0.000000
O O17 0.823540 0.000000 0.362601
O O18 0.320837 0.500000 0.083771
#
# Coordination Sequence:
#
# PCOD8087575 Si02
#       7
#     8   8   8   8   8   8   8
#     4  10  19  32  51  72  94 122 157 194 234 278
#     4   9  18  32  49  69  93 126 162 192 225 277
#     4   9  17  30  49  70  93 124 162 194 225 272
#     4   9  15  28  51  72  91 120 157 193 228 276
#     4   9  17  30  49  72  96 122 154 193 234 275
#     4  10  19  32  51  72  94 122 157 194 234 278
#     4   9  17  30  49  72  96 122 154 193 234 275
#
# _framework density 18.282404
#
# number of rings (size 3 to 8) (size 9 to 14) (size 15 to 20)
#    0.000    2.714    1.429    0.857    0.000    2.857 
#    0.000    1.429    0.000    6.000    0.000    0.000 
#    0.000    0.000    0.000    0.000    0.000    0.000 
#
# Total GULP energy -347194.721741 kJ/mol
# GULP energy per Si atom -12399.811491 kJ/mol
# Density = 1.824079 g / cm^3
# Si number density = 18.282404 Si / 1000 Ang^3
#
#
#
# Elastic Constant Matrix: (Units=GPa)
#
#
# Indices 1 2 3 4 5 6 
#
# 1 196.8171 38.9324 93.1701 0.0000 0.0002 0.0000
# 2 38.9324 22.5571 24.0309 0.0000 0.0000 0.0000
# 3 93.1701 24.0309 133.8137 0.0000 0.0002 0.0000
# 4 0.0000 0.0000 0.0000 11.1223 0.0000 0.0000
# 5 0.0002 0.0000 0.0002 0.0000 16.5538 0.0000
# 6 0.0000 0.0000 0.0000 0.0000 0.0000 30.7861
#
#
#
# Elastic Compliance Matrix: (Units=1/GPa)
#
#
# Indices 1 2 3 4 5 6 
#
# 1 0.009530 -0.011599 -0.004553 0.000000 0.000000 0.000000
# 2 -0.011599 0.068936 -0.004304 0.000000 0.000000 0.000000
# 3 -0.004553 -0.004304 0.011416 0.000000 0.000000 0.000000
# 4 0.000000 0.000000 0.000000 0.089909 0.000000 0.000000
# 5 0.000000 0.000000 0.000000 0.000000 0.060409 0.000000
# 6 0.000000 0.000000 0.000000 0.000000 0.000000 0.032482
#
#
# Mechanical properties :
#
#
# Convention : Reuss Voigt Hill
#
# Bulk Modulus (GPa) = 20.42009 73.93940 47.17974
# Shear Modulus (GPa) = 15.15527 24.82939 19.99233
#
# Velocity S-wave (km/s) = 2.88228 3.68924 3.31044
# Velocity P-wave (km/s) = 4.71913 7.66016 6.36193
#
# Compressibility (1/GPa) = 0.04897139
#
# Stress axis : x y z
#
# Youngs Moduli (GPa) = 104.92719 14.50617 87.59678
#
# Poissons Ratio (x) = 0.16825 0.39881
# Poissons Ratio (y) = 1.21703 0.37702
# Poissons Ratio (z) = 0.47771 0.06244
#
# Static dielectric constant tensor:
#      x y z
#    x 3.514000 0.000000 0.000000 
#    y 0.000000 2.821700 0.000000 
#    z 0.000000 0.000000 3.547460 
# 
# 
# High freq. dielectric constant tensor:
#      x y z
#    x 1.724150 0.000000 0.000000 
#    y 0.000000 1.652780 0.000000 
#    z 0.000000 0.000000 1.710610 
# 
# From -- ./inp_files/304190.got.cif
#   From: 2010.06.25/outbox.cif.g09.slc.cpg/sg12_153_cif.got.tgz:304190.got - 2010.06.28 00:19:55.
