data_PCOD8087204
_publ_section_title
;
Structure prediction by ZEFSAII (Michael W. Deem and Ramdas Pophale) SiO2 
 PCOD8087204
Probable space group: C 2/M
;
_chemical_formula_sum "Si O2"
_cell_formula_units_Z 48
_cell_length_a 22.988421
_cell_length_b 9.016867
_cell_length_c 15.268487
_cell_angle_alpha 90.000000
_cell_angle_beta 100.801599
_cell_angle_gamma 90.000000
_cell_volume 3108.830217
_symmetry_space_group_name_H-M "C 2/M"
_symmetry_group_IT_number 12
_symmetry_cell_setting 'monoclinic'
loop_
_space_group_symop_operation_xyz
x,y,z
-x,y,-z
-x,-y,-z
x,-y,z
1/2+x,1/2+y,z
1/2-x,1/2+y,-z
1/2-x,1/2-y,-z
1/2+x,1/2-y,z
loop_
_atom_site_type_symbol
_atom_site_label
_atom_site_fract_x
_atom_site_fract_y
_atom_site_fract_z
Si Si1 0.173146 0.173649 0.549152
Si Si2 0.474984 0.674613 0.899708
Si Si3 0.555074 0.826121 0.576555
Si Si4 0.288098 0.326300 0.634114
Si Si5 0.883184 0.667328 0.771519
Si Si6 0.492731 0.166746 0.251701
O O1 0.109744 0.229989 0.560757
O O2 0.222984 0.255908 0.620210
O O3 0.181316 0.212187 0.449463
O O4 0.178855 0.000000 0.568327
O O5 0.466485 0.500000 0.891845
O O6 0.410977 0.753137 0.865912
O O7 0.520996 0.728309 0.836322
O O8 0.500000 0.725789 0.000000
O O9 0.500000 0.786996 0.500000
O O10 0.539443 0.774582 0.670688
O O11 0.570378 0.000000 0.576432
O O12 0.282501 0.500000 0.648495
O O13 0.326739 0.256961 0.722416
O O14 0.863646 0.500000 0.789343
O O15 0.935591 0.667021 0.712659
O O16 0.471430 0.000000 0.223806
#
# Coordination Sequence:
#
# PCOD8087204 Si02
#       6
#     8   8   8   8   8   8
#     4  10  21  32  45  66  91 123 162 199 234 272
#     4   9  17  29  46  70  98 124 152 191 238 283
#     4  10  19  32  47  66  94 128 161 192 231 277
#     4  10  19  32  47  65  90 123 160 199 236 275
#     4   9  17  29  47  68  93 121 151 191 233 276
#     4   8  17  29  44  67  94 125 155 188 230 275
#
# _framework density 15.439890999999999
#
# number of rings (size 3 to 8) (size 9 to 14) (size 15 to 20)
#    1.000    1.667    0.000    2.500    0.000    5.667 
#    0.000    0.000    0.000    0.000    0.000    1.167 
#    0.000    0.000    0.000    0.000    0.000    0.000 
#
# Total GULP energy -297430.355566 kJ/mol
# GULP energy per Si atom -12392.931482 kJ/mol
# Density = 1.540475 g / cm^3
# Si number density = 15.439891 Si / 1000 Ang^3
#
#
#
# Elastic Constant Matrix: (Units=GPa)
#
#
# Indices 1 2 3 4 5 6 
#
# 1 69.6809 40.0518 40.2844 0.0000 12.3177 0.0000
# 2 40.0518 84.9735 52.4290 0.0000 14.0637 0.0000
# 3 40.2844 52.4290 103.2057 0.0000 16.6417 0.0000
# 4 0.0000 0.0000 0.0000 23.7590 0.0000 4.0107
# 5 12.3177 14.0637 16.6417 0.0000 25.3325 0.0000
# 6 0.0000 0.0000 0.0000 4.0107 0.0000 28.5983
#
#
#
# Elastic Compliance Matrix: (Units=1/GPa)
#
#
# Indices 1 2 3 4 5 6 
#
# 1 0.021423 -0.006826 -0.004279 0.000000 -0.003816 0.000000
# 2 -0.006826 0.019734 -0.006856 0.000000 -0.003133 0.000000
# 3 -0.004279 -0.006856 0.015539 0.000000 -0.004321 0.000000
# 4 0.000000 0.000000 0.000000 0.043110 0.000000 -0.006046
# 5 -0.003816 -0.003133 -0.004321 0.000000 0.045909 0.000000
# 6 0.000000 0.000000 0.000000 -0.006046 0.000000 0.035815
#
#
# Mechanical properties :
#
#
# Convention : Reuss Voigt Hill
#
# Bulk Modulus (GPa) = 48.13391 58.15451 53.14421
# Shear Modulus (GPa) = 22.28400 23.87761 23.08081
#
# Velocity S-wave (km/s) = 3.80317 3.93681 3.87056
# Velocity P-wave (km/s) = 7.10832 7.64274 7.38037
#
# Compressibility (1/GPa) = 0.02077537
#
# Stress axis : x y z
#
# Youngs Moduli (GPa) = 46.67874 50.67378 64.35356
#
# Poissons Ratio (x) = 0.34589 0.27538
# Poissons Ratio (y) = 0.31862 0.44118
# Poissons Ratio (z) = 0.19975 0.34739
#
# Static dielectric constant tensor:
#      x y z
#    x 2.749750 0.000000 0.054280 
#    y 0.000000 2.972930 0.000000 
#    z 0.054280 0.000000 2.797430 
# 
# 
# High freq. dielectric constant tensor:
#      x y z
#    x 1.568220 0.000000 0.011480 
#    y 0.000000 1.605320 0.000000 
#    z 0.011480 0.000000 1.570530 
# 
# From -- ./inp_files/286905.got.cif
#   From: 2010.06.25/outbox.cif.g09.slc.cpg/sg12_144_cif.got.tgz:286905.got - 2010.06.28 00:19:55.
