data_PCOD8087019
_publ_section_title
;
Structure prediction by ZEFSAII (Michael W. Deem and Ramdas Pophale) SiO2 
 PCOD8087019
Probable space group: C 2/M
;
_chemical_formula_sum "Si O2"
_cell_formula_units_Z 56
_cell_length_a 24.742393
_cell_length_b 8.850878
_cell_length_c 16.657635
_cell_angle_alpha 90.000000
_cell_angle_beta 59.978353
_cell_angle_gamma 90.000000
_cell_volume 3158.473627
_symmetry_space_group_name_H-M "C 2/M"
_symmetry_group_IT_number 12
_symmetry_cell_setting 'monoclinic'
loop_
_space_group_symop_operation_xyz
x,y,z
-x,y,-z
-x,-y,-z
x,-y,z
1/2+x,1/2+y,z
1/2-x,1/2+y,-z
1/2-x,1/2-y,-z
1/2+x,1/2-y,z
loop_
_atom_site_type_symbol
_atom_site_label
_atom_site_fract_x
_atom_site_fract_y
_atom_site_fract_z
Si Si1 0.750818 0.671959 0.291471
Si Si2 0.079165 0.175321 0.582569
Si Si3 0.153353 0.674971 0.105177
Si Si4 0.732113 0.826348 0.899491
Si Si5 0.620166 0.177441 0.393086
Si Si6 0.308228 0.175016 0.413464
Si Si7 0.937697 0.174439 0.718940
O O1 0.725565 0.500000 0.314119
O O2 0.784455 0.703384 0.181237
O O3 0.692613 0.781427 0.348707
O O4 0.801933 0.699863 0.322503
O O5 0.080574 0.246417 0.493229
O O6 0.127671 0.250395 0.606994
O O7 0.011134 0.203749 0.669987
O O8 0.095435 0.000000 0.562626
O O9 0.138054 0.500000 0.129526
O O10 0.210853 0.718692 0.119848
O O11 0.092493 0.771423 0.174520
O O12 0.171614 0.711093 0.999087
O O13 0.752616 0.000000 0.899232
O O14 0.593766 0.230615 0.328124
O O15 0.612175 0.000000 0.406514
O O16 0.250000 0.250000 0.500000
O O17 0.309656 0.000000 0.436173
O O18 0.922364 0.000000 0.714749
#
# Coordination Sequence:
#
# PCOD8087019 Si02
#       7
#     8   8   8   8   8   8   8
#     4  10  20  35  56  79 110 147 178 215 270 326
#     4  11  24  40  56  75 106 149 189 222 269 326
#     4  10  19  31  52  82 110 138 178 224 268 320
#     4   9  18  33  53  78 110 144 176 216 270 328
#     4  12  23  34  54  83 111 141 179 224 271 321
#     4  11  22  36  57  81 108 142 183 229 270 315
#     4  11  23  38  55  76 109 150 183 219 272 332
#
# _framework density 17.730084000000002
#
# number of rings (size 3 to 8) (size 9 to 14) (size 15 to 20)
#    0.000    1.429    2.857    3.429    0.000    5.143 
#    0.000    0.000    0.000    0.857    0.000    6.000 
#    0.000    0.000    0.000    0.000    0.000    0.000 
#
# Total GULP energy -347282.293090 kJ/mol
# GULP energy per Si atom -12402.939039 kJ/mol
# Density = 1.768973 g / cm^3
# Si number density = 17.730084 Si / 1000 Ang^3
#
#
#
# Elastic Constant Matrix: (Units=GPa)
#
#
# Indices 1 2 3 4 5 6 
#
# 1 73.6343 43.3496 44.3912 0.0000 -7.5034 -0.0002
# 2 43.3496 107.0188 51.1561 0.0000 -8.2659 -0.0003
# 3 44.3912 51.1561 137.0905 0.0000 -3.1543 -0.0001
# 4 0.0000 0.0000 0.0000 28.6737 0.0000 -1.9985
# 5 -7.5034 -8.2659 -3.1543 0.0000 24.7582 -0.0001
# 6 -0.0002 -0.0003 -0.0001 -1.9985 -0.0001 26.8772
#
#
#
# Elastic Compliance Matrix: (Units=1/GPa)
#
#
# Indices 1 2 3 4 5 6 
#
# 1 0.019870 -0.005766 -0.004201 0.000000 0.003562 0.000000
# 2 -0.005766 0.013315 -0.003049 0.000000 0.002310 0.000000
# 3 -0.004201 -0.003049 0.009768 0.000000 -0.001046 0.000000
# 4 0.000000 0.000000 0.000000 0.035057 0.000000 0.002607
# 5 0.003562 0.002310 -0.001046 0.000000 0.042108 0.000000
# 6 0.000000 0.000000 0.000000 0.002607 0.000000 0.037400
#
#
# Mechanical properties :
#
#
# Convention : Reuss Voigt Hill
#
# Bulk Modulus (GPa) = 59.08810 66.17082 62.62946
# Shear Modulus (GPa) = 26.42844 27.98493 27.20669
#
# Velocity S-wave (km/s) = 3.86502 3.97720 3.92151
# Velocity P-wave (km/s) = 7.30182 7.64808 7.47695
#
# Compressibility (1/GPa) = 0.01692388
#
# Stress axis : x y z
#
# Youngs Moduli (GPa) = 50.32608 75.10181 102.37297
#
# Poissons Ratio (x) = 0.43301 0.43005
# Poissons Ratio (y) = 0.29016 0.31209
# Poissons Ratio (z) = 0.21141 0.22895
#
# Static dielectric constant tensor:
#      x y z
#    x 3.140140 0.000000 0.063970 
#    y 0.000000 3.444590 0.000000 
#    z 0.063970 0.000000 3.566750 
# 
# 
# High freq. dielectric constant tensor:
#      x y z
#    x 1.657090 0.000000 0.004460 
#    y 0.000000 1.700020 0.000000 
#    z 0.004460 0.000000 1.693350 
# 
# From -- ./inp_files/287375.got.cif
#   From: 2010.06.25/outbox.cif.g09.slc.cpg/sg12_144_cif.got.tgz:287375.got - 2010.06.28 00:19:55.
