data_PCOD8087120
_publ_section_title
;
Structure prediction by ZEFSAII (Michael W. Deem and Ramdas Pophale) SiO2 
 PCOD8087120
Probable space group: C 2/M
;
_chemical_formula_sum "Si O2"
_cell_formula_units_Z 56
_cell_length_a 23.225027
_cell_length_b 16.076434
_cell_length_c 19.212091
_cell_angle_alpha 90.000000
_cell_angle_beta 155.637846
_cell_angle_gamma 90.000000
_cell_volume 2959.017165
_symmetry_space_group_name_H-M "C 2/M"
_symmetry_group_IT_number 12
_symmetry_cell_setting 'monoclinic'
loop_
_space_group_symop_operation_xyz
x,y,z
-x,y,-z
-x,-y,-z
x,-y,z
1/2+x,1/2+y,z
1/2-x,1/2+y,-z
1/2-x,1/2-y,-z
1/2+x,1/2-y,z
loop_
_atom_site_type_symbol
_atom_site_label
_atom_site_fract_x
_atom_site_fract_y
_atom_site_fract_z
Si Si1 0.300813 0.756783 0.977813
Si Si2 0.418794 0.164214 0.690749
Si Si3 0.141246 0.832682 0.453852
Si Si4 0.452982 0.408385 0.140968
Si Si5 0.390261 0.405814 0.826349
Si Si6 0.979657 0.759294 0.397143
Si Si7 0.913788 0.404661 0.538667
O O1 0.175141 0.790970 0.792269
O O2 0.250000 0.750000 0.000000
O O3 0.426733 0.823527 0.106276
O O4 0.339730 0.662189 0.000575
O O5 0.304514 0.140023 0.624792
O O6 0.381718 0.252417 0.618022
O O7 0.418067 0.096789 0.627763
O O8 0.097960 0.811989 0.485598
O O9 0.035338 0.900662 0.305071
O O10 0.381369 0.500000 0.060514
O O11 0.566488 0.399895 0.205627
O O12 0.378865 0.500000 0.840122
O O13 0.233570 0.369993 0.654821
O O14 0.500000 0.359599 0.000000
O O15 0.978491 0.660845 0.375931
O O16 0.000000 0.775862 0.500000
O O17 0.945343 0.500000 0.550674
#
# Coordination Sequence:
#
# PCOD8087120 Si02
#       7
#     8   8   8   8   8   8   8
#     4  11  20  37  52  77 109 141 178 228 268 324
#     4   9  17  32  56  76  99 132 181 228 271 308
#     4   9  17  34  55  75  98 137 183 229 266 312
#     4  10  19  31  54  80 105 138 183 224 265 318
#     4   9  18  30  44  73 115 147 171 210 259 319
#     4  11  24  38  51  74 111 153 183 222 272 322
#     4  10  19  32  52  79 111 142 178 217 266 328
#
# _framework density 18.925201999999999
#
# number of rings (size 3 to 8) (size 9 to 14) (size 15 to 20)
#    0.000    2.143    5.714    0.000    4.000    0.857 
#    0.000    0.714    0.000    0.429    0.000    0.000 
#    0.000    2.286    0.000    0.000    0.000    0.000 
#
# Total GULP energy -346916.323832 kJ/mol
# GULP energy per Si atom -12389.868708 kJ/mol
# Density = 1.888213 g / cm^3
# Si number density = 18.925202 Si / 1000 Ang^3
#
#
#
# Elastic Constant Matrix: (Units=GPa)
#
#
# Indices 1 2 3 4 5 6 
#
# 1 95.1019 6.0025 50.5766 0.0001 -8.8473 -0.0001
# 2 6.0025 24.1933 6.4683 0.0007 -6.7524 0.0002
# 3 50.5766 6.4683 123.3460 0.0005 0.0782 0.0002
# 4 0.0001 0.0007 0.0005 16.7036 0.0002 -0.0137
# 5 -8.8473 -6.7524 0.0782 0.0002 28.6945 -0.0001
# 6 -0.0001 0.0002 0.0002 -0.0137 -0.0001 13.5447
#
#
#
# Elastic Compliance Matrix: (Units=1/GPa)
#
#
# Indices 1 2 3 4 5 6 
#
# 1 0.013977 -0.000791 -0.005692 0.000000 0.004139 0.000000
# 2 -0.000791 0.044962 -0.002040 -0.000002 0.010342 -0.000001
# 3 -0.005692 -0.002040 0.010550 0.000000 -0.002264 0.000000
# 4 0.000000 -0.000002 0.000000 0.059868 -0.000001 0.000061
# 5 0.004139 0.010342 -0.002264 -0.000001 0.038566 0.000000
# 6 0.000000 -0.000001 0.000000 0.000061 0.000000 0.073830
#
#
# Mechanical properties :
#
#
# Convention : Reuss Voigt Hill
#
# Bulk Modulus (GPa) = 19.06849 40.97068 30.01958
# Shear Modulus (GPa) = 18.09761 23.76147 20.92954
#
# Velocity S-wave (km/s) = 3.09572 3.54721 3.32913
# Velocity P-wave (km/s) = 4.78284 6.20264 5.53842
#
# Compressibility (1/GPa) = 0.05244253
#
# Stress axis : x y z
#
# Youngs Moduli (GPa) = 71.54459 22.24102 94.78860
#
# Poissons Ratio (x) = 0.01759 0.53957
# Poissons Ratio (y) = 0.05657 0.19338
# Poissons Ratio (z) = 0.40726 0.04537
#
# Static dielectric constant tensor:
#      x y z
#    x 3.282410 -0.000010 -0.077350 
#    y -0.000010 3.625960 -0.000010 
#    z -0.077350 -0.000010 3.359420 
# 
# 
# High freq. dielectric constant tensor:
#      x y z
#    x 1.717740 0.000000 0.018720 
#    y 0.000000 1.692940 0.000000 
#    z 0.018720 0.000000 1.734000 
# 
# From -- ./inp_files/328581.got.cif
#   From: 2010.06.25/outbox.cif.g09.slc.cpg/sg12_165_cif.got.tgz:328581.got - 2010.06.28 00:19:55.
