data_PCOD8087717
_publ_section_title
;
Structure prediction by ZEFSAII (Michael W. Deem and Ramdas Pophale) SiO2 
 PCOD8087717
Probable space group: C 2/M
;
_chemical_formula_sum "Si O2"
_cell_formula_units_Z 52
_cell_length_a 9.019297
_cell_length_b 19.444558
_cell_length_c 15.335861
_cell_angle_alpha 90.000000
_cell_angle_beta 87.021267
_cell_angle_gamma 90.000000
_cell_volume 2685.911828
_symmetry_space_group_name_H-M "C 2/M"
_symmetry_group_IT_number 12
_symmetry_cell_setting 'monoclinic'
loop_
_space_group_symop_operation_xyz
x,y,z
-x,y,-z
-x,-y,-z
x,-y,z
1/2+x,1/2+y,z
1/2-x,1/2+y,-z
1/2-x,1/2-y,-z
1/2+x,1/2-y,z
loop_
_atom_site_type_symbol
_atom_site_label
_atom_site_fract_x
_atom_site_fract_y
_atom_site_fract_z
Si Si1 0.797655 0.081684 0.358987
Si Si2 0.853887 0.418444 0.813670
Si Si3 0.626947 0.580304 0.308946
Si Si4 0.500000 0.755160 0.500000
Si Si5 0.677502 0.082029 0.852190
Si Si6 0.665049 0.418119 0.979708
Si Si7 0.751882 0.654910 0.457867
O O1 0.689754 0.103083 0.283048
O O2 0.746372 0.122099 0.446065
O O3 0.961691 0.108653 0.329270
O O4 0.794560 0.000000 0.377617
O O5 0.856778 0.500000 0.820973
O O6 0.731901 0.390352 0.886454
O O7 0.015298 0.388016 0.833204
O O8 0.614525 0.500000 0.297346
O O9 0.701321 0.611749 0.219875
O O10 0.734736 0.595358 0.387393
O O11 0.616220 0.707618 0.444812
O O12 0.594441 0.804192 0.562166
O O13 0.672856 0.000000 0.847100
O O14 0.725782 0.106944 0.946443
O O15 0.656258 0.500000 0.979297
O O16 0.500000 0.387746 0.000000
#
# Coordination Sequence:
#
# PCOD8087717 Si02
#       7
#     8   8   8   4   8   8   8
#     4  10  19  32  51  75 104 136 168 205 254 308
#     4   9  17  27  41  66  99 133 167 202 244 295
#     4  10  19  32  51  75 104 136 168 205 254 308
#     4  10  24  38  56  70  96 130 176 214 256 294
#     4   9  17  27  41  66  99 133 167 202 244 295
#     4   9  15  25  41  61  93 136 171 198 235 293
#     4  11  21  39  54  75  98 133 168 216 253 301
#
# _framework density 19.360278000000001
#
# number of rings (size 3 to 8) (size 9 to 14) (size 15 to 20)
#    0.000    2.308    1.538    1.846    2.154    6.769 
#    0.000    0.769    0.000    0.000    0.000    0.000 
#    0.000    7.385    0.000    0.000    0.000    0.000 
#
# Total GULP energy -322268.424019 kJ/mol
# GULP energy per Si atom -12394.939385 kJ/mol
# Density = 1.931621 g / cm^3
# Si number density = 19.360278 Si / 1000 Ang^3
#
#
#
# Elastic Constant Matrix: (Units=GPa)
#
#
# Indices 1 2 3 4 5 6 
#
# 1 103.3641 20.4902 34.1481 0.0000 15.5821 0.0000
# 2 20.4902 17.0364 16.7769 0.0000 1.4783 0.0000
# 3 34.1481 16.7769 121.4534 0.0000 8.8079 0.0000
# 4 0.0000 0.0000 0.0000 2.1424 0.0000 4.6747
# 5 15.5821 1.4783 8.8079 0.0000 31.8738 0.0000
# 6 0.0000 0.0000 0.0000 4.6747 0.0000 18.4018
#
#
#
# Elastic Compliance Matrix: (Units=1/GPa)
#
#
# Indices 1 2 3 4 5 6 
#
# 1 0.013968 -0.014866 -0.001458 0.000000 -0.005736 0.000000
# 2 -0.014866 0.083773 -0.007793 0.000000 0.005536 0.000000
# 3 -0.001458 -0.007793 0.009839 0.000000 -0.001645 0.000000
# 4 0.000000 0.000000 0.000000 1.047291 0.000000 -0.266050
# 5 -0.005736 0.005536 -0.001645 0.000000 0.034376 0.000000
# 6 0.000000 0.000000 0.000000 -0.266050 0.000000 0.121929
#
#
# Mechanical properties :
#
#
# Convention : Reuss Voigt Hill
#
# Bulk Modulus (GPa) = 16.85070 42.74269 29.79670
# Shear Modulus (GPa) = 3.62531 21.84617 12.73574
#
# Velocity S-wave (km/s) = 1.36990 3.36281 2.56760
# Velocity P-wave (km/s) = 3.35034 6.09946 4.92079
#
# Compressibility (1/GPa) = 0.05934472
#
# Stress axis : x y z
#
# Youngs Moduli (GPa) = 71.59298 11.93706 101.63335
#
# Poissons Ratio (x) = 0.17746 0.14815
# Poissons Ratio (y) = 1.06433 0.79208
# Poissons Ratio (z) = 0.10436 0.09303
#
# Static dielectric constant tensor:
#      x y z
#    x 3.915350 0.000000 -0.004240 
#    y 0.000000 3.003830 0.000000 
#    z -0.004240 0.000000 3.581590 
# 
# 
# High freq. dielectric constant tensor:
#      x y z
#    x 1.772900 0.000000 0.004660 
#    y 0.000000 1.680580 0.000000 
#    z 0.004660 0.000000 1.753900 
# 
# From -- ./inp_files/197095.got.cif
#   From: 2010.06.25/outbox.cif.g09.slc.cpg/sg12_99_cif.got.tgz:197095.got - 2010.06.28 00:19:55.
