data_PCOD8087732
_publ_section_title
;
Structure prediction by ZEFSAII (Michael W. Deem and Ramdas Pophale) SiO2 
 PCOD8087732
Probable space group: C 2/M
;
_chemical_formula_sum "Si O2"
_cell_formula_units_Z 56
_cell_length_a 21.731986
_cell_length_b 12.457977
_cell_length_c 11.190638
_cell_angle_alpha 90.000000
_cell_angle_beta 104.564427
_cell_angle_gamma 90.000000
_cell_volume 2932.356656
_symmetry_space_group_name_H-M "C 2/M"
_symmetry_group_IT_number 12
_symmetry_cell_setting 'monoclinic'
loop_
_space_group_symop_operation_xyz
x,y,z
-x,y,-z
-x,-y,-z
x,-y,z
1/2+x,1/2+y,z
1/2-x,1/2+y,-z
1/2-x,1/2-y,-z
1/2+x,1/2-y,z
loop_
_atom_site_type_symbol
_atom_site_label
_atom_site_fract_x
_atom_site_fract_y
_atom_site_fract_z
Si Si1 0.159206 0.878477 0.189408
Si Si2 0.154149 0.753429 0.421667
Si Si3 0.430127 0.797503 0.940780
Si Si4 0.097836 0.378565 0.823910
Si Si5 0.226989 0.731942 0.854464
Si Si6 0.542848 0.877189 0.300835
Si Si7 0.764944 0.126688 0.358736
O O1 0.150279 0.848564 0.323279
O O2 0.116007 0.804439 0.084216
O O3 0.232327 0.863666 0.185410
O O4 0.137938 0.000000 0.159794
O O5 0.084876 0.698629 0.408232
O O6 0.176076 0.807398 0.555706
O O7 0.201655 0.659689 0.399855
O O8 0.427891 0.865281 0.817787
O O9 0.500000 0.751190 0.000000
O O10 0.408434 0.876302 0.035683
O O11 0.114011 0.500000 0.794331
O O12 0.153186 0.299418 0.808629
O O13 0.031071 0.341410 0.731486
O O14 0.239213 0.840019 0.782903
O O15 0.250000 0.750000 0.000000
O O16 0.549343 0.000000 0.345085
O O17 0.775387 0.000000 0.373810
#
# Coordination Sequence:
#
# PCOD8087732 Si02
#       7
#     8   8   8   8   8   8   8
#     4  10  19  32  51  75 107 142 176 218 270 317
#     4   9  19  36  57  85 109 132 178 232 273 321
#     4   9  17  30  48  76 108 138 179 221 262 320
#     4  10  19  33  52  76 109 144 179 220 272 324
#     4  11  22  37  51  78 110 144 183 223 263 317
#     4   9  17  31  55  82 107 138 173 222 279 323
#     4  10  21  37  60  82 108 145 181 222 272 324
#
# _framework density 19.097269000000001
#
# number of rings (size 3 to 8) (size 9 to 14) (size 15 to 20)
#    0.000    2.286    1.429    1.714    0.000    3.143 
#    0.000    2.857    0.000    4.286    0.000    0.000 
#    0.000    0.000    0.000    0.000    0.000    0.000 
#
# Total GULP energy -347168.832098 kJ/mol
# GULP energy per Si atom -12398.886861 kJ/mol
# Density = 1.905380 g / cm^3
# Si number density = 19.097269 Si / 1000 Ang^3
#
#
#
# Elastic Constant Matrix: (Units=GPa)
#
#
# Indices 1 2 3 4 5 6 
#
# 1 103.7633 45.2322 20.7002 0.0000 16.4265 0.0000
# 2 45.2322 110.7310 34.7369 0.0000 11.2765 0.0000
# 3 20.7002 34.7369 77.9040 0.0000 14.3755 0.0000
# 4 0.0000 0.0000 0.0000 20.5330 0.0000 6.9632
# 5 16.4265 11.2765 14.3755 0.0000 28.0775 0.0000
# 6 0.0000 0.0000 0.0000 6.9632 0.0000 22.9076
#
#
#
# Elastic Compliance Matrix: (Units=1/GPa)
#
#
# Indices 1 2 3 4 5 6 
#
# 1 0.012492 -0.004449 -0.000350 0.000000 -0.005343 0.000000
# 2 -0.004449 0.012188 -0.004229 0.000000 -0.000127 0.000000
# 3 -0.000350 -0.004229 0.015973 0.000000 -0.006275 0.000000
# 4 0.000000 0.000000 0.000000 0.054299 0.000000 -0.016505
# 5 -0.005343 -0.000127 -0.006275 0.000000 0.042005 0.000000
# 6 0.000000 0.000000 0.000000 -0.016505 0.000000 0.048671
#
#
# Mechanical properties :
#
#
# Convention : Reuss Voigt Hill
#
# Bulk Modulus (GPa) = 44.25270 54.85967 49.55618
# Shear Modulus (GPa) = 23.67243 27.08556 25.37900
#
# Velocity S-wave (km/s) = 3.52457 3.77011 3.64941
# Velocity P-wave (km/s) = 6.30762 6.90945 6.61538
#
# Compressibility (1/GPa) = 0.02259749
#
# Stress axis : x y z
#
# Youngs Moduli (GPa) = 80.04913 82.04883 62.60659
#
# Poissons Ratio (x) = 0.36505 0.02189
# Poissons Ratio (y) = 0.35615 0.26476
# Poissons Ratio (z) = 0.02799 0.34698
#
# Static dielectric constant tensor:
#      x y z
#    x 3.614050 0.000000 0.216900 
#    y 0.000000 3.228870 0.000000 
#    z 0.216900 0.000000 3.444740 
# 
# 
# High freq. dielectric constant tensor:
#      x y z
#    x 1.743110 0.000000 0.016950 
#    y 0.000000 1.723030 0.000000 
#    z 0.016950 0.000000 1.733890 
# 
# From -- ./inp_files/165049.got.cif
#   From: 2010.06.25/outbox.cif.g09.slc.cpg/sg12_83_cif.got.tgz:165049.got - 2010.06.28 00:19:55.
