data_PCOD8087925
_publ_section_title
;
Structure prediction by ZEFSAII (Michael W. Deem and Ramdas Pophale) SiO2 
 PCOD8087925
Probable space group: C 2/M
;
_chemical_formula_sum "Si O2"
_cell_formula_units_Z 56
_cell_length_a 19.032330
_cell_length_b 9.096666
_cell_length_c 29.585586
_cell_angle_alpha 90.000000
_cell_angle_beta 37.251190
_cell_angle_gamma 90.000000
_cell_volume 3100.506215
_symmetry_space_group_name_H-M "C 2/M"
_symmetry_group_IT_number 12
_symmetry_cell_setting 'monoclinic'
loop_
_space_group_symop_operation_xyz
x,y,z
-x,y,-z
-x,-y,-z
x,-y,z
1/2+x,1/2+y,z
1/2-x,1/2+y,-z
1/2-x,1/2-y,-z
1/2+x,1/2-y,z
loop_
_atom_site_type_symbol
_atom_site_label
_atom_site_fract_x
_atom_site_fract_y
_atom_site_fract_z
Si Si1 0.132845 0.169382 0.929584
Si Si2 0.026708 0.170280 0.215318
Si Si3 0.080699 0.165759 0.502254
Si Si4 0.894590 0.328048 0.649760
Si Si5 0.683046 0.329196 0.220528
Si Si6 0.711294 0.830043 0.064712
Si Si7 0.738006 0.329146 0.644193
O O1 0.194706 0.270727 0.860851
O O2 0.188084 0.195073 0.950274
O O3 0.145024 0.000000 0.908155
O O4 0.000000 0.219203 0.000000
O O5 0.082492 0.199844 0.235552
O O6 0.090591 0.263305 0.144109
O O7 0.894265 0.223728 0.284608
O O8 0.036305 0.000000 0.196747
O O9 0.202683 0.241129 0.427297
O O10 0.000000 0.169499 0.500000
O O11 0.017950 0.254598 0.574418
O O12 0.103749 0.000000 0.507004
O O13 0.915619 0.500000 0.645282
O O14 0.847510 0.260378 0.719576
O O15 0.799850 0.294414 0.659861
O O16 0.695564 0.500000 0.226083
O O17 0.690744 0.000000 0.064605
O O18 0.750000 0.750000 0.000000
O O19 0.746997 0.500000 0.627306
#
# Coordination Sequence:
#
# PCOD8087925 Si02
#       7
#     8   8   8   8   8   8   8
#     4   9  19  36  55  73  96 130 169 204 241 290
#     4   9  19  36  54  72  99 133 166 202 245 292
#     4   9  17  30  49  74 103 130 160 204 252 291
#     4  10  19  32  52  75 100 131 167 204 242 292
#     4  10  20  34  52  74 102 132 162 202 250 294
#     4  10  20  34  53  75 100 130 164 203 246 293
#     4   9  18  33  53  75  98 129 168 205 243 290
#
# _framework density 18.061565999999999
#
# number of rings (size 3 to 8) (size 9 to 14) (size 15 to 20)
#    0.000    2.571    0.000    1.714    0.000    5.429 
#    0.000    6.429    0.000    0.000    0.000    0.000 
#    0.000    0.000    0.000    0.000    0.000    0.000 
#
# Total GULP energy -347282.858397 kJ/mol
# GULP energy per Si atom -12402.959228 kJ/mol
# Density = 1.802046 g / cm^3
# Si number density = 18.061566 Si / 1000 Ang^3
#
#
#
# Elastic Constant Matrix: (Units=GPa)
#
#
# Indices 1 2 3 4 5 6 
#
# 1 52.8584 46.1969 71.5195 0.0005 -5.4503 0.0343
# 2 46.1969 115.7710 91.1713 0.0032 3.2482 0.0036
# 3 71.5195 91.1713 175.6656 -0.0007 -9.1741 0.0019
# 4 0.0005 0.0032 -0.0007 41.6750 -0.0030 4.8421
# 5 -5.4503 3.2482 -9.1741 -0.0030 32.7676 0.0015
# 6 0.0343 0.0036 0.0019 4.8421 0.0015 24.6676
#
#
#
# Elastic Compliance Matrix: (Units=1/GPa)
#
#
# Indices 1 2 3 4 5 6 
#
# 1 0.044862 -0.006415 -0.014728 0.000007 0.003974 -0.000062
# 2 -0.006415 0.015962 -0.005898 -0.000002 -0.004300 0.000008
# 3 -0.014728 -0.005898 0.014870 -0.000001 0.002298 0.000020
# 4 0.000007 -0.000002 -0.000001 0.024555 0.000004 -0.004820
# 5 0.003974 -0.004300 0.002298 0.000004 0.032249 -0.000008
# 6 -0.000062 0.000008 0.000020 -0.004820 -0.000008 0.041485
#
#
# Mechanical properties :
#
#
# Convention : Reuss Voigt Hill
#
# Bulk Modulus (GPa) = 46.26647 84.67448 65.47047
# Shear Modulus (GPa) = 21.25223 28.84920 25.05072
#
# Velocity S-wave (km/s) = 3.43396 4.00092 3.72823
# Velocity P-wave (km/s) = 6.43385 8.26595 7.40677
#
# Compressibility (1/GPa) = 0.02161393
#
# Stress axis : x y z
#
# Youngs Moduli (GPa) = 22.29042 62.64686 67.24987
#
# Poissons Ratio (x) = 0.40185 0.99047
# Poissons Ratio (y) = 0.14298 0.39661
# Poissons Ratio (z) = 0.32830 0.36947
#
# Static dielectric constant tensor:
#      x y z
#    x 3.172730 -0.000020 -0.097370 
#    y -0.000020 3.454740 0.000000 
#    z -0.097370 0.000000 3.472780 
# 
# 
# High freq. dielectric constant tensor:
#      x y z
#    x 1.676870 0.000000 -0.000950 
#    y 0.000000 1.708780 0.000000 
#    z -0.000950 0.000000 1.711150 
# 
# From -- ./inp_files/237851.got.cif
#   From: 2010.06.25/outbox.cif.g09.slc.cpg/sg12_119_cif.got.tgz:237851.got - 2010.06.28 00:19:55.
