data_PCOD8087308
_publ_section_title
;
Structure prediction by ZEFSAII (Michael W. Deem and Ramdas Pophale) SiO2 
 PCOD8087308
Probable space group: C 2/M
;
_chemical_formula_sum "Si O2"
_cell_formula_units_Z 64
_cell_length_a 28.233261
_cell_length_b 9.213729
_cell_length_c 20.341867
_cell_angle_alpha 90.000000
_cell_angle_beta 131.217737
_cell_angle_gamma 90.000000
_cell_volume 3980.402098
_symmetry_space_group_name_H-M "C 2/M"
_symmetry_group_IT_number 12
_symmetry_cell_setting 'monoclinic'
loop_
_space_group_symop_operation_xyz
x,y,z
-x,y,-z
-x,-y,-z
x,-y,z
1/2+x,1/2+y,z
1/2-x,1/2+y,-z
1/2-x,1/2-y,-z
1/2+x,1/2-y,z
loop_
_atom_site_type_symbol
_atom_site_label
_atom_site_fract_x
_atom_site_fract_y
_atom_site_fract_z
Si Si1 0.341376 0.333317 0.598577
Si Si2 0.686607 0.828288 0.659157
Si Si3 0.201275 0.333470 0.000184
Si Si4 0.548134 0.171085 0.488868
Si Si5 0.108951 0.832101 0.839640
Si Si6 0.250527 0.169170 0.603607
Si Si7 0.974214 0.167996 0.665173
Si Si8 0.702199 0.664926 0.806338
O O1 0.329584 0.500000 0.607967
O O2 0.314937 0.230547 0.631539
O O3 0.307106 0.299077 0.498362
O O4 0.414866 0.297368 0.657451
O O5 0.617643 0.778793 0.572851
O O6 0.737894 0.751620 0.659943
O O7 0.696996 0.777666 0.742800
O O8 0.695569 0.000000 0.663361
O O9 0.197992 0.500000 0.975018
O O10 0.133261 0.259647 0.925169
O O11 0.250000 0.250000 0.000000
O O12 0.227245 0.320757 0.098465
O O13 0.500000 0.227227 0.500000
O O14 0.527939 0.239845 0.402326
O O15 0.544091 0.000000 0.476797
O O16 0.149080 0.793864 0.811282
O O17 0.036513 0.789662 0.762298
O O18 0.117138 0.000000 0.864914
O O19 0.259233 0.000000 0.626152
O O20 0.974647 0.000000 0.644755
O O21 0.691228 0.500000 0.771428
#
# Coordination Sequence:
#
# PCOD8087308 Si02
#       8
#     8   8   8   8   8   8   8   8
#     4   9  18  32  49  69  92 119 156 199 240 279
#     4  11  21  31  46  68  94 125 160 197 236 279
#     4   9  17  30  48  69  94 124 159 199 239 278
#     4  10  21  33  43  62  95 130 162 194 228 270
#     4   9  18  31  48  71  98 127 160 196 234 279
#     4  10  19  32  50  68  90 121 157 198 242 283
#     4  10  19  32  49  70  94 125 161 195 232 278
#     4   9  18  31  46  67  95 126 160 195 230 275
#
# _framework density 16.078776999999999
#
# number of rings (size 3 to 8) (size 9 to 14) (size 15 to 20)
#    0.000    2.375    1.250    2.625    0.000    4.750 
#    0.000    0.000    0.000    0.000    0.000    0.875 
#    0.000    7.000    0.000    0.000    0.000    0.000 
#
# Total GULP energy -396797.850868 kJ/mol
# GULP energy per Si atom -12399.932840 kJ/mol
# Density = 1.604218 g / cm^3
# Si number density = 16.078777 Si / 1000 Ang^3
#
#
#
# Elastic Constant Matrix: (Units=GPa)
#
#
# Indices 1 2 3 4 5 6 
#
# 1 82.5243 37.3052 41.2840 0.0000 12.7211 0.0000
# 2 37.3052 68.9416 38.4468 0.0000 5.5295 0.0000
# 3 41.2840 38.4468 80.9210 0.0000 22.7682 0.0000
# 4 0.0000 0.0000 0.0000 29.1003 0.0000 -5.6667
# 5 12.7211 5.5295 22.7682 0.0000 11.7725 0.0000
# 6 0.0000 0.0000 0.0000 -5.6667 0.0000 21.6069
#
#
#
# Elastic Compliance Matrix: (Units=1/GPa)
#
#
# Indices 1 2 3 4 5 6 
#
# 1 0.018700 -0.007724 -0.002645 0.000000 -0.011463 0.000000
# 2 -0.007724 0.025186 -0.015456 0.000000 0.026409 0.000000
# 3 -0.002645 -0.015456 0.039935 0.000000 -0.067116 0.000000
# 4 0.000000 0.000000 0.000000 0.036213 0.000000 0.009497
# 5 -0.011463 0.026409 -0.067116 0.000000 0.214730 0.000000
# 6 0.000000 0.000000 0.000000 0.009497 0.000000 0.048772
#
#
# Mechanical properties :
#
#
# Convention : Reuss Voigt Hill
#
# Bulk Modulus (GPa) = 31.08525 51.82879 41.45702
# Shear Modulus (GPa) = 11.21304 20.18601 15.69953
#
# Velocity S-wave (km/s) = 2.64366 3.54707 3.12815
# Velocity P-wave (km/s) = 5.35665 7.00570 6.23593
#
# Compressibility (1/GPa) = 0.03216960
#
# Stress axis : x y z
#
# Youngs Moduli (GPa) = 53.47729 39.70462 25.04086
#
# Poissons Ratio (x) = 0.30668 0.06623
# Poissons Ratio (y) = 0.41307 0.38704
# Poissons Ratio (z) = 0.14145 0.61368
#
# Static dielectric constant tensor:
#      x y z
#    x 2.966230 0.000000 0.219230 
#    y 0.000000 3.131510 0.000000 
#    z 0.219230 0.000000 3.267410 
# 
# 
# High freq. dielectric constant tensor:
#      x y z
#    x 1.596300 0.000000 0.008680 
#    y 0.000000 1.626990 0.000000 
#    z 0.008680 0.000000 1.606240 
# 
# From -- ./inp_files/326932.got.cif
#   From: 2010.06.25/outbox.cif.g09.slc.cpg/sg12_164_cif.got.tgz:326932.got - 2010.06.28 00:19:55.
