data_PCOD8087850
_publ_section_title
;
Structure prediction by ZEFSAII (Michael W. Deem and Ramdas Pophale) SiO2 
 PCOD8087850
Probable space group: C 2/M
;
_chemical_formula_sum "Si O2"
_cell_formula_units_Z 64
_cell_length_a 18.709972
_cell_length_b 13.784326
_cell_length_c 12.064202
_cell_angle_alpha 90.000000
_cell_angle_beta 99.713783
_cell_angle_gamma 90.000000
_cell_volume 3066.801646
_symmetry_space_group_name_H-M "C 2/M"
_symmetry_group_IT_number 12
_symmetry_cell_setting 'monoclinic'
loop_
_space_group_symop_operation_xyz
x,y,z
-x,y,-z
-x,-y,-z
x,-y,z
1/2+x,1/2+y,z
1/2-x,1/2+y,-z
1/2-x,1/2-y,-z
1/2+x,1/2-y,z
loop_
_atom_site_type_symbol
_atom_site_label
_atom_site_fract_x
_atom_site_fract_y
_atom_site_fract_z
Si Si1 0.502383 0.280297 0.747702
Si Si2 0.189726 0.605249 0.256736
Si Si3 0.426012 0.391629 0.045640
Si Si4 0.647114 0.692108 0.178493
Si Si5 0.944917 0.393807 0.633385
Si Si6 0.717013 0.887858 0.661526
Si Si7 0.592140 0.758085 0.571270
Si Si8 0.299904 0.390259 0.466292
O O1 0.563097 0.318279 0.848846
O O2 0.423106 0.325579 0.759054
O O3 0.491808 0.162795 0.740953
O O4 0.533404 0.301265 0.631736
O O5 0.189578 0.500000 0.193397
O O6 0.166880 0.693498 0.171218
O O7 0.137111 0.597151 0.348213
O O8 0.267568 0.624410 0.333926
O O9 0.402363 0.500000 0.079575
O O10 0.500000 0.400743 0.000000
O O11 0.366202 0.346232 0.948856
O O12 0.715500 0.633020 0.240536
O O13 0.979571 0.500000 0.624690
O O14 0.946877 0.335142 0.519003
O O15 0.647844 0.818492 0.665551
O O16 0.741479 0.861092 0.543482
O O17 0.694039 0.000000 0.668134
O O18 0.630880 0.678803 0.504369
O O19 0.325834 0.500000 0.492988
#
# Coordination Sequence:
#
# PCOD8087850 Si02
#       8
#     8   8   8   8   8   8   8   8
#     4  10  23  36  55  84 113 148 190 238 292 339
#     4   9  16  30  53  80 109 145 187 227 268 324
#     4   9  19  39  63  81 105 146 195 245 291 337
#     4  10  19  37  60  83 107 144 196 246 282 339
#     4  10  20  35  55  80 114 155 190 223 271 335
#     4  11  21  33  56  86 115 153 197 237 273 336
#     4  12  21  34  53  85 121 153 181 232 289 350
#     4  10  19  32  51  78 113 154 189 219 271 338
#
# _framework density 20.868646999999999
#
# number of rings (size 3 to 8) (size 9 to 14) (size 15 to 20)
#    0.000    1.875    2.500    3.000    0.000    2.500 
#    0.000    1.875    0.000    6.750    0.000    0.000 
#    0.000    0.000    0.000    0.000    0.000    0.000 
#
# Total GULP energy -396423.266265 kJ/mol
# GULP energy per Si atom -12388.227071 kJ/mol
# Density = 2.082115 g / cm^3
# Si number density = 20.868647 Si / 1000 Ang^3
#
#
#
# Elastic Constant Matrix: (Units=GPa)
#
#
# Indices 1 2 3 4 5 6 
#
# 1 40.4903 30.2997 1.2378 0.0000 4.0768 0.0000
# 2 30.2997 107.7066 59.8227 0.0000 10.6688 0.0000
# 3 1.2378 59.8227 94.0343 0.0000 17.9521 0.0000
# 4 0.0000 0.0000 0.0000 31.5695 0.0000 5.5327
# 5 4.0768 10.6688 17.9521 0.0000 25.8407 0.0000
# 6 0.0000 0.0000 0.0000 5.5327 0.0000 16.4332
#
#
#
# Elastic Compliance Matrix: (Units=1/GPa)
#
#
# Indices 1 2 3 4 5 6 
#
# 1 0.036769 -0.015654 0.010778 0.000000 -0.006825 0.000000
# 2 -0.015654 0.021027 -0.013818 0.000000 0.003388 0.000000
# 3 0.010778 -0.013818 0.021350 0.000000 -0.010828 0.000000
# 4 0.000000 0.000000 0.000000 0.033662 0.000000 -0.011333
# 5 -0.006825 0.003388 -0.010828 0.000000 0.045899 0.000000
# 6 0.000000 0.000000 0.000000 -0.011333 0.000000 0.064668
#
#
# Mechanical properties :
#
#
# Convention : Reuss Voigt Hill
#
# Bulk Modulus (GPa) = 23.94703 47.21683 35.58193
# Shear Modulus (GPa) = 18.20272 24.82676 21.51474
#
# Velocity S-wave (km/s) = 2.95660 3.45290 3.21434
# Velocity P-wave (km/s) = 4.81200 6.21060 5.55549
#
# Compressibility (1/GPa) = 0.04175883
#
# Stress axis : x y z
#
# Youngs Moduli (GPa) = 27.19671 47.55704 46.83762
#
# Poissons Ratio (x) = 0.74445 -0.50480
# Poissons Ratio (y) = 0.42573 0.64720
# Poissons Ratio (z) = -0.29312 0.65714
#
# Static dielectric constant tensor:
#      x y z
#    x 3.776900 0.000000 0.190390 
#    y 0.000000 4.134740 0.000000 
#    z 0.190390 0.000000 3.526430 
# 
# 
# High freq. dielectric constant tensor:
#      x y z
#    x 1.809440 0.000000 0.018730 
#    y 0.000000 1.826560 0.000000 
#    z 0.018730 0.000000 1.774450 
# 
# From -- ./inp_files/167276.got.cif
#   From: 2010.06.25/outbox.cif.g09.slc.cpg/sg12_84_cif.got.tgz:167276.got - 2010.06.28 00:19:55.
