data_PCOD8087806
_publ_section_title
;
Structure prediction by ZEFSAII (Michael W. Deem and Ramdas Pophale) SiO2 
 PCOD8087806
Probable space group: C 2/M
;
_chemical_formula_sum "Si O2"
_cell_formula_units_Z 56
_cell_length_a 22.785672
_cell_length_b 9.058778
_cell_length_c 14.618043
_cell_angle_alpha 90.000000
_cell_angle_beta 76.363368
_cell_angle_gamma 90.000000
_cell_volume 2932.258570
_symmetry_space_group_name_H-M "C 2/M"
_symmetry_group_IT_number 12
_symmetry_cell_setting 'monoclinic'
loop_
_space_group_symop_operation_xyz
x,y,z
-x,y,-z
-x,-y,-z
x,-y,z
1/2+x,1/2+y,z
1/2-x,1/2+y,-z
1/2-x,1/2-y,-z
1/2+x,1/2-y,z
loop_
_atom_site_type_symbol
_atom_site_label
_atom_site_fract_x
_atom_site_fract_y
_atom_site_fract_z
Si Si1 0.068572 0.827301 0.466504
Si Si2 0.109984 0.172216 0.649696
Si Si3 0.849003 0.326824 0.707713
Si Si4 0.375680 0.675133 0.077990
Si Si5 0.105574 0.329526 0.110307
Si Si6 0.216177 0.827266 0.736268
Si Si7 0.034362 0.326708 0.827390
O O1 0.105244 0.787574 0.545066
O O2 0.099465 0.748348 0.370561
O O3 0.000000 0.769826 0.500000
O O4 0.069205 0.000000 0.446138
O O5 0.177613 0.212011 0.659535
O O6 0.061153 0.266091 0.722911
O O7 0.095960 0.000000 0.673061
O O8 0.853354 0.500000 0.686808
O O9 0.859710 0.290568 0.809701
O O10 0.783275 0.258461 0.705533
O O11 0.382893 0.500000 0.077878
O O12 0.319755 0.729753 0.161181
O O13 0.436614 0.747389 0.095457
O O14 0.364392 0.730666 0.979633
O O15 0.113621 0.500000 0.080686
O O16 0.035837 0.288510 0.147593
O O17 0.225216 0.000000 0.743880
O O18 0.046923 0.500000 0.829745
#
# Coordination Sequence:
#
# PCOD8087806 Si02
#       7
#     8   8   8   8   8   8   8
#     4  10  21  36  54  79 109 136 166 210 259 304
#     4   9  18  34  55  76 103 138 171 209 257 305
#     4  10  21  37  55  74 102 138 173 212 255 303
#     4  10  20  34  54  77 102 136 174 210 253 307
#     4  10  21  34  49  74 106 137 170 213 261 301
#     4   8  17  35  54  74 101 133 171 213 255 298
#     4  10  19  32  51  77 107 134 167 213 258 303
#
# _framework density 19.097905999999998
#
# number of rings (size 3 to 8) (size 9 to 14) (size 15 to 20)
#    0.000    2.429    0.000    3.000    0.000    5.429 
#    0.000    3.571    0.000    0.000    0.000    0.000 
#    0.000    0.000    0.000    0.000    0.000    0.000 
#
# Total GULP energy -347224.831827 kJ/mol
# GULP energy per Si atom -12400.886851 kJ/mol
# Density = 1.905444 g / cm^3
# Si number density = 19.097906 Si / 1000 Ang^3
#
#
#
# Elastic Constant Matrix: (Units=GPa)
#
#
# Indices 1 2 3 4 5 6 
#
# 1 128.1757 30.2487 40.9169 0.0000 -1.2062 0.0000
# 2 30.2487 49.4656 31.2537 0.0000 0.7549 0.0000
# 3 40.9169 31.2537 62.0817 0.0000 7.5213 0.0000
# 4 0.0000 0.0000 0.0000 29.0421 0.0000 3.3612
# 5 -1.2062 0.7549 7.5213 0.0000 24.2889 0.0000
# 6 0.0000 0.0000 0.0000 3.3612 0.0000 17.5573
#
#
#
# Elastic Compliance Matrix: (Units=1/GPa)
#
#
# Indices 1 2 3 4 5 6 
#
# 1 0.010285 -0.002730 -0.005689 0.000000 0.002357 0.000000
# 2 -0.002730 0.030720 -0.014061 0.000000 0.003264 0.000000
# 3 -0.005689 -0.014061 0.027967 0.000000 -0.008506 0.000000
# 4 0.000000 0.000000 0.000000 0.035213 0.000000 -0.006741
# 5 0.002357 0.003264 -0.008506 0.000000 0.043821 0.000000
# 6 0.000000 0.000000 0.000000 -0.006741 0.000000 0.058247
#
#
# Mechanical properties :
#
#
# Convention : Reuss Voigt Hill
#
# Bulk Modulus (GPa) = 41.65014 49.39575 45.52295
# Shear Modulus (GPa) = 19.28884 23.33124 21.31004
#
# Velocity S-wave (km/s) = 3.18149 3.49902 3.34403
# Velocity P-wave (km/s) = 5.94575 6.49960 6.22884
#
# Compressibility (1/GPa) = 0.02400952
#
# Stress axis : x y z
#
# Youngs Moduli (GPa) = 97.23349 32.55190 35.75658
#
# Poissons Ratio (x) = 0.08888 0.20343
# Poissons Ratio (y) = 0.26548 0.50278
# Poissons Ratio (z) = 0.55320 0.45772
#
# Static dielectric constant tensor:
#      x y z
#    x 3.741430 0.000000 0.072930 
#    y 0.000000 3.311310 0.000000 
#    z 0.072930 0.000000 3.473920 
# 
# 
# High freq. dielectric constant tensor:
#      x y z
#    x 1.748300 0.000000 0.006340 
#    y 0.000000 1.724740 0.000000 
#    z 0.006340 0.000000 1.744590 
# 
# From -- ./inp_files/237320.got.cif
#   From: 2010.06.25/outbox.cif.g09.slc.cpg/sg12_119_cif.got.tgz:237320.got - 2010.06.28 00:19:55.
