data_PCOD8087186
_publ_section_title
;
Structure prediction by ZEFSAII (Michael W. Deem and Ramdas Pophale) SiO2 
 PCOD8087186
Probable space group: C 2/M
;
_chemical_formula_sum "Si O2"
_cell_formula_units_Z 44
_cell_length_a 23.451872
_cell_length_b 18.478784
_cell_length_c 14.123314
_cell_angle_alpha 90.000000
_cell_angle_beta 21.640680
_cell_angle_gamma 90.000000
_cell_volume 2257.149356
_symmetry_space_group_name_H-M "C 2/M"
_symmetry_group_IT_number 12
_symmetry_cell_setting 'monoclinic'
loop_
_space_group_symop_operation_xyz
x,y,z
-x,y,-z
-x,-y,-z
x,-y,z
1/2+x,1/2+y,z
1/2-x,1/2+y,-z
1/2-x,1/2-y,-z
1/2+x,1/2-y,z
loop_
_atom_site_type_symbol
_atom_site_label
_atom_site_fract_x
_atom_site_fract_y
_atom_site_fract_z
Si Si1 0.870545 0.000000 0.808279
Si Si2 0.000000 0.128606 0.500000
Si Si3 0.267246 0.152301 0.209281
Si Si4 0.115818 0.500000 0.732252
Si Si5 0.183643 0.234249 0.707344
Si Si6 0.021458 0.500000 0.357840
Si Si7 0.321287 0.500000 0.575067
Si Si8 0.568460 0.118331 0.650444
O O1 0.883861 0.925347 0.731317
O O2 0.993275 0.000000 0.704989
O O3 0.699722 0.000000 0.101797
O O4 0.890850 0.177757 0.600641
O O5 0.283862 0.194940 0.281051
O O6 0.254238 0.067405 0.253227
O O7 0.415319 0.165256 0.912321
O O8 0.285558 0.500000 0.518401
O O9 0.099942 0.571166 0.694884
O O10 0.000000 0.500000 0.000000
O O11 0.250000 0.250000 0.500000
O O12 0.282168 0.168197 0.599074
O O13 0.000000 0.215874 0.000000
O O14 0.957187 0.570809 0.403763
O O15 0.000000 0.500000 0.500000
#
# Coordination Sequence:
#
# PCOD8087186 Si02
#       8
#     4   4   8   4   8   4   4   8
#     4   9  17  33  62  96 124 154 200 278 333 378
#     4   9  18  34  64  96 122 151 218 278 314 371
#     4  11  20  39  66  98 129 166 219 280 334 391
#     4  11  19  34  67 100 124 158 228 276 323 400
#     4  12  26  45  66  95 141 183 223 275 344 410
#     4  11  23  46  67  92 134 175 221 281 351 400
#     4  10  19  31  64 104 121 151 214 283 326 372
#     4  11  23  42  66  95 129 176 225 277 337 406
#
# _framework density 19.493614999999998
#
# number of rings (size 3 to 8) (size 9 to 14) (size 15 to 20)
#    0.000    1.273    5.455    2.182    0.000    0.000 
#   11.455    1.818    0.000    0.000    0.000    0.000 
#    0.000    0.000    0.000    0.000    0.000    0.000 
#
# Total GULP energy -272584.869215 kJ/mol
# GULP energy per Si atom -12390.221328 kJ/mol
# Density = 1.944925 g / cm^3
# Si number density = 19.493615 Si / 1000 Ang^3
#
#
#
# Elastic Constant Matrix: (Units=GPa)
#
#
# Indices 1 2 3 4 5 6 
#
# 1 150.9549 40.9906 66.2573 0.0007 -6.0553 -0.0006
# 2 40.9906 80.1911 52.3613 0.0010 -3.8603 -0.0011
# 3 66.2573 52.3613 149.7158 0.0008 -12.4018 -0.0024
# 4 0.0007 0.0010 0.0008 27.8008 -0.0007 -9.7834
# 5 -6.0553 -3.8603 -12.4018 -0.0007 34.8409 0.0008
# 6 -0.0006 -0.0011 -0.0024 -9.7834 0.0008 26.0935
#
#
#
# Elastic Compliance Matrix: (Units=1/GPa)
#
#
# Indices 1 2 3 4 5 6 
#
# 1 0.008585 -0.002473 -0.002919 0.000000 0.000179 0.000000
# 2 -0.002473 0.016875 -0.004830 0.000000 -0.000280 0.000000
# 3 -0.002919 -0.004830 0.009865 0.000000 0.002469 0.000001
# 4 0.000000 0.000000 0.000000 0.041438 0.000001 0.015536
# 5 0.000179 -0.000280 0.002469 0.000001 0.029581 0.000000
# 6 0.000000 0.000000 0.000001 0.015536 0.000000 0.044149
#
#
# Mechanical properties :
#
#
# Convention : Reuss Voigt Hill
#
# Bulk Modulus (GPa) = 67.21009 77.78668 72.49839
# Shear Modulus (GPa) = 28.42556 32.49722 30.46139
#
# Velocity S-wave (km/s) = 3.82278 4.08741 3.95731
# Velocity P-wave (km/s) = 7.35103 7.89089 7.62574
#
# Compressibility (1/GPa) = 0.01487872
#
# Stress axis : x y z
#
# Youngs Moduli (GPa) = 116.48711 59.25897 101.36641
#
# Poissons Ratio (x) = 0.14657 0.29592
# Poissons Ratio (y) = 0.28811 0.48964
# Poissons Ratio (z) = 0.34007 0.28625
#
# Static dielectric constant tensor:
#      x y z
#    x 3.945210 0.000000 -0.443010 
#    y 0.000000 3.394260 0.000010 
#    z -0.443010 0.000010 3.620280 
# 
# 
# High freq. dielectric constant tensor:
#      x y z
#    x 1.771520 0.000000 -0.026650 
#    y 0.000000 1.736230 0.000000 
#    z -0.026650 0.000000 1.758210 
# 
# From -- ./inp_files/190134.got.cif
#   From: 2010.06.25/outbox.cif.g09.slc.cpg/sg12_96_cif.got.tgz:190134.got - 2010.06.28 00:19:55.
