data_PCOD8087141
_publ_section_title
;
Structure prediction by ZEFSAII (Michael W. Deem and Ramdas Pophale) SiO2 
 PCOD8087141
Probable space group: C 2/M
;
_chemical_formula_sum "Si O2"
_cell_formula_units_Z 64
_cell_length_a 15.470165
_cell_length_b 9.177760
_cell_length_c 28.225103
_cell_angle_alpha 90.000000
_cell_angle_beta 57.398215
_cell_angle_gamma 90.000000
_cell_volume 3376.011327
_symmetry_space_group_name_H-M "C 2/M"
_symmetry_group_IT_number 12
_symmetry_cell_setting 'monoclinic'
loop_
_space_group_symop_operation_xyz
x,y,z
-x,y,-z
-x,-y,-z
x,-y,z
1/2+x,1/2+y,z
1/2-x,1/2+y,-z
1/2-x,1/2-y,-z
1/2+x,1/2-y,z
loop_
_atom_site_type_symbol
_atom_site_label
_atom_site_fract_x
_atom_site_fract_y
_atom_site_fract_z
Si Si1 0.030251 0.828758 0.632587
Si Si2 0.161641 0.833215 0.750560
Si Si3 0.222390 0.332762 0.873101
Si Si4 0.776361 0.168071 0.372400
Si Si5 0.339093 0.333072 0.746402
Si Si6 0.036524 0.670024 0.860306
Si Si7 0.936283 0.826829 0.563966
Si Si8 0.699282 0.172312 0.059117
O O1 0.144939 0.774719 0.610459
O O2 0.955072 0.789808 0.698752
O O3 0.990620 0.760915 0.594861
O O4 0.034320 0.000000 0.625030
O O5 0.159789 0.814005 0.694869
O O6 0.269034 0.771295 0.736332
O O7 0.066631 0.750225 0.802799
O O8 0.153049 0.000000 0.768551
O O9 0.215959 0.500000 0.892604
O O10 0.316978 0.311912 0.808629
O O11 0.114901 0.286741 0.879679
O O12 0.243935 0.228069 0.910613
O O13 0.678188 0.268384 0.404904
O O14 0.743697 0.000000 0.389139
O O15 0.314543 0.500000 0.739175
O O16 0.046883 0.500000 0.847040
O O17 0.920791 0.714531 0.907101
O O18 0.000000 0.771524 0.500000
O O19 0.929945 0.000000 0.567368
O O20 0.715108 0.000000 0.051011
O O21 0.750000 0.250000 0.000000
#
# Coordination Sequence:
#
# PCOD8087141 Si02
#       8
#     8   8   8   8   8   8   8   8
#     4   9  18  34  55  79 111 149 185 223 278 342
#     4  10  19  31  54  85 115 140 181 234 278 325
#     4   9  19  36  59  84 110 146 190 228 274 337
#     4  10  21  35  54  82 112 147 184 227 283 337
#     4   9  17  33  58  80 110 154 187 217 278 347
#     4   9  21  40  59  81 113 154 188 220 278 344
#     4  10  21  38  59  80 107 148 195 238 277 329
#     4  11  24  41  60  84 115 151 192 234 279 330
#
# _framework density 18.957280999999998
#
# number of rings (size 3 to 8) (size 9 to 14) (size 15 to 20)
#    0.000    2.375    1.250    1.500    1.750    4.750 
#    0.000    3.750    0.000    0.000    0.000    0.000 
#    0.000    0.000    0.000    0.000    0.000    0.000 
#
# Total GULP energy -396724.942132 kJ/mol
# GULP energy per Si atom -12397.654442 kJ/mol
# Density = 1.891413 g / cm^3
# Si number density = 18.957281 Si / 1000 Ang^3
#
#
#
# Elastic Constant Matrix: (Units=GPa)
#
#
# Indices 1 2 3 4 5 6 
#
# 1 123.8151 35.7814 62.7896 0.0000 -2.3052 0.0000
# 2 35.7814 52.0699 42.9496 0.0000 -0.4699 0.0000
# 3 62.7896 42.9496 108.2964 0.0000 4.2965 0.0000
# 4 0.0000 0.0000 0.0000 26.8325 0.0000 -1.6112
# 5 -2.3052 -0.4699 4.2965 0.0000 17.6249 0.0000
# 6 0.0000 0.0000 0.0000 -1.6112 0.0000 26.8595
#
#
#
# Elastic Compliance Matrix: (Units=1/GPa)
#
#
# Indices 1 2 3 4 5 6 
#
# 1 0.012041 -0.003561 -0.005683 0.000000 0.002865 0.000000
# 2 -0.003561 0.029817 -0.009869 0.000000 0.002735 0.000000
# 3 -0.005683 -0.009869 0.016644 0.000000 -0.005064 0.000000
# 4 0.000000 0.000000 0.000000 0.037403 0.000000 0.002244
# 5 0.002865 0.002735 -0.005064 0.000000 0.058420 0.000000
# 6 0.000000 0.000000 0.000000 0.002244 0.000000 0.037365
#
#
# Mechanical properties :
#
#
# Convention : Reuss Voigt Hill
#
# Bulk Modulus (GPa) = 49.31930 63.02473 56.17202
# Shear Modulus (GPa) = 21.12610 23.77409 22.45009
#
# Velocity S-wave (km/s) = 3.34189 3.54515 3.44502
# Velocity P-wave (km/s) = 6.40027 7.07639 6.74681
#
# Compressibility (1/GPa) = 0.02027604
#
# Stress axis : x y z
#
# Youngs Moduli (GPa) = 83.05110 33.53765 60.08338
#
# Poissons Ratio (x) = 0.11943 0.34143
# Poissons Ratio (y) = 0.29575 0.59297
# Poissons Ratio (z) = 0.47194 0.33099
#
# Static dielectric constant tensor:
#      x y z
#    x 3.641610 0.000000 0.015460 
#    y 0.000000 3.323720 0.000000 
#    z 0.015460 0.000000 3.591730 
# 
# 
# High freq. dielectric constant tensor:
#      x y z
#    x 1.739860 0.000000 -0.002110 
#    y 0.000000 1.720040 0.000000 
#    z -0.002110 0.000000 1.738240 
# 
# From -- ./inp_files/375499.got.cif
#   From: 2010.06.25/outbox.cif.g09.slc.cpg/sg12_188_cif.got.tgz:375499.got - 2010.06.28 00:19:55.
