data_PCOD8087841
_publ_section_title
;
Structure prediction by ZEFSAII (Michael W. Deem and Ramdas Pophale) SiO2 
 PCOD8087841
Probable space group: C 2/M
;
_chemical_formula_sum "Si O2"
_cell_formula_units_Z 64
_cell_length_a 17.487580
_cell_length_b 13.251738
_cell_length_c 15.415373
_cell_angle_alpha 90.000000
_cell_angle_beta 91.917520
_cell_angle_gamma 90.000000
_cell_volume 3570.370892
_symmetry_space_group_name_H-M "C 2/M"
_symmetry_group_IT_number 12
_symmetry_cell_setting 'monoclinic'
loop_
_space_group_symop_operation_xyz
x,y,z
-x,y,-z
-x,-y,-z
x,-y,z
1/2+x,1/2+y,z
1/2-x,1/2+y,-z
1/2-x,1/2-y,-z
1/2+x,1/2-y,z
loop_
_atom_site_type_symbol
_atom_site_label
_atom_site_fract_x
_atom_site_fract_y
_atom_site_fract_z
Si Si1 0.159133 0.616873 0.083349
Si Si2 0.152207 0.619196 0.888860
Si Si3 0.902450 0.740056 0.675365
Si Si4 0.809834 0.380734 0.527371
Si Si5 0.484866 0.389643 0.400096
Si Si6 0.760976 0.755312 0.782604
Si Si7 0.010307 0.382765 0.184984
Si Si8 0.326894 0.283524 0.390612
O O1 0.180141 0.500000 0.086428
O O2 0.222098 0.668366 0.146903
O O3 0.072683 0.635806 0.112352
O O4 0.164827 0.661464 0.986482
O O5 0.148453 0.500000 0.892069
O O6 0.222567 0.651041 0.830560
O O7 0.071264 0.660755 0.849698
O O8 0.865506 0.668671 0.600768
O O9 0.839694 0.786031 0.738670
O O10 0.940382 0.838102 0.636417
O O11 0.965819 0.674412 0.726950
O O12 0.825719 0.500000 0.519379
O O13 0.722030 0.361624 0.552529
O O14 0.823800 0.327838 0.434532
O O15 0.500000 0.406375 0.500000
O O16 0.472391 0.500000 0.355910
O O17 0.413028 0.318124 0.384704
O O18 0.703303 0.715270 0.708138
O O19 0.004280 0.500000 0.208473
#
# Coordination Sequence:
#
# PCOD8087841 Si02
#       8
#     8   8   8   8   8   8   8   8
#     4   9  18  33  54  78 103 136 175 211 255 311
#     4  10  19  32  51  78 109 138 170 208 259 317
#     4  10  20  36  53  78 106 136 181 218 255 315
#     4  10  20  36  57  78 105 138 171 219 270 311
#     4  11  22  37  55  72  99 140 180 221 260 304
#     4  10  21  34  53  75 107 137 169 219 262 304
#     4   9  17  31  54  80 107 136 167 213 262 306
#     4  10  21  37  53  79 104 134 182 219 257 318
#
# _framework density 17.925308999999999
#
# number of rings (size 3 to 8) (size 9 to 14) (size 15 to 20)
#    0.000    2.125    1.250    2.250    0.000    6.000 
#    0.000    1.875    0.000    0.000    0.000    0.000 
#    0.000   14.000    0.000    0.000    0.000    0.000 
#
# Total GULP energy -396770.534095 kJ/mol
# GULP energy per Si atom -12399.079190 kJ/mol
# Density = 1.788451 g / cm^3
# Si number density = 17.925309 Si / 1000 Ang^3
#
#
#
# Elastic Constant Matrix: (Units=GPa)
#
#
# Indices 1 2 3 4 5 6 
#
# 1 94.8145 43.6314 52.7206 0.0000 3.2722 0.0000
# 2 43.6314 75.5476 36.7463 0.0000 -6.4008 0.0000
# 3 52.7206 36.7463 97.0020 0.0000 12.3474 0.0000
# 4 0.0000 0.0000 0.0000 60.6097 0.0000 -6.1189
# 5 3.2722 -6.4008 12.3474 0.0000 27.5044 0.0000
# 6 0.0000 0.0000 0.0000 -6.1189 0.0000 27.1855
#
#
#
# Elastic Compliance Matrix: (Units=1/GPa)
#
#
# Indices 1 2 3 4 5 6 
#
# 1 0.017529 -0.006837 -0.006861 0.000000 -0.000596 0.000000
# 2 -0.006837 0.020243 -0.004938 0.000000 0.007741 0.000000
# 3 -0.006861 -0.004938 0.016918 0.000000 -0.007928 0.000000
# 4 0.000000 0.000000 0.000000 0.016883 0.000000 0.003800
# 5 -0.000596 0.007741 -0.007928 0.000000 0.041789 0.000000
# 6 0.000000 0.000000 0.000000 0.003800 0.000000 0.037640
#
#
# Mechanical properties :
#
#
# Convention : Reuss Voigt Hill
#
# Bulk Modulus (GPa) = 57.41266 59.28451 58.34859
# Shear Modulus (GPa) = 25.76283 32.01097 28.88690
#
# Velocity S-wave (km/s) = 3.79520 4.23045 4.01872
# Velocity P-wave (km/s) = 7.16262 7.55031 7.35902
#
# Compressibility (1/GPa) = 0.01741776
#
# Stress axis : x y z
#
# Youngs Moduli (GPa) = 57.04972 49.40015 59.10948
#
# Poissons Ratio (x) = 0.33773 0.40555
# Poissons Ratio (y) = 0.39003 0.29188
# Poissons Ratio (z) = 0.39142 0.24394
#
# Static dielectric constant tensor:
#      x y z
#    x 3.385260 0.000000 0.056940 
#    y 0.000000 3.193350 0.000000 
#    z 0.056940 0.000000 3.441160 
# 
# 
# High freq. dielectric constant tensor:
#      x y z
#    x 1.700130 0.000000 0.005230 
#    y 0.000000 1.674320 0.000000 
#    z 0.005230 0.000000 1.701120 
# 
# From -- ./inp_files/223838.got.cif
#   From: 2010.06.25/outbox.cif.g09.slc.cpg/sg12_112_cif.got.tgz:223838.got - 2010.06.28 00:19:55.
