data_PCOD8087757
_publ_section_title
;
Structure prediction by ZEFSAII (Michael W. Deem and Ramdas Pophale) SiO2 
 PCOD8087757
Probable space group: C 2/M
;
_chemical_formula_sum "Si O2"
_cell_formula_units_Z 56
_cell_length_a 29.093098
_cell_length_b 8.584685
_cell_length_c 13.566826
_cell_angle_alpha 90.000000
_cell_angle_beta 122.856387
_cell_angle_gamma 90.000000
_cell_volume 2846.354431
_symmetry_space_group_name_H-M "C 2/M"
_symmetry_group_IT_number 12
_symmetry_cell_setting 'monoclinic'
loop_
_space_group_symop_operation_xyz
x,y,z
-x,y,-z
-x,-y,-z
x,-y,z
1/2+x,1/2+y,z
1/2-x,1/2+y,-z
1/2-x,1/2-y,-z
1/2+x,1/2-y,z
loop_
_atom_site_type_symbol
_atom_site_label
_atom_site_fract_x
_atom_site_fract_y
_atom_site_fract_z
Si Si1 0.802413 0.816812 0.280798
Si Si2 0.529313 0.680612 0.820747
Si Si3 0.806175 0.818205 0.925002
Si Si4 0.096153 0.319325 0.068068
Si Si5 0.373139 0.684013 0.191090
Si Si6 0.801103 0.184896 0.499727
Si Si7 0.088715 0.819496 0.266334
O O1 0.747947 0.779262 0.157611
O O2 0.853535 0.749810 0.274731
O O3 0.801276 0.743815 0.389114
O O4 0.808422 0.000000 0.299587
O O5 0.543124 0.500000 0.858235
O O6 0.565040 0.736681 0.766918
O O7 0.464727 0.704995 0.725829
O O8 0.546857 0.776223 0.937551
O O9 0.849848 0.781890 0.890427
O O10 0.791999 0.000000 0.907636
O O11 0.831303 0.759097 0.057591
O O12 0.110472 0.500000 0.073972
O O13 0.077985 0.282263 0.157508
O O14 0.369814 0.500000 0.192438
O O15 0.750000 0.250000 0.500000
O O16 0.857603 0.240776 0.614872
O O17 0.796607 0.000000 0.492923
O O18 0.094790 0.000000 0.244070
#
# Coordination Sequence:
#
# PCOD8087757 Si02
#       7
#     8   8   8   8   8   8   8
#     4  10  19  33  52  75 103 133 169 213 255 293
#     4   9  18  34  54  75 102 136 168 202 249 305
#     4  10  19  32  51  76 105 137 170 203 250 309
#     4  11  21  32  50  78 107 133 166 210 257 300
#     4   8  16  31  51  75 103 132 164 205 252 302
#     4  10  22  37  53  74 100 132 169 210 252 296
#     4  10  20  35  53  73 101 137 174 207 247 302
#
# _framework density 19.674289999999999
#
# number of rings (size 3 to 8) (size 9 to 14) (size 15 to 20)
#    0.000    2.286    0.000    4.286    0.000    5.714 
#    0.000    3.571    0.000    4.286    0.000    0.000 
#    0.000    8.000    0.000    0.000    0.000    0.000 
#
# Total GULP energy -347092.482724 kJ/mol
# GULP energy per Si atom -12396.160097 kJ/mol
# Density = 1.962951 g / cm^3
# Si number density = 19.674290 Si / 1000 Ang^3
#
#
#
# Elastic Constant Matrix: (Units=GPa)
#
#
# Indices 1 2 3 4 5 6 
#
# 1 177.7765 12.9264 88.6130 0.0000 -7.9150 0.0000
# 2 12.9264 25.5306 20.9893 0.0000 -3.4621 0.0000
# 3 88.6130 20.9893 86.8659 0.0000 -8.6030 0.0000
# 4 0.0000 0.0000 0.0000 16.2404 0.0000 2.5401
# 5 -7.9150 -3.4621 -8.6030 0.0000 36.6760 0.0000
# 6 0.0000 0.0000 0.0000 2.5401 0.0000 21.4127
#
#
#
# Elastic Compliance Matrix: (Units=1/GPa)
#
#
# Indices 1 2 3 4 5 6 
#
# 1 0.011925 0.004939 -0.013367 0.000000 -0.000096 0.000000
# 2 0.004939 0.051052 -0.017191 0.000000 0.001853 0.000000
# 3 -0.013367 -0.017191 0.029542 0.000000 0.002422 0.000000
# 4 0.000000 0.000000 0.000000 0.062739 0.000000 -0.007443
# 5 -0.000096 0.001853 0.002422 0.000000 0.027988 0.000000
# 6 0.000000 0.000000 0.000000 -0.007443 0.000000 0.047584
#
#
# Mechanical properties :
#
#
# Convention : Reuss Voigt Hill
#
# Bulk Modulus (GPa) = 24.22436 59.47005 41.84720
# Shear Modulus (GPa) = 16.90173 26.04212 21.47193
#
# Velocity S-wave (km/s) = 2.93418 3.64216 3.30717
# Velocity P-wave (km/s) = 4.88044 6.92676 5.99161
#
# Compressibility (1/GPa) = 0.04128075
#
# Stress axis : x y z
#
# Youngs Moduli (GPa) = 83.85996 19.58784 33.85027
#
# Poissons Ratio (x) = -0.09675 0.45249
# Poissons Ratio (y) = -0.41419 0.58191
# Poissons Ratio (z) = 1.12099 0.33673
#
# Static dielectric constant tensor:
#      x y z
#    x 3.994400 0.000000 -0.204510 
#    y 0.000000 3.290140 0.000000 
#    z -0.204510 0.000000 3.549340 
# 
# 
# High freq. dielectric constant tensor:
#      x y z
#    x 1.786760 0.000000 -0.005550 
#    y 0.000000 1.738990 0.000000 
#    z -0.005550 0.000000 1.741040 
# 
# From -- ./inp_files/180664.got.cif
#   From: 2010.06.25/outbox.cif.g09.slc.cpg/sg12_91_cif.got.tgz:180664.got - 2010.06.28 00:19:55.
