data_PCOD8087021
_publ_section_title
;
Structure prediction by ZEFSAII (Michael W. Deem and Ramdas Pophale) SiO2 
 PCOD8087021
Probable space group: C 2/M
;
_chemical_formula_sum "Si O2"
_cell_formula_units_Z 56
_cell_length_a 34.804904
_cell_length_b 9.100276
_cell_length_c 22.854670
_cell_angle_alpha 90.000000
_cell_angle_beta 155.712073
_cell_angle_gamma 90.000000
_cell_volume 2977.503080
_symmetry_space_group_name_H-M "C 2/M"
_symmetry_group_IT_number 12
_symmetry_cell_setting 'monoclinic'
loop_
_space_group_symop_operation_xyz
x,y,z
-x,y,-z
-x,-y,-z
x,-y,z
1/2+x,1/2+y,z
1/2-x,1/2+y,-z
1/2-x,1/2-y,-z
1/2+x,1/2-y,z
loop_
_atom_site_type_symbol
_atom_site_label
_atom_site_fract_x
_atom_site_fract_y
_atom_site_fract_z
Si Si1 0.809847 0.670036 0.714960
Si Si2 0.332750 0.669917 0.147532
Si Si3 0.545953 0.827887 0.766464
Si Si4 0.334433 0.328316 0.866210
Si Si5 0.551556 0.671212 0.174934
Si Si6 0.787137 0.667272 0.913598
Si Si7 0.388157 0.330474 0.613293
O O1 0.830156 0.500000 0.754265
O O2 0.790460 0.746982 0.749764
O O3 0.899684 0.739933 0.809021
O O4 0.720497 0.694589 0.549856
O O5 0.335408 0.500000 0.132500
O O6 0.428513 0.748545 0.259924
O O7 0.310241 0.684796 0.185530
O O8 0.250000 0.750000 0.000000
O O9 0.446829 0.767718 0.649978
O O10 0.538783 0.000000 0.744721
O O11 0.624384 0.788915 0.923454
O O12 0.317081 0.500000 0.834920
O O13 0.281111 0.273824 0.849952
O O14 0.443068 0.288964 0.022875
O O15 0.569627 0.500000 0.188517
O O16 0.592966 0.722109 0.294492
O O17 0.799162 0.500000 0.908657
O O18 0.418072 0.500000 0.646861
#
# Coordination Sequence:
#
# PCOD8087021 Si02
#       7
#     8   8   8   8   8   8   8
#     4  11  24  38  55  79 109 145 182 224 273 325
#     4   9  17  29  48  77 112 144 176 221 270 318
#     4  10  19  31  52  82 111 142 179 222 270 321
#     4  11  22  36  57  80 108 145 180 224 273 320
#     4  10  21  38  58  80 105 138 184 229 273 322
#     4   9  18  32  51  79 110 140 178 220 265 316
#     4  10  21  38  57  79 109 145 182 223 272 323
#
# _framework density 18.807704999999999
#
# number of rings (size 3 to 8) (size 9 to 14) (size 15 to 20)
#    0.000    2.000    1.429    3.429    0.000    7.429 
#    0.000    0.000    0.000    0.857    0.000    6.000 
#    0.000    0.000    0.000    0.000    0.000    0.000 
#
# Total GULP energy -347256.076962 kJ/mol
# GULP energy per Si atom -12402.002749 kJ/mol
# Density = 1.876490 g / cm^3
# Si number density = 18.807705 Si / 1000 Ang^3
#
#
#
# Elastic Constant Matrix: (Units=GPa)
#
#
# Indices 1 2 3 4 5 6 
#
# 1 113.4047 54.6797 14.1537 0.0000 5.3432 0.0000
# 2 54.6797 95.0174 18.5018 0.0000 1.5412 0.0000
# 3 14.1537 18.5018 29.8898 0.0000 -11.9497 0.0000
# 4 0.0000 0.0000 0.0000 24.3011 0.0000 2.2977
# 5 5.3432 1.5412 -11.9497 0.0000 22.2417 0.0000
# 6 0.0000 0.0000 0.0000 2.2977 0.0000 40.6486
#
#
#
# Elastic Compliance Matrix: (Units=1/GPa)
#
#
# Indices 1 2 3 4 5 6 
#
# 1 0.012623 -0.006438 -0.003854 0.000000 -0.004657 0.000000
# 2 -0.006438 0.015943 -0.008461 0.000000 -0.004104 0.000000
# 3 -0.003854 -0.008461 0.052372 0.000000 0.029650 0.000000
# 4 0.000000 0.000000 0.000000 0.041372 0.000000 -0.002339
# 5 -0.004657 -0.004104 0.029650 0.000000 0.062294 0.000000
# 6 0.000000 0.000000 0.000000 -0.002339 0.000000 0.024733
#
#
# Mechanical properties :
#
#
# Convention : Reuss Voigt Hill
#
# Bulk Modulus (GPa) = 23.02421 45.88695 34.45558
# Shear Modulus (GPa) = 19.13361 27.50337 23.31849
#
# Velocity S-wave (km/s) = 3.19302 3.82821 3.52495
# Velocity P-wave (km/s) = 5.08550 6.63259 5.90989
#
# Compressibility (1/GPa) = 0.04343255
#
# Stress axis : x y z
#
# Youngs Moduli (GPa) = 79.22351 62.72205 19.09400
#
# Poissons Ratio (x) = 0.40380 0.07358
# Poissons Ratio (y) = 0.51004 0.16156
# Poissons Ratio (z) = 0.30531 0.53070
#
# Static dielectric constant tensor:
#      x y z
#    x 2.413810 0.000000 -0.297220 
#    y 0.000000 3.518510 0.000000 
#    z -0.297220 0.000000 3.047320 
# 
# 
# High freq. dielectric constant tensor:
#      x y z
#    x 1.742340 0.000000 0.009230 
#    y 0.000000 1.739630 0.000000 
#    z 0.009230 0.000000 1.693720 
# 
# From -- ./inp_files/275118.got.cif
#   From: 2010.06.25/outbox.cif.g09.slc.cpg/sg12_138_cif.got.tgz:275118.got - 2010.06.28 00:19:55.
