data_PCOD8087366
_publ_section_title
;
Structure prediction by ZEFSAII (Michael W. Deem and Ramdas Pophale) SiO2 
 PCOD8087366
Probable space group: C 2/M
;
_chemical_formula_sum "Si O2"
_cell_formula_units_Z 56
_cell_length_a 21.149923
_cell_length_b 18.002976
_cell_length_c 20.539222
_cell_angle_alpha 90.000000
_cell_angle_beta 21.066467
_cell_angle_gamma 90.000000
_cell_volume 2811.100976
_symmetry_space_group_name_H-M "C 2/M"
_symmetry_group_IT_number 12
_symmetry_cell_setting 'monoclinic'
loop_
_space_group_symop_operation_xyz
x,y,z
-x,y,-z
-x,-y,-z
x,-y,z
1/2+x,1/2+y,z
1/2-x,1/2+y,-z
1/2-x,1/2-y,-z
1/2+x,1/2-y,z
loop_
_atom_site_type_symbol
_atom_site_label
_atom_site_fract_x
_atom_site_fract_y
_atom_site_fract_z
Si Si1 0.830885 0.580830 0.803737
Si Si2 0.684727 0.694050 0.119477
Si Si3 0.858998 0.418704 0.581104
Si Si4 0.794256 0.186939 0.508363
Si Si5 0.292239 0.274996 0.134335
Si Si6 0.541387 0.912706 0.178945
Si Si7 0.191330 0.767381 0.735980
O O1 0.738437 0.500000 0.887059
O O2 0.721853 0.635771 0.861541
O O3 0.848065 0.605956 0.861871
O O4 0.034231 0.574443 0.588190
O O5 0.489007 0.659440 0.298972
O O6 0.659019 0.739513 0.211130
O O7 0.750000 0.750000 0.000000
O O8 0.829359 0.629864 0.995298
O O9 0.776451 0.500000 0.678352
O O10 0.712538 0.356508 0.709044
O O11 0.000000 0.393145 0.500000
O O12 0.750000 0.250000 0.500000
O O13 0.656115 0.119645 0.633804
O O14 0.791229 0.220013 0.584984
O O15 0.240450 0.247968 0.256600
O O16 0.486653 0.249367 0.927897
O O17 0.529320 0.000000 0.175413
#
# Coordination Sequence:
#
# PCOD8087366 Si02
#       7
#     8   8   8   8   8   8   8
#     4  10  20  35  55  80 119 165 198 245 306 367
#     4  12  22  39  66  92 126 164 208 260 316 361
#     4  10  19  32  49  76 120 163 200 242 297 365
#     4  12  23  40  67  92 125 167 211 260 314 370
#     4  11  21  37  56  88 125 153 209 264 301 373
#     4  11  24  43  64  93 128 162 210 263 317 375
#     4  11  23  34  58  88 118 165 211 253 309 364
#
# _framework density 19.921019999999999
#
# number of rings (size 3 to 8) (size 9 to 14) (size 15 to 20)
#    0.000    1.000    5.714    1.714    0.000    1.143 
#    0.000    1.429    0.000    1.714    0.000    2.000 
#    0.000    0.000    0.000    0.000    0.000    0.000 
#
# Total GULP energy -346919.192304 kJ/mol
# GULP energy per Si atom -12389.971154 kJ/mol
# Density = 1.987568 g / cm^3
# Si number density = 19.921020 Si / 1000 Ang^3
#
#
#
# Elastic Constant Matrix: (Units=GPa)
#
#
# Indices 1 2 3 4 5 6 
#
# 1 86.4142 30.9256 14.6357 0.0257 11.9659 -0.0165
# 2 30.9256 105.2810 39.4388 -0.0367 -3.6376 -0.0072
# 3 14.6357 39.4388 110.5891 0.0794 -3.3128 -0.0552
# 4 0.0257 -0.0367 0.0794 31.0437 -0.0399 -6.9229
# 5 11.9659 -3.6376 -3.3128 -0.0399 27.0561 0.0261
# 6 -0.0165 -0.0072 -0.0552 -6.9229 0.0261 26.4047
#
#
#
# Elastic Compliance Matrix: (Units=1/GPa)
#
#
# Indices 1 2 3 4 5 6 
#
# 1 0.014113 -0.004162 -0.000589 -0.000022 -0.006874 0.000007
# 2 -0.004162 0.012218 -0.003716 0.000031 0.003029 -0.000002
# 3 -0.000589 -0.003716 0.010477 -0.000027 0.001044 0.000013
# 4 -0.000022 0.000031 -0.000027 0.034213 0.000053 0.008970
# 5 -0.006874 0.003029 0.001044 0.000053 0.040535 -0.000028
# 6 0.000007 -0.000002 0.000013 0.008970 -0.000028 0.040224
#
#
# Mechanical properties :
#
#
# Convention : Reuss Voigt Hill
#
# Bulk Modulus (GPa) = 50.31873 52.47606 51.39739
# Shear Modulus (GPa) = 28.51617 31.38654 29.95135
#
# Velocity S-wave (km/s) = 3.78757 3.97362 3.88171
# Velocity P-wave (km/s) = 6.66645 6.88855 6.77841
#
# Compressibility (1/GPa) = 0.01987332
#
# Stress axis : x y z
#
# Youngs Moduli (GPa) = 70.85444 81.84916 95.44893
#
# Poissons Ratio (x) = 0.34070 0.05624
# Poissons Ratio (y) = 0.29493 0.35464
# Poissons Ratio (z) = 0.04175 0.30411
#
# Static dielectric constant tensor:
#      x y z
#    x 3.669740 -0.000010 0.153860 
#    y -0.000010 3.568150 0.000160 
#    z 0.153860 0.000160 3.738790 
# 
# 
# High freq. dielectric constant tensor:
#      x y z
#    x 1.774360 0.000000 0.008750 
#    y 0.000000 1.753770 0.000010 
#    z 0.008750 0.000010 1.776430 
# 
# From -- ./inp_files/322646.got.cif
#   From: 2010.06.25/outbox.cif.g09.slc.cpg/sg12_162_cif.got.tgz:322646.got - 2010.06.28 00:19:55.
