data_PCOD8087352
_publ_section_title
;
Structure prediction by ZEFSAII (Michael W. Deem and Ramdas Pophale) SiO2 
 PCOD8087352
Probable space group: C 2/M
;
_chemical_formula_sum "Si O2"
_cell_formula_units_Z 48
_cell_length_a 9.845277
_cell_length_b 29.746198
_cell_length_c 16.107993
_cell_angle_alpha 90.000000
_cell_angle_beta 37.465732
_cell_angle_gamma 90.000000
_cell_volume 2869.519931
_symmetry_space_group_name_H-M "C 2/M"
_symmetry_group_IT_number 12
_symmetry_cell_setting 'monoclinic'
loop_
_space_group_symop_operation_xyz
x,y,z
-x,y,-z
-x,-y,-z
x,-y,z
1/2+x,1/2+y,z
1/2-x,1/2+y,-z
1/2-x,1/2-y,-z
1/2+x,1/2-y,z
loop_
_atom_site_type_symbol
_atom_site_label
_atom_site_fract_x
_atom_site_fract_y
_atom_site_fract_z
Si Si1 0.351521 0.713513 0.831184
Si Si2 0.968849 0.287315 0.153096
Si Si3 0.249996 0.552192 0.141466
Si Si4 0.509966 0.111742 0.131630
Si Si5 0.364678 0.612392 0.816640
Si Si6 0.224987 0.448002 0.346079
O O1 0.265744 0.721623 0.779241
O O2 0.526731 0.752078 0.772638
O O3 0.454822 0.663504 0.781610
O O4 0.154805 0.718734 0.992819
O O5 0.998939 0.337705 0.173566
O O6 0.231577 0.500000 0.126339
O O7 0.198401 0.561518 0.261967
O O8 0.057408 0.578214 0.184389
O O9 0.500000 0.569991 0.000000
O O10 0.274258 0.103135 0.200270
O O11 0.708600 0.103156 0.970808
O O12 0.572151 0.579372 0.713413
O O13 0.276059 0.500000 0.338792
O O14 0.000000 0.432172 0.500000
#
# Coordination Sequence:
#
# PCOD8087352 Si02
#       6
#     8   8   8   8   8   8
#     4   8  14  24  38  61  95 126 156 192 235 288
#     4   8  14  24  37  63  97 125 152 192 242 284
#     4  10  19  32  49  73  99 123 161 208 247 287
#     4   9  17  29  47  74 101 125 160 206 249 291
#     4   9  17  30  48  70  99 131 163 201 246 293
#     4  10  21  36  51  70  99 133 167 202 245 297
#
# _framework density 16.727537999999999
#
# number of rings (size 3 to 8) (size 9 to 14) (size 15 to 20)
#    0.000    3.000    1.667    2.000    0.000    2.000 
#    3.000    2.500    0.000    3.000    0.000   10.500 
#    0.000    0.000    0.000    0.000    0.000    0.000 
#
# Total GULP energy -297435.199711 kJ/mol
# GULP energy per Si atom -12393.133321 kJ/mol
# Density = 1.668947 g / cm^3
# Si number density = 16.727538 Si / 1000 Ang^3
#
#
#
# Elastic Constant Matrix: (Units=GPa)
#
#
# Indices 1 2 3 4 5 6 
#
# 1 111.4099 79.4239 38.5077 0.0000 -8.3755 0.0000
# 2 79.4239 99.5391 37.8590 0.0000 -10.0068 0.0000
# 3 38.5077 37.8590 64.7484 0.0000 -4.7533 0.0000
# 4 0.0000 0.0000 0.0000 11.3022 0.0000 -2.0029
# 5 -8.3755 -10.0068 -4.7533 0.0000 15.4110 0.0000
# 6 0.0000 0.0000 0.0000 -2.0029 0.0000 39.5470
#
#
#
# Elastic Compliance Matrix: (Units=1/GPa)
#
#
# Indices 1 2 3 4 5 6 
#
# 1 0.021430 -0.015723 -0.003526 0.000000 0.000350 0.000000
# 2 -0.015723 0.025061 -0.004845 0.000000 0.006234 0.000000
# 3 -0.003526 -0.004845 0.020466 0.000000 0.001250 0.000000
# 4 0.000000 0.000000 0.000000 0.089280 0.000000 0.004522
# 5 0.000350 0.006234 0.001250 0.000000 0.069512 0.000000
# 6 0.000000 0.000000 0.000000 0.004522 0.000000 0.025515
#
#
# Mechanical properties :
#
#
# Convention : Reuss Voigt Hill
#
# Bulk Modulus (GPa) = 53.27829 65.25317 59.26573
# Shear Modulus (GPa) = 16.35543 21.24581 18.80062
#
# Velocity S-wave (km/s) = 3.13030 3.56773 3.35615
# Velocity P-wave (km/s) = 6.70707 7.48770 7.10811
#
# Compressibility (1/GPa) = 0.01876937
#
# Stress axis : x y z
#
# Youngs Moduli (GPa) = 46.66435 39.90205 48.86136
#
# Poissons Ratio (x) = 0.62738 0.17228
# Poissons Ratio (y) = 0.73370 0.23674
# Poissons Ratio (z) = 0.16453 0.19333
#
# Static dielectric constant tensor:
#      x y z
#    x 3.437740 0.000000 -0.006950 
#    y 0.000000 3.256660 0.000000 
#    z -0.006950 0.000000 2.682550 
# 
# 
# High freq. dielectric constant tensor:
#      x y z
#    x 1.651770 0.000000 0.000690 
#    y 0.000000 1.649720 0.000000 
#    z 0.000690 0.000000 1.586580 
# 
# From -- ./inp_files/200779.got.cif
#   From: 2010.06.25/outbox.cif.g09.slc.cpg/sg12_101_cif.got.tgz:200779.got - 2010.06.28 00:19:55.
