data_PCOD8087053
_publ_section_title
;
Structure prediction by ZEFSAII (Michael W. Deem and Ramdas Pophale) SiO2 
 PCOD8087053
Probable space group: C 2/M
;
_chemical_formula_sum "Si O2"
_cell_formula_units_Z 56
_cell_length_a 23.791939
_cell_length_b 18.521496
_cell_length_c 17.902334
_cell_angle_alpha 90.000000
_cell_angle_beta 158.103963
_cell_angle_gamma 90.000000
_cell_volume 2941.950965
_symmetry_space_group_name_H-M "C 2/M"
_symmetry_group_IT_number 12
_symmetry_cell_setting 'monoclinic'
loop_
_space_group_symop_operation_xyz
x,y,z
-x,y,-z
-x,-y,-z
x,-y,z
1/2+x,1/2+y,z
1/2-x,1/2+y,-z
1/2-x,1/2-y,-z
1/2+x,1/2-y,z
loop_
_atom_site_type_symbol
_atom_site_label
_atom_site_fract_x
_atom_site_fract_y
_atom_site_fract_z
Si Si1 0.595250 0.821259 0.445420
Si Si2 0.031961 0.579485 0.960242
Si Si3 0.825812 0.720516 0.302026
Si Si4 0.738824 0.821748 0.938179
Si Si5 0.059640 0.847965 0.367298
Si Si6 0.296251 0.086299 0.552645
Si Si7 0.348755 0.621042 0.358243
O O1 0.688940 0.824355 0.639193
O O2 0.426529 0.854787 0.249247
O O3 0.584703 0.738779 0.402253
O O4 0.687959 0.874038 0.506868
O O5 0.959796 0.500000 0.878584
O O6 0.939062 0.614804 0.777722
O O7 0.210360 0.570087 0.163767
O O8 0.000000 0.620707 0.000000
O O9 0.739181 0.687973 0.124316
O O10 0.771293 0.802014 0.245928
O O11 0.000000 0.729261 0.500000
O O12 0.750000 0.750000 0.000000
O O13 0.882283 0.869036 0.140149
O O14 0.144331 0.883759 0.402307
O O15 0.116246 0.887244 0.511407
O O16 0.289581 0.000000 0.532400
O O17 0.500000 0.601893 0.500000
#
# Coordination Sequence:
#
# PCOD8087053 Si02
#       7
#     8   8   8   8   8   8   8
#     4   9  19  35  58  80 107 139 186 226 269 331
#     4  10  21  36  50  69 105 152 184 213 267 328
#     4   8  16  32  52  83 110 134 165 222 281 325
#     4   9  17  31  57  84 111 135 170 229 283 321
#     4  10  20  34  53  83 109 141 177 227 282 326
#     4  11  23  38  54  74 110 153 189 225 269 326
#     4  10  19  31  53  78 109 138 175 218 274 332
#
# _framework density 19.034987000000001
#
# number of rings (size 3 to 8) (size 9 to 14) (size 15 to 20)
#    0.000    2.429    1.429    3.000    6.000    0.286 
#    0.000    1.429    0.000    5.571    0.000    0.000 
#    0.000    0.000    0.000    0.000    0.000    0.000 
#
# Total GULP energy -346887.988172 kJ/mol
# GULP energy per Si atom -12388.856720 kJ/mol
# Density = 1.899166 g / cm^3
# Si number density = 19.034987 Si / 1000 Ang^3
#
#
#
# Elastic Constant Matrix: (Units=GPa)
#
#
# Indices 1 2 3 4 5 6 
#
# 1 127.6506 32.2967 26.6588 -0.0001 -0.4532 0.0002
# 2 32.2967 47.7357 13.3113 -0.0001 -0.0517 0.0000
# 3 26.6588 13.3113 77.7628 -0.0002 5.5058 0.0000
# 4 -0.0001 -0.0001 -0.0002 15.8907 -0.0003 2.9595
# 5 -0.4532 -0.0517 5.5058 -0.0003 35.6366 -0.0003
# 6 0.0002 0.0000 0.0000 2.9595 -0.0003 11.0029
#
#
#
# Elastic Compliance Matrix: (Units=1/GPa)
#
#
# Indices 1 2 3 4 5 6 
#
# 1 0.009852 -0.006000 -0.002385 0.000000 0.000485 0.000000
# 2 -0.006000 0.025666 -0.002360 0.000000 0.000326 0.000000
# 3 -0.002385 -0.002360 0.014239 0.000000 -0.002234 0.000000
# 4 0.000000 0.000000 0.000000 0.066249 0.000000 -0.017819
# 5 0.000485 0.000326 -0.002234 0.000000 0.028413 0.000001
# 6 0.000000 0.000000 0.000000 -0.017819 0.000001 0.095678
#
#
# Mechanical properties :
#
#
# Convention : Reuss Voigt Hill
#
# Bulk Modulus (GPa) = 35.37467 44.18697 39.78082
# Shear Modulus (GPa) = 18.44965 24.56487 21.50726
#
# Velocity S-wave (km/s) = 3.11665 3.59627 3.36502
# Velocity P-wave (km/s) = 5.61923 6.36460 6.00349
#
# Compressibility (1/GPa) = 0.02826882
#
# Stress axis : x y z
#
# Youngs Moduli (GPa) = 101.50605 38.96153 70.22860
#
# Poissons Ratio (x) = 0.23376 0.16747
# Poissons Ratio (y) = 0.60902 0.16572
# Poissons Ratio (z) = 0.24206 0.09194
#
# Static dielectric constant tensor:
#      x y z
#    x 3.863200 0.000000 -0.271910 
#    y 0.000000 3.084450 0.000000 
#    z -0.271910 0.000000 3.738700 
# 
# 
# High freq. dielectric constant tensor:
#      x y z
#    x 1.748080 0.000000 -0.003860 
#    y 0.000000 1.688800 0.000000 
#    z -0.003860 0.000000 1.741000 
# 
# From -- ./inp_files/89675.got.cif
#   From: 2010.06.25/outbox.cif.g09.slc.cpg/sg12_45_cif.got.tgz:89675.got - 2010.06.28 00:19:55.
