data_PCOD8087157
_publ_section_title
;
Structure prediction by ZEFSAII (Michael W. Deem and Ramdas Pophale) SiO2 
 PCOD8087157
Probable space group: C 2/M
;
_chemical_formula_sum "Si O2"
_cell_formula_units_Z 40
_cell_length_a 20.788694
_cell_length_b 10.862318
_cell_length_c 8.879276
_cell_angle_alpha 90.000000
_cell_angle_beta 84.474278
_cell_angle_gamma 90.000000
_cell_volume 1995.742176
_symmetry_space_group_name_H-M "C 2/M"
_symmetry_group_IT_number 12
_symmetry_cell_setting 'monoclinic'
loop_
_space_group_symop_operation_xyz
x,y,z
-x,y,-z
-x,-y,-z
x,-y,z
1/2+x,1/2+y,z
1/2-x,1/2+y,-z
1/2-x,1/2-y,-z
1/2+x,1/2-y,z
loop_
_atom_site_type_symbol
_atom_site_label
_atom_site_fract_x
_atom_site_fract_y
_atom_site_fract_z
Si Si1 0.965430 0.797054 0.158135
Si Si2 0.695110 0.762322 0.391165
Si Si3 0.567801 0.858961 0.566536
Si Si4 0.172262 0.000000 0.407060
Si Si5 0.125609 0.000000 0.939833
Si Si6 0.556355 0.500000 0.258357
Si Si7 0.258405 0.500000 0.283704
O O1 0.940322 0.681635 0.258625
O O2 0.904852 0.878662 0.125773
O O3 0.013930 0.877903 0.248926
O O4 0.000000 0.746812 0.000000
O O5 0.750000 0.750000 0.500000
O O6 0.624003 0.779761 0.476875
O O7 0.695291 0.625423 0.315300
O O8 0.712861 0.878515 0.282372
O O9 0.500000 0.839110 0.500000
O O10 0.590189 0.000000 0.559520
O O11 0.195890 0.000000 0.576519
O O12 0.093071 0.000000 0.411940
O O13 0.200627 0.000000 0.878536
O O14 0.113765 0.000000 0.120459
#
# Coordination Sequence:
#
# PCOD8087157 Si02
#       7
#     8   8   8   4   4   4   4
#     4   9  18  33  54  79 108 141 180 225 277 333
#     4  10  20  35  54  81 110 147 189 229 275 328
#     4  11  22  35  54  82 116 147 185 231 282 331
#     4  10  19  31  55  79 102 139 183 232 269 318
#     4   9  18  34  56  79 102 144 181 229 276 331
#     4   9  18  34  54  80 110 133 180 233 284 322
#     4  10  19  35  54  74 107 148 187 222 277 331
#
# _framework density 20.042669
#
# number of rings (size 3 to 8) (size 9 to 14) (size 15 to 20)
#    0.000    2.200    1.000    4.800    0.000    1.200 
#    0.000    4.500    0.000    4.800    0.000    0.000 
#    0.000    0.000    0.000    0.000    0.000    0.000 
#
# Total GULP energy -247788.900809 kJ/mol
# GULP energy per Si atom -12389.445040 kJ/mol
# Density = 1.999705 g / cm^3
# Si number density = 20.042669 Si / 1000 Ang^3
#
#
#
# Elastic Constant Matrix: (Units=GPa)
#
#
# Indices 1 2 3 4 5 6 
#
# 1 91.5537 38.0052 15.6985 0.0000 -14.4664 0.0000
# 2 38.0052 146.5489 29.6026 0.0000 -16.2159 0.0000
# 3 15.6985 29.6026 51.2949 0.0000 -21.6881 0.0000
# 4 0.0000 0.0000 0.0000 23.8635 0.0000 2.9532
# 5 -14.4664 -16.2159 -21.6881 0.0000 37.1702 0.0000
# 6 0.0000 0.0000 0.0000 2.9532 0.0000 20.8269
#
#
#
# Elastic Compliance Matrix: (Units=1/GPa)
#
#
# Indices 1 2 3 4 5 6 
#
# 1 0.012736 -0.002756 -0.000956 0.000000 0.003197 0.000000
# 2 -0.002756 0.008350 -0.003835 0.000000 0.000333 0.000000
# 3 -0.000956 -0.003835 0.028058 0.000000 0.014327 0.000000
# 4 0.000000 0.000000 0.000000 0.042653 0.000000 -0.006048
# 5 0.003197 0.000333 0.014327 0.000000 0.036652 0.000000
# 6 0.000000 0.000000 0.000000 -0.006048 0.000000 0.048872
#
#
# Mechanical properties :
#
#
# Convention : Reuss Voigt Hill
#
# Bulk Modulus (GPa) = 29.36772 50.66779 40.01775
# Shear Modulus (GPa) = 24.53825 30.11154 27.32489
#
# Velocity S-wave (km/s) = 3.50280 3.88025 3.69634
# Velocity P-wave (km/s) = 5.57170 6.73869 6.18279
#
# Compressibility (1/GPa) = 0.03405099
#
# Stress axis : x y z
#
# Youngs Moduli (GPa) = 78.52020 119.76358 35.64055
#
# Poissons Ratio (x) = 0.33007 0.03405
# Poissons Ratio (y) = 0.21640 0.13667
# Poissons Ratio (z) = 0.07503 0.45925
#
# Static dielectric constant tensor:
#      x y z
#    x 3.734670 0.000000 -0.025000 
#    y 0.000000 4.291970 0.000000 
#    z -0.025000 0.000000 3.286440 
# 
# 
# High freq. dielectric constant tensor:
#      x y z
#    x 1.785710 0.000000 -0.005190 
#    y 0.000000 1.794380 0.000000 
#    z -0.005190 0.000000 1.740300 
# 
# From -- ./inp_files/83529.got.cif
#   From: 2010.06.25/outbox.cif.g09.slc.cpg/sg12_42_cif.got.tgz:83529.got - 2010.06.28 00:19:55.
