data_PCOD8087770
_publ_section_title
;
Structure prediction by ZEFSAII (Michael W. Deem and Ramdas Pophale) SiO2 
 PCOD8087770
Probable space group: C 2/M
;
_chemical_formula_sum "Si O2"
_cell_formula_units_Z 64
_cell_length_a 14.020742
_cell_length_b 13.225614
_cell_length_c 28.783386
_cell_angle_alpha 90.000000
_cell_angle_beta 141.872220
_cell_angle_gamma 90.000000
_cell_volume 3295.395561
_symmetry_space_group_name_H-M "C 2/M"
_symmetry_group_IT_number 12
_symmetry_cell_setting 'monoclinic'
loop_
_space_group_symop_operation_xyz
x,y,z
-x,y,-z
-x,-y,-z
x,-y,z
1/2+x,1/2+y,z
1/2-x,1/2+y,-z
1/2-x,1/2-y,-z
1/2+x,1/2-y,z
loop_
_atom_site_type_symbol
_atom_site_label
_atom_site_fract_x
_atom_site_fract_y
_atom_site_fract_z
Si Si1 0.814850 0.886416 0.870962
Si Si2 0.363032 0.208489 0.274478
Si Si3 0.639364 0.886857 0.893645
Si Si4 0.541897 0.295058 0.201893
Si Si5 0.346256 0.115522 0.569484
Si Si6 0.548065 0.381091 0.307035
Si Si7 0.877146 0.119515 0.054517
Si Si8 0.842862 0.701570 0.467769
O O1 0.680611 0.823093 0.794364
O O2 0.784865 0.885097 0.914221
O O3 0.981003 0.838308 0.922421
O O4 0.808902 0.000000 0.848462
O O5 0.217117 0.194353 0.252230
O O6 0.492750 0.133383 0.342998
O O7 0.429694 0.323181 0.296611
O O8 0.498106 0.823312 0.818610
O O9 0.574218 0.000000 0.875141
O O10 0.712208 0.840950 0.969782
O O11 0.526031 0.339508 0.246793
O O12 0.411333 0.351885 0.120871
O O13 0.214282 0.186124 0.540988
O O14 0.370654 0.137078 0.524577
O O15 0.293962 0.000000 0.556480
O O16 0.512329 0.500000 0.295521
O O17 0.721926 0.358361 0.389438
O O18 0.864826 0.000000 0.044454
O O19 0.000000 0.713521 0.500000
#
# Coordination Sequence:
#
# PCOD8087770 Si02
#       8
#     8   8   8   8   8   8   8   8
#     4   9  16  30  52  77 104 135 174 222 276 327
#     4  10  21  36  55  81 111 143 183 229 271 321
#     4  10  19  32  51  76 107 139 178 227 279 329
#     4  11  21  35  55  80 107 146 188 228 272 331
#     4  10  21  38  61  86 115 149 185 225 270 324
#     4  11  23  39  58  81 113 149 185 226 274 329
#     4   9  18  31  51  78 104 136 179 229 277 325
#     4  10  22  39  59  87 117 146 183 226 272 325
#
# _framework density 19.421036999999998
#
# number of rings (size 3 to 8) (size 9 to 14) (size 15 to 20)
#    0.000    2.000    1.250    2.625    0.000    5.750 
#    0.000    0.000    0.000    4.500    0.000    4.375 
#    0.000    0.000    0.000    0.000    0.000    0.000 
#
# Total GULP energy -396673.129848 kJ/mol
# GULP energy per Si atom -12396.035308 kJ/mol
# Density = 1.937683 g / cm^3
# Si number density = 19.421037 Si / 1000 Ang^3
#
#
#
# Elastic Constant Matrix: (Units=GPa)
#
#
# Indices 1 2 3 4 5 6 
#
# 1 42.7467 9.4022 11.7796 0.0000 -3.6851 0.0000
# 2 9.4022 102.5768 31.2794 0.0000 -0.1152 0.0000
# 3 11.7796 31.2794 95.7571 0.0000 -7.5670 0.0000
# 4 0.0000 0.0000 0.0000 28.0764 0.0000 -3.2195
# 5 -3.6851 -0.1152 -7.5670 0.0000 26.1864 0.0000
# 6 0.0000 0.0000 0.0000 -3.2195 0.0000 14.6988
#
#
#
# Elastic Compliance Matrix: (Units=1/GPa)
#
#
# Indices 1 2 3 4 5 6 
#
# 1 0.024609 -0.001551 -0.002300 0.000000 0.002792 0.000000
# 2 -0.001551 0.010951 -0.003479 0.000000 -0.001175 0.000000
# 3 -0.002300 -0.003479 0.012112 0.000000 0.003161 0.000000
# 4 0.000000 0.000000 0.000000 0.036535 0.000000 0.008002
# 5 0.002792 -0.001175 0.003161 0.000000 0.039489 0.000000
# 6 0.000000 0.000000 0.000000 0.008002 0.000000 0.069785
#
#
# Mechanical properties :
#
#
# Convention : Reuss Voigt Hill
#
# Bulk Modulus (GPa) = 30.29250 38.44480 34.36865
# Shear Modulus (GPa) = 22.81587 26.36694 24.59140
#
# Velocity S-wave (km/s) = 3.43126 3.68863 3.56227
# Velocity P-wave (km/s) = 5.59729 6.16277 5.88682
#
# Compressibility (1/GPa) = 0.03301147
#
# Stress axis : x y z
#
# Youngs Moduli (GPa) = 40.63507 91.31946 82.56074
#
# Poissons Ratio (x) = 0.14166 0.18989
# Poissons Ratio (y) = 0.06303 0.28724
# Poissons Ratio (z) = 0.09346 0.31771
#
# Static dielectric constant tensor:
#      x y z
#    x 3.316960 0.000000 -0.099400 
#    y 0.000000 3.526740 0.000000 
#    z -0.099400 0.000000 3.718910 
# 
# 
# High freq. dielectric constant tensor:
#      x y z
#    x 1.736860 0.000000 -0.009070 
#    y 0.000000 1.754810 0.000000 
#    z -0.009070 0.000000 1.772590 
# 
# From -- ./inp_files/376113.got.cif
#   From: 2010.06.25/outbox.cif.g09.slc.cpg/sg12_189_cif.got.tgz:376113.got - 2010.06.28 00:19:55.
