data_PCOD8087533
_publ_section_title
;
Structure prediction by ZEFSAII (Michael W. Deem and Ramdas Pophale) SiO2 
 PCOD8087533
Probable space group: C 2/M
;
_chemical_formula_sum "Si O2"
_cell_formula_units_Z 64
_cell_length_a 27.763221
_cell_length_b 13.322468
_cell_length_c 9.141621
_cell_angle_alpha 90.000000
_cell_angle_beta 85.204137
_cell_angle_gamma 90.000000
_cell_volume 3369.415512
_symmetry_space_group_name_H-M "C 2/M"
_symmetry_group_IT_number 12
_symmetry_cell_setting 'monoclinic'
loop_
_space_group_symop_operation_xyz
x,y,z
-x,y,-z
-x,-y,-z
x,-y,z
1/2+x,1/2+y,z
1/2-x,1/2+y,-z
1/2-x,1/2-y,-z
1/2+x,1/2-y,z
loop_
_atom_site_type_symbol
_atom_site_label
_atom_site_fract_x
_atom_site_fract_y
_atom_site_fract_z
Si Si1 0.658052 0.881128 0.199157
Si Si2 0.636317 0.774626 0.655062
Si Si3 0.277735 0.384959 0.855410
Si Si4 0.714047 0.117943 0.466815
Si Si5 0.310246 0.243167 0.079039
Si Si6 0.681063 0.385907 0.461640
Si Si7 0.556342 0.118178 0.132432
Si Si8 0.549704 0.880937 0.801942
O O1 0.690206 0.836614 0.323977
O O2 0.601292 0.848288 0.224044
O O3 0.662436 0.000000 0.197311
O O4 0.677581 0.841337 0.042335
O O5 0.676505 0.857876 0.605158
O O6 0.648198 0.735000 0.814726
O O7 0.638175 0.682741 0.538481
O O8 0.583319 0.824534 0.674394
O O9 0.258983 0.500000 0.873593
O O10 0.236103 0.304441 0.827558
O O11 0.317077 0.378483 0.714841
O O12 0.301225 0.350508 0.003232
O O13 0.768454 0.158356 0.483160
O O14 0.719297 0.000000 0.456596
O O15 0.671705 0.500000 0.513249
O O16 0.505445 0.156996 0.211329
O O17 0.551800 0.000000 0.127021
O O18 0.564685 0.152643 0.962455
O O19 0.555713 0.000000 0.777040
#
# Coordination Sequence:
#
# PCOD8087533 Si02
#       8
#     8   8   8   8   8   8   8   8
#     4  10  19  32  50  76 108 139 171 209 250 300
#     4  12  21  32  52  76 104 133 174 215 249 302
#     4  10  22  38  51  69 102 139 175 213 252 296
#     4  10  21  33  49  72 106 144 172 202 249 304
#     4  11  22  31  53  79  98 129 176 219 254 296
#     4  10  22  38  51  67 101 146 177 206 250 298
#     4   8  15  30  50  74 105 137 165 202 254 307
#     4   9  17  30  51  78 105 134 168 205 254 308
#
# _framework density 18.994392000000001
#
# number of rings (size 3 to 8) (size 9 to 14) (size 15 to 20)
#    0.000    2.000    2.500    2.625    3.500    1.500 
#    0.000    0.625    0.000    3.000    0.000    2.625 
#    0.000    3.000    0.000    0.000    0.000    0.000 
#
# Total GULP energy -396539.503097 kJ/mol
# GULP energy per Si atom -12391.859472 kJ/mol
# Density = 1.895116 g / cm^3
# Si number density = 18.994392 Si / 1000 Ang^3
#
#
#
# Elastic Constant Matrix: (Units=GPa)
#
#
# Indices 1 2 3 4 5 6 
#
# 1 55.2536 15.2374 24.7526 0.0000 -19.3585 0.0000
# 2 15.2374 58.2067 28.3923 0.0000 -13.0501 0.0000
# 3 24.7526 28.3923 81.7179 0.0000 -11.4183 0.0000
# 4 0.0000 0.0000 0.0000 29.8511 0.0000 -8.7528
# 5 -19.3585 -13.0501 -11.4183 0.0000 33.8559 0.0000
# 6 0.0000 0.0000 0.0000 -8.7528 0.0000 18.1110
#
#
#
# Elastic Compliance Matrix: (Units=1/GPa)
#
#
# Indices 1 2 3 4 5 6 
#
# 1 0.025115 -0.001185 -0.005513 0.000000 0.012044 0.000000
# 2 -0.001185 0.021897 -0.006469 0.000000 0.005581 0.000000
# 3 -0.005513 -0.006469 0.016126 0.000000 -0.000207 0.000000
# 4 0.000000 0.000000 0.000000 0.039031 0.000000 0.018863
# 5 0.012044 0.005581 -0.000207 0.000000 0.038505 0.000000
# 6 0.000000 0.000000 0.000000 0.018863 0.000000 0.064331
#
#
# Mechanical properties :
#
#
# Convention : Reuss Voigt Hill
#
# Bulk Modulus (GPa) = 27.17129 36.88254 32.02692
# Shear Modulus (GPa) = 20.52491 24.81665 22.67078
#
# Velocity S-wave (km/s) = 3.29078 3.61851 3.45853
# Velocity P-wave (km/s) = 5.36423 6.07601 5.73118
#
# Compressibility (1/GPa) = 0.03680355
#
# Stress axis : x y z
#
# Youngs Moduli (GPa) = 39.81763 45.66782 62.01270
#
# Poissons Ratio (x) = 0.05413 0.34185
# Poissons Ratio (y) = 0.04719 0.40117
# Poissons Ratio (z) = 0.21950 0.29543
#
# Static dielectric constant tensor:
#      x y z
#    x 3.692780 0.000000 0.094220 
#    y 0.000000 3.293400 0.000000 
#    z 0.094220 0.000000 3.500230 
# 
# 
# High freq. dielectric constant tensor:
#      x y z
#    x 1.710680 0.000000 0.000460 
#    y 0.000000 1.717760 0.000000 
#    z 0.000460 0.000000 1.740200 
# 
# From -- ./inp_files/104549.got.cif
#   From: 2010.06.25/outbox.cif.g09.slc.cpg/sg12_53_cif.got.tgz:104549.got - 2010.06.28 00:19:55.
