data_PCOD8087364
_publ_section_title
;
Structure prediction by ZEFSAII (Michael W. Deem and Ramdas Pophale) SiO2 
 PCOD8087364
Probable space group: C 2/M
;
_chemical_formula_sum "Si O2"
_cell_formula_units_Z 64
_cell_length_a 18.671591
_cell_length_b 21.896313
_cell_length_c 8.856768
_cell_angle_alpha 90.000000
_cell_angle_beta 86.895552
_cell_angle_gamma 90.000000
_cell_volume 3615.678261
_symmetry_space_group_name_H-M "C 2/M"
_symmetry_group_IT_number 12
_symmetry_cell_setting 'monoclinic'
loop_
_space_group_symop_operation_xyz
x,y,z
-x,y,-z
-x,-y,-z
x,-y,z
1/2+x,1/2+y,z
1/2-x,1/2+y,-z
1/2-x,1/2-y,-z
1/2+x,1/2-y,z
loop_
_atom_site_type_symbol
_atom_site_label
_atom_site_fract_x
_atom_site_fract_y
_atom_site_fract_z
Si Si1 0.420947 0.255849 0.568445
Si Si2 0.297935 0.931215 0.568995
Si Si3 0.292608 0.688238 0.448074
Si Si4 0.073903 0.627157 0.929657
Si Si5 0.212126 0.822808 0.891378
Si Si6 0.703275 0.931820 0.082635
Si Si7 0.574089 0.871239 0.573778
Si Si8 0.131802 0.736045 0.098596
O O1 0.500000 0.272770 0.500000
O O2 0.366710 0.310414 0.532700
O O3 0.395009 0.192806 0.493272
O O4 0.417008 0.247669 0.749287
O O5 0.246382 0.876651 0.514431
O O6 0.320413 0.922121 0.740827
O O7 0.371377 0.925825 0.468042
O O8 0.265794 0.000000 0.546407
O O9 0.250000 0.750000 0.500000
O O10 0.317423 0.687890 0.272015
O O11 0.065884 0.632483 0.752647
O O12 0.139551 0.584978 0.975341
O O13 0.084565 0.694861 0.993557
O O14 0.000000 0.598501 0.000000
O O15 0.224482 0.892058 0.946269
O O16 0.291683 0.794116 0.876289
O O17 0.152214 0.798374 0.012009
O O18 0.726873 0.000000 0.043917
O O19 0.500000 0.886504 0.500000
#
# Coordination Sequence:
#
# PCOD8087364 Si02
#       8
#     8   8   8   8   8   8   8   8
#     4  11  21  34  53  80 112 145 181 227 282 329
#     4  10  21  36  55  79 107 142 185 231 274 328
#     4  11  18  33  58  80 106 142 185 229 274 327
#     4  11  21  32  49  72 102 141 180 220 263 318
#     4   9  18  31  52  80 102 135 174 224 276 316
#     4   9  19  36  53  72 102 135 175 222 268 317
#     4  11  21  34  52  75 110 147 184 223 269 329
#     4  10  19  32  49  76 107 133 177 227 278 317
#
# _framework density 17.700690999999999
#
# number of rings (size 3 to 8) (size 9 to 14) (size 15 to 20)
#    0.000    1.750    2.500    4.500    0.000    2.000 
#    0.000    0.000    0.000    0.375    0.000    0.000 
#    0.000    4.500    0.000    0.000    0.000    0.000 
#
# Total GULP energy -396562.179616 kJ/mol
# GULP energy per Si atom -12392.568113 kJ/mol
# Density = 1.766040 g / cm^3
# Si number density = 17.700691 Si / 1000 Ang^3
#
#
#
# Elastic Constant Matrix: (Units=GPa)
#
#
# Indices 1 2 3 4 5 6 
#
# 1 63.5832 43.6464 28.0786 0.0000 -0.8884 0.0000
# 2 43.6464 123.7999 44.2126 0.0000 -0.1311 0.0000
# 3 28.0786 44.2126 104.9065 0.0000 -4.3833 0.0000
# 4 0.0000 0.0000 0.0000 20.4129 0.0000 -1.3733
# 5 -0.8884 -0.1311 -4.3833 0.0000 30.7507 0.0000
# 6 0.0000 0.0000 0.0000 -1.3733 0.0000 16.7915
#
#
#
# Elastic Compliance Matrix: (Units=1/GPa)
#
#
# Indices 1 2 3 4 5 6 
#
# 1 0.021532 -0.006516 -0.003010 0.000000 0.000165 0.000000
# 2 -0.006516 0.011489 -0.003123 0.000000 -0.000584 0.000000
# 3 -0.003010 -0.003123 0.011720 0.000000 0.001570 0.000000
# 4 0.000000 0.000000 0.000000 0.049260 0.000000 0.004029
# 5 0.000165 -0.000584 0.001570 0.000000 0.032746 0.000000
# 6 0.000000 0.000000 0.000000 0.004029 0.000000 0.059884
#
#
# Mechanical properties :
#
#
# Convention : Reuss Voigt Hill
#
# Bulk Modulus (GPa) = 51.43086 58.24053 54.83569
# Shear Modulus (GPa) = 22.89293 25.34781 24.12037
#
# Velocity S-wave (km/s) = 3.60020 3.78831 3.69545
# Velocity P-wave (km/s) = 6.81182 7.21869 7.01820
#
# Compressibility (1/GPa) = 0.01944358
#
# Stress axis : x y z
#
# Youngs Moduli (GPa) = 46.44270 87.03705 85.32761
#
# Poissons Ratio (x) = 0.56714 0.25684
# Poissons Ratio (y) = 0.30262 0.26644
# Poissons Ratio (z) = 0.13979 0.27178
#
# Static dielectric constant tensor:
#      x y z
#    x 3.205750 0.000000 0.023970 
#    y 0.000000 3.408420 0.000000 
#    z 0.023970 0.000000 3.330950 
# 
# 
# High freq. dielectric constant tensor:
#      x y z
#    x 1.663280 0.000000 0.001160 
#    y 0.000000 1.666050 0.000000 
#    z 0.001160 0.000000 1.695190 
# 
# From -- ./inp_files/89170.got.cif
#   From: 2010.06.25/outbox.cif.g09.slc.cpg/sg12_45_cif.got.tgz:89170.got - 2010.06.28 00:19:55.
