data_PCOD8087542
_publ_section_title
;
Structure prediction by ZEFSAII (Michael W. Deem and Ramdas Pophale) SiO2 
 PCOD8087542
Probable space group: C 2/M
;
_chemical_formula_sum "Si O2"
_cell_formula_units_Z 64
_cell_length_a 10.897474
_cell_length_b 26.461369
_cell_length_c 18.649299
_cell_angle_alpha 90.000000
_cell_angle_beta 137.310392
_cell_angle_gamma 90.000000
_cell_volume 3646.256728
_symmetry_space_group_name_H-M "C 2/M"
_symmetry_group_IT_number 12
_symmetry_cell_setting 'monoclinic'
loop_
_space_group_symop_operation_xyz
x,y,z
-x,y,-z
-x,-y,-z
x,-y,z
1/2+x,1/2+y,z
1/2-x,1/2+y,-z
1/2-x,1/2-y,-z
1/2+x,1/2-y,z
loop_
_atom_site_type_symbol
_atom_site_label
_atom_site_fract_x
_atom_site_fract_y
_atom_site_fract_z
Si Si1 0.764797 0.692921 0.267725
Si Si2 0.695511 0.558104 0.618244
Si Si3 0.620500 0.849956 0.905171
Si Si4 0.034649 0.636260 0.305565
Si Si5 0.122996 0.151834 0.866383
Si Si6 0.781972 0.869537 0.242159
Si Si7 0.712668 0.258841 0.094380
Si Si8 0.334444 0.291249 0.375988
O O1 0.580879 0.662628 0.199169
O O2 0.776633 0.724107 0.199862
O O3 0.798242 0.731929 0.346750
O O4 0.925697 0.650732 0.331093
O O5 0.500000 0.565524 0.500000
O O6 0.752725 0.500000 0.646846
O O7 0.838395 0.587419 0.628188
O O8 0.701692 0.580908 0.700975
O O9 0.607508 0.875954 0.820799
O O10 0.426612 0.853393 0.860491
O O11 0.683264 0.791490 0.921808
O O12 0.771959 0.875649 0.022277
O O13 0.154735 0.684380 0.332730
O O14 0.126223 0.118068 0.795142
O O15 0.236614 0.201308 0.895330
O O16 0.882643 0.822414 0.324369
O O17 0.500000 0.268005 0.000000
O O18 0.500000 0.297372 0.500000
#
# Coordination Sequence:
#
# PCOD8087542 Si02
#       8
#     8   8   8   8   8   8   8   8
#     4  11  21  32  42  72 103 145 177 199 243 296
#     4   9  18  38  66  83  91 117 166 224 272 299
#     4   9  18  30  45  68 100 138 171 211 246 285
#     4   9  20  34  51  75 103 127 173 214 242 302
#     4  12  20  28  45  68 106 143 172 207 252 290
#     4  10  19  32  50  77 102 127 168 217 256 307
#     4  11  19  27  44  64 100 143 193 217 225 274
#     4  10  20  35  46  62  97 141 175 208 248 294
#
# _framework density 17.552247000000001
#
# number of rings (size 3 to 8) (size 9 to 14) (size 15 to 20)
#    0.000    2.125    2.500    5.250    1.750    0.500 
#    2.250    0.000    0.000    6.750    0.000    5.250 
#    0.000    0.000    0.000    0.000    0.000    0.000 
#
# Total GULP energy -396604.664317 kJ/mol
# GULP energy per Si atom -12393.895760 kJ/mol
# Density = 1.751230 g / cm^3
# Si number density = 17.552247 Si / 1000 Ang^3
#
#
#
# Elastic Constant Matrix: (Units=GPa)
#
#
# Indices 1 2 3 4 5 6 
#
# 1 89.7010 39.3535 41.9958 0.0000 10.7423 0.0000
# 2 39.3535 84.9332 37.5832 0.0001 13.5690 0.0000
# 3 41.9958 37.5832 95.5815 -0.0014 10.1693 -0.0008
# 4 0.0000 0.0001 -0.0014 17.9292 -0.0005 1.1671
# 5 10.7423 13.5690 10.1693 -0.0005 17.5032 -0.0003
# 6 0.0000 0.0000 -0.0008 1.1671 -0.0003 9.8997
#
#
#
# Elastic Compliance Matrix: (Units=1/GPa)
#
#
# Indices 1 2 3 4 5 6 
#
# 1 0.015835 -0.004704 -0.004756 0.000000 -0.003309 0.000000
# 2 -0.004704 0.016883 -0.003716 -0.000001 -0.008042 0.000000
# 3 -0.004756 -0.003716 0.014279 0.000001 -0.002496 0.000001
# 4 0.000000 -0.000001 0.000001 0.056206 0.000002 -0.006626
# 5 -0.003309 -0.008042 -0.002496 0.000002 0.066848 0.000001
# 6 0.000000 0.000000 0.000001 -0.006626 0.000001 0.101795
#
#
# Mechanical properties :
#
#
# Convention : Reuss Voigt Hill
#
# Bulk Modulus (GPa) = 48.43867 56.45342 52.44604
# Shear Modulus (GPa) = 16.38929 19.15194 17.77061
#
# Velocity S-wave (km/s) = 3.05904 3.30682 3.18534
# Velocity P-wave (km/s) = 6.33512 6.84200 6.59343
#
# Compressibility (1/GPa) = 0.02064466
#
# Stress axis : x y z
#
# Youngs Moduli (GPa) = 63.15305 59.23252 70.03536
#
# Poissons Ratio (x) = 0.27863 0.33306
# Poissons Ratio (y) = 0.29707 0.26025
# Poissons Ratio (z) = 0.30033 0.22010
#
# Static dielectric constant tensor:
#      x y z
#    x 3.339380 0.000000 -0.038970 
#    y 0.000000 2.916090 0.000000 
#    z -0.038970 0.000000 3.470840 
# 
# 
# High freq. dielectric constant tensor:
#      x y z
#    x 1.671960 0.000000 0.003860 
#    y 0.000000 1.618710 0.000000 
#    z 0.003860 0.000000 1.688740 
# 
# From -- ./inp_files/307155.got.cif
#   From: 2010.06.25/outbox.cif.g09.slc.cpg/sg12_154_cif.got.tgz:307155.got - 2010.06.28 00:19:55.
