data_PCOD8087847
_publ_section_title
;
Structure prediction by ZEFSAII (Michael W. Deem and Ramdas Pophale) SiO2 
 PCOD8087847
Probable space group: C 2/M
;
_chemical_formula_sum "Si O2"
_cell_formula_units_Z 56
_cell_length_a 26.289143
_cell_length_b 9.683397
_cell_length_c 19.552186
_cell_angle_alpha 90.000000
_cell_angle_beta 35.951264
_cell_angle_gamma 90.000000
_cell_volume 2922.195474
_symmetry_space_group_name_H-M "C 2/M"
_symmetry_group_IT_number 12
_symmetry_cell_setting 'monoclinic'
loop_
_space_group_symop_operation_xyz
x,y,z
-x,y,-z
-x,-y,-z
x,-y,z
1/2+x,1/2+y,z
1/2-x,1/2+y,-z
1/2-x,1/2-y,-z
1/2+x,1/2-y,z
loop_
_atom_site_type_symbol
_atom_site_label
_atom_site_fract_x
_atom_site_fract_y
_atom_site_fract_z
Si Si1 0.551363 0.161830 0.875592
Si Si2 0.910167 0.157964 0.428096
Si Si3 0.782386 0.344034 0.781183
Si Si4 0.475014 0.157648 0.602015
Si Si5 0.808960 0.841727 0.984209
Si Si6 0.500909 0.342096 0.803996
Si Si7 0.753951 0.660395 0.308357
O O1 0.509200 0.241916 0.858891
O O2 0.650775 0.210043 0.773980
O O3 0.543899 0.000000 0.868146
O O4 0.500000 0.201855 0.000000
O O5 0.811484 0.191223 0.557646
O O6 0.977818 0.252363 0.393332
O O7 0.921446 0.184850 0.334672
O O8 0.933495 0.000000 0.420345
O O9 0.773003 0.500000 0.762918
O O10 0.872557 0.326705 0.723333
O O11 0.778095 0.241295 0.722800
O O12 0.708895 0.308899 0.916454
O O13 0.500000 0.212789 0.500000
O O14 0.506250 0.000000 0.576957
O O15 0.910617 0.811392 0.862822
O O16 0.785621 0.000000 0.992917
O O17 0.750000 0.750000 0.000000
O O18 0.502327 0.500000 0.828984
O O19 0.755280 0.500000 0.286918
#
# Coordination Sequence:
#
# PCOD8087847 Si02
#       7
#     8   8   8   8   8   8   8
#     4  10  22  40  60  82 107 137 179 228 274 322
#     4  10  21  36  54  79 112 145 180 220 267 323
#     4  10  20  34  53  79 109 141 179 224 268 314
#     4  10  19  32  51  78 112 145 180 220 262 314
#     4  10  21  36  55  80 110 142 179 220 264 317
#     4  10  22  39  57  81 112 144 179 222 268 320
#     4  10  21  36  55  80 107 138 179 224 268 319
#
# _framework density 19.163672999999999
#
# number of rings (size 3 to 8) (size 9 to 14) (size 15 to 20)
#    0.000    2.000    1.429    1.714    0.000    4.000 
#    0.000    0.000    0.000    0.000    0.000    0.000 
#    0.000    0.000    0.000    0.000    0.000    0.000 
#
# Total GULP energy -347264.745585 kJ/mol
# GULP energy per Si atom -12402.312342 kJ/mol
# Density = 1.912006 g / cm^3
# Si number density = 19.163673 Si / 1000 Ang^3
#
#
#
# Elastic Constant Matrix: (Units=GPa)
#
#
# Indices 1 2 3 4 5 6 
#
# 1 93.8439 55.9432 48.4354 0.0006 5.0060 -0.0003
# 2 55.9432 71.7916 44.7323 0.0044 9.2041 0.0001
# 3 48.4354 44.7323 131.2387 0.0052 -2.4996 0.0000
# 4 0.0006 0.0044 0.0052 23.7226 -0.0011 3.0263
# 5 5.0060 9.2041 -2.4996 -0.0011 26.4397 -0.0004
# 6 -0.0003 0.0001 0.0000 3.0263 -0.0004 34.6702
#
#
#
# Elastic Compliance Matrix: (Units=1/GPa)
#
#
# Indices 1 2 3 4 5 6 
#
# 1 0.020653 -0.014565 -0.002640 0.000003 0.000910 0.000000
# 2 -0.014565 0.029243 -0.004742 -0.000004 -0.007870 0.000000
# 3 -0.002640 -0.004742 0.010270 -0.000001 0.003121 0.000000
# 4 0.000003 -0.000004 -0.000001 0.042629 0.000003 -0.003721
# 5 0.000910 -0.007870 0.003121 0.000003 0.040684 0.000000
# 6 0.000000 0.000000 0.000000 -0.003721 0.000000 0.029168
#
#
# Mechanical properties :
#
#
# Convention : Reuss Voigt Hill
#
# Bulk Modulus (GPa) = 61.45987 66.12177 63.79082
# Shear Modulus (GPa) = 22.52611 26.81739 24.67175
#
# Velocity S-wave (km/s) = 3.43222 3.74490 3.59196
# Velocity P-wave (km/s) = 6.91719 7.29915 7.11073
#
# Compressibility (1/GPa) = 0.01627078
#
# Stress axis : x y z
#
# Youngs Moduli (GPa) = 48.41911 34.19670 97.37290
#
# Poissons Ratio (x) = 0.49808 0.25710
# Poissons Ratio (y) = 0.70524 0.46171
# Poissons Ratio (z) = 0.12785 0.16215
#
# Static dielectric constant tensor:
#      x y z
#    x 3.189830 0.000000 -0.169050 
#    y 0.000000 3.451820 0.000000 
#    z -0.169050 0.000000 3.884550 
# 
# 
# High freq. dielectric constant tensor:
#      x y z
#    x 1.725660 0.000000 -0.007050 
#    y 0.000000 1.742130 0.000000 
#    z -0.007050 0.000000 1.768060 
# 
# From -- ./inp_files/292407.got.cif
#   From: 2010.06.25/outbox.cif.g09.slc.cpg/sg12_147_cif.got.tgz:292407.got - 2010.06.28 00:19:55.
