data_PCOD8087736
_publ_section_title
;
Structure prediction by ZEFSAII (Michael W. Deem and Ramdas Pophale) SiO2 
 PCOD8087736
Probable space group: C 2/M
;
_chemical_formula_sum "Si O2"
_cell_formula_units_Z 64
_cell_length_a 20.242289
_cell_length_b 9.324653
_cell_length_c 21.305021
_cell_angle_alpha 90.000000
_cell_angle_beta 72.237562
_cell_angle_gamma 90.000000
_cell_volume 3829.671724
_symmetry_space_group_name_H-M "C 2/M"
_symmetry_group_IT_number 12
_symmetry_cell_setting 'monoclinic'
loop_
_space_group_symop_operation_xyz
x,y,z
-x,y,-z
-x,-y,-z
x,-y,z
1/2+x,1/2+y,z
1/2-x,1/2+y,-z
1/2-x,1/2-y,-z
1/2+x,1/2-y,z
loop_
_atom_site_type_symbol
_atom_site_label
_atom_site_fract_x
_atom_site_fract_y
_atom_site_fract_z
Si Si1 0.348575 0.341151 0.949717
Si Si2 0.254791 0.833691 0.807669
Si Si3 0.685606 0.836293 0.336026
Si Si4 0.052814 0.835920 0.333339
Si Si5 0.055961 0.164513 0.538233
Si Si6 0.805185 0.667446 0.525254
Si Si7 0.801677 0.338492 0.070578
Si Si8 0.613988 0.335757 0.190545
O O1 0.357912 0.500000 0.975229
O O2 0.274654 0.327849 0.936435
O O3 0.405520 0.310830 0.877659
O O4 0.355565 0.231524 0.005352
O O5 0.253007 0.804768 0.732891
O O6 0.196606 0.744874 0.863120
O O7 0.330409 0.782869 0.806892
O O8 0.244905 0.000000 0.827492
O O9 0.617630 0.743276 0.345013
O O10 0.716036 0.806738 0.396106
O O11 0.661178 0.000000 0.335908
O O12 0.049939 0.815985 0.257899
O O13 0.980318 0.787861 0.385428
O O14 0.065262 0.000000 0.348514
O O15 0.118796 0.271516 0.509469
O O16 0.000000 0.184956 0.500000
O O17 0.082709 0.000000 0.533152
O O18 0.804562 0.500000 0.508148
O O19 0.750000 0.750000 0.500000
O O20 0.826069 0.500000 0.075354
O O21 0.643708 0.500000 0.188296
#
# Coordination Sequence:
#
# PCOD8087736 Si02
#       8
#     8   8   8   8   8   8   8   8
#     4   8  13  20  29  42  65  98 135 171 208 250
#     4   9  15  23  35  51  72  99 134 175 218 260
#     4   9  18  30  44  63  86 113 146 187 231 274
#     4   9  16  27  45  66  89 115 147 187 226 269
#     4  10  19  32  51  75  98 123 155 192 235 283
#     4  11  23  37  52  70  95 125 158 196 239 285
#     4   9  15  21  29  44  66  96 135 173 210 253
#     4   8  14  23  34  51  74 103 138 175 214 255
#
# _framework density 16.711615999999999
#
# number of rings (size 3 to 8) (size 9 to 14) (size 15 to 20)
#    0.000    2.875    1.250    1.875    0.000    4.750 
#    0.000    0.000    0.000    0.000    0.000    0.000 
#    0.000    0.000    0.000    1.125    0.000   26.250 
#
# Total GULP energy -396431.188329 kJ/mol
# GULP energy per Si atom -12388.474635 kJ/mol
# Density = 1.667358 g / cm^3
# Si number density = 16.711616 Si / 1000 Ang^3
#
#
#
# Elastic Constant Matrix: (Units=GPa)
#
#
# Indices 1 2 3 4 5 6 
#
# 1 31.7570 26.5420 31.7041 -0.0001 0.1206 -0.0001
# 2 26.5420 102.7766 73.4901 -0.0002 -2.4782 -0.0004
# 3 31.7041 73.4901 170.6232 0.0000 -17.9754 0.0000
# 4 -0.0001 -0.0002 0.0000 26.3022 0.0000 -4.2416
# 5 0.1206 -2.4782 -17.9754 0.0000 10.8933 -0.0001
# 6 -0.0001 -0.0004 0.0000 -4.2416 -0.0001 12.2381
#
#
#
# Elastic Compliance Matrix: (Units=1/GPa)
#
#
# Indices 1 2 3 4 5 6 
#
# 1 0.043858 -0.007001 -0.006479 0.000000 -0.012770 0.000000
# 2 -0.007001 0.015814 -0.006201 0.000000 -0.006558 0.000000
# 3 -0.006479 -0.006201 0.011614 0.000000 0.017825 0.000000
# 4 0.000000 0.000000 0.000000 0.040270 0.000000 0.013957
# 5 -0.012770 -0.006558 0.017825 0.000000 0.119864 0.000001
# 6 0.000000 0.000000 0.000000 0.013957 0.000001 0.086549
#
#
# Mechanical properties :
#
#
# Convention : Reuss Voigt Hill
#
# Bulk Modulus (GPa) = 31.32643 63.18101 47.25372
# Shear Modulus (GPa) = 13.58798 21.44810 17.51804
#
# Velocity S-wave (km/s) = 2.85456 3.58638 3.24119
# Velocity P-wave (km/s) = 5.44524 7.41877 6.50726
#
# Compressibility (1/GPa) = 0.03192193
#
# Stress axis : x y z
#
# Youngs Moduli (GPa) = 22.80112 63.23515 86.10532
#
# Poissons Ratio (x) = 0.44272 0.55789
# Poissons Ratio (y) = 0.15964 0.53396
# Poissons Ratio (z) = 0.14773 0.39214
#
# Static dielectric constant tensor:
#      x y z
#    x 2.773050 0.000000 -0.370100 
#    y 0.000000 3.263490 0.000000 
#    z -0.370100 0.000000 3.957130 
# 
# 
# High freq. dielectric constant tensor:
#      x y z
#    x 1.547180 0.000000 -0.021120 
#    y 0.000000 1.654170 0.000000 
#    z -0.021120 0.000000 1.676320 
# 
# From -- ./inp_files/319099.got.cif
#   From: 2010.06.25/outbox.cif.g09.slc.cpg/sg12_160_cif.got.tgz:319099.got - 2010.06.28 00:19:55.
