data_PCOD8087491
_publ_section_title
;
Structure prediction by ZEFSAII (Michael W. Deem and Ramdas Pophale) SiO2 
 PCOD8087491
Probable space group: C 2/M
;
_chemical_formula_sum "Si O2"
_cell_formula_units_Z 64
_cell_length_a 30.625818
_cell_length_b 8.971036
_cell_length_c 25.609615
_cell_angle_alpha 90.000000
_cell_angle_beta 149.939631
_cell_angle_gamma 90.000000
_cell_volume 3524.479227
_symmetry_space_group_name_H-M "C 2/M"
_symmetry_group_IT_number 12
_symmetry_cell_setting 'monoclinic'
loop_
_space_group_symop_operation_xyz
x,y,z
-x,y,-z
-x,-y,-z
x,-y,z
1/2+x,1/2+y,z
1/2-x,1/2+y,-z
1/2-x,1/2-y,-z
1/2+x,1/2-y,z
loop_
_atom_site_type_symbol
_atom_site_label
_atom_site_fract_x
_atom_site_fract_y
_atom_site_fract_z
Si Si1 0.211665 0.329275 0.583088
Si Si2 0.436952 0.173304 0.648929
Si Si3 0.619021 0.672844 0.838692
Si Si4 0.704509 0.172305 0.239154
Si Si5 0.029896 0.673411 0.121811
Si Si6 0.723801 0.328030 0.049331
Si Si7 0.380956 0.325568 0.694218
Si Si8 0.854075 0.175137 0.919773
O O1 0.223570 0.500000 0.612731
O O2 0.117646 0.299999 0.460501
O O3 0.220584 0.227952 0.643759
O O4 0.285336 0.287368 0.616878
O O5 0.532880 0.234076 0.738132
O O6 0.387657 0.258874 0.643799
O O7 0.440738 0.000000 0.667466
O O8 0.599412 0.500000 0.808763
O O9 0.692750 0.725696 0.874792
O O10 0.649269 0.703250 0.929303
O O11 0.610778 0.202761 0.167653
O O12 0.710862 0.265064 0.192157
O O13 0.720340 0.000000 0.243256
O O14 0.014250 0.500000 0.115728
O O15 0.045052 0.753014 0.192863
O O16 0.945936 0.742834 0.007327
O O17 0.753216 0.500000 0.077763
O O18 0.686377 0.282368 0.066450
O O19 0.400264 0.500000 0.711525
O O20 0.868078 0.000000 0.928236
#
# Coordination Sequence:
#
# PCOD8087491 Si02
#       8
#     8   8   8   8   8   8   8   8
#     4   9  20  36  52  72 101 139 178 214 254 300
#     4  11  21  33  52  77 105 137 172 210 255 306
#     4  10  20  35  56  80 105 133 166 205 251 304
#     4  10  21  35  51  73 103 138 176 218 258 297
#     4  10  20  33  49  73 106 140 174 212 255 302
#     4   9  20  37  54  76 105 134 165 203 251 306
#     4  10  19  32  50  74 105 138 175 214 251 299
#     4  11  21  33  53  77 103 137 174 211 254 307
#
# _framework density 18.158709999999999
#
# number of rings (size 3 to 8) (size 9 to 14) (size 15 to 20)
#    0.000    2.000    0.000    3.750    0.000    7.000 
#    0.000    0.000    0.000    0.750    0.000    5.250 
#    0.000    0.000    0.000    0.000    0.000    0.000 
#
# Total GULP energy -396966.826821 kJ/mol
# GULP energy per Si atom -12405.213338 kJ/mol
# Density = 1.811738 g / cm^3
# Si number density = 18.158710 Si / 1000 Ang^3
#
#
#
# Elastic Constant Matrix: (Units=GPa)
#
#
# Indices 1 2 3 4 5 6 
#
# 1 67.4091 44.8378 42.2845 0.0000 -12.3406 0.0000
# 2 44.8378 100.6427 51.8056 0.0000 -8.7926 0.0000
# 3 42.2845 51.8056 105.0486 0.0000 -7.3521 0.0000
# 4 0.0000 0.0000 0.0000 33.0461 0.0000 -2.1285
# 5 -12.3406 -8.7926 -7.3521 0.0000 21.2472 0.0000
# 6 0.0000 0.0000 0.0000 -2.1285 0.0000 29.5679
#
#
#
# Elastic Compliance Matrix: (Units=1/GPa)
#
#
# Indices 1 2 3 4 5 6 
#
# 1 0.025129 -0.007370 -0.005813 0.000000 0.009534 0.000000
# 2 -0.007370 0.015711 -0.004741 0.000000 0.000580 0.000000
# 3 -0.005813 -0.004741 0.014167 0.000000 -0.000436 0.000000
# 4 0.000000 0.000000 0.000000 0.030402 0.000000 0.002189
# 5 0.009534 0.000580 -0.000436 0.000000 0.052692 0.000000
# 6 0.000000 0.000000 0.000000 0.002189 0.000000 0.033978
#
#
# Mechanical properties :
#
#
# Convention : Reuss Voigt Hill
#
# Bulk Modulus (GPa) = 52.19590 61.21735 56.70662
# Shear Modulus (GPa) = 23.33060 25.71708 24.52384
#
# Velocity S-wave (km/s) = 3.58832 3.76738 3.67894
# Velocity P-wave (km/s) = 6.78047 7.26015 7.02440
#
# Compressibility (1/GPa) = 0.01915859
#
# Stress axis : x y z
#
# Youngs Moduli (GPa) = 39.79488 63.65169 70.58853
#
# Poissons Ratio (x) = 0.46912 0.41034
# Poissons Ratio (y) = 0.29329 0.33463
# Poissons Ratio (z) = 0.23133 0.30174
#
# Static dielectric constant tensor:
#      x y z
#    x 3.149820 0.000000 -0.118430 
#    y 0.000000 3.437570 0.000000 
#    z -0.118430 0.000000 3.338540 
# 
# 
# High freq. dielectric constant tensor:
#      x y z
#    x 1.682510 0.000000 -0.011420 
#    y 0.000000 1.717330 0.000000 
#    z -0.011420 0.000000 1.699270 
# 
# From -- ./inp_files/353331.got.cif
#   From: 2010.06.25/outbox.cif.g09.slc.cpg/sg12_177_cif.got.tgz:353331.got - 2010.06.28 00:19:55.
