data_PCOD8087759
_publ_section_title
;
Structure prediction by ZEFSAII (Michael W. Deem and Ramdas Pophale) SiO2 
 PCOD8087759
Probable space group: C 2/M
;
_chemical_formula_sum "Si O2"
_cell_formula_units_Z 52
_cell_length_a 27.040379
_cell_length_b 14.463432
_cell_length_c 19.916780
_cell_angle_alpha 90.000000
_cell_angle_beta 20.814028
_cell_angle_gamma 90.000000
_cell_volume 2767.848147
_symmetry_space_group_name_H-M "C 2/M"
_symmetry_group_IT_number 12
_symmetry_cell_setting 'monoclinic'
loop_
_space_group_symop_operation_xyz
x,y,z
-x,y,-z
-x,-y,-z
x,-y,z
1/2+x,1/2+y,z
1/2-x,1/2+y,-z
1/2-x,1/2-y,-z
1/2+x,1/2-y,z
loop_
_atom_site_type_symbol
_atom_site_label
_atom_site_fract_x
_atom_site_fract_y
_atom_site_fract_z
Si Si1 0.495699 0.245077 0.582104
Si Si2 0.500000 0.705765 0.000000
Si Si3 0.785372 0.104923 0.468480
Si Si4 0.745190 0.105577 0.261583
Si Si5 0.805270 0.176327 0.041791
Si Si6 0.543923 0.767771 0.803582
Si Si7 0.489766 0.397313 0.326455
O O1 0.500000 0.280310 0.500000
O O2 0.605675 0.163193 0.453122
O O3 0.343399 0.209692 0.795707
O O4 0.531777 0.329827 0.584046
O O5 0.366829 0.640997 0.155916
O O6 0.481758 0.776542 0.084806
O O7 0.629019 0.144603 0.668707
O O8 0.877052 0.169153 0.303950
O O9 0.848671 0.109316 0.462585
O O10 0.783273 0.000000 0.443179
O O11 0.789907 0.111258 0.126714
O O12 0.711871 0.000000 0.321752
O O13 0.877149 0.123320 0.889242
O O14 0.900516 0.264239 0.943172
O O15 0.509445 0.500000 0.330637
#
# Coordination Sequence:
#
# PCOD8087759 Si02
#       7
#     8   4   8   8   8   8   8
#     4  10  21  35  51  74 102 131 166 207 251 296
#     4  10  19  32  51  76 106 132 161 200 251 298
#     4   9  18  33  53  75  98 131 171 204 244 296
#     4  10  20  33  52  77 104 132 162 202 250 297
#     4   9  19  34  52  73 100 133 169 204 243 295
#     4   9  18  33  52  74 104 134 161 205 250 290
#     4  10  19  33  54  74  96 132 172 208 245 291
#
# _framework density 18.787158000000002
#
# number of rings (size 3 to 8) (size 9 to 14) (size 15 to 20)
#    0.000    2.462    0.000    2.077    0.000    8.000 
#    0.000    1.154    0.000    5.538    0.000    0.000 
#    0.000    0.000    0.000    0.000    0.000    0.000 
#
# Total GULP energy -322379.294445 kJ/mol
# GULP energy per Si atom -12399.203632 kJ/mol
# Density = 1.874440 g / cm^3
# Si number density = 18.787158 Si / 1000 Ang^3
#
#
#
# Elastic Constant Matrix: (Units=GPa)
#
#
# Indices 1 2 3 4 5 6 
#
# 1 48.8423 10.4794 19.9200 0.0001 -5.2572 0.0000
# 2 10.4794 68.3795 33.1286 0.0001 -1.7388 0.0000
# 3 19.9200 33.1286 110.1124 0.0005 -16.6478 -0.0003
# 4 0.0001 0.0001 0.0005 18.7316 -0.0002 0.8631
# 5 -5.2572 -1.7388 -16.6478 -0.0002 27.9354 0.0001
# 6 0.0000 0.0000 -0.0003 0.8631 0.0001 21.4363
#
#
#
# Elastic Compliance Matrix: (Units=1/GPa)
#
#
# Indices 1 2 3 4 5 6 
#
# 1 0.022398 -0.001844 -0.003162 0.000000 0.002216 0.000000
# 2 -0.001844 0.017396 -0.005263 0.000000 -0.002401 0.000000
# 3 -0.003162 -0.005263 0.012196 0.000000 0.006346 0.000000
# 4 0.000000 0.000000 0.000000 0.053485 0.000000 -0.002154
# 5 0.002216 -0.002401 0.006346 0.000000 0.039846 0.000000
# 6 0.000000 0.000000 0.000000 -0.002154 0.000000 0.046737
#
#
# Mechanical properties :
#
#
# Convention : Reuss Voigt Hill
#
# Bulk Modulus (GPa) = 31.79502 39.37667 35.58584
# Shear Modulus (GPa) = 22.41347 24.54107 23.47727
#
# Velocity S-wave (km/s) = 3.45776 3.61815 3.53887
# Velocity P-wave (km/s) = 5.73603 6.20158 5.97334
#
# Compressibility (1/GPa) = 0.03145147
#
# Stress axis : x y z
#
# Youngs Moduli (GPa) = 44.64706 57.48549 81.99082
#
# Poissons Ratio (x) = 0.10602 0.25926
# Poissons Ratio (y) = 0.08234 0.43152
# Poissons Ratio (z) = 0.14117 0.30255
#
# Static dielectric constant tensor:
#      x y z
#    x 3.396800 0.000000 -0.119500 
#    y 0.000000 3.209340 0.000000 
#    z -0.119500 0.000000 3.544080 
# 
# 
# High freq. dielectric constant tensor:
#      x y z
#    x 1.726600 0.000000 -0.004040 
#    y 0.000000 1.705480 0.000000 
#    z -0.004040 0.000000 1.737260 
# 
# From -- ./inp_files/316471.got.cif
#   From: 2010.06.25/outbox.cif.g09.slc.cpg/sg12_159_cif.got.tgz:316471.got - 2010.06.28 00:19:55.
