data_PCOD8087585
_publ_section_title
;
Structure prediction by ZEFSAII (Michael W. Deem and Ramdas Pophale) SiO2 
 PCOD8087585
Probable space group: C 2/M
;
_chemical_formula_sum "Si O2"
_cell_formula_units_Z 64
_cell_length_a 25.626858
_cell_length_b 8.947231
_cell_length_c 16.864061
_cell_angle_alpha 90.000000
_cell_angle_beta 91.026810
_cell_angle_gamma 90.000000
_cell_volume 3866.129812
_symmetry_space_group_name_H-M "C 2/M"
_symmetry_group_IT_number 12
_symmetry_cell_setting 'monoclinic'
loop_
_space_group_symop_operation_xyz
x,y,z
-x,y,-z
-x,-y,-z
x,-y,z
1/2+x,1/2+y,z
1/2-x,1/2+y,-z
1/2-x,1/2-y,-z
1/2+x,1/2-y,z
loop_
_atom_site_type_symbol
_atom_site_label
_atom_site_fract_x
_atom_site_fract_y
_atom_site_fract_z
Si Si1 0.089922 0.322522 0.319435
Si Si2 0.437985 0.834742 0.991191
Si Si3 0.308673 0.824106 0.584823
Si Si4 0.947430 0.673427 0.162217
Si Si5 0.557699 0.324200 0.164800
Si Si6 0.004402 0.174002 0.592501
Si Si7 0.400536 0.826965 0.326034
Si Si8 0.204315 0.674505 0.594873
O O1 0.087946 0.500000 0.313038
O O2 0.140144 0.264399 0.368991
O O3 0.093674 0.253052 0.231893
O O4 0.038045 0.268829 0.361728
O O5 0.420518 0.722011 0.921504
O O6 0.416900 0.000000 0.969176
O O7 0.500000 0.836507 0.000000
O O8 0.418137 0.784431 0.078462
O O9 0.257027 0.756195 0.623993
O O10 0.312489 0.772155 0.493549
O O11 0.305075 0.000000 0.592395
O O12 0.965606 0.500000 0.159497
O O13 0.907485 0.702414 0.232585
O O14 0.998292 0.773697 0.176920
O O15 0.561469 0.500000 0.173897
O O16 0.061379 0.223996 0.621970
O O17 0.000000 0.209395 0.500000
O O18 0.995967 0.000000 0.611004
O O19 0.341539 0.781615 0.345794
O O20 0.411324 0.000000 0.348316
O O21 0.215956 0.500000 0.595761
#
# Coordination Sequence:
#
# PCOD8087585 Si02
#       8
#     8   8   8   8   8   8   8   8
#     4  11  21  34  51  69  94 129 167 200 237 289
#     4   8  15  28  45  64  91 127 163 192 229 281
#     4   9  19  34  51  70  92 123 163 204 244 284
#     4   9  17  30  47  68  95 129 163 195 231 283
#     4  11  20  29  44  69  99 127 159 197 242 285
#     4  11  23  34  45  68 100 130 160 196 241 287
#     4  10  19  32  51  72  96 129 164 195 235 288
#     4   9  18  33  52  73  94 120 160 204 243 284
#
# _framework density 16.554023000000001
#
# number of rings (size 3 to 8) (size 9 to 14) (size 15 to 20)
#    0.000    2.250    1.250    3.375    0.000    5.750 
#    0.000    2.500    0.000    0.000    0.000    0.875 
#    0.000    0.000    0.000    0.000    0.000    0.000 
#
# Total GULP energy -396779.090998 kJ/mol
# GULP energy per Si atom -12399.346594 kJ/mol
# Density = 1.651635 g / cm^3
# Si number density = 16.554023 Si / 1000 Ang^3
#
#
#
# Elastic Constant Matrix: (Units=GPa)
#
#
# Indices 1 2 3 4 5 6 
#
# 1 65.1654 17.9328 31.2365 0.0000 -8.0992 0.0000
# 2 17.9328 59.9443 34.9567 0.0000 -0.1812 0.0000
# 3 31.2365 34.9567 101.5309 0.0000 -12.8874 0.0000
# 4 0.0000 0.0000 0.0000 22.1026 0.0000 0.8109
# 5 -8.0992 -0.1812 -12.8874 0.0000 19.6137 0.0000
# 6 0.0000 0.0000 0.0000 0.8109 0.0000 22.9673
#
#
#
# Elastic Compliance Matrix: (Units=1/GPa)
#
#
# Indices 1 2 3 4 5 6 
#
# 1 0.018802 -0.003270 -0.004012 0.000000 0.005098 0.000000
# 2 -0.003270 0.021890 -0.007284 0.000000 -0.005934 0.000000
# 3 -0.004012 -0.007284 0.014589 0.000000 0.007862 0.000000
# 4 0.000000 0.000000 0.000000 0.045302 0.000000 -0.001600
# 5 0.005098 -0.005934 0.007862 0.000000 0.058201 0.000000
# 6 0.000000 0.000000 0.000000 -0.001600 0.000000 0.043597
#
#
# Mechanical properties :
#
#
# Convention : Reuss Voigt Hill
#
# Bulk Modulus (GPa) = 38.24043 43.87697 41.05870
# Shear Modulus (GPa) = 20.81352 22.43771 21.62562
#
# Velocity S-wave (km/s) = 3.54970 3.68560 3.61829
# Velocity P-wave (km/s) = 6.32068 6.68389 6.50482
#
# Compressibility (1/GPa) = 0.02615034
#
# Stress axis : x y z
#
# Youngs Moduli (GPa) = 53.18595 45.68286 68.54398
#
# Poissons Ratio (x) = 0.14938 0.27497
# Poissons Ratio (y) = 0.17392 0.49927
# Poissons Ratio (z) = 0.21336 0.33275
#
# Static dielectric constant tensor:
#      x y z
#    x 2.893730 0.000000 -0.071030 
#    y 0.000000 3.077280 0.000000 
#    z -0.071030 0.000000 3.543220 
# 
# 
# High freq. dielectric constant tensor:
#      x y z
#    x 1.599000 0.000000 -0.007340 
#    y 0.000000 1.637820 0.000000 
#    z -0.007340 0.000000 1.645760 
# 
# From -- ./inp_files/287731.got.cif
#   From: 2010.06.25/outbox.cif.g09.slc.cpg/sg12_144_cif.got.tgz:287731.got - 2010.06.28 00:19:55.
