data_PCOD8087410
_publ_section_title
;
Structure prediction by ZEFSAII (Michael W. Deem and Ramdas Pophale) SiO2 
 PCOD8087410
Probable space group: C 2/M
;
_chemical_formula_sum "Si O2"
_cell_formula_units_Z 64
_cell_length_a 30.806556
_cell_length_b 9.523805
_cell_length_c 12.124687
_cell_angle_alpha 90.000000
_cell_angle_beta 98.869944
_cell_angle_gamma 90.000000
_cell_volume 3514.787693
_symmetry_space_group_name_H-M "C 2/M"
_symmetry_group_IT_number 12
_symmetry_cell_setting 'monoclinic'
loop_
_space_group_symop_operation_xyz
x,y,z
-x,y,-z
-x,-y,-z
x,-y,z
1/2+x,1/2+y,z
1/2-x,1/2+y,-z
1/2-x,1/2-y,-z
1/2+x,1/2-y,z
loop_
_atom_site_type_symbol
_atom_site_label
_atom_site_fract_x
_atom_site_fract_y
_atom_site_fract_z
Si Si1 0.962455 0.150438 0.402466
Si Si2 0.506997 0.841514 0.243335
Si Si3 0.575584 0.156660 0.917598
Si Si4 0.629900 0.338220 0.096303
Si Si5 0.888918 0.659170 0.464278
Si Si6 0.650736 0.158853 0.777575
Si Si7 0.207009 0.836903 0.955937
Si Si8 0.608486 0.838592 0.285144
O O1 0.981583 0.238384 0.311658
O O2 0.927428 0.234204 0.458784
O O3 0.000000 0.111758 0.500000
O O4 0.943184 0.000000 0.351312
O O5 0.477142 0.833287 0.120908
O O6 0.557314 0.795106 0.248047
O O7 0.506264 0.000000 0.291088
O O8 0.602607 0.184292 0.813680
O O9 0.587226 0.000000 0.965325
O O10 0.589473 0.267666 0.015342
O O11 0.618091 0.500000 0.111552
O O12 0.636653 0.260858 0.215924
O O13 0.674683 0.320378 0.046580
O O14 0.906981 0.500000 0.462420
O O15 0.851758 0.682857 0.355910
O O16 0.873069 0.686666 0.583587
O O17 0.685340 0.270100 0.838383
O O18 0.666912 0.000000 0.809079
O O19 0.217953 0.000000 0.937036
O O20 0.250000 0.750000 0.000000
O O21 0.615268 0.000000 0.253274
#
# Coordination Sequence:
#
# PCOD8087410 Si02
#       8
#     8   8   8   8   8   8   8   8
#     4  11  21  29  42  69 103 140 183 233 279 312
#     4  10  19  32  50  71  98 139 190 236 269 305
#     4   9  17  31  52  74  99 136 182 228 269 306
#     4  10  22  38  54  75 108 140 169 211 267 324
#     4  10  19  33  53  75 103 142 186 224 262 308
#     4   9  17  31  54  83 110 136 168 215 267 312
#     4  10  21  38  62  89 110 133 162 204 260 318
#     4  10  21  34  52  74 102 145 191 227 257 303
#
# _framework density 18.208783
#
# number of rings (size 3 to 8) (size 9 to 14) (size 15 to 20)
#    0.000    2.125    2.500    1.125    0.000    4.500 
#    0.000    2.500    0.000    0.750    0.000    0.000 
#    0.000    0.000    0.000    0.000    0.000    0.000 
#
# Total GULP energy -396611.869486 kJ/mol
# GULP energy per Si atom -12394.120921 kJ/mol
# Density = 1.816734 g / cm^3
# Si number density = 18.208783 Si / 1000 Ang^3
#
#
#
# Elastic Constant Matrix: (Units=GPa)
#
#
# Indices 1 2 3 4 5 6 
#
# 1 55.4202 39.6650 33.7035 0.0000 16.1165 0.0000
# 2 39.6650 120.5776 64.7617 0.0000 3.7295 0.0000
# 3 33.7035 64.7617 116.3071 0.0000 3.9085 0.0000
# 4 0.0000 0.0000 0.0000 1.7354 0.0000 -0.8937
# 5 16.1165 3.7295 3.9085 0.0000 19.2915 0.0000
# 6 0.0000 0.0000 0.0000 -0.8937 0.0000 23.7941
#
#
#
# Elastic Compliance Matrix: (Units=1/GPa)
#
#
# Indices 1 2 3 4 5 6 
#
# 1 0.034078 -0.007948 -0.004575 0.000000 -0.026006 0.000000
# 2 -0.007948 0.013703 -0.005499 0.000000 0.005105 0.000000
# 3 -0.004575 -0.005499 0.012909 0.000000 0.002270 0.000000
# 4 0.000000 0.000000 0.000000 0.587599 0.000000 0.022069
# 5 -0.026006 0.005105 0.002270 0.000000 0.072115 0.000000
# 6 0.000000 0.000000 0.000000 0.022069 0.000000 0.042856
#
#
# Mechanical properties :
#
#
# Convention : Reuss Voigt Hill
#
# Bulk Modulus (GPa) = 40.57483 63.17392 51.87438
# Shear Modulus (GPa) = 6.19179 19.24252 12.71715
#
# Velocity S-wave (km/s) = 1.84603 3.25433 2.64561
# Velocity P-wave (km/s) = 5.18413 6.99217 6.15490
#
# Compressibility (1/GPa) = 0.02464582
#
# Stress axis : x y z
#
# Youngs Moduli (GPa) = 29.34456 72.97414 77.46415
#
# Poissons Ratio (x) = 0.58003 0.35442
# Poissons Ratio (y) = 0.23324 0.42594
# Poissons Ratio (z) = 0.13426 0.40125
#
# Static dielectric constant tensor:
#      x y z
#    x 3.026700 0.000000 0.075030 
#    y 0.000000 3.605690 0.000000 
#    z 0.075030 0.000000 3.389450 
# 
# 
# High freq. dielectric constant tensor:
#      x y z
#    x 1.662500 0.000000 0.009330 
#    y 0.000000 1.717050 0.000000 
#    z 0.009330 0.000000 1.704290 
# 
# From -- ./inp_files/187506.got.cif
#   From: 2010.06.25/outbox.cif.g09.slc.cpg/sg12_94_cif.got.tgz:187506.got - 2010.06.28 00:19:55.
