data_PCOD8087731
_publ_section_title
;
Structure prediction by ZEFSAII (Michael W. Deem and Ramdas Pophale) SiO2 
 PCOD8087731
Probable space group: C 2/M
;
_chemical_formula_sum "Si O2"
_cell_formula_units_Z 64
_cell_length_a 31.420547
_cell_length_b 8.578509
_cell_length_c 14.498870
_cell_angle_alpha 90.000000
_cell_angle_beta 62.156746
_cell_angle_gamma 90.000000
_cell_volume 3455.606516
_symmetry_space_group_name_H-M "C 2/M"
_symmetry_group_IT_number 12
_symmetry_cell_setting 'monoclinic'
loop_
_space_group_symop_operation_xyz
x,y,z
-x,y,-z
-x,-y,-z
x,-y,z
1/2+x,1/2+y,z
1/2-x,1/2+y,-z
1/2-x,1/2-y,-z
1/2+x,1/2-y,z
loop_
_atom_site_type_symbol
_atom_site_label
_atom_site_fract_x
_atom_site_fract_y
_atom_site_fract_z
Si Si1 0.474014 0.182649 0.675503
Si Si2 0.426967 0.181863 0.224046
Si Si3 0.076583 0.818242 0.577895
Si Si4 0.196102 0.819859 0.160846
Si Si5 0.528891 0.317636 0.127292
Si Si6 0.613431 0.818035 0.362970
Si Si7 0.202226 0.182430 0.943981
Si Si8 0.613798 0.682675 0.907080
O O1 0.522813 0.272567 0.600629
O O2 0.457314 0.221498 0.795699
O O3 0.432266 0.239838 0.649722
O O4 0.484063 0.000000 0.655374
O O5 0.408397 0.228485 0.344160
O O6 0.475220 0.276383 0.148845
O O7 0.386528 0.226302 0.189752
O O8 0.438437 0.000000 0.210704
O O9 0.113698 0.772202 0.459920
O O10 0.079338 0.000000 0.595795
O O11 0.162040 0.717014 0.259225
O O12 0.250957 0.780309 0.130805
O O13 0.185852 0.000000 0.191406
O O14 0.185701 0.777751 0.064742
O O15 0.532512 0.500000 0.146605
O O16 0.566056 0.269136 0.010858
O O17 0.610182 0.000000 0.386556
O O18 0.160250 0.235591 0.917661
O O19 0.214159 0.000000 0.923617
O O20 0.615288 0.500000 0.885723
#
# Coordination Sequence:
#
# PCOD8087731 Si02
#       8
#     8   8   8   8   8   8   8   8
#     4  10  20  33  50  75 108 141 173 212 257 306
#     4  11  22  35  51  73 104 139 176 218 261 305
#     4  11  22  36  54  74 101 138 178 218 258 304
#     4  10  20  35  56  82 109 137 172 210 253 308
#     4  10  19  32  51  75 106 141 176 214 255 304
#     4  11  22  35  53  77 106 139 174 213 259 308
#     4   9  19  36  56  79 109 140 169 209 259 307
#     4  10  20  34  53  76 103 138 178 215 256 307
#
# _framework density 18.520627000000001
#
# number of rings (size 3 to 8) (size 9 to 14) (size 15 to 20)
#    0.000    1.750    0.000    6.750    0.000    8.000 
#    0.000    0.000    0.000    0.750    0.000    0.000 
#    0.000    0.000    0.000    0.000    0.000    0.000 
#
# Total GULP energy -396946.566097 kJ/mol
# GULP energy per Si atom -12404.580191 kJ/mol
# Density = 1.847847 g / cm^3
# Si number density = 18.520627 Si / 1000 Ang^3
#
#
#
# Elastic Constant Matrix: (Units=GPa)
#
#
# Indices 1 2 3 4 5 6 
#
# 1 101.6088 20.8782 51.1331 0.0000 18.2887 0.0000
# 2 20.8782 52.0838 21.1348 0.0000 1.5735 0.0000
# 3 51.1331 21.1348 101.4203 0.0000 6.1166 0.0000
# 4 0.0000 0.0000 0.0000 29.7077 0.0000 1.6260
# 5 18.2887 1.5735 6.1166 0.0000 19.0790 0.0000
# 6 0.0000 0.0000 0.0000 1.6260 0.0000 28.1059
#
#
#
# Elastic Compliance Matrix: (Units=1/GPa)
#
#
# Indices 1 2 3 4 5 6 
#
# 1 0.016291 -0.003410 -0.006708 0.000000 -0.013185 0.000000
# 2 -0.003410 0.021689 -0.002947 0.000000 0.002425 0.000000
# 3 -0.006708 -0.002947 0.013719 0.000000 0.002275 0.000000
# 4 0.000000 0.000000 0.000000 0.033768 0.000000 -0.001954
# 5 -0.013185 0.002425 0.002275 0.000000 0.064123 0.000000
# 6 0.000000 0.000000 0.000000 -0.001954 0.000000 0.035693
#
#
# Mechanical properties :
#
#
# Convention : Reuss Voigt Hill
#
# Bulk Modulus (GPa) = 39.10864 49.04504 44.07684
# Shear Modulus (GPa) = 22.73399 26.17632 24.45516
#
# Velocity S-wave (km/s) = 3.50736 3.76355 3.63771
# Velocity P-wave (km/s) = 6.12897 6.73977 6.44161
#
# Compressibility (1/GPa) = 0.02556980
#
# Stress axis : x y z
#
# Youngs Moduli (GPa) = 61.38358 46.10566 72.89363
#
# Poissons Ratio (x) = 0.15723 0.48894
# Poissons Ratio (y) = 0.20933 0.21480
# Poissons Ratio (z) = 0.41174 0.13586
#
# Static dielectric constant tensor:
#      x y z
#    x 3.335630 0.000000 0.131570 
#    y 0.000000 3.396530 0.000000 
#    z 0.131570 0.000000 3.370700 
# 
# 
# High freq. dielectric constant tensor:
#      x y z
#    x 1.701370 0.000000 0.012660 
#    y 0.000000 1.725940 0.000000 
#    z 0.012660 0.000000 1.713870 
# 
# From -- ./inp_files/249008.got.cif
#   From: 2010.06.25/outbox.cif.g09.slc.cpg/sg12_125_cif.got.tgz:249008.got - 2010.06.28 00:19:55.
