data_PCOD8087264
_publ_section_title
;
Structure prediction by ZEFSAII (Michael W. Deem and Ramdas Pophale) SiO2 
 PCOD8087264
Probable space group: C 2/M
;
_chemical_formula_sum "Si O2"
_cell_formula_units_Z 52
_cell_length_a 24.675926
_cell_length_b 23.053089
_cell_length_c 4.993508
_cell_angle_alpha 90.000000
_cell_angle_beta 106.381819
_cell_angle_gamma 90.000000
_cell_volume 2725.270674
_symmetry_space_group_name_H-M "C 2/M"
_symmetry_group_IT_number 12
_symmetry_cell_setting 'monoclinic'
loop_
_space_group_symop_operation_xyz
x,y,z
-x,y,-z
-x,-y,-z
x,-y,z
1/2+x,1/2+y,z
1/2-x,1/2+y,-z
1/2-x,1/2-y,-z
1/2+x,1/2-y,z
loop_
_atom_site_type_symbol
_atom_site_label
_atom_site_fract_x
_atom_site_fract_y
_atom_site_fract_z
Si Si1 0.588491 0.882198 0.554995
Si Si2 0.674715 0.247715 0.154814
Si Si3 0.960675 0.500000 0.689840
Si Si4 0.061542 0.313704 0.012353
Si Si5 0.270316 0.435876 0.444578
Si Si6 0.302079 0.063393 0.155865
Si Si7 0.789625 0.814123 0.294020
O O1 0.587192 0.834689 0.326158
O O2 0.652132 0.886274 0.751064
O O3 0.574912 0.941664 0.383334
O O4 0.551061 0.862937 0.764452
O O5 0.610494 0.229892 0.982466
O O6 0.721262 0.195777 0.203814
O O7 0.677157 0.272091 0.458541
O O8 0.690080 0.300068 0.976179
O O9 0.000000 0.500000 0.500000
O O10 0.000000 0.500000 0.000000
O O11 0.000000 0.286189 0.000000
O O12 0.300904 0.500000 0.469092
O O13 0.250849 0.424012 0.722118
O O14 0.306640 0.380772 0.392798
O O15 0.215871 0.437376 0.177287
O O16 0.327895 0.000000 0.263617
#
# Coordination Sequence:
#
# PCOD8087264 Si02
#       7
#     8   8   4   8   8   8   8
#     4  12  22  37  53  69  99 136 183 232 266 313
#     4  10  21  35  56  77 105 139 175 227 259 320
#     4  12  24  36  48  66  92 130 180 234 278 302
#     4  12  25  39  55  75 102 139 184 227 278 316
#     4  10  20  32  53  80 114 137 167 216 270 333
#     4  10  19  32  48  74 102 140 177 211 264 312
#     4  10  19  35  55  82 105 134 176 213 274 317
#
# _framework density 19.080673000000001
#
# number of rings (size 3 to 8) (size 9 to 14) (size 15 to 20)
#    0.000    1.231    0.769    7.385    0.000    2.462 
#    0.000    0.000    0.000    0.000    0.000    0.000 
#    0.000    3.692    0.000    0.000    0.000    0.000 
#
# Total GULP energy -322146.782595 kJ/mol
# GULP energy per Si atom -12390.260869 kJ/mol
# Density = 1.903724 g / cm^3
# Si number density = 19.080673 Si / 1000 Ang^3
#
#
#
# Elastic Constant Matrix: (Units=GPa)
#
#
# Indices 1 2 3 4 5 6 
#
# 1 64.5525 32.8316 16.8520 0.0000 4.6709 0.0000
# 2 32.8316 75.6552 0.2303 0.0000 4.4505 0.0000
# 3 16.8520 0.2303 76.2018 0.0000 -6.9734 0.0000
# 4 0.0000 0.0000 0.0000 19.3664 0.0000 -0.1202
# 5 4.6709 4.4505 -6.9734 0.0000 26.8673 0.0000
# 6 0.0000 0.0000 0.0000 -0.1202 0.0000 21.9001
#
#
#
# Elastic Compliance Matrix: (Units=1/GPa)
#
#
# Indices 1 2 3 4 5 6 
#
# 1 0.021778 -0.009224 -0.005116 0.000000 -0.003586 0.000000
# 2 -0.009224 0.017260 0.001918 0.000000 -0.000757 0.000000
# 3 -0.005116 0.001918 0.014649 0.000000 0.004374 0.000000
# 4 0.000000 0.000000 0.000000 0.051638 0.000000 0.000283
# 5 -0.003586 -0.000757 0.004374 0.000000 0.039104 0.000000
# 6 0.000000 0.000000 0.000000 0.000283 0.000000 0.045663
#
#
# Mechanical properties :
#
#
# Convention : Reuss Voigt Hill
#
# Bulk Modulus (GPa) = 34.67173 35.13748 34.90460
# Shear Modulus (GPa) = 22.26672 24.72645 23.49658
#
# Velocity S-wave (km/s) = 3.41981 3.60375 3.51299
# Velocity P-wave (km/s) = 5.81413 5.98091 5.89811
#
# Compressibility (1/GPa) = 0.02884194
#
# Stress axis : x y z
#
# Youngs Moduli (GPa) = 45.91802 57.93887 68.26393
#
# Poissons Ratio (x) = 0.53444 0.34927
# Poissons Ratio (y) = 0.42356 -0.13096
# Poissons Ratio (z) = 0.23494 -0.11115
#
# Static dielectric constant tensor:
#      x y z
#    x 3.160940 0.000000 -0.185710 
#    y 0.000000 3.442770 0.000000 
#    z -0.185710 0.000000 3.622600 
# 
# 
# High freq. dielectric constant tensor:
#      x y z
#    x 1.690890 0.000000 -0.026060 
#    y 0.000000 1.727000 0.000000 
#    z -0.026060 0.000000 1.765790 
# 
# From -- ./inp_files/25468.got.cif
#   From: 2010.06.25/outbox.cif.g09.slc.cpg/sg12_13_cif.got.tgz:25468.got - 2010.06.28 00:19:55.
