data_PCOD8087384
_publ_section_title
;
Structure prediction by ZEFSAII (Michael W. Deem and Ramdas Pophale) SiO2 
 PCOD8087384
Probable space group: C 2/M
;
_chemical_formula_sum "Si O2"
_cell_formula_units_Z 56
_cell_length_a 22.618611
_cell_length_b 8.979174
_cell_length_c 21.553669
_cell_angle_alpha 90.000000
_cell_angle_beta 131.680552
_cell_angle_gamma 90.000000
_cell_volume 3269.377122
_symmetry_space_group_name_H-M "C 2/M"
_symmetry_group_IT_number 12
_symmetry_cell_setting 'monoclinic'
loop_
_space_group_symop_operation_xyz
x,y,z
-x,y,-z
-x,-y,-z
x,-y,z
1/2+x,1/2+y,z
1/2-x,1/2+y,-z
1/2-x,1/2-y,-z
1/2+x,1/2-y,z
loop_
_atom_site_type_symbol
_atom_site_label
_atom_site_fract_x
_atom_site_fract_y
_atom_site_fract_z
Si Si1 0.315831 0.670835 0.469771
Si Si2 0.361377 0.172413 0.622885
Si Si3 0.412726 0.327924 0.416468
Si Si4 0.241840 0.164471 0.087953
Si Si5 0.881054 0.323759 0.267056
Si Si6 0.984604 0.176427 0.235702
Si Si7 0.630552 0.165121 0.931223
O O1 0.333568 0.500000 0.500820
O O2 0.358145 0.775571 0.549282
O O3 0.222263 0.701627 0.402129
O O4 0.350677 0.708668 0.427126
O O5 0.425213 0.268115 0.705283
O O6 0.385695 0.000000 0.641063
O O7 0.500000 0.286116 0.500000
O O8 0.408506 0.500000 0.392816
O O9 0.389574 0.223099 0.343685
O O10 0.292695 0.222508 0.182333
O O11 0.300982 0.158616 0.071518
O O12 0.207804 0.000000 0.077304
O O13 0.167345 0.270327 0.020882
O O14 0.893365 0.500000 0.267423
O O15 0.946870 0.241957 0.271978
O O16 0.940256 0.231623 0.142808
O O17 0.980570 0.000000 0.235551
O O18 0.597474 0.000000 0.921678
#
# Coordination Sequence:
#
# PCOD8087384 Si02
#       7
#     8   8   8   8   8   8   8
#     4   9  19  34  50  70  96 126 157 191 235 280
#     4  10  19  32  50  70  94 123 158 198 234 275
#     4  10  20  33  49  70  97 127 157 190 230 278
#     4   8  15  27  41  61  91 123 153 186 227 276
#     4  10  20  32  47  69  96 126 160 195 232 277
#     4  11  20  30  46  68  96 127 158 194 238 282
#     4   9  16  26  42  65  92 121 154 190 229 276
#
# _framework density 17.128644000000001
#
# number of rings (size 3 to 8) (size 9 to 14) (size 15 to 20)
#    0.000    2.429    0.000    4.286    0.000    6.571 
#    0.000    0.000    0.000    0.000    0.000    1.000 
#    0.000    8.000    0.000    0.000    0.000    0.000 
#
# Total GULP energy -347196.971879 kJ/mol
# GULP energy per Si atom -12399.891853 kJ/mol
# Density = 1.708966 g / cm^3
# Si number density = 17.128644 Si / 1000 Ang^3
#
#
#
# Elastic Constant Matrix: (Units=GPa)
#
#
# Indices 1 2 3 4 5 6 
#
# 1 56.5555 33.7521 44.9325 0.0000 5.5340 0.0000
# 2 33.7521 113.3595 66.5097 0.0000 8.8945 0.0000
# 3 44.9325 66.5097 134.3796 0.0000 9.3275 0.0000
# 4 0.0000 0.0000 0.0000 34.8647 0.0000 2.0038
# 5 5.5340 8.8945 9.3275 0.0000 17.1283 0.0000
# 6 0.0000 0.0000 0.0000 2.0038 0.0000 18.7117
#
#
#
# Elastic Compliance Matrix: (Units=1/GPa)
#
#
# Indices 1 2 3 4 5 6 
#
# 1 0.025199 -0.003458 -0.006520 0.000000 -0.002795 0.000000
# 2 -0.003458 0.013080 -0.005117 0.000000 -0.002888 0.000000
# 3 -0.006520 -0.005117 0.012288 0.000000 -0.001928 0.000000
# 4 0.000000 0.000000 0.000000 0.028860 0.000000 -0.003091
# 5 -0.002795 -0.002888 -0.001928 0.000000 0.061836 0.000000
# 6 0.000000 0.000000 0.000000 -0.003091 0.000000 0.053773
#
#
# Mechanical properties :
#
#
# Convention : Reuss Voigt Hill
#
# Bulk Modulus (GPa) = 49.07570 66.07592 57.57581
# Shear Modulus (GPa) = 21.54989 24.74764 23.14876
#
# Velocity S-wave (km/s) = 3.55085 3.80519 3.68022
# Velocity P-wave (km/s) = 6.74721 7.61354 7.19343
#
# Compressibility (1/GPa) = 0.02037668
#
# Stress axis : x y z
#
# Youngs Moduli (GPa) = 39.68363 76.45273 81.37859
#
# Poissons Ratio (x) = 0.26438 0.53062
# Poissons Ratio (y) = 0.13723 0.41642
# Poissons Ratio (z) = 0.25875 0.39121
#
# Static dielectric constant tensor:
#      x y z
#    x 2.844820 0.000000 0.142980 
#    y 0.000000 3.332390 0.000000 
#    z 0.142980 0.000000 3.382870 
# 
# 
# High freq. dielectric constant tensor:
#      x y z
#    x 1.610550 0.000000 0.014570 
#    y 0.000000 1.671810 0.000000 
#    z 0.014570 0.000000 1.670280 
# 
# From -- ./inp_files/287386.got.cif
#   From: 2010.06.25/outbox.cif.g09.slc.cpg/sg12_144_cif.got.tgz:287386.got - 2010.06.28 00:19:55.
