data_PCOD8087968
_publ_section_title
;
Structure prediction by ZEFSAII (Michael W. Deem and Ramdas Pophale) SiO2 
 PCOD8087968
Probable space group: C 2/M
;
_chemical_formula_sum "Si O2"
_cell_formula_units_Z 56
_cell_length_a 18.891735
_cell_length_b 9.030702
_cell_length_c 25.080826
_cell_angle_alpha 90.000000
_cell_angle_beta 46.200822
_cell_angle_gamma 90.000000
_cell_volume 3088.404052
_symmetry_space_group_name_H-M "C 2/M"
_symmetry_group_IT_number 12
_symmetry_cell_setting 'monoclinic'
loop_
_space_group_symop_operation_xyz
x,y,z
-x,y,-z
-x,-y,-z
x,-y,z
1/2+x,1/2+y,z
1/2-x,1/2+y,-z
1/2-x,1/2-y,-z
1/2+x,1/2-y,z
loop_
_atom_site_type_symbol
_atom_site_label
_atom_site_fract_x
_atom_site_fract_y
_atom_site_fract_z
Si Si1 0.104863 0.173275 0.104660
Si Si2 0.282165 0.327994 0.059129
Si Si3 0.102784 0.667905 0.917656
Si Si4 0.208266 0.826865 0.357392
Si Si5 0.519209 0.831328 0.427545
Si Si6 0.674804 0.324376 0.497548
Si Si7 0.408870 0.172685 0.198750
O O1 0.182510 0.238083 0.105277
O O2 0.000642 0.240695 0.174905
O O3 0.099122 0.000000 0.115263
O O4 0.138516 0.217872 0.027333
O O5 0.257650 0.500000 0.068932
O O6 0.322972 0.283683 0.095120
O O7 0.141664 0.500000 0.903601
O O8 0.097991 0.715637 0.859256
O O9 0.000000 0.685994 0.000000
O O10 0.125352 0.744601 0.365403
O O11 0.209465 0.786992 0.419440
O O12 0.312129 0.774877 0.279976
O O13 0.189593 0.000000 0.358762
O O14 0.500000 0.824481 0.500000
O O15 0.434765 0.743706 0.438759
O O16 0.521855 0.000000 0.405136
O O17 0.671048 0.500000 0.510055
O O18 0.750000 0.250000 0.500000
O O19 0.427951 0.000000 0.196886
#
# Coordination Sequence:
#
# PCOD8087968 Si02
#       7
#     8   8   8   8   8   8   8
#     4  10  20  33  51  74 100 132 171 215 262 311
#     4  10  20  33  51  73  99 130 170 218 263 310
#     4  10  19  32  52  76 101 131 169 214 259 304
#     4   9  19  35  54  77 106 140 173 209 256 309
#     4   9  17  31  53  79 106 136 171 209 249 299
#     4  10  19  33  55  82 109 137 173 213 253 301
#     4  10  20  35  54  76 105 138 172 212 262 312
#
# _framework density 18.132342999999999
#
# number of rings (size 3 to 8) (size 9 to 14) (size 15 to 20)
#    0.000    2.286    1.429    1.714    0.000    4.857 
#    0.000    1.429    0.000    0.000    0.000    0.000 
#    0.000    0.000    0.000    0.000    0.000    0.000 
#
# Total GULP energy -347196.429176 kJ/mol
# GULP energy per Si atom -12399.872471 kJ/mol
# Density = 1.809107 g / cm^3
# Si number density = 18.132343 Si / 1000 Ang^3
#
#
#
# Elastic Constant Matrix: (Units=GPa)
#
#
# Indices 1 2 3 4 5 6 
#
# 1 113.3969 54.2811 41.6911 0.0000 -24.2625 0.0000
# 2 54.2811 74.6399 32.3402 -0.0001 -17.8560 -0.0006
# 3 41.6911 32.3402 84.4160 0.0000 -21.9178 0.0000
# 4 0.0000 -0.0001 0.0000 20.1118 0.0000 -6.3474
# 5 -24.2625 -17.8560 -21.9178 0.0000 29.3805 0.0000
# 6 0.0000 -0.0006 0.0000 -6.3474 0.0000 41.0973
#
#
#
# Elastic Compliance Matrix: (Units=1/GPa)
#
#
# Indices 1 2 3 4 5 6 
#
# 1 0.015010 -0.008456 -0.002839 0.000000 0.005137 0.000000
# 2 -0.008456 0.021866 -0.003179 0.000000 0.003934 0.000000
# 3 -0.002839 -0.003179 0.016564 0.000000 0.008080 0.000000
# 4 0.000000 0.000000 0.000000 0.052270 0.000000 0.008073
# 5 0.005137 0.003934 0.008080 0.000000 0.046697 0.000000
# 6 0.000000 0.000000 0.000000 0.008073 0.000000 0.025579
#
#
# Mechanical properties :
#
#
# Convention : Reuss Voigt Hill
#
# Bulk Modulus (GPa) = 40.83249 58.78641 49.80945
# Shear Modulus (GPa) = 23.24504 27.72727 25.48616
#
# Velocity S-wave (km/s) = 3.58434 3.91469 3.75315
# Velocity P-wave (km/s) = 6.30064 7.27490 6.80523
#
# Compressibility (1/GPa) = 0.02449030
#
# Stress axis : x y z
#
# Youngs Moduli (GPa) = 66.62418 45.73299 60.37105
#
# Poissons Ratio (x) = 0.38673 0.17141
# Poissons Ratio (y) = 0.56339 0.19193
# Poissons Ratio (z) = 0.18917 0.14539
#
# Static dielectric constant tensor:
#      x y z
#    x 3.339600 0.000000 -0.130370 
#    y 0.000000 3.358040 0.000000 
#    z -0.130370 0.000000 3.182180 
# 
# 
# High freq. dielectric constant tensor:
#      x y z
#    x 1.706380 0.000000 -0.015300 
#    y 0.000000 1.708580 0.000000 
#    z -0.015300 0.000000 1.675160 
# 
# From -- ./inp_files/313299.got.cif
#   From: 2010.06.25/outbox.cif.g09.slc.cpg/sg12_157_cif.got.tgz:313299.got - 2010.06.28 00:19:55.
