data_PCOD8087047
_publ_section_title
;
Structure prediction by ZEFSAII (Michael W. Deem and Ramdas Pophale) SiO2 
 PCOD8087047
Probable space group: C 2/M
;
_chemical_formula_sum "Si O2"
_cell_formula_units_Z 64
_cell_length_a 20.051062
_cell_length_b 8.961661
_cell_length_c 20.803380
_cell_angle_alpha 90.000000
_cell_angle_beta 64.260946
_cell_angle_gamma 90.000000
_cell_volume 3367.279118
_symmetry_space_group_name_H-M "C 2/M"
_symmetry_group_IT_number 12
_symmetry_cell_setting 'monoclinic'
loop_
_space_group_symop_operation_xyz
x,y,z
-x,y,-z
-x,-y,-z
x,-y,z
1/2+x,1/2+y,z
1/2-x,1/2+y,-z
1/2-x,1/2-y,-z
1/2+x,1/2-y,z
loop_
_atom_site_type_symbol
_atom_site_label
_atom_site_fract_x
_atom_site_fract_y
_atom_site_fract_z
Si Si1 0.468219 0.674609 0.943978
Si Si2 0.653840 0.824875 0.209293
Si Si3 0.733124 0.173699 0.405691
Si Si4 0.142854 0.673386 0.564483
Si Si5 0.746329 0.826718 0.732922
Si Si6 0.926170 0.673932 0.199177
Si Si7 0.493861 0.825285 0.303668
Si Si8 0.173617 0.675329 0.051807
O O1 0.452513 0.500000 0.942809
O O2 0.530414 0.725203 0.868616
O O3 0.391474 0.760916 0.965432
O O4 0.500000 0.715617 0.000000
O O5 0.720103 0.740275 0.216307
O O6 0.576773 0.758932 0.271128
O O7 0.655288 0.787645 0.133354
O O8 0.663645 0.000000 0.217576
O O9 0.807138 0.232603 0.408070
O O10 0.663205 0.206179 0.481993
O O11 0.716744 0.253156 0.345335
O O12 0.742970 0.000000 0.388312
O O13 0.156485 0.500000 0.576211
O O14 0.056523 0.716649 0.613064
O O15 0.659924 0.792454 0.772153
O O16 0.763760 0.000000 0.722213
O O17 0.945054 0.500000 0.179690
O O18 0.949841 0.729487 0.259546
O O19 0.505290 0.000000 0.293278
O O20 0.179673 0.500000 0.037298
O O21 0.250000 0.750000 0.000000
#
# Coordination Sequence:
#
# PCOD8087047 Si02
#       8
#     8   8   8   8   8   8   8   8
#     4  11  25  42  61  90 124 155 192 243 295 345
#     4  10  22  40  61  83 113 149 191 240 288 343
#     4  10  19  31  52  85 118 150 190 238 292 341
#     4   9  17  32  56  83 114 151 192 237 287 347
#     4  11  23  38  58  84 117 155 194 238 289 347
#     4  10  20  38  62  85 111 150 198 242 287 341
#     4   9  16  35  61  83 108 146 191 236 285 338
#     4  11  24  43  65  89 120 159 199 240 292 354
#
# _framework density 19.006444999999999
#
# number of rings (size 3 to 8) (size 9 to 14) (size 15 to 20)
#    0.000    1.875    2.500    1.500    1.750    3.500 
#    0.000    1.250    0.000    3.750    0.000    0.000 
#    0.000    0.000    0.000    0.000    0.000    0.000 
#
# Total GULP energy -396807.098106 kJ/mol
# GULP energy per Si atom -12400.221816 kJ/mol
# Density = 1.896319 g / cm^3
# Si number density = 19.006445 Si / 1000 Ang^3
#
#
#
# Elastic Constant Matrix: (Units=GPa)
#
#
# Indices 1 2 3 4 5 6 
#
# 1 106.5759 49.9665 48.4997 0.0001 0.7930 0.0000
# 2 49.9665 75.4254 47.8029 0.0001 0.3133 0.0000
# 3 48.4997 47.8029 102.5243 0.0000 -18.3800 0.0000
# 4 0.0001 0.0001 0.0000 31.4983 0.0000 2.2513
# 5 0.7930 0.3133 -18.3800 0.0000 27.8271 0.0000
# 6 0.0000 0.0000 0.0000 2.2513 0.0000 31.7435
#
#
#
# Elastic Compliance Matrix: (Units=1/GPa)
#
#
# Indices 1 2 3 4 5 6 
#
# 1 0.014598 -0.006994 -0.004203 0.000000 -0.003113 0.000000
# 2 -0.006994 0.023383 -0.008627 0.000000 -0.005762 0.000000
# 3 -0.004203 -0.008627 0.017926 0.000000 0.012057 0.000000
# 4 0.000000 0.000000 0.000000 0.031910 0.000000 -0.002263
# 5 -0.003113 -0.005762 0.012057 0.000000 0.044054 0.000000
# 6 0.000000 0.000000 0.000000 -0.002263 0.000000 0.031663
#
#
# Mechanical properties :
#
#
# Convention : Reuss Voigt Hill
#
# Bulk Modulus (GPa) = 61.50343 64.11821 62.81082
# Shear Modulus (GPa) = 23.96941 27.43086 25.70013
#
# Velocity S-wave (km/s) = 3.55508 3.80312 3.68119
# Velocity P-wave (km/s) = 7.02004 7.28651 7.15451
#
# Compressibility (1/GPa) = 0.01625926
#
# Stress axis : x y z
#
# Youngs Moduli (GPa) = 68.50423 42.76633 55.78560
#
# Poissons Ratio (x) = 0.29911 0.23444
# Poissons Ratio (y) = 0.47912 0.48126
# Poissons Ratio (z) = 0.28790 0.36894
#
# Static dielectric constant tensor:
#      x y z
#    x 3.546130 0.000000 -0.075230 
#    y 0.000000 3.407530 0.000000 
#    z -0.075230 0.000000 3.720310 
# 
# 
# High freq. dielectric constant tensor:
#      x y z
#    x 1.732660 0.000000 -0.010170 
#    y 0.000000 1.730160 0.000000 
#    z -0.010170 0.000000 1.751000 
# 
# From -- ./inp_files/319794.got.cif
#   From: 2010.06.25/outbox.cif.g09.slc.cpg/sg12_160_cif.got.tgz:319794.got - 2010.06.28 00:19:55.
