data_PCOD8087881
_publ_section_title
;
Structure prediction by ZEFSAII (Michael W. Deem and Ramdas Pophale) SiO2 
 PCOD8087881
Probable space group: C 2/M
;
_chemical_formula_sum "Si O2"
_cell_formula_units_Z 48
_cell_length_a 8.897820
_cell_length_b 21.800271
_cell_length_c 12.227094
_cell_angle_alpha 90.000000
_cell_angle_beta 104.672699
_cell_angle_gamma 90.000000
_cell_volume 2294.403017
_symmetry_space_group_name_H-M "C 2/M"
_symmetry_group_IT_number 12
_symmetry_cell_setting 'monoclinic'
loop_
_space_group_symop_operation_xyz
x,y,z
-x,y,-z
-x,-y,-z
x,-y,z
1/2+x,1/2+y,z
1/2-x,1/2+y,-z
1/2-x,1/2-y,-z
1/2+x,1/2-y,z
loop_
_atom_site_type_symbol
_atom_site_label
_atom_site_fract_x
_atom_site_fract_y
_atom_site_fract_z
Si Si1 0.895353 0.431259 0.179870
Si Si2 0.156088 0.782709 0.578252
Si Si3 0.015647 0.745252 0.121388
Si Si4 0.793365 0.633454 0.789157
Si Si5 0.709741 0.190373 0.758960
Si Si6 0.643478 0.429756 0.953079
O O1 0.867807 0.500000 0.220178
O O2 0.822708 0.382245 0.251886
O O3 0.080215 0.420516 0.205140
O O4 0.806623 0.423316 0.047857
O O5 0.250000 0.750000 0.500000
O O6 0.238367 0.837805 0.662171
O O7 0.113927 0.724620 0.647066
O O8 0.000000 0.811899 0.500000
O O9 0.125900 0.686532 0.127022
O O10 0.105471 0.795286 0.214616
O O11 0.853444 0.722174 0.140943
O O12 0.000000 0.776045 0.000000
O O13 0.654468 0.608023 0.840823
O O14 0.608704 0.500000 0.915727
O O15 0.500000 0.404303 0.000000
#
# Coordination Sequence:
#
# PCOD8087881 Si02
#       6
#     8   8   8   8   8   8
#     4  10  20  36  59  86 121 160 190 224 280 358
#     4  11  23  41  61  84 113 149 198 258 309 343
#     4  10  19  32  51  83 119 147 177 227 287 347
#     4  10  20  36  59  84 111 154 201 236 288 353
#     4  10  21  35  55  84 112 147 192 232 285 349
#     4  10  21  35  55  88 126 159 191 231 283 351
#
# _framework density 20.920475
#
# number of rings (size 3 to 8) (size 9 to 14) (size 15 to 20)
#    0.000    1.833    0.000    6.500    0.000    7.333 
#    0.000    0.000    0.000    7.500    0.000    0.000 
#    0.000    0.000    0.000    0.000    0.000    0.000 
#
# Total GULP energy -297363.996200 kJ/mol
# GULP energy per Si atom -12390.166508 kJ/mol
# Density = 2.087286 g / cm^3
# Si number density = 20.920475 Si / 1000 Ang^3
#
#
#
# Elastic Constant Matrix: (Units=GPa)
#
#
# Indices 1 2 3 4 5 6 
#
# 1 77.9430 39.2552 30.1186 0.0000 9.4498 0.0000
# 2 39.2552 120.8653 35.0950 0.0000 -3.9203 0.0000
# 3 30.1186 35.0950 100.0347 0.0000 4.5755 0.0000
# 4 0.0000 0.0000 0.0000 32.3967 0.0000 -5.2973
# 5 9.4498 -3.9203 4.5755 0.0000 30.5310 0.0000
# 6 0.0000 0.0000 0.0000 -5.2973 0.0000 31.7255
#
#
#
# Elastic Compliance Matrix: (Units=1/GPa)
#
#
# Indices 1 2 3 4 5 6 
#
# 1 0.017162 -0.004813 -0.003230 0.000000 -0.005446 0.000000
# 2 -0.004813 0.010648 -0.002434 0.000000 0.003222 0.000000
# 3 -0.003230 -0.002434 0.011873 0.000000 -0.001092 0.000000
# 4 0.000000 0.000000 0.000000 0.031734 0.000000 0.005299
# 5 -0.005446 0.003222 -0.001092 0.000000 0.035016 0.000000
# 6 0.000000 0.000000 0.000000 0.005299 0.000000 0.032405
#
#
# Mechanical properties :
#
#
# Convention : Reuss Voigt Hill
#
# Bulk Modulus (GPa) = 53.39004 56.42007 54.90505
# Shear Modulus (GPa) = 30.11426 31.88894 31.00160
#
# Velocity S-wave (km/s) = 3.79814 3.90846 3.85369
# Velocity P-wave (km/s) = 6.69406 6.88443 6.78991
#
# Compressibility (1/GPa) = 0.01873009
#
# Stress axis : x y z
#
# Youngs Moduli (GPa) = 58.26800 93.91407 84.22651
#
# Poissons Ratio (x) = 0.45200 0.27202
# Poissons Ratio (y) = 0.28044 0.20500
# Poissons Ratio (z) = 0.18818 0.22858
#
# Static dielectric constant tensor:
#      x y z
#    x 4.419430 0.000000 0.040900 
#    y 0.000000 3.833290 0.000000 
#    z 0.040900 0.000000 3.215280 
# 
# 
# High freq. dielectric constant tensor:
#      x y z
#    x 1.829200 0.000000 0.004450 
#    y 0.000000 1.813430 0.000000 
#    z 0.004450 0.000000 1.785010 
# 
# From -- ./inp_files/122025.got.cif
#   From: 2010.06.25/outbox.cif.g09.slc.cpg/sg12_62_cif.got.tgz:122025.got - 2010.06.28 00:19:55.
