data_PCOD8087613
_publ_section_title
;
Structure prediction by ZEFSAII (Michael W. Deem and Ramdas Pophale) SiO2 
 PCOD8087613
Probable space group: C 2/M
;
_chemical_formula_sum "Si O2"
_cell_formula_units_Z 64
_cell_length_a 29.636844
_cell_length_b 9.061293
_cell_length_c 30.349659
_cell_angle_alpha 90.000000
_cell_angle_beta 151.266244
_cell_angle_gamma 90.000000
_cell_volume 3918.197943
_symmetry_space_group_name_H-M "C 2/M"
_symmetry_group_IT_number 12
_symmetry_cell_setting 'monoclinic'
loop_
_space_group_symop_operation_xyz
x,y,z
-x,y,-z
-x,-y,-z
x,-y,z
1/2+x,1/2+y,z
1/2-x,1/2+y,-z
1/2-x,1/2-y,-z
1/2+x,1/2-y,z
loop_
_atom_site_type_symbol
_atom_site_label
_atom_site_fract_x
_atom_site_fract_y
_atom_site_fract_z
Si Si1 0.327982 0.672380 0.886624
Si Si2 0.632109 0.829291 0.933821
Si Si3 0.346042 0.327709 0.134388
Si Si4 0.021079 0.673607 0.925396
Si Si5 0.129012 0.674089 0.755629
Si Si6 0.351220 0.670226 0.386952
Si Si7 0.472090 0.329920 0.406023
Si Si8 0.167174 0.172591 0.211827
O O1 0.345429 0.500000 0.909591
O O2 0.230599 0.725164 0.824777
O O3 0.325506 0.711921 0.833246
O O4 0.413677 0.760392 0.980831
O O5 0.605360 0.732838 0.868346
O O6 0.560985 0.786870 0.911548
O O7 0.625884 0.000000 0.915136
O O8 0.735941 0.789432 0.039516
O O9 0.366021 0.500000 0.155377
O O10 0.391678 0.247050 0.215098
O O11 0.015830 0.500000 0.928527
O O12 0.918848 0.742893 0.840028
O O13 0.122999 0.500000 0.755177
O O14 0.048717 0.727979 0.653591
O O15 0.319963 0.500000 0.357941
O O16 0.420541 0.696496 0.487475
O O17 0.403560 0.716142 0.386978
O O18 0.261073 0.772885 0.316526
O O19 0.455704 0.500000 0.379259
O O20 0.154256 0.000000 0.208788
#
# Coordination Sequence:
#
# PCOD8087613 Si02
#       8
#     8   8   8   8   8   8   8   8
#     4  10  21  34  46  67 101 137 171 206 241 285
#     4   9  19  34  49  70  97 126 163 206 250 295
#     4  10  19  32  51  73  97 127 164 204 249 296
#     4  11  22  35  51  71  96 132 174 210 246 290
#     4  11  20  31  49  74 103 135 166 199 247 297
#     4   9  18  33  51  72  97 129 166 208 251 290
#     4   9  18  32  51  73  99 128 164 207 250 295
#     4  11  22  35  49  70 100 135 173 209 246 290
#
# _framework density 16.334040999999999
#
# number of rings (size 3 to 8) (size 9 to 14) (size 15 to 20)
#    0.000    2.000    2.500    2.625    0.000    5.000 
#    0.000    1.250    0.000    0.000    0.000    0.875 
#    0.000    0.000    0.000    0.000    0.000    0.000 
#
# Total GULP energy -396929.767363 kJ/mol
# GULP energy per Si atom -12404.055230 kJ/mol
# Density = 1.629686 g / cm^3
# Si number density = 16.334041 Si / 1000 Ang^3
#
#
#
# Elastic Constant Matrix: (Units=GPa)
#
#
# Indices 1 2 3 4 5 6 
#
# 1 70.5607 39.7559 41.4231 0.0000 -5.3791 0.0000
# 2 39.7559 64.7526 42.0834 0.0001 -4.3861 -0.0002
# 3 41.4231 42.0834 93.5632 0.0000 -2.5270 0.0000
# 4 0.0000 0.0001 0.0000 31.2179 0.0000 -2.8655
# 5 -5.3791 -4.3861 -2.5270 0.0000 25.1121 0.0000
# 6 0.0000 -0.0002 0.0000 -2.8655 0.0000 26.3769
#
#
#
# Elastic Compliance Matrix: (Units=1/GPa)
#
#
# Indices 1 2 3 4 5 6 
#
# 1 0.023710 -0.010743 -0.005594 0.000000 0.002639 0.000000
# 2 -0.010743 0.026893 -0.007295 0.000000 0.001662 0.000000
# 3 -0.005594 -0.007295 0.016424 0.000000 -0.000820 0.000000
# 4 0.000000 0.000000 0.000000 0.032356 0.000000 0.003515
# 5 0.002639 0.001662 -0.000820 0.000000 0.040595 0.000000
# 6 0.000000 0.000000 0.000000 0.003515 0.000000 0.038294
#
#
# Mechanical properties :
#
#
# Convention : Reuss Voigt Hill
#
# Bulk Modulus (GPa) = 50.59936 52.82236 51.71086
# Shear Modulus (GPa) = 21.54043 23.58232 22.56138
#
# Velocity S-wave (km/s) = 3.63539 3.80380 3.72055
# Velocity P-wave (km/s) = 6.97614 7.19033 7.08405
#
# Compressibility (1/GPa) = 0.01976310
#
# Stress axis : x y z
#
# Youngs Moduli (GPa) = 42.17594 37.18472 60.88827
#
# Poissons Ratio (x) = 0.39947 0.34060
# Poissons Ratio (y) = 0.45309 0.44417
# Poissons Ratio (z) = 0.23593 0.27126
#
# Static dielectric constant tensor:
#      x y z
#    x 2.991460 0.000000 -0.042980 
#    y 0.000000 3.092770 0.000000 
#    z -0.042980 0.000000 2.977370 
# 
# 
# High freq. dielectric constant tensor:
#      x y z
#    x 1.610510 0.000000 -0.009510 
#    y 0.000000 1.637680 0.000000 
#    z -0.009510 0.000000 1.615460 
# 
# From -- ./inp_files/248248.got.cif
#   From: 2010.06.25/outbox.cif.g09.slc.cpg/sg12_125_cif.got.tgz:248248.got - 2010.06.28 00:19:55.
