data_PCOD8087982
_publ_section_title
;
Structure prediction by ZEFSAII (Michael W. Deem and Ramdas Pophale) SiO2 
 PCOD8087982
Probable space group: C 2/M
;
_chemical_formula_sum "Si O2"
_cell_formula_units_Z 48
_cell_length_a 22.506474
_cell_length_b 13.454671
_cell_length_c 22.459674
_cell_angle_alpha 90.000000
_cell_angle_beta 154.847650
_cell_angle_gamma 90.000000
_cell_volume 2890.680877
_symmetry_space_group_name_H-M "C 2/M"
_symmetry_group_IT_number 12
_symmetry_cell_setting 'monoclinic'
loop_
_space_group_symop_operation_xyz
x,y,z
-x,y,-z
-x,-y,-z
x,-y,z
1/2+x,1/2+y,z
1/2-x,1/2+y,-z
1/2-x,1/2-y,-z
1/2+x,1/2-y,z
loop_
_atom_site_type_symbol
_atom_site_label
_atom_site_fract_x
_atom_site_fract_y
_atom_site_fract_z
Si Si1 0.829860 0.615362 0.112991
Si Si2 0.146535 0.113445 0.609446
Si Si3 0.114844 0.730687 0.954540
Si Si4 0.704063 0.225303 0.361593
Si Si5 0.865613 0.387314 0.911243
Si Si6 0.358139 0.884608 0.575739
O O1 0.795422 0.500000 0.079161
O O2 0.839238 0.655143 0.054804
O O3 0.976004 0.636446 0.279439
O O4 0.700454 0.666845 0.028828
O O5 0.205161 0.179351 0.609062
O O6 0.239328 0.118768 0.751826
O O7 0.000000 0.156099 0.500000
O O8 0.133446 0.000000 0.574421
O O9 0.949561 0.752625 0.802114
O O10 0.164565 0.680701 0.060111
O O11 0.696258 0.146889 0.408402
O O12 0.778660 0.325415 0.451795
O O13 0.893984 0.500000 0.958877
O O14 0.000000 0.344145 0.000000
O O15 0.323487 0.000000 0.535731
#
# Coordination Sequence:
#
# PCOD8087982 Si02
#       6
#     8   8   8   8   8   8
#     4   9  19  34  52  75 103 133 166 208 251 294
#     4  10  21  34  50  76 106 134 165 205 250 297
#     4  10  19  32  53  78 103 132 166 205 251 299
#     4  10  19  33  53  76 103 133 167 207 249 297
#     4  10  19  32  52  76 102 133 166 202 250 305
#     4   9  19  34  53  74 100 136 170 204 249 297
#
# _framework density 16.605084000000002
#
# number of rings (size 3 to 8) (size 9 to 14) (size 15 to 20)
#    0.000    2.333    1.667    1.000    2.333    2.000 
#    0.000    0.000    0.000    2.000    0.000    0.000 
#    0.000    0.000    0.000    0.000    0.000    0.000 
#
# Total GULP energy -297598.390806 kJ/mol
# GULP energy per Si atom -12399.932950 kJ/mol
# Density = 1.656729 g / cm^3
# Si number density = 16.605084 Si / 1000 Ang^3
#
#
#
# Elastic Constant Matrix: (Units=GPa)
#
#
# Indices 1 2 3 4 5 6 
#
# 1 100.3933 59.4401 53.6028 0.0012 14.0784 0.0006
# 2 59.4401 113.7009 51.7015 0.0010 6.3741 0.0007
# 3 53.6028 51.7015 84.0396 0.0037 14.0149 0.0025
# 4 0.0012 0.0010 0.0037 32.2266 0.0017 0.6268
# 5 14.0784 6.3741 14.0149 0.0017 29.6143 0.0010
# 6 0.0006 0.0007 0.0025 0.6268 0.0010 25.9387
#
#
#
# Elastic Compliance Matrix: (Units=1/GPa)
#
#
# Indices 1 2 3 4 5 6 
#
# 1 0.017734 -0.005836 -0.007084 0.000001 -0.003822 0.000001
# 2 -0.005836 0.014159 -0.005366 0.000000 0.002266 0.000000
# 3 -0.007084 -0.005366 0.020590 -0.000002 -0.005221 -0.000001
# 4 0.000001 0.000000 -0.000002 0.031045 -0.000001 -0.000750
# 5 -0.003822 0.002266 -0.005221 -0.000001 0.037568 -0.000001
# 6 0.000001 0.000000 -0.000001 -0.000750 -0.000001 0.038571
#
#
# Mechanical properties :
#
#
# Convention : Reuss Voigt Hill
#
# Bulk Modulus (GPa) = 62.84999 69.73583 66.29291
# Shear Modulus (GPa) = 24.80881 26.44854 25.62867
#
# Velocity S-wave (km/s) = 3.86949 3.99532 3.93290
# Velocity P-wave (km/s) = 7.60894 7.96061 7.78676
#
# Compressibility (1/GPa) = 0.01591090
#
# Stress axis : x y z
#
# Youngs Moduli (GPa) = 56.38821 70.62725 48.56810
#
# Poissons Ratio (x) = 0.41215 0.34405
# Poissons Ratio (y) = 0.32906 0.26064
# Poissons Ratio (z) = 0.39945 0.37902
#
# Static dielectric constant tensor:
#      x y z
#    x 3.036780 0.000000 0.108240 
#    y 0.000000 3.039180 0.000000 
#    z 0.108240 0.000000 3.226180 
# 
# 
# High freq. dielectric constant tensor:
#      x y z
#    x 1.633420 0.000000 0.006250 
#    y 0.000000 1.626070 0.000000 
#    z 0.006250 0.000000 1.651910 
# 
# From -- ./inp_files/85665.got.cif
#   From: 2010.06.25/outbox.cif.g09.slc.cpg/sg12_43_cif.got.tgz:85665.got - 2010.06.28 00:19:55.
