data_PCOD8087108
_publ_section_title
;
Structure prediction by ZEFSAII (Michael W. Deem and Ramdas Pophale) SiO2 
 PCOD8087108
Probable space group: C 2/M
;
_chemical_formula_sum "Si O2"
_cell_formula_units_Z 48
_cell_length_a 28.193919
_cell_length_b 8.649389
_cell_length_c 17.467499
_cell_angle_alpha 90.000000
_cell_angle_beta 143.493373
_cell_angle_gamma 90.000000
_cell_volume 2534.119425
_symmetry_space_group_name_H-M "C 2/M"
_symmetry_group_IT_number 12
_symmetry_cell_setting 'monoclinic'
loop_
_space_group_symop_operation_xyz
x,y,z
-x,y,-z
-x,-y,-z
x,-y,z
1/2+x,1/2+y,z
1/2-x,1/2+y,-z
1/2-x,1/2-y,-z
1/2+x,1/2-y,z
loop_
_atom_site_type_symbol
_atom_site_label
_atom_site_fract_x
_atom_site_fract_y
_atom_site_fract_z
Si Si1 0.799465 0.182977 0.493885
Si Si2 0.266476 0.320313 0.143970
Si Si3 0.476838 0.681949 0.743493
Si Si4 0.133529 0.180028 0.869163
Si Si5 0.230253 0.818504 0.250552
Si Si6 0.949549 0.184053 0.005238
O O1 0.750000 0.250000 0.500000
O O2 0.889718 0.251357 0.613076
O O3 0.762360 0.230577 0.365606
O O4 0.799279 0.000000 0.501183
O O5 0.264948 0.500000 0.162473
O O6 0.339985 0.279131 0.182717
O O7 0.280827 0.225472 0.240654
O O8 0.183885 0.275778 0.996117
O O9 0.467892 0.500000 0.741270
O O10 0.539945 0.721621 0.757638
O O11 0.511266 0.752394 0.866996
O O12 0.149437 0.000000 0.908250
O O13 0.234949 0.000000 0.272293
O O14 0.140788 0.758557 0.119918
O O15 0.951018 0.000000 0.008721
O O16 0.000000 0.249967 0.000000
#
# Coordination Sequence:
#
# PCOD8087108 Si02
#       6
#     8   8   8   8   8   8
#     4  11  23  39  59  81 111 147 186 229 275 328
#     4  10  19  31  53  85 116 141 176 229 283 327
#     4   9  17  33  56  80 105 143 191 228 263 321
#     4   9  17  33  56  81 109 146 187 224 269 329
#     4  11  21  36  58  80 110 148 185 226 274 329
#     4   9  16  28  52  80 100 129 182 232 264 309
#
# _framework density 18.941490000000002
#
# number of rings (size 3 to 8) (size 9 to 14) (size 15 to 20)
#    0.000    2.167    1.667    2.500    0.000    3.333 
#    0.000    2.500    0.000    7.000    0.000    0.000 
#    0.000    0.000    0.000    0.000    0.000    0.000 
#
# Total GULP energy -297571.535617 kJ/mol
# GULP energy per Si atom -12398.813984 kJ/mol
# Density = 1.889838 g / cm^3
# Si number density = 18.941490 Si / 1000 Ang^3
#
#
#
# Elastic Constant Matrix: (Units=GPa)
#
#
# Indices 1 2 3 4 5 6 
#
# 1 165.5329 28.4166 76.0232 0.0000 3.7538 0.0000
# 2 28.4166 37.7736 25.8498 0.0000 2.8571 0.0000
# 3 76.0232 25.8498 127.8888 0.0000 4.9581 0.0000
# 4 0.0000 0.0000 0.0000 24.6080 0.0000 -4.3935
# 5 3.7538 2.8571 4.9581 0.0000 35.0362 0.0000
# 6 0.0000 0.0000 0.0000 -4.3935 0.0000 28.5581
#
#
#
# Elastic Compliance Matrix: (Units=1/GPa)
#
#
# Indices 1 2 3 4 5 6 
#
# 1 0.008687 -0.003482 -0.004460 0.000000 -0.000016 0.000000
# 2 -0.003482 0.032213 -0.004378 0.000000 -0.001634 0.000000
# 3 -0.004460 -0.004378 0.011385 0.000000 -0.000776 0.000000
# 4 0.000000 0.000000 0.000000 0.041785 0.000000 0.006428
# 5 -0.000016 -0.001634 -0.000776 0.000000 0.028787 0.000000
# 6 0.000000 0.000000 0.000000 0.006428 0.000000 0.036005
#
#
# Mechanical properties :
#
#
# Convention : Reuss Voigt Hill
#
# Bulk Modulus (GPa) = 36.17161 65.75271 50.96216
# Shear Modulus (GPa) = 25.94476 31.03417 28.48946
#
# Velocity S-wave (km/s) = 3.70500 4.05213 3.88245
# Velocity P-wave (km/s) = 6.11888 7.52875 6.86013
#
# Compressibility (1/GPa) = 0.02764599
#
# Stress axis : x y z
#
# Youngs Moduli (GPa) = 115.10851 31.04371 87.83233
#
# Poissons Ratio (x) = 0.10810 0.39171
# Poissons Ratio (y) = 0.40084 0.38450
# Poissons Ratio (z) = 0.51336 0.13590
#
# Static dielectric constant tensor:
#      x y z
#    x 3.884100 0.000000 0.069990 
#    y 0.000000 3.197710 0.000000 
#    z 0.069990 0.000000 3.511460 
# 
# 
# High freq. dielectric constant tensor:
#      x y z
#    x 1.756760 0.000000 0.001790 
#    y 0.000000 1.708290 0.000000 
#    z 0.001790 0.000000 1.720000 
# 
# From -- ./inp_files/280068.got.cif
#   From: 2010.06.25/outbox.cif.g09.slc.cpg/sg12_141_cif.got.tgz:280068.got - 2010.06.28 00:19:55.
