data_PCOD8087548
_publ_section_title
;
Structure prediction by ZEFSAII (Michael W. Deem and Ramdas Pophale) SiO2 
 PCOD8087548
Probable space group: C 2/M
;
_chemical_formula_sum "Si O2"
_cell_formula_units_Z 64
_cell_length_a 32.619805
_cell_length_b 8.742740
_cell_length_c 15.285368
_cell_angle_alpha 90.000000
_cell_angle_beta 132.926812
_cell_angle_gamma 90.000000
_cell_volume 3191.897542
_symmetry_space_group_name_H-M "C 2/M"
_symmetry_group_IT_number 12
_symmetry_cell_setting 'monoclinic'
loop_
_space_group_symop_operation_xyz
x,y,z
-x,y,-z
-x,-y,-z
x,-y,z
1/2+x,1/2+y,z
1/2-x,1/2+y,-z
1/2-x,1/2-y,-z
1/2+x,1/2-y,z
loop_
_atom_site_type_symbol
_atom_site_label
_atom_site_fract_x
_atom_site_fract_y
_atom_site_fract_z
Si Si1 0.420957 0.177457 0.646188
Si Si2 0.401886 0.334813 0.798727
Si Si3 0.114637 0.816951 0.031831
Si Si4 0.273669 0.332661 0.615810
Si Si5 0.733207 0.178654 0.216707
Si Si6 0.650340 0.180754 0.618912
Si Si7 0.562649 0.678331 0.620590
Si Si8 0.455202 0.179752 0.224536
O O1 0.424496 0.239207 0.750173
O O2 0.370941 0.237964 0.509241
O O3 0.478959 0.216706 0.682507
O O4 0.412712 0.000000 0.646403
O O5 0.432859 0.500000 0.842622
O O6 0.407051 0.259212 0.903434
O O7 0.337385 0.363034 0.688876
O O8 0.177720 0.762532 0.099530
O O9 0.114709 0.000000 0.029620
O O10 0.072188 0.744455 0.902675
O O11 0.245329 0.500000 0.593886
O O12 0.250000 0.250000 0.500000
O O13 0.262718 0.212028 0.675389
O O14 0.791778 0.242491 0.263917
O O15 0.728108 0.000000 0.188900
O O16 0.603655 0.223769 0.620854
O O17 0.658331 0.000000 0.630324
O O18 0.500000 0.715622 0.500000
O O19 0.577099 0.500000 0.633021
O O20 0.571617 0.731889 0.733048
O O21 0.443298 0.000000 0.215275
#
# Coordination Sequence:
#
# PCOD8087548 Si02
#       8
#     8   8   8   8   8   8   8   8
#     4  10  22  36  56  87 122 157 199 246 298 354
#     4   9  20  35  53  78 114 156 200 246 294 346
#     4  10  22  42  62  85 118 161 207 250 297 356
#     4  10  19  32  50  77 112 155 201 249 300 355
#     4  11  22  37  58  86 118 157 200 248 299 358
#     4  11  22  39  62  90 125 161 196 247 303 359
#     4  11  23  40  64  94 123 155 195 243 299 361
#     4  11  23  41  63  89 119 158 201 247 301 359
#
# _framework density 20.05077
#
# number of rings (size 3 to 8) (size 9 to 14) (size 15 to 20)
#    0.000    1.625    1.250    4.500    0.000    8.000 
#    0.000    3.125    0.000    0.000    0.000    0.000 
#    0.000    0.000    0.000    0.000    0.000    0.000 
#
# Total GULP energy -396599.707216 kJ/mol
# GULP energy per Si atom -12393.740851 kJ/mol
# Density = 2.000513 g / cm^3
# Si number density = 20.050770 Si / 1000 Ang^3
#
#
#
# Elastic Constant Matrix: (Units=GPa)
#
#
# Indices 1 2 3 4 5 6 
#
# 1 82.2776 7.0437 11.5461 0.0000 -3.3092 0.0000
# 2 7.0437 100.8444 19.1939 0.0000 -0.5210 0.0000
# 3 11.5461 19.1939 59.9287 0.0000 -18.2119 0.0000
# 4 0.0000 0.0000 0.0000 30.2076 0.0000 -0.8918
# 5 -3.3092 -0.5210 -18.2119 0.0000 25.6103 0.0000
# 6 0.0000 0.0000 0.0000 -0.8918 0.0000 32.0039
#
#
#
# Elastic Compliance Matrix: (Units=1/GPa)
#
#
# Indices 1 2 3 4 5 6 
#
# 1 0.012510 -0.000442 -0.002271 0.000000 -0.000008 0.000000
# 2 -0.000442 0.010735 -0.004215 0.000000 -0.002836 0.000000
# 3 -0.002271 -0.004215 0.023420 0.000000 0.016275 0.000000
# 4 0.000000 0.000000 0.000000 0.033132 0.000000 0.000923
# 5 -0.000008 -0.002836 0.016275 0.000000 0.050562 0.000000
# 6 0.000000 0.000000 0.000000 0.000923 0.000000 0.031272
#
#
# Mechanical properties :
#
#
# Convention : Reuss Voigt Hill
#
# Bulk Modulus (GPa) = 30.47883 35.40200 32.94042
# Shear Modulus (GPa) = 26.82097 31.24882 29.03489
#
# Velocity S-wave (km/s) = 3.66136 3.95205 3.80948
# Velocity P-wave (km/s) = 5.75395 6.20640 5.98445
#
# Compressibility (1/GPa) = 0.03280966
#
# Stress axis : x y z
#
# Youngs Moduli (GPa) = 79.93488 93.15607 42.69888
#
# Poissons Ratio (x) = 0.04114 0.09697
# Poissons Ratio (y) = 0.03530 0.17997
# Poissons Ratio (z) = 0.18154 0.39264
#
# Static dielectric constant tensor:
#      x y z
#    x 3.659960 0.000000 0.080100 
#    y 0.000000 3.595490 0.000000 
#    z 0.080100 0.000000 3.699090 
# 
# 
# High freq. dielectric constant tensor:
#      x y z
#    x 1.780980 0.000000 0.003450 
#    y 0.000000 1.786970 0.000000 
#    z 0.003450 0.000000 1.779770 
# 
# From -- ./inp_files/250011.got.cif
#   From: 2010.06.25/outbox.cif.g09.slc.cpg/sg12_126_cif.got.tgz:250011.got - 2010.06.28 00:19:55.
