data_PCOD8087883
_publ_section_title
;
Structure prediction by ZEFSAII (Michael W. Deem and Ramdas Pophale) SiO2 
 PCOD8087883
Probable space group: C 2/M
;
_chemical_formula_sum "Si O2"
_cell_formula_units_Z 40
_cell_length_a 20.746369
_cell_length_b 24.570877
_cell_length_c 5.194714
_cell_angle_alpha 90.000000
_cell_angle_beta 66.230641
_cell_angle_gamma 90.000000
_cell_volume 2423.420129
_symmetry_space_group_name_H-M "C 2/M"
_symmetry_group_IT_number 12
_symmetry_cell_setting 'monoclinic'
loop_
_space_group_symop_operation_xyz
x,y,z
-x,y,-z
-x,-y,-z
x,-y,z
1/2+x,1/2+y,z
1/2-x,1/2+y,-z
1/2-x,1/2-y,-z
1/2+x,1/2-y,z
loop_
_atom_site_type_symbol
_atom_site_label
_atom_site_fract_x
_atom_site_fract_y
_atom_site_fract_z
Si Si1 0.261227 0.685545 0.023153
Si Si2 0.581623 0.062065 0.935127
Si Si3 0.813748 0.207519 0.438645
Si Si4 0.618352 0.125338 0.391300
Si Si5 0.043397 0.268904 0.667989
O O1 0.293996 0.665141 0.699732
O O2 0.250000 0.750000 0.000000
O O3 0.318066 0.675249 0.161000
O O4 0.190685 0.654338 0.203524
O O5 0.627604 0.087860 0.629314
O O6 0.606102 0.000000 0.927195
O O7 0.500000 0.066168 0.000000
O O8 0.593304 0.091370 0.187090
O O9 0.750000 0.250000 0.500000
O O10 0.886133 0.236007 0.391731
O O11 0.560359 0.170150 0.553022
O O12 0.000000 0.241742 0.500000
O O13 0.000000 0.270653 0.000000
#
# Coordination Sequence:
#
# PCOD8087883 Si02
#       5
#     8   8   8   8   8
#     4  10  19  32  52  70  95 126 165 212 247 321
#     4  11  24  39  50  68 100 136 176 231 279 296
#     4  10  19  34  47  64 101 133 156 209 250 311
#     4  12  21  35  54  73  93 131 181 224 260 302
#     4  12  23  31  48  75 100 127 176 224 247 285
#
# _framework density 16.505600000000001
#
# number of rings (size 3 to 8) (size 9 to 14) (size 15 to 20)
#    0.000    1.000    4.000    6.600    5.600    1.600 
#    0.000    0.000    0.000    0.000    0.000    0.000 
#    0.000    0.000    0.000    0.000    0.000  252.000 
#
# Total GULP energy -247838.086955 kJ/mol
# GULP energy per Si atom -12391.904348 kJ/mol
# Density = 1.646803 g / cm^3
# Si number density = 16.505600 Si / 1000 Ang^3
#
#
#
# Elastic Constant Matrix: (Units=GPa)
#
#
# Indices 1 2 3 4 5 6 
#
# 1 112.9786 26.8217 61.0289 0.0000 10.8016 0.0000
# 2 26.8217 43.6473 39.5818 0.0000 -9.0553 0.0000
# 3 61.0289 39.5818 164.1386 0.0000 23.1445 0.0000
# 4 0.0000 0.0000 0.0000 11.7030 0.0000 3.2864
# 5 10.8016 -9.0553 23.1445 0.0000 37.3830 0.0000
# 6 0.0000 0.0000 0.0000 3.2864 0.0000 14.7677
#
#
#
# Elastic Compliance Matrix: (Units=1/GPa)
#
#
# Indices 1 2 3 4 5 6 
#
# 1 0.011901 -0.005580 -0.002634 0.000000 -0.003160 0.000000
# 2 -0.005580 0.038558 -0.009606 0.000000 0.016900 0.000000
# 3 -0.002634 -0.009606 0.010528 0.000000 -0.008084 0.000000
# 4 0.000000 0.000000 0.000000 0.091144 0.000000 -0.020283
# 5 -0.003160 0.016900 -0.008084 0.000000 0.036762 0.000000
# 6 0.000000 0.000000 0.000000 -0.020283 0.000000 0.072229
#
#
# Mechanical properties :
#
#
# Convention : Reuss Voigt Hill
#
# Bulk Modulus (GPa) = 39.45386 63.95880 51.70633
# Shear Modulus (GPa) = 16.38215 25.65955 21.02085
#
# Velocity S-wave (km/s) = 3.15385 3.94711 3.57257
# Velocity P-wave (km/s) = 6.10062 7.72055 6.95789
#
# Compressibility (1/GPa) = 0.02534606
#
# Stress axis : x y z
#
# Youngs Moduli (GPa) = 84.02813 25.93516 94.98450
#
# Poissons Ratio (x) = 0.14473 0.25015
# Poissons Ratio (y) = 0.46891 0.91244
# Poissons Ratio (z) = 0.22130 0.24914
#
# Static dielectric constant tensor:
#      x y z
#    x 3.193410 0.000000 0.148220 
#    y 0.000000 2.846230 0.000000 
#    z 0.148220 0.000000 3.400210 
# 
# 
# High freq. dielectric constant tensor:
#      x y z
#    x 1.637630 0.000000 0.028570 
#    y 0.000000 1.576850 0.000000 
#    z 0.028570 0.000000 1.666960 
# 
# From -- ./inp_files/11400.got.cif
#   From: 2010.06.25/outbox.cif.g09.slc.cpg/sg12_6_cif.got.tgz:11400.got - 2010.06.28 00:19:55.
