data_PCOD8087559
_publ_section_title
;
Structure prediction by ZEFSAII (Michael W. Deem and Ramdas Pophale) SiO2 
 PCOD8087559
Probable space group: C 2/M
;
_chemical_formula_sum "Si O2"
_cell_formula_units_Z 48
_cell_length_a 22.856233
_cell_length_b 8.844453
_cell_length_c 24.089459
_cell_angle_alpha 90.000000
_cell_angle_beta 145.129218
_cell_angle_gamma 90.000000
_cell_volume 2784.144741
_symmetry_space_group_name_H-M "C 2/M"
_symmetry_group_IT_number 12
_symmetry_cell_setting 'monoclinic'
loop_
_space_group_symop_operation_xyz
x,y,z
-x,y,-z
-x,-y,-z
x,-y,z
1/2+x,1/2+y,z
1/2-x,1/2+y,-z
1/2-x,1/2-y,-z
1/2+x,1/2-y,z
loop_
_atom_site_type_symbol
_atom_site_label
_atom_site_fract_x
_atom_site_fract_y
_atom_site_fract_z
Si Si1 0.877400 0.679097 0.453564
Si Si2 0.015426 0.177265 0.780850
Si Si3 0.181327 0.177540 0.822727
Si Si4 0.821039 0.176693 0.009504
Si Si5 0.907774 0.178983 0.363322
Si Si6 0.289631 0.321184 0.587020
O O1 0.892782 0.500000 0.461584
O O2 0.853728 0.745569 0.374276
O O3 0.783816 0.725928 0.419806
O O4 0.979412 0.753766 0.557779
O O5 0.089054 0.242220 0.789468
O O6 0.902032 0.247296 0.688065
O O7 0.006295 0.000000 0.764053
O O8 0.062625 0.210733 0.879201
O O9 0.290193 0.251190 0.926086
O O10 0.160471 0.221214 0.742982
O O11 0.191454 0.000000 0.838953
O O12 0.800180 0.000000 0.990538
O O13 0.750000 0.250000 0.000000
O O14 0.917110 0.000000 0.379004
O O15 0.292044 0.500000 0.581546
O O16 0.250000 0.250000 0.500000
#
# Coordination Sequence:
#
# PCOD8087559 Si02
#       6
#     8   8   8   8   8   8
#     4  10  20  32  47  70  97 122 154 197 235 268
#     4   8  15  29  46  65  92 122 149 181 225 275
#     4   9  17  29  47  70  92 117 153 193 230 272
#     4   9  16  27  45  67  92 121 151 187 230 273
#     4  10  19  32  51  69  91 126 159 190 232 282
#     4  10  20  33  49  69  95 125 155 188 227 275
#
# _framework density 17.240483000000001
#
# number of rings (size 3 to 8) (size 9 to 14) (size 15 to 20)
#    0.000    2.667    0.000    4.500    0.000    4.000 
#    0.000    5.833    0.000    1.000    0.000    7.000 
#    0.000    0.000    0.000    0.000    0.000    0.000 
#
# Total GULP energy -297448.005350 kJ/mol
# GULP energy per Si atom -12393.666890 kJ/mol
# Density = 1.720124 g / cm^3
# Si number density = 17.240483 Si / 1000 Ang^3
#
#
#
# Elastic Constant Matrix: (Units=GPa)
#
#
# Indices 1 2 3 4 5 6 
#
# 1 91.9074 30.7897 69.5186 0.0000 -5.7383 0.0000
# 2 30.7897 51.1331 44.1143 0.0000 -9.4540 0.0000
# 3 69.5186 44.1143 169.1831 0.0000 -17.9573 0.0000
# 4 0.0000 0.0000 0.0000 29.3332 0.0000 -6.6395
# 5 -5.7383 -9.4540 -17.9573 0.0000 27.8045 0.0000
# 6 0.0000 0.0000 0.0000 -6.6395 0.0000 20.2417
#
#
#
# Elastic Compliance Matrix: (Units=1/GPa)
#
#
# Indices 1 2 3 4 5 6 
#
# 1 0.016978 -0.005680 -0.005720 0.000000 -0.002122 0.000000
# 2 -0.005680 0.027706 -0.004310 0.000000 0.005464 0.000000
# 3 -0.005720 -0.004310 0.009774 0.000000 0.003667 0.000000
# 4 0.000000 0.000000 0.000000 0.036825 0.000000 0.012079
# 5 -0.002122 0.005464 0.003667 0.000000 0.039754 0.000000
# 6 0.000000 0.000000 0.000000 0.012079 0.000000 0.053365
#
#
# Mechanical properties :
#
#
# Convention : Reuss Voigt Hill
#
# Bulk Modulus (GPa) = 43.40955 66.78543 55.09749
# Shear Modulus (GPa) = 22.37107 26.66261 24.51684
#
# Velocity S-wave (km/s) = 3.60611 3.93684 3.77510
# Velocity P-wave (km/s) = 6.52474 7.71275 7.14349
#
# Compressibility (1/GPa) = 0.02303641
#
# Stress axis : x y z
#
# Youngs Moduli (GPa) = 58.90000 36.09311 102.30814
#
# Poissons Ratio (x) = 0.20502 0.58525
# Poissons Ratio (y) = 0.33457 0.44097
# Poissons Ratio (z) = 0.33693 0.15557
#
# Static dielectric constant tensor:
#      x y z
#    x 3.176900 0.000000 -0.074840 
#    y 0.000000 3.206810 0.000000 
#    z -0.074840 0.000000 3.727150 
# 
# 
# High freq. dielectric constant tensor:
#      x y z
#    x 1.634140 0.000000 -0.014580 
#    y 0.000000 1.659540 0.000000 
#    z -0.014580 0.000000 1.678180 
# 
# From -- ./inp_files/345690.got.cif
#   From: 2010.06.25/outbox.cif.g09.slc.cpg/sg12_173_cif.got.tgz:345690.got - 2010.06.28 00:19:55.
