data_PCOD8087955
_publ_section_title
;
Structure prediction by ZEFSAII (Michael W. Deem and Ramdas Pophale) SiO2 
 PCOD8087955
Probable space group: C 2/M
;
_chemical_formula_sum "Si O2"
_cell_formula_units_Z 64
_cell_length_a 19.684280
_cell_length_b 9.234671
_cell_length_c 25.109065
_cell_angle_alpha 90.000000
_cell_angle_beta 125.885359
_cell_angle_gamma 90.000000
_cell_volume 3697.934031
_symmetry_space_group_name_H-M "C 2/M"
_symmetry_group_IT_number 12
_symmetry_cell_setting 'monoclinic'
loop_
_space_group_symop_operation_xyz
x,y,z
-x,y,-z
-x,-y,-z
x,-y,z
1/2+x,1/2+y,z
1/2-x,1/2+y,-z
1/2-x,1/2-y,-z
1/2+x,1/2-y,z
loop_
_atom_site_type_symbol
_atom_site_label
_atom_site_fract_x
_atom_site_fract_y
_atom_site_fract_z
Si Si1 0.590815 0.829502 0.559104
Si Si2 0.739243 0.833153 0.074179
Si Si3 0.331227 0.337290 0.691120
Si Si4 0.307215 0.832434 0.828739
Si Si5 0.951581 0.833559 0.834611
Si Si6 0.123483 0.668355 0.922202
Si Si7 0.192697 0.834339 0.684038
Si Si8 0.739583 0.836027 0.548915
O O1 0.500000 0.770948 0.500000
O O2 0.613884 0.759589 0.627156
O O3 0.659451 0.781971 0.546500
O O4 0.589572 0.000000 0.566763
O O5 0.705325 0.787877 0.116055
O O6 0.819968 0.736920 0.098095
O O7 0.767713 0.000000 0.085648
O O8 0.664869 0.802825 0.998505
O O9 0.296043 0.500000 0.688818
O O10 0.423960 0.321952 0.759225
O O11 0.275442 0.211955 0.690408
O O12 0.324704 0.319156 0.623925
O O13 0.378013 0.727634 0.838036
O O14 0.217292 0.810452 0.757419
O O15 0.336193 0.000000 0.836405
O O16 0.033642 0.741465 0.881655
O O17 0.968424 0.000000 0.858056
O O18 0.112683 0.500000 0.904952
O O19 0.171646 0.000000 0.661963
O O20 0.750000 0.750000 0.500000
O O21 0.724492 0.000000 0.524663
#
# Coordination Sequence:
#
# PCOD8087955 Si02
#       8
#     8   8   8   8   8   8   8   8
#     4   9  18  33  50  66  91 128 162 190 227 280
#     4   9  19  36  54  70  96 134 165 193 240 296
#     4   8  16  31  48  66  92 128 161 187 228 286
#     4   9  18  33  52  74  99 126 159 200 245 290
#     4  10  19  32  52  75  99 128 162 200 241 286
#     4  10  20  34  52  73  98 129 165 202 239 284
#     4   9  16  27  47  73  96 119 152 196 239 278
#     4   9  17  30  48  69  92 120 155 192 232 277
#
# _framework density 17.306961000000001
#
# number of rings (size 3 to 8) (size 9 to 14) (size 15 to 20)
#    0.000    2.875    0.000    1.875    0.000    4.750 
#    0.000    3.750    0.000    4.500    0.000    0.000 
#    0.000    0.000    0.000    0.000    0.000    0.000 
#
# Total GULP energy -396574.679813 kJ/mol
# GULP energy per Si atom -12392.958744 kJ/mol
# Density = 1.726757 g / cm^3
# Si number density = 17.306961 Si / 1000 Ang^3
#
#
#
# Elastic Constant Matrix: (Units=GPa)
#
#
# Indices 1 2 3 4 5 6 
#
# 1 73.2324 44.3560 61.8237 0.0000 2.0341 0.0000
# 2 44.3560 75.4493 52.8834 0.0000 2.7913 0.0000
# 3 61.8237 52.8834 115.6575 0.0000 1.6704 0.0000
# 4 0.0000 0.0000 0.0000 30.2620 0.0000 2.9364
# 5 2.0341 2.7913 1.6704 0.0000 29.0550 0.0000
# 6 0.0000 0.0000 0.0000 2.9364 0.0000 26.7537
#
#
#
# Elastic Compliance Matrix: (Units=1/GPa)
#
#
# Indices 1 2 3 4 5 6 
#
# 1 0.028467 -0.008913 -0.011134 0.000000 -0.000496 0.000000
# 2 -0.008913 0.022350 -0.005437 0.000000 -0.001211 0.000000
# 3 -0.011134 -0.005437 0.017080 0.000000 0.000320 0.000000
# 4 0.000000 0.000000 0.000000 0.033400 0.000000 -0.003666
# 5 -0.000496 -0.001211 0.000320 0.000000 0.034550 0.000000
# 6 0.000000 0.000000 0.000000 -0.003666 0.000000 0.037780
#
#
# Mechanical properties :
#
#
# Convention : Reuss Voigt Hill
#
# Bulk Modulus (GPa) = 59.07709 64.71839 61.89774
# Shear Modulus (GPa) = 21.71653 24.23254 22.97453
#
# Velocity S-wave (km/s) = 3.54614 3.74593 3.64740
# Velocity P-wave (km/s) = 7.13973 7.49566 7.31986
#
# Compressibility (1/GPa) = 0.01692704
#
# Stress axis : x y z
#
# Youngs Moduli (GPa) = 35.12809 44.74327 58.54963
#
# Poissons Ratio (x) = 0.39880 0.65191
# Poissons Ratio (y) = 0.31310 0.31835
# Poissons Ratio (z) = 0.39113 0.24328
#
# Static dielectric constant tensor:
#      x y z
#    x 2.902680 0.000000 0.041480 
#    y 0.000000 3.286190 0.000000 
#    z 0.041480 0.000000 3.611280 
# 
# 
# High freq. dielectric constant tensor:
#      x y z
#    x 1.625840 0.000000 0.003390 
#    y 0.000000 1.675600 0.000000 
#    z 0.003390 0.000000 1.684900 
# 
# From -- ./inp_files/346118.got.cif
#   From: 2010.06.25/outbox.cif.g09.slc.cpg/sg12_174_cif.got.tgz:346118.got - 2010.06.28 00:19:55.
