data_PCOD8087912
_publ_section_title
;
Structure prediction by ZEFSAII (Michael W. Deem and Ramdas Pophale) SiO2 
 PCOD8087912
Probable space group: C 2/M
;
_chemical_formula_sum "Si O2"
_cell_formula_units_Z 64
_cell_length_a 28.738826
_cell_length_b 9.143158
_cell_length_c 14.031835
_cell_angle_alpha 90.000000
_cell_angle_beta 75.319415
_cell_angle_gamma 90.000000
_cell_volume 3566.687067
_symmetry_space_group_name_H-M "C 2/M"
_symmetry_group_IT_number 12
_symmetry_cell_setting 'monoclinic'
loop_
_space_group_symop_operation_xyz
x,y,z
-x,y,-z
-x,-y,-z
x,-y,z
1/2+x,1/2+y,z
1/2-x,1/2+y,-z
1/2-x,1/2-y,-z
1/2+x,1/2-y,z
loop_
_atom_site_type_symbol
_atom_site_label
_atom_site_fract_x
_atom_site_fract_y
_atom_site_fract_z
Si Si1 0.108993 0.327347 0.251613
Si Si2 0.019736 0.172301 0.387726
Si Si3 0.298671 0.833452 0.472023
Si Si4 0.388407 0.328162 0.137215
Si Si5 0.802097 0.328411 0.264403
Si Si6 0.799049 0.330526 0.678244
Si Si7 0.526106 0.671122 0.781691
Si Si8 0.924854 0.828433 0.909175
O O1 0.100045 0.500000 0.253139
O O2 0.068779 0.256334 0.340257
O O3 0.161300 0.287374 0.265254
O O4 0.108843 0.260227 0.146035
O O5 0.000000 0.224814 0.500000
O O6 0.979869 0.210849 0.327205
O O7 0.030954 0.000000 0.381344
O O8 0.250000 0.750000 0.500000
O O9 0.324745 0.791929 0.358688
O O10 0.324416 0.802201 0.560267
O O11 0.283629 0.000000 0.471478
O O12 0.379686 0.500000 0.154275
O O13 0.337370 0.247979 0.171265
O O14 0.425425 0.262344 0.197295
O O15 0.410058 0.290312 0.023379
O O16 0.800391 0.500000 0.243578
O O17 0.748262 0.266385 0.280837
O O18 0.783873 0.500000 0.695141
O O19 0.530228 0.500000 0.795289
O O20 0.479470 0.726149 0.864124
O O21 0.919854 0.000000 0.888660
#
# Coordination Sequence:
#
# PCOD8087912 Si02
#       8
#     8   8   8   8   8   8   8   8
#     4  10  20  33  52  76 100 130 167 206 249 294
#     4   9  18  33  52  76 107 138 167 200 237 284
#     4   8  15  29  47  66  91 123 156 191 232 278
#     4  10  19  32  52  74  97 129 165 203 250 297
#     4  10  20  32  48  74 104 129 159 204 250 289
#     4   9  18  34  53  71  96 133 171 201 237 294
#     4   8  15  30  52  75  97 126 166 203 236 286
#     4   9  18  34  54  73  95 126 166 208 247 294
#
# _framework density 17.943822000000001
#
# number of rings (size 3 to 8) (size 9 to 14) (size 15 to 20)
#    0.000    2.875    0.000    1.875    0.000    4.750 
#    0.000    3.125    0.000    3.750    0.000    0.000 
#    0.000    0.000    0.000    0.000    0.000    0.000 
#
# Total GULP energy -396495.388670 kJ/mol
# GULP energy per Si atom -12390.480896 kJ/mol
# Density = 1.790298 g / cm^3
# Si number density = 17.943822 Si / 1000 Ang^3
#
#
#
# Elastic Constant Matrix: (Units=GPa)
#
#
# Indices 1 2 3 4 5 6 
#
# 1 106.8726 41.9710 59.4978 0.0000 10.2188 0.0000
# 2 41.9710 53.9016 44.3748 0.0000 2.0670 0.0000
# 3 59.4978 44.3748 114.0002 0.0000 4.5946 0.0000
# 4 0.0000 0.0000 0.0000 24.9160 0.0000 -0.9499
# 5 10.2188 2.0670 4.5946 0.0000 21.9047 0.0000
# 6 0.0000 0.0000 0.0000 -0.9499 0.0000 25.0626
#
#
#
# Elastic Compliance Matrix: (Units=1/GPa)
#
#
# Indices 1 2 3 4 5 6 
#
# 1 0.015762 -0.008052 -0.004867 0.000000 -0.005572 0.000000
# 2 -0.008052 0.031417 -0.008127 0.000000 0.002497 0.000000
# 3 -0.004867 -0.008127 0.014476 0.000000 0.000001 0.000000
# 4 0.000000 0.000000 0.000000 0.040193 0.000000 0.001523
# 5 -0.005572 0.002497 0.000001 0.000000 0.048016 0.000000
# 6 0.000000 0.000000 0.000000 0.001523 0.000000 0.039958
#
#
# Mechanical properties :
#
#
# Convention : Reuss Voigt Hill
#
# Bulk Modulus (GPa) = 51.12189 62.94016 57.03103
# Shear Modulus (GPa) = 20.97002 22.97206 21.97104
#
# Velocity S-wave (km/s) = 3.42226 3.58190 3.50299
# Velocity P-wave (km/s) = 6.64587 7.22904 6.94358
#
# Compressibility (1/GPa) = 0.01956109
#
# Stress axis : x y z
#
# Youngs Moduli (GPa) = 63.44493 31.82941 69.08130
#
# Poissons Ratio (x) = 0.25630 0.33623
# Poissons Ratio (y) = 0.51088 0.56145
# Poissons Ratio (z) = 0.30880 0.25869
#
# Static dielectric constant tensor:
#      x y z
#    x 3.316910 0.000000 0.358250 
#    y 0.000000 3.158960 0.000000 
#    z 0.358250 0.000000 3.783430 
# 
# 
# High freq. dielectric constant tensor:
#      x y z
#    x 1.680720 0.000000 0.010930 
#    y 0.000000 1.681750 0.000000 
#    z 0.010930 0.000000 1.698730 
# 
# From -- ./inp_files/243797.got.cif
#   From: 2010.06.25/outbox.cif.g09.slc.cpg/sg12_122_cif.got.tgz:243797.got - 2010.06.28 00:19:55.
