data_PCOD8087030
_publ_section_title
;
Structure prediction by ZEFSAII (Michael W. Deem and Ramdas Pophale) SiO2 
 PCOD8087030
Probable space group: C 2/M
;
_chemical_formula_sum "Si O2"
_cell_formula_units_Z 56
_cell_length_a 20.608702
_cell_length_b 8.896797
_cell_length_c 22.259519
_cell_angle_alpha 90.000000
_cell_angle_beta 48.076451
_cell_angle_gamma 90.000000
_cell_volume 3036.649232
_symmetry_space_group_name_H-M "C 2/M"
_symmetry_group_IT_number 12
_symmetry_cell_setting 'monoclinic'
loop_
_space_group_symop_operation_xyz
x,y,z
-x,y,-z
-x,-y,-z
x,-y,z
1/2+x,1/2+y,z
1/2-x,1/2+y,-z
1/2-x,1/2-y,-z
1/2+x,1/2-y,z
loop_
_atom_site_type_symbol
_atom_site_label
_atom_site_fract_x
_atom_site_fract_y
_atom_site_fract_z
Si Si1 0.258176 0.677583 0.326189
Si Si2 0.951311 0.177894 0.228394
Si Si3 0.254715 0.326660 0.085164
Si Si4 0.665747 0.824050 0.263194
Si Si5 0.679549 0.821729 0.499933
Si Si6 0.486080 0.677505 0.342775
Si Si7 0.886557 0.675821 0.924545
O O1 0.265205 0.500000 0.319321
O O2 0.356159 0.742461 0.270255
O O3 0.211500 0.736748 0.295101
O O4 0.202081 0.728178 0.418258
O O5 0.973359 0.230553 0.282201
O O6 0.019783 0.246866 0.139400
O O7 0.955569 0.000000 0.220426
O O8 0.276107 0.500000 0.059593
O O9 0.233499 0.294937 0.167464
O O10 0.172031 0.276107 0.096342
O O11 0.339753 0.231317 0.014421
O O12 0.580404 0.725412 0.307049
O O13 0.640238 0.000000 0.282447
O O14 0.750000 0.750000 0.500000
O O15 0.583903 0.760542 0.572496
O O16 0.682700 0.000000 0.505780
O O17 0.473492 0.500000 0.357035
O O18 0.901367 0.500000 0.919000
#
# Coordination Sequence:
#
# PCOD8087030 Si02
#       7
#     8   8   8   8   8   8   8
#     4   9  20  38  59  81 109 147 186 227 276 329
#     4  10  19  35  56  80 109 144 186 226 269 326
#     4   9  18  32  52  80 109 140 179 225 275 325
#     4  10  20  38  60  82 110 145 188 230 272 328
#     4  11  21  37  59  85 113 145 188 232 278 325
#     4  11  22  36  57  84 114 147 184 228 278 329
#     4  10  19  31  52  83 110 138 181 228 274 321
#
# _framework density 18.441378
#
# number of rings (size 3 to 8) (size 9 to 14) (size 15 to 20)
#    0.000    2.000    2.857    1.286    0.000    2.286 
#    0.000    5.714    0.000    4.286    0.000    0.000 
#    0.000    0.000    0.000    0.000    0.000    0.000 
#
# Total GULP energy -347284.648024 kJ/mol
# GULP energy per Si atom -12403.023144 kJ/mol
# Density = 1.839940 g / cm^3
# Si number density = 18.441378 Si / 1000 Ang^3
#
#
#
# Elastic Constant Matrix: (Units=GPa)
#
#
# Indices 1 2 3 4 5 6 
#
# 1 121.0465 30.6696 61.3079 0.0000 1.8961 -0.0002
# 2 30.6696 49.3495 40.0303 -0.0001 -3.8451 -0.0002
# 3 61.3079 40.0303 130.9444 0.0001 -6.2739 0.0003
# 4 0.0000 -0.0001 0.0001 31.8411 0.0000 -6.2612
# 5 1.8961 -3.8451 -6.2739 0.0000 34.4996 0.0000
# 6 -0.0002 -0.0002 0.0003 -6.2612 0.0000 25.6398
#
#
#
# Elastic Compliance Matrix: (Units=1/GPa)
#
#
# Indices 1 2 3 4 5 6 
#
# 1 0.011411 -0.003762 -0.004280 0.000000 -0.001825 0.000000
# 2 -0.003762 0.028265 -0.006778 0.000000 0.002124 0.000000
# 3 -0.004280 -0.006778 0.011790 0.000000 0.001624 0.000000
# 4 0.000000 0.000000 0.000000 0.032990 0.000000 0.008056
# 5 -0.001825 0.002124 0.001624 0.000000 0.029618 0.000000
# 6 0.000000 0.000000 0.000000 0.008056 0.000000 0.040969
#
#
# Mechanical properties :
#
#
# Convention : Reuss Voigt Hill
#
# Bulk Modulus (GPa) = 45.81457 62.81734 54.31595
# Shear Modulus (GPa) = 26.04738 29.68494 27.86616
#
# Velocity S-wave (km/s) = 3.76232 4.01645 3.89146
# Velocity P-wave (km/s) = 6.61595 7.45965 7.05043
#
# Compressibility (1/GPa) = 0.02182712
#
# Stress axis : x y z
#
# Youngs Moduli (GPa) = 87.63686 35.37969 84.81500
#
# Poissons Ratio (x) = 0.13310 0.36299
# Poissons Ratio (y) = 0.32969 0.57483
# Poissons Ratio (z) = 0.37507 0.23979
#
# Static dielectric constant tensor:
#      x y z
#    x 3.421980 0.000000 -0.014260 
#    y 0.000000 3.252540 0.000000 
#    z -0.014260 0.000000 3.601670 
# 
# 
# High freq. dielectric constant tensor:
#      x y z
#    x 1.701000 0.000000 -0.008340 
#    y 0.000000 1.703250 0.000000 
#    z -0.008340 0.000000 1.728840 
# 
# From -- ./inp_files/280887.got.cif
#   From: 2010.06.25/outbox.cif.g09.slc.cpg/sg12_141_cif.got.tgz:280887.got - 2010.06.28 00:19:55.
