data_PCOD8087061
_publ_section_title
;
Structure prediction by ZEFSAII (Michael W. Deem and Ramdas Pophale) SiO2 
 PCOD8087061
Probable space group: C 2/M
;
_chemical_formula_sum "Si O2"
_cell_formula_units_Z 56
_cell_length_a 25.516507
_cell_length_b 14.058279
_cell_length_c 9.723191
_cell_angle_alpha 90.000000
_cell_angle_beta 58.400127
_cell_angle_gamma 90.000000
_cell_volume 2970.729926
_symmetry_space_group_name_H-M "C 2/M"
_symmetry_group_IT_number 12
_symmetry_cell_setting 'monoclinic'
loop_
_space_group_symop_operation_xyz
x,y,z
-x,y,-z
-x,-y,-z
x,-y,z
1/2+x,1/2+y,z
1/2-x,1/2+y,-z
1/2-x,1/2-y,-z
1/2+x,1/2-y,z
loop_
_atom_site_type_symbol
_atom_site_label
_atom_site_fract_x
_atom_site_fract_y
_atom_site_fract_z
Si Si1 0.230838 0.391185 0.929939
Si Si2 0.386302 0.221512 0.836831
Si Si3 0.746530 0.343261 0.597219
Si Si4 0.995461 0.607872 0.342884
Si Si5 0.325004 0.610749 0.040669
Si Si6 0.872314 0.707417 0.530801
Si Si7 0.815758 0.897159 0.566626
O O1 0.212504 0.500000 0.932657
O O2 0.272843 0.354901 0.746641
O O3 0.169110 0.331534 0.011710
O O4 0.266509 0.375691 0.022560
O O5 0.449734 0.171736 0.795317
O O6 0.378757 0.215752 0.684686
O O7 0.382927 0.330510 0.897290
O O8 0.750000 0.250000 0.500000
O O9 0.694578 0.345254 0.786454
O O10 0.813899 0.359454 0.571209
O O11 0.724514 0.419837 0.514570
O O12 0.999112 0.500000 0.279979
O O13 0.931742 0.656645 0.384058
O O14 0.000000 0.605200 0.500000
O O15 0.344063 0.500000 0.026667
O O16 0.867025 0.814747 0.474911
O O17 0.844756 0.000000 0.570660
#
# Coordination Sequence:
#
# PCOD8087061 Si02
#       7
#     8   8   8   8   8   8   8
#     4  10  19  31  53  80 107 141 177 223 276 321
#     4  11  18  33  53  76 109 142 178 225 269 319
#     4  10  20  34  54  81 110 145 178 218 269 321
#     4   9  20  34  51  77 106 140 180 223 268 318
#     4  11  21  32  53  83 111 142 180 224 275 326
#     4  10  19  33  52  76 108 142 179 219 268 321
#     4  10  20  34  52  79 111 141 175 216 272 330
#
# _framework density 18.850584999999999
#
# number of rings (size 3 to 8) (size 9 to 14) (size 15 to 20)
#    0.000    1.857    2.857    3.000    0.000    1.714 
#    0.000    0.714    0.000   10.286    0.000   16.000 
#    0.000    0.000    0.000    0.000    0.000    0.000 
#
# Total GULP energy -346980.376081 kJ/mol
# GULP energy per Si atom -12392.156289 kJ/mol
# Density = 1.880768 g / cm^3
# Si number density = 18.850585 Si / 1000 Ang^3
#
#
#
# Elastic Constant Matrix: (Units=GPa)
#
#
# Indices 1 2 3 4 5 6 
#
# 1 79.2207 52.8821 35.0572 0.0000 -13.0918 0.0000
# 2 52.8821 128.3845 44.1569 0.0000 -24.8681 0.0000
# 3 35.0572 44.1569 74.5606 0.0000 2.2912 0.0000
# 4 0.0000 0.0000 0.0000 17.3739 0.0000 -1.3524
# 5 -13.0918 -24.8681 2.2912 0.0000 32.0888 0.0000
# 6 0.0000 0.0000 0.0000 -1.3524 0.0000 20.0732
#
#
#
# Elastic Compliance Matrix: (Units=1/GPa)
#
#
# Indices 1 2 3 4 5 6 
#
# 1 0.019510 -0.004956 -0.006379 0.000000 0.004574 0.000000
# 2 -0.004956 0.013642 -0.006025 0.000000 0.008981 0.000000
# 3 -0.006379 -0.006025 0.020247 0.000000 -0.008717 0.000000
# 4 0.000000 0.000000 0.000000 0.057861 0.000000 0.003898
# 5 0.004574 0.008981 -0.008717 0.000000 0.040612 0.000000
# 6 0.000000 0.000000 0.000000 0.003898 0.000000 0.050080
#
#
# Mechanical properties :
#
#
# Convention : Reuss Voigt Hill
#
# Bulk Modulus (GPa) = 53.53411 60.70647 57.12029
# Shear Modulus (GPa) = 20.58465 23.91182 22.24823
#
# Velocity S-wave (km/s) = 3.30811 3.56545 3.43919
# Velocity P-wave (km/s) = 6.56143 7.01597 6.79250
#
# Compressibility (1/GPa) = 0.01867968
#
# Stress axis : x y z
#
# Youngs Moduli (GPa) = 51.25538 73.30052 49.38984
#
# Poissons Ratio (x) = 0.36331 0.31504
# Poissons Ratio (y) = 0.25404 0.29757
# Poissons Ratio (z) = 0.32694 0.44164
#
# Static dielectric constant tensor:
#      x y z
#    x 3.517850 0.000000 0.129290 
#    y 0.000000 3.859590 0.000000 
#    z 0.129290 0.000000 3.427550 
# 
# 
# High freq. dielectric constant tensor:
#      x y z
#    x 1.698510 0.000000 0.010780 
#    y 0.000000 1.749130 0.000000 
#    z 0.010780 0.000000 1.718210 
# 
# From -- ./inp_files/96795.got.cif
#   From: 2010.06.25/outbox.cif.g09.slc.cpg/sg12_49_cif.got.tgz:96795.got - 2010.06.28 00:19:55.
