data_PCOD8087077
_publ_section_title
;
Structure prediction by ZEFSAII (Michael W. Deem and Ramdas Pophale) SiO2 
 PCOD8087077
Probable space group: C 2/M
;
_chemical_formula_sum "Si O2"
_cell_formula_units_Z 56
_cell_length_a 19.823323
_cell_length_b 9.020468
_cell_length_c 24.467994
_cell_angle_alpha 90.000000
_cell_angle_beta 135.310996
_cell_angle_gamma 90.000000
_cell_volume 3076.937994
_symmetry_space_group_name_H-M "C 2/M"
_symmetry_group_IT_number 12
_symmetry_cell_setting 'monoclinic'
loop_
_space_group_symop_operation_xyz
x,y,z
-x,y,-z
-x,-y,-z
x,-y,z
1/2+x,1/2+y,z
1/2-x,1/2+y,-z
1/2-x,1/2-y,-z
1/2+x,1/2-y,z
loop_
_atom_site_type_symbol
_atom_site_label
_atom_site_fract_x
_atom_site_fract_y
_atom_site_fract_z
Si Si1 0.592889 0.666595 0.801314
Si Si2 0.430472 0.668620 0.794863
Si Si3 0.528443 0.676305 0.958451
Si Si4 0.429794 0.324234 0.626511
Si Si5 0.203040 0.324988 0.364036
Si Si6 0.261836 0.674551 0.949320
Si Si7 0.578276 0.324869 0.501997
O O1 0.630662 0.500000 0.813464
O O2 0.529896 0.673289 0.819579
O O3 0.529024 0.719917 0.713256
O O4 0.682907 0.774766 0.859685
O O5 0.391159 0.500000 0.773711
O O6 0.455303 0.732499 0.869272
O O7 0.350938 0.771933 0.721527
O O8 0.523323 0.500000 0.955211
O O9 0.500000 0.745227 0.000000
O O10 0.636090 0.730298 0.012508
O O11 0.411773 0.500000 0.619617
O O12 0.340262 0.248915 0.606154
O O13 0.439215 0.266290 0.569842
O O14 0.191916 0.500000 0.364251
O O15 0.313906 0.278572 0.419569
O O16 0.255304 0.500000 0.952876
O O17 0.250000 0.750000 0.000000
O O18 0.500000 0.257420 0.500000
O O19 0.566470 0.500000 0.495057
#
# Coordination Sequence:
#
# PCOD8087077 Si02
#       7
#     8   8   8   8   8   8   8
#     4   9  17  31  50  77 102 129 170 210 252 297
#     4   9  17  33  54  74 101 136 172 205 250 309
#     4   9  18  34  53  72  97 135 177 208 242 302
#     4   9  18  34  56  76 100 137 174 205 247 306
#     4  10  19  31  53  82 104 127 169 218 255 292
#     4  11  20  32  53  77 101 132 171 211 253 297
#     4   9  18  34  54  76 104 139 172 203 249 308
#
# _framework density 18.199912000000001
#
# number of rings (size 3 to 8) (size 9 to 14) (size 15 to 20)
#    0.000    2.571    1.429    2.143    0.000    2.286 
#    2.571    0.714    0.000    6.857    0.000    0.000 
#    0.000    0.000    0.000    0.000    0.000    0.000 
#
# Total GULP energy -347100.237174 kJ/mol
# GULP energy per Si atom -12396.437042 kJ/mol
# Density = 1.815849 g / cm^3
# Si number density = 18.199912 Si / 1000 Ang^3
#
#
#
# Elastic Constant Matrix: (Units=GPa)
#
#
# Indices 1 2 3 4 5 6 
#
# 1 139.6161 35.5648 88.8639 0.0000 -3.8735 0.0000
# 2 35.5648 48.0641 34.5879 0.0000 6.4756 0.0000
# 3 88.8639 34.5879 148.8181 0.0000 -5.1654 0.0000
# 4 0.0000 0.0000 0.0000 26.8455 0.0000 3.9554
# 5 -3.8735 6.4756 -5.1654 0.0000 30.8849 0.0000
# 6 0.0000 0.0000 0.0000 3.9554 0.0000 17.4017
#
#
#
# Elastic Compliance Matrix: (Units=1/GPa)
#
#
# Indices 1 2 3 4 5 6 
#
# 1 0.012416 -0.004923 -0.006216 0.000000 0.001550 0.000000
# 2 -0.004923 0.028194 -0.003862 0.000000 -0.007175 0.000000
# 3 -0.006216 -0.003862 0.011396 0.000000 0.001936 0.000000
# 4 0.000000 0.000000 0.000000 0.038541 0.000000 -0.008760
# 5 0.001550 -0.007175 0.001936 0.000000 0.034401 0.000000
# 6 0.000000 0.000000 0.000000 -0.008760 0.000000 0.059457
#
#
# Mechanical properties :
#
#
# Convention : Reuss Voigt Hill
#
# Bulk Modulus (GPa) = 45.44587 72.72570 59.08579
# Shear Modulus (GPa) = 22.54878 26.85854 24.70366
#
# Velocity S-wave (km/s) = 3.52369 3.84572 3.68822
# Velocity P-wave (km/s) = 6.44824 7.73082 7.11847
#
# Compressibility (1/GPa) = 0.02200420
#
# Stress axis : x y z
#
# Youngs Moduli (GPa) = 80.54217 35.46838 87.74818
#
# Poissons Ratio (x) = 0.17460 0.54544
# Poissons Ratio (y) = 0.39648 0.33891
# Poissons Ratio (z) = 0.50065 0.13699
#
# Static dielectric constant tensor:
#      x y z
#    x 3.401400 0.000000 -0.102020 
#    y 0.000000 3.096700 0.000000 
#    z -0.102020 0.000000 3.629190 
# 
# 
# High freq. dielectric constant tensor:
#      x y z
#    x 1.689260 0.000000 -0.001300 
#    y 0.000000 1.675790 0.000000 
#    z -0.001300 0.000000 1.722680 
# 
# From -- ./inp_files/342478.got.cif
#   From: 2010.06.25/outbox.cif.g09.slc.cpg/sg12_172_cif.got.tgz:342478.got - 2010.06.28 00:19:55.
