data_PCOD8087636
_publ_section_title
;
Structure prediction by ZEFSAII (Michael W. Deem and Ramdas Pophale) SiO2 
 PCOD8087636
Probable space group: C 2/M
;
_chemical_formula_sum "Si O2"
_cell_formula_units_Z 56
_cell_length_a 26.915268
_cell_length_b 8.721800
_cell_length_c 17.330138
_cell_angle_alpha 90.000000
_cell_angle_beta 126.106078
_cell_angle_gamma 90.000000
_cell_volume 3286.844648
_symmetry_space_group_name_H-M "C 2/M"
_symmetry_group_IT_number 12
_symmetry_cell_setting 'monoclinic'
loop_
_space_group_symop_operation_xyz
x,y,z
-x,y,-z
-x,-y,-z
x,-y,z
1/2+x,1/2+y,z
1/2-x,1/2+y,-z
1/2-x,1/2-y,-z
1/2+x,1/2-y,z
loop_
_atom_site_type_symbol
_atom_site_label
_atom_site_fract_x
_atom_site_fract_y
_atom_site_fract_z
Si Si1 0.987660 0.180716 0.604003
Si Si2 0.839505 0.327835 0.112861
Si Si3 0.332935 0.822174 0.935317
Si Si4 0.038880 0.179601 0.962065
Si Si5 0.017173 0.327124 0.782679
Si Si6 0.409161 0.819694 0.406345
Si Si7 0.700526 0.675966 0.772605
O O1 0.927383 0.234874 0.502156
O O2 0.979015 0.228087 0.685282
O O3 0.047613 0.263384 0.623711
O O4 0.996126 0.000000 0.603660
O O5 0.817815 0.500000 0.114912
O O6 0.912580 0.321031 0.177685
O O7 0.815537 0.208355 0.153302
O O8 0.814465 0.276516 0.006124
O O9 0.273396 0.791752 0.827077
O O10 0.353053 0.000000 0.953431
O O11 0.390224 0.724235 0.957761
O O12 0.008895 0.259660 0.860371
O O13 0.034769 0.000000 0.944811
O O14 0.000000 0.233522 0.000000
O O15 0.991671 0.500000 0.759034
O O16 0.338500 0.781366 0.321237
O O17 0.417299 0.000000 0.424520
O O18 0.684734 0.500000 0.740718
#
# Coordination Sequence:
#
# PCOD8087636 Si02
#       7
#     8   8   8   8   8   8   8
#     4  11  20  32  49  70  96 130 171 211 247 284
#     4   9  17  29  44  65  95 130 165 200 238 287
#     4   9  20  34  48  68  96 129 166 203 245 297
#     4  10  21  36  54  77 101 126 162 207 251 295
#     4  10  19  32  51  74 100 131 166 202 247 300
#     4  11  21  32  46  66  98 137 172 207 244 286
#     4  11  20  30  45  68  97 132 170 205 241 286
#
# _framework density 17.037616
#
# number of rings (size 3 to 8) (size 9 to 14) (size 15 to 20)
#    0.000    1.857    1.429    6.000    0.000    4.571 
#    0.000    0.000    0.000    0.000    0.000    1.000 
#    0.000    0.000    0.000    0.000    0.000    0.000 
#
# Total GULP energy -347216.291121 kJ/mol
# GULP energy per Si atom -12400.581826 kJ/mol
# Density = 1.699884 g / cm^3
# Si number density = 17.037616 Si / 1000 Ang^3
#
#
#
# Elastic Constant Matrix: (Units=GPa)
#
#
# Indices 1 2 3 4 5 6 
#
# 1 53.6847 20.7214 36.1514 0.0000 -11.2801 0.0000
# 2 20.7214 77.4170 30.9498 0.0000 -9.1534 0.0000
# 3 36.1514 30.9498 113.2636 0.0000 -1.4393 0.0000
# 4 0.0000 0.0000 0.0000 29.5083 0.0000 -1.6949
# 5 -11.2801 -9.1534 -1.4393 0.0000 16.3178 0.0000
# 6 0.0000 0.0000 0.0000 -1.6949 0.0000 18.6184
#
#
#
# Elastic Compliance Matrix: (Units=1/GPa)
#
#
# Indices 1 2 3 4 5 6 
#
# 1 0.028928 -0.002263 -0.008386 0.000000 0.017987 0.000000
# 2 -0.002263 0.015741 -0.003490 0.000000 0.006957 0.000000
# 3 -0.008386 -0.003490 0.012375 0.000000 -0.006663 0.000000
# 4 0.000000 0.000000 0.000000 0.034067 0.000000 0.003101
# 5 0.017987 0.006957 -0.006663 0.000000 0.077032 0.000000
# 6 0.000000 0.000000 0.000000 0.003101 0.000000 0.053993
#
#
# Mechanical properties :
#
#
# Convention : Reuss Voigt Hill
#
# Bulk Modulus (GPa) = 34.76636 46.66783 40.71710
# Shear Modulus (GPa) = 19.23063 23.32509 21.27786
#
# Velocity S-wave (km/s) = 3.36328 3.70406 3.53778
# Velocity P-wave (km/s) = 5.96089 6.76343 6.37480
#
# Compressibility (1/GPa) = 0.02876344
#
# Stress axis : x y z
#
# Youngs Moduli (GPa) = 34.56911 63.52889 80.81009
#
# Poissons Ratio (x) = 0.14379 0.67767
# Poissons Ratio (y) = 0.07824 0.28206
# Poissons Ratio (z) = 0.28990 0.22174
#
# Static dielectric constant tensor:
#      x y z
#    x 2.801740 0.000000 0.030040 
#    y 0.000000 3.253660 0.000000 
#    z 0.030040 0.000000 3.431180 
# 
# 
# High freq. dielectric constant tensor:
#      x y z
#    x 1.600700 0.000000 0.005370 
#    y 0.000000 1.671220 0.000000 
#    z 0.005370 0.000000 1.665060 
# 
# From -- ./inp_files/291971.got.cif
#   From: 2010.06.25/outbox.cif.g09.slc.cpg/sg12_146_cif.got.tgz:291971.got - 2010.06.28 00:19:55.
