data_PCOD8087680
_publ_section_title
;
Structure prediction by ZEFSAII (Michael W. Deem and Ramdas Pophale) SiO2 
 PCOD8087680
Probable space group: C 2/M
;
_chemical_formula_sum "Si O2"
_cell_formula_units_Z 64
_cell_length_a 27.566056
_cell_length_b 9.166870
_cell_length_c 13.910755
_cell_angle_alpha 90.000000
_cell_angle_beta 96.827626
_cell_angle_gamma 90.000000
_cell_volume 3490.242082
_symmetry_space_group_name_H-M "C 2/M"
_symmetry_group_IT_number 12
_symmetry_cell_setting 'monoclinic'
loop_
_space_group_symop_operation_xyz
x,y,z
-x,y,-z
-x,-y,-z
x,-y,z
1/2+x,1/2+y,z
1/2-x,1/2+y,-z
1/2-x,1/2-y,-z
1/2+x,1/2-y,z
loop_
_atom_site_type_symbol
_atom_site_label
_atom_site_fract_x
_atom_site_fract_y
_atom_site_fract_z
Si Si1 0.669909 0.665064 0.333740
Si Si2 0.520165 0.170151 0.291478
Si Si3 0.106122 0.329659 0.459040
Si Si4 0.082121 0.164141 0.163276
Si Si5 0.584024 0.827839 0.665798
Si Si6 0.353853 0.831295 0.958804
Si Si7 0.732627 0.828706 0.205124
Si Si8 0.669477 0.829022 0.829489
O O1 0.686194 0.500000 0.360821
O O2 0.652460 0.743655 0.427005
O O3 0.625976 0.668666 0.248655
O O4 0.715508 0.752187 0.299754
O O5 0.557342 0.200479 0.386984
O O6 0.536174 0.251861 0.197980
O O7 0.467841 0.235005 0.310747
O O8 0.517501 0.000000 0.265692
O O9 0.119561 0.500000 0.462101
O O10 0.097164 0.266824 0.563566
O O11 0.066176 0.000000 0.135032
O O12 0.099895 0.241411 0.069817
O O13 0.625598 0.781487 0.749976
O O14 0.578621 0.000000 0.656432
O O15 0.346132 0.787583 0.066873
O O16 0.367116 0.000000 0.949558
O O17 0.304639 0.792442 0.889705
O O18 0.784337 0.765561 0.187766
O O19 0.736744 0.000000 0.225098
O O20 0.682144 0.000000 0.823219
#
# Coordination Sequence:
#
# PCOD8087680 Si02
#       8
#     8   8   8   8   8   8   8   8
#     4   9  17  30  49  74 100 124 155 197 243 285
#     4   9  16  29  51  75  98 126 160 196 235 281
#     4   9  16  29  51  76  99 124 158 198 237 279
#     4   9  17  29  48  74 100 124 155 199 244 282
#     4   9  18  32  50  72  98 129 163 197 234 281
#     4   9  18  32  51  73  96 125 160 197 237 285
#     4  10  19  32  51  74  97 123 159 199 240 285
#     4  10  20  34  50  70  98 129 161 197 238 283
#
# _framework density 18.336836999999999
#
# number of rings (size 3 to 8) (size 9 to 14) (size 15 to 20)
#    0.000    2.750    0.000    1.875    0.000    5.500 
#    0.000    3.125    0.000    6.750    0.000    0.000 
#    0.000    0.000    0.000    0.000    0.000    0.000 
#
# Total GULP energy -396828.384522 kJ/mol
# GULP energy per Si atom -12400.887016 kJ/mol
# Density = 1.829510 g / cm^3
# Si number density = 18.336837 Si / 1000 Ang^3
#
#
#
# Elastic Constant Matrix: (Units=GPa)
#
#
# Indices 1 2 3 4 5 6 
#
# 1 197.8139 62.4380 48.9567 0.0000 -56.8683 0.0000
# 2 62.4380 90.1120 61.1230 0.0000 -21.8281 0.0000
# 3 48.9567 61.1230 136.3347 0.0000 -22.5102 0.0000
# 4 0.0000 0.0000 0.0000 18.5287 0.0000 -9.2385
# 5 -56.8683 -21.8281 -22.5102 0.0000 38.1860 0.0000
# 6 0.0000 0.0000 0.0000 -9.2385 0.0000 26.4371
#
#
#
# Elastic Compliance Matrix: (Units=1/GPa)
#
#
# Indices 1 2 3 4 5 6 
#
# 1 0.009855 -0.004008 0.000336 0.000000 0.012583 0.000000
# 2 -0.004008 0.018662 -0.006815 0.000000 0.000682 0.000000
# 3 0.000336 -0.006815 0.010756 0.000000 0.002945 0.000000
# 4 0.000000 0.000000 0.000000 0.065358 0.000000 0.022839
# 5 0.012583 0.000682 0.002945 0.000000 0.047052 0.000000
# 6 0.000000 0.000000 0.000000 0.022839 0.000000 0.045807
#
#
# Mechanical properties :
#
#
# Convention : Reuss Voigt Hill
#
# Bulk Modulus (GPa) = 54.65037 85.47731 70.06384
# Shear Modulus (GPa) = 22.26542 33.41322 27.83932
#
# Velocity S-wave (km/s) = 3.48838 4.27334 3.90066
# Velocity P-wave (km/s) = 6.78921 8.43000 7.65370
#
# Compressibility (1/GPa) = 0.01829814
#
# Stress axis : x y z
#
# Youngs Moduli (GPa) = 101.47593 53.58451 92.97187
#
# Poissons Ratio (x) = 0.21476 -0.03121
# Poissons Ratio (y) = 0.40671 0.63361
# Poissons Ratio (z) = -0.03407 0.36518
#
# Static dielectric constant tensor:
#      x y z
#    x 3.309220 0.000000 -0.268190 
#    y 0.000000 3.302540 0.000000 
#    z -0.268190 0.000000 3.444860 
# 
# 
# High freq. dielectric constant tensor:
#      x y z
#    x 1.701400 0.000000 -0.026420 
#    y 0.000000 1.697580 0.000000 
#    z -0.026420 0.000000 1.704560 
# 
# From -- ./inp_files/187403.got.cif
#   From: 2010.06.25/outbox.cif.g09.slc.cpg/sg12_94_cif.got.tgz:187403.got - 2010.06.28 00:19:55.
