data_PCOD8087545
_publ_section_title
;
Structure prediction by ZEFSAII (Michael W. Deem and Ramdas Pophale) SiO2 
 PCOD8087545
Probable space group: C 2/M
;
_chemical_formula_sum "Si O2"
_cell_formula_units_Z 56
_cell_length_a 30.673477
_cell_length_b 8.817971
_cell_length_c 19.107130
_cell_angle_alpha 90.000000
_cell_angle_beta 142.173086
_cell_angle_gamma 90.000000
_cell_volume 3169.455263
_symmetry_space_group_name_H-M "C 2/M"
_symmetry_group_IT_number 12
_symmetry_cell_setting 'monoclinic'
loop_
_space_group_symop_operation_xyz
x,y,z
-x,y,-z
-x,-y,-z
x,-y,z
1/2+x,1/2+y,z
1/2-x,1/2+y,-z
1/2-x,1/2-y,-z
1/2+x,1/2-y,z
loop_
_atom_site_type_symbol
_atom_site_label
_atom_site_fract_x
_atom_site_fract_y
_atom_site_fract_z
Si Si1 0.546510 0.678904 0.247155
Si Si2 0.936764 0.169762 0.364857
Si Si3 0.951654 0.178645 0.000794
Si Si4 0.849085 0.324385 0.363586
Si Si5 0.309336 0.178822 0.623301
Si Si6 0.299777 0.322417 0.759347
Si Si7 0.029555 0.677585 0.374796
O O1 0.560168 0.500000 0.262852
O O2 0.481081 0.727302 0.113952
O O3 0.614977 0.761426 0.304470
O O4 0.528920 0.730287 0.302556
O O5 0.867276 0.234821 0.315526
O O6 0.000000 0.171032 0.500000
O O7 0.958830 0.274680 0.327522
O O8 0.920755 0.000000 0.317764
O O9 0.955197 0.000000 0.997375
O O10 0.870028 0.231896 0.890001
O O11 0.000000 0.250990 0.000000
O O12 0.861808 0.500000 0.363825
O O13 0.767853 0.286754 0.278204
O O14 0.899616 0.276126 0.492439
O O15 0.250000 0.250000 0.500000
O O16 0.292575 0.224380 0.680943
O O17 0.307366 0.000000 0.612388
O O18 0.302954 0.500000 0.743202
O O19 0.027429 0.500000 0.355899
#
# Coordination Sequence:
#
# PCOD8087545 Si02
#       7
#     8   8   8   8   8   8   8
#     4  11  21  35  55  77 104 139 179 220 261 311
#     4   9  17  30  50  75 104 137 171 208 255 315
#     4   9  17  33  56  77 100 137 182 220 260 309
#     4   9  18  31  51  77 105 136 168 209 262 315
#     4  12  24  36  51  75 106 139 173 214 266 316
#     4  10  19  35  56  77 104 139 178 217 260 315
#     4  10  19  32  50  77 110 139 172 214 263 316
#
# _framework density 17.668652000000002
#
# number of rings (size 3 to 8) (size 9 to 14) (size 15 to 20)
#    0.000    2.000    1.429    3.429    0.000    4.000 
#    0.000    2.143    0.000    0.857    0.000    0.000 
#    0.000    0.000    0.000    0.000    0.000    0.000 
#
# Total GULP energy -347217.594415 kJ/mol
# GULP energy per Si atom -12400.628372 kJ/mol
# Density = 1.762844 g / cm^3
# Si number density = 17.668652 Si / 1000 Ang^3
#
#
#
# Elastic Constant Matrix: (Units=GPa)
#
#
# Indices 1 2 3 4 5 6 
#
# 1 90.9065 29.2783 16.2491 0.0000 39.4195 0.0000
# 2 29.2783 80.7176 24.5738 0.0000 13.7245 0.0000
# 3 16.2491 24.5738 58.5760 0.0000 49.4177 0.0000
# 4 0.0000 0.0000 0.0000 16.9328 0.0000 -4.0215
# 5 39.4195 13.7245 49.4177 0.0000 -3.9610 0.0000
# 6 0.0000 0.0000 0.0000 -4.0215 0.0000 34.3212
#
#
#
# Elastic Compliance Matrix: (Units=1/GPa)
#
#
# Indices 1 2 3 4 5 6 
#
# 1 0.010408 -0.002696 -0.007050 0.000000 0.006275 0.000000
# 2 -0.002696 0.014687 -0.002231 0.000000 -0.003773 0.000000
# 3 -0.007050 -0.002231 0.007434 0.000000 0.014852 0.000000
# 4 0.000000 0.000000 0.000000 0.060748 0.000000 0.007118
# 5 0.006275 -0.003773 0.014852 0.000000 -0.017791 0.000000
# 6 0.000000 0.000000 0.000000 0.007118 0.000000 0.029971
#
#
# Mechanical properties :
#
#
# Convention : Reuss Voigt Hill
#
# Bulk Modulus (GPa) = 116.62264 41.15583 78.88924
# Shear Modulus (GPa) = 37.80203 20.13185 28.96694
#
# Velocity S-wave (km/s) = 4.63049 3.37918 4.05341
# Velocity P-wave (km/s) = 9.73331 6.21038 8.16413
#
# Compressibility (1/GPa) = 0.00857466
#
# Stress axis : x y z
#
# Youngs Moduli (GPa) = 96.08354 68.08569 134.51817
#
# Poissons Ratio (x) = 0.18354 0.94839
# Poissons Ratio (y) = 0.25901 0.30013
# Poissons Ratio (z) = 0.67742 0.15191
#
# Static dielectric constant tensor:
#      x y z
#    x 1.498270 0.000000 0.275560 
#    y 0.000000 3.261500 0.000000 
#    z 0.275560 0.000000 3.247870 
# 
# 
# High freq. dielectric constant tensor:
#      x y z
#    x 1.689880 0.000000 0.001600 
#    y 0.000000 1.678780 0.000000 
#    z 0.001600 0.000000 1.662660 
# 
# From -- ./inp_files/281025.got.cif
#   From: 2010.06.25/outbox.cif.g09.slc.cpg/sg12_141_cif.got.tgz:281025.got - 2010.06.28 00:19:55.
