data_PCOD8087080
_publ_section_title
;
Structure prediction by ZEFSAII (Michael W. Deem and Ramdas Pophale) SiO2 
 PCOD8087080
Probable space group: C 2/M
;
_chemical_formula_sum "Si O2"
_cell_formula_units_Z 48
_cell_length_a 14.112726
_cell_length_b 18.915175
_cell_length_c 25.105785
_cell_angle_alpha 90.000000
_cell_angle_beta 158.507615
_cell_angle_gamma 90.000000
_cell_volume 2455.409604
_symmetry_space_group_name_H-M "C 2/M"
_symmetry_group_IT_number 12
_symmetry_cell_setting 'monoclinic'
loop_
_space_group_symop_operation_xyz
x,y,z
-x,y,-z
-x,-y,-z
x,-y,z
1/2+x,1/2+y,z
1/2-x,1/2+y,-z
1/2-x,1/2-y,-z
1/2+x,1/2-y,z
loop_
_atom_site_type_symbol
_atom_site_label
_atom_site_fract_x
_atom_site_fract_y
_atom_site_fract_z
Si Si1 0.128585 0.775191 0.232344
Si Si2 0.264372 0.863508 0.662436
Si Si3 0.444915 0.218234 0.031428
Si Si4 0.861762 0.922917 0.792222
Si Si5 0.779304 0.580328 0.163806
Si Si6 0.955380 0.421850 0.091966
O O1 0.298315 0.718063 0.353170
O O2 0.222508 0.856782 0.289863
O O3 0.130801 0.760796 0.169527
O O4 0.845484 0.760688 0.107155
O O5 0.493519 0.869684 0.739183
O O6 0.341735 0.907747 0.754927
O O7 0.000000 0.894956 0.500000
O O8 0.493010 0.134142 0.064134
O O9 0.500000 0.240515 0.000000
O O10 0.699744 0.919570 0.761517
O O11 0.812911 0.000000 0.738905
O O12 0.166604 0.914444 0.965262
O O13 0.813781 0.500000 0.159797
O O14 0.500000 0.610572 0.000000
O O15 0.004086 0.500000 0.093984
#
# Coordination Sequence:
#
# PCOD8087080 Si02
#       6
#     8   8   8   8   8   8
#     4   9  20  33  49  78 108 141 183 225 270 325
#     4  11  22  34  50  79 115 151 176 215 279 330
#     4   9  18  30  51  79 105 140 178 224 279 318
#     4   9  17  32  55  79 101 130 180 238 275 307
#     4  10  19  31  53  82 106 136 180 226 271 317
#     4   9  17  32  51  77 111 139 177 223 264 325
#
# _framework density 19.548673000000001
#
# number of rings (size 3 to 8) (size 9 to 14) (size 15 to 20)
#    0.000    2.500    1.667    1.500    2.333    1.667 
#    0.000    0.833    0.000    0.500    0.000    0.000 
#    0.000    0.000    0.000    0.000    0.000    0.000 
#
# Total GULP energy -297435.173802 kJ/mol
# GULP energy per Si atom -12393.132242 kJ/mol
# Density = 1.950418 g / cm^3
# Si number density = 19.548673 Si / 1000 Ang^3
#
#
#
# Elastic Constant Matrix: (Units=GPa)
#
#
# Indices 1 2 3 4 5 6 
#
# 1 81.5072 16.2335 18.7161 -0.0045 4.1210 0.0138
# 2 16.2335 118.2671 4.2767 -0.0282 4.9466 -0.0044
# 3 18.7161 4.2767 54.2214 -0.0563 5.4089 0.0157
# 4 -0.0045 -0.0282 -0.0563 14.3979 0.0052 -1.1161
# 5 4.1210 4.9466 5.4089 0.0052 13.7819 0.0136
# 6 0.0138 -0.0044 0.0157 -1.1161 0.0136 19.3943
#
#
#
# Elastic Compliance Matrix: (Units=1/GPa)
#
#
# Indices 1 2 3 4 5 6 
#
# 1 0.013702 -0.001647 -0.004423 -0.000016 -0.001770 -0.000006
# 2 -0.001647 0.008790 0.000146 0.000019 -0.002720 0.000006
# 3 -0.004423 0.000146 0.020640 0.000082 -0.006830 -0.000004
# 4 -0.000016 0.000019 0.000082 0.069766 -0.000064 0.004015
# 5 -0.001770 -0.002720 -0.006830 -0.000064 0.076745 -0.000052
# 6 -0.000006 0.000006 -0.000004 0.004015 -0.000052 0.051793
#
#
# Mechanical properties :
#
#
# Convention : Reuss Voigt Hill
#
# Bulk Modulus (GPa) = 31.96466 36.93871 34.45168
# Shear Modulus (GPa) = 18.96020 23.83280 21.39650
#
# Velocity S-wave (km/s) = 3.11770 3.49542 3.31195
# Velocity P-wave (km/s) = 5.41727 5.93527 5.68218
#
# Compressibility (1/GPa) = 0.03128455
#
# Stress axis : x y z
#
# Youngs Moduli (GPa) = 72.98206 113.76628 48.45062
#
# Poissons Ratio (x) = 0.18735 0.21431
# Poissons Ratio (y) = 0.12019 -0.00710
# Poissons Ratio (z) = 0.32281 -0.01666
#
# Static dielectric constant tensor:
#      x y z
#    x 3.274860 0.000030 0.025210 
#    y 0.000030 3.960210 -0.000200 
#    z 0.025210 -0.000200 2.983760 
# 
# 
# High freq. dielectric constant tensor:
#      x y z
#    x 1.737280 0.000000 0.004700 
#    y 0.000000 1.786700 -0.000020 
#    z 0.004700 -0.000020 1.698540 
# 
# From -- ./inp_files/77276.got.cif
#   From: 2010.06.25/outbox.cif.g09.slc.cpg/sg12_39_cif.got.tgz:77276.got - 2010.06.28 00:19:55.
