data_PCOD8087584
_publ_section_title
;
Structure prediction by ZEFSAII (Michael W. Deem and Ramdas Pophale) SiO2 
 PCOD8087584
Probable space group: C 2/M
;
_chemical_formula_sum "Si O2"
_cell_formula_units_Z 64
_cell_length_a 22.964314
_cell_length_b 9.676169
_cell_length_c 21.252917
_cell_angle_alpha 90.000000
_cell_angle_beta 50.982260
_cell_angle_gamma 90.000000
_cell_volume 3669.181022
_symmetry_space_group_name_H-M "C 2/M"
_symmetry_group_IT_number 12
_symmetry_cell_setting 'monoclinic'
loop_
_space_group_symop_operation_xyz
x,y,z
-x,y,-z
-x,-y,-z
x,-y,z
1/2+x,1/2+y,z
1/2-x,1/2+y,-z
1/2-x,1/2-y,-z
1/2+x,1/2-y,z
loop_
_atom_site_type_symbol
_atom_site_label
_atom_site_fract_x
_atom_site_fract_y
_atom_site_fract_z
Si Si1 0.845265 0.845865 0.977265
Si Si2 0.352829 0.340329 0.469160
Si Si3 0.221504 0.839911 0.608899
Si Si4 0.300866 0.662837 0.235932
Si Si5 0.416087 0.334921 0.056369
Si Si6 0.011339 0.158185 0.418604
Si Si7 0.852106 0.336176 0.721814
Si Si8 0.830049 0.346639 0.879475
O O1 0.879539 0.780376 0.016941
O O2 0.756948 0.849442 0.045546
O O3 0.876672 0.000000 0.944233
O O4 0.871452 0.754654 0.900073
O O5 0.336940 0.500000 0.496553
O O6 0.296010 0.248681 0.548041
O O7 0.340102 0.311575 0.403396
O O8 0.436799 0.299093 0.430957
O O9 0.186030 0.796451 0.700111
O O10 0.246013 0.000000 0.592974
O O11 0.300809 0.500000 0.226239
O O12 0.368650 0.724985 0.147793
O O13 0.220642 0.718405 0.266408
O O14 0.415251 0.500000 0.058626
O O15 0.500000 0.275850 0.000000
O O16 0.076062 0.260206 0.353819
O O17 0.000000 0.178682 0.500000
O O18 0.033268 0.000000 0.388350
O O19 0.862729 0.500000 0.706797
O O20 0.842572 0.292495 0.800684
O O21 0.864034 0.500000 0.864121
#
# Coordination Sequence:
#
# PCOD8087584 Si02
#       8
#     8   8   8   8   8   8   8   8
#     4   9  16  29  49  72  96 123 159 198 239 288
#     4   9  18  33  49  70 101 129 157 196 240 284
#     4   9  17  30  52  75  93 124 163 199 237 281
#     4   9  16  29  48  70  96 122 158 204 244 281
#     4   9  16  28  47  73 100 125 157 201 246 287
#     4  10  21  35  49  70 104 136 159 195 246 292
#     4  10  19  32  51  72  96 128 165 205 243 285
#     4   9  17  30  48  69  96 127 157 197 243 282
#
# _framework density 17.442585000000001
#
# number of rings (size 3 to 8) (size 9 to 14) (size 15 to 20)
#    0.000    2.750    1.250    0.750    0.000    1.250 
#    2.250    0.000    0.000    1.125    0.000    0.000 
#    0.000    0.000    0.000    0.000    0.000    0.000 
#
# Total GULP energy -396716.404978 kJ/mol
# GULP energy per Si atom -12397.387656 kJ/mol
# Density = 1.740289 g / cm^3
# Si number density = 17.442585 Si / 1000 Ang^3
#
#
#
# Elastic Constant Matrix: (Units=GPa)
#
#
# Indices 1 2 3 4 5 6 
#
# 1 112.7595 32.2404 70.3095 0.0001 9.4473 -0.0002
# 2 32.2404 39.3169 39.1765 0.0001 4.9168 0.0000
# 3 70.3095 39.1765 107.9362 0.0000 10.7543 -0.0001
# 4 0.0001 0.0001 0.0000 24.7539 0.0000 2.7926
# 5 9.4473 4.9168 10.7543 0.0000 31.7296 0.0000
# 6 -0.0002 0.0000 -0.0001 2.7926 0.0000 17.4850
#
#
#
# Elastic Compliance Matrix: (Units=1/GPa)
#
#
# Indices 1 2 3 4 5 6 
#
# 1 0.015383 -0.004075 -0.008433 0.000000 -0.001091 0.000000
# 2 -0.004075 0.040978 -0.012116 0.000000 -0.001030 0.000000
# 3 -0.008433 -0.012116 0.019372 0.000000 -0.002178 0.000000
# 4 0.000000 0.000000 0.000000 0.041139 0.000000 -0.006570
# 5 -0.001091 -0.001030 -0.002178 0.000000 0.032739 0.000000
# 6 0.000000 0.000000 0.000000 -0.006570 0.000000 0.058241
#
#
# Mechanical properties :
#
#
# Convention : Reuss Voigt Hill
#
# Bulk Modulus (GPa) = 37.75700 60.38506 49.07103
# Shear Modulus (GPa) = 18.80204 22.67944 20.74074
#
# Velocity S-wave (km/s) = 3.28676 3.60979 3.45205
# Velocity P-wave (km/s) = 6.00809 7.21586 6.63949
#
# Compressibility (1/GPa) = 0.02648515
#
# Stress axis : x y z
#
# Youngs Moduli (GPa) = 65.00626 24.40346 51.62000
#
# Poissons Ratio (x) = 0.09946 0.43529
# Poissons Ratio (y) = 0.26493 0.62542
# Poissons Ratio (z) = 0.54818 0.29567
#
# Static dielectric constant tensor:
#      x y z
#    x 3.441130 0.000000 0.255990 
#    y 0.000000 3.126000 0.000000 
#    z 0.255990 0.000000 3.364810 
# 
# 
# High freq. dielectric constant tensor:
#      x y z
#    x 1.678850 0.000000 0.016750 
#    y 0.000000 1.643480 0.000000 
#    z 0.016750 0.000000 1.669780 
# 
# From -- ./inp_files/320985.got.cif
#   From: 2010.06.25/outbox.cif.g09.slc.cpg/sg12_161_cif.got.tgz:320985.got - 2010.06.28 00:19:55.
