data_PCOD8087261
_publ_section_title
;
Structure prediction by ZEFSAII (Michael W. Deem and Ramdas Pophale) SiO2 
 PCOD8087261
Probable space group: C 2/M
;
_chemical_formula_sum "Si O2"
_cell_formula_units_Z 56
_cell_length_a 23.826669
_cell_length_b 9.111716
_cell_length_c 31.898736
_cell_angle_alpha 90.000000
_cell_angle_beta 154.506678
_cell_angle_gamma 90.000000
_cell_volume 2980.678889
_symmetry_space_group_name_H-M "C 2/M"
_symmetry_group_IT_number 12
_symmetry_cell_setting 'monoclinic'
loop_
_space_group_symop_operation_xyz
x,y,z
-x,y,-z
-x,-y,-z
x,-y,z
1/2+x,1/2+y,z
1/2-x,1/2+y,-z
1/2-x,1/2-y,-z
1/2+x,1/2-y,z
loop_
_atom_site_type_symbol
_atom_site_label
_atom_site_fract_x
_atom_site_fract_y
_atom_site_fract_z
Si Si1 0.428562 0.166525 0.135678
Si Si2 0.823230 0.331530 0.650140
Si Si3 0.035875 0.174891 0.478637
Si Si4 0.875402 0.174015 0.603564
Si Si5 0.142308 0.675222 0.083933
Si Si6 0.893077 0.826151 0.300767
Si Si7 0.780671 0.327416 0.955288
O O1 0.584429 0.180539 0.246630
O O2 0.356109 0.261809 0.121956
O O3 0.381493 0.000000 0.110603
O O4 0.392960 0.216736 0.064520
O O5 0.813543 0.500000 0.627823
O O6 0.680627 0.269809 0.564813
O O7 0.891849 0.231301 0.661657
O O8 0.000000 0.240530 0.500000
O O9 0.934381 0.233268 0.374805
O O10 0.034162 0.000000 0.479246
O O11 0.750000 0.250000 0.500000
O O12 0.001169 0.225012 0.662098
O O13 0.858197 0.000000 0.591046
O O14 0.139464 0.500000 0.081574
O O15 0.250289 0.731935 0.190423
O O16 0.179128 0.736623 0.062796
O O17 0.000000 0.737793 0.000000
O O18 0.891063 0.000000 0.301080
O O19 0.761327 0.500000 0.938448
#
# Coordination Sequence:
#
# PCOD8087261 Si02
#       7
#     8   8   8   8   8   8   8
#     4   9  18  30  48  71  98 129 162 203 248 295
#     4  10  19  32  48  73 102 128 164 206 247 300
#     4   9  17  29  45  65  94 129 162 200 245 293
#     4  11  20  32  52  76 103 133 164 204 251 298
#     4   9  17  28  45  69  98 127 160 204 248 289
#     4   9  17  29  45  69  97 126 162 203 246 294
#     4   9  17  31  48  70  98 128 163 204 250 296
#
# _framework density 18.787666999999999
#
# number of rings (size 3 to 8) (size 9 to 14) (size 15 to 20)
#    0.000    2.571    1.429    1.286    0.000    2.857 
#    0.000    5.714    0.000    0.857    0.000    0.000 
#    0.000    0.000    0.000    0.000    0.000    0.000 
#
# Total GULP energy -347080.107947 kJ/mol
# GULP energy per Si atom -12395.718141 kJ/mol
# Density = 1.874491 g / cm^3
# Si number density = 18.787667 Si / 1000 Ang^3
#
#
#
# Elastic Constant Matrix: (Units=GPa)
#
#
# Indices 1 2 3 4 5 6 
#
# 1 141.2616 15.2451 77.4418 0.0002 -11.5404 0.0000
# 2 15.2451 22.0211 15.1061 0.0004 0.0753 0.0005
# 3 77.4418 15.1061 170.8110 -0.0001 -4.1166 0.0006
# 4 0.0002 0.0004 -0.0001 16.3161 0.0004 -0.3278
# 5 -11.5404 0.0753 -4.1166 0.0004 27.4039 -0.0001
# 6 0.0000 0.0005 0.0006 -0.3278 -0.0001 19.6842
#
#
#
# Elastic Compliance Matrix: (Units=1/GPa)
#
#
# Indices 1 2 3 4 5 6 
#
# 1 0.010082 -0.004170 -0.004114 0.000000 0.003639 0.000000
# 2 -0.004170 0.050085 -0.002594 -0.000001 -0.002283 -0.000001
# 3 -0.004114 -0.002594 0.007936 0.000000 -0.000533 0.000000
# 4 0.000000 -0.000001 0.000000 0.061310 -0.000001 0.001021
# 5 0.003639 -0.002283 -0.000533 -0.000001 0.037950 0.000000
# 6 0.000000 -0.000001 0.000000 0.001021 0.000000 0.050819
#
#
# Mechanical properties :
#
#
# Convention : Reuss Voigt Hill
#
# Bulk Modulus (GPa) = 21.57639 61.07552 41.32596
# Shear Modulus (GPa) = 19.57812 27.76755 23.67283
#
# Velocity S-wave (km/s) = 3.23162 3.84860 3.55353
# Velocity P-wave (km/s) = 5.04319 7.23380 6.23545
#
# Compressibility (1/GPa) = 0.04634695
#
# Stress axis : x y z
#
# Youngs Moduli (GPa) = 99.18681 19.96614 126.00193
#
# Poissons Ratio (x) = 0.08325 0.51843
# Poissons Ratio (y) = 0.41358 0.32684
# Poissons Ratio (z) = 0.40810 0.05179
#
# Static dielectric constant tensor:
#      x y z
#    x 3.699760 0.000000 -0.174630 
#    y 0.000000 3.034850 0.000000 
#    z -0.174630 0.000000 3.751340 
# 
# 
# High freq. dielectric constant tensor:
#      x y z
#    x 1.723510 0.000000 -0.011840 
#    y 0.000000 1.673400 0.000000 
#    z -0.011840 0.000000 1.748410 
# 
# From -- ./inp_files/237475.got.cif
#   From: 2010.06.25/outbox.cif.g09.slc.cpg/sg12_119_cif.got.tgz:237475.got - 2010.06.28 00:19:55.
