data_PCOD8087851
_publ_section_title
;
Structure prediction by ZEFSAII (Michael W. Deem and Ramdas Pophale) SiO2 
 PCOD8087851
Probable space group: C 2/M
;
_chemical_formula_sum "Si O2"
_cell_formula_units_Z 64
_cell_length_a 15.230463
_cell_length_b 22.667871
_cell_length_c 9.104216
_cell_angle_alpha 90.000000
_cell_angle_beta 90.432893
_cell_angle_gamma 90.000000
_cell_volume 3143.069581
_symmetry_space_group_name_H-M "C 2/M"
_symmetry_group_IT_number 12
_symmetry_cell_setting 'monoclinic'
loop_
_space_group_symop_operation_xyz
x,y,z
-x,y,-z
-x,-y,-z
x,-y,z
1/2+x,1/2+y,z
1/2-x,1/2+y,-z
1/2-x,1/2-y,-z
1/2+x,1/2-y,z
loop_
_atom_site_type_symbol
_atom_site_label
_atom_site_fract_x
_atom_site_fract_y
_atom_site_fract_z
Si Si1 0.996328 0.569045 0.665579
Si Si2 0.164933 0.935451 0.660845
Si Si3 0.404931 0.685832 0.333048
Si Si4 0.333190 0.066600 0.853016
Si Si5 0.763261 0.260987 0.170742
Si Si6 0.817613 0.065497 0.670622
Si Si7 0.101024 0.190000 0.326868
Si Si8 0.840306 0.386013 0.166756
O O1 0.018018 0.500000 0.670283
O O2 0.901087 0.584572 0.727404
O O3 0.000000 0.593304 0.500000
O O4 0.064473 0.603128 0.767374
O O5 0.091744 0.885459 0.679727
O O6 0.237280 0.926421 0.785903
O O7 0.209573 0.930233 0.500809
O O8 0.120300 0.000000 0.677985
O O9 0.323307 0.708979 0.236754
O O10 0.501019 0.706263 0.277703
O O11 0.388283 0.703587 0.500962
O O12 0.351831 0.000000 0.906646
O O13 0.342998 0.109232 0.991265
O O14 0.666946 0.265772 0.243708
O O15 0.815004 0.320092 0.208667
O O16 0.750000 0.250000 0.000000
O O17 0.881156 0.120612 0.711385
O O18 0.729318 0.068681 0.765200
O O19 0.859879 0.000000 0.702466
#
# Coordination Sequence:
#
# PCOD8087851 Si02
#       8
#     8   8   8   8   8   8   8   8
#     4  10  20  35  54  79 115 151 188 240 296 349
#     4   9  18  33  57  87 115 149 187 231 291 351
#     4  10  20  41  62  87 117 154 191 247 290 347
#     4  10  19  32  51  78 114 151 189 235 287 344
#     4  11  24  42  59  83 114 157 199 246 293 342
#     4   9  17  32  57  86 117 147 183 232 288 349
#     4   9  21  39  63  87 117 150 197 236 295 348
#     4  11  21  35  52  80 110 151 199 238 285 346
#
# _framework density 20.362259000000002
#
# number of rings (size 3 to 8) (size 9 to 14) (size 15 to 20)
#    0.000    2.125    0.000    3.375    0.000    4.000 
#    9.000    2.500    0.000    0.000    0.000    7.000 
#    0.000    0.000    0.000    0.000    0.000    0.000 
#
# Total GULP energy -396743.474385 kJ/mol
# GULP energy per Si atom -12398.233575 kJ/mol
# Density = 2.031591 g / cm^3
# Si number density = 20.362259 Si / 1000 Ang^3
#
#
#
# Elastic Constant Matrix: (Units=GPa)
#
#
# Indices 1 2 3 4 5 6 
#
# 1 98.9338 32.5535 33.2990 0.0000 -2.1160 0.0000
# 2 32.5535 71.0783 22.7610 0.0000 -1.3718 0.0000
# 3 33.2990 22.7610 94.8516 0.0000 2.8600 0.0000
# 4 0.0000 0.0000 0.0000 25.1670 0.0000 0.6552
# 5 -2.1160 -1.3718 2.8600 0.0000 23.5641 0.0000
# 6 0.0000 0.0000 0.0000 0.6552 0.0000 23.9484
#
#
#
# Elastic Compliance Matrix: (Units=1/GPa)
#
#
# Indices 1 2 3 4 5 6 
#
# 1 0.012851 -0.004770 -0.003406 0.000000 0.001290 0.000000
# 2 -0.004770 0.017053 -0.002443 0.000000 0.000861 0.000000
# 3 -0.003406 -0.002443 0.012384 0.000000 -0.001951 0.000000
# 4 0.000000 0.000000 0.000000 0.039763 0.000000 -0.001088
# 5 0.001290 0.000861 -0.001951 0.000000 0.042840 0.000000
# 6 0.000000 0.000000 0.000000 -0.001088 0.000000 0.041786
#
#
# Mechanical properties :
#
#
# Convention : Reuss Voigt Hill
#
# Bulk Modulus (GPa) = 47.50875 49.12121 48.31498
# Shear Modulus (GPa) = 25.64996 26.28593 25.96795
#
# Velocity S-wave (km/s) = 3.55305 3.59683 3.57501
# Velocity P-wave (km/s) = 6.34150 6.43627 6.38906
#
# Compressibility (1/GPa) = 0.02104876
#
# Stress axis : x y z
#
# Youngs Moduli (GPa) = 77.81305 58.64139 80.75208
#
# Poissons Ratio (x) = 0.27974 0.27503
# Poissons Ratio (y) = 0.37119 0.19730
# Poissons Ratio (z) = 0.26502 0.14328
#
# Static dielectric constant tensor:
#      x y z
#    x 3.555980 0.000000 -0.107030 
#    y 0.000000 3.748930 0.000000 
#    z -0.107030 0.000000 3.617300 
# 
# 
# High freq. dielectric constant tensor:
#      x y z
#    x 1.785300 0.000000 -0.003820 
#    y 0.000000 1.792680 0.000000 
#    z -0.003820 0.000000 1.792930 
# 
# From -- ./inp_files/65855.got.cif
#   From: 2010.06.25/outbox.cif.g09.slc.cpg/sg12_33_cif.got.tgz:65855.got - 2010.06.28 00:19:55.
