data_PCOD8087637
_publ_section_title
;
Structure prediction by ZEFSAII (Michael W. Deem and Ramdas Pophale) SiO2 
 PCOD8087637
Probable space group: C 2/M
;
_chemical_formula_sum "Si O2"
_cell_formula_units_Z 48
_cell_length_a 19.162688
_cell_length_b 8.857124
_cell_length_c 15.616570
_cell_angle_alpha 90.000000
_cell_angle_beta 90.231280
_cell_angle_gamma 90.000000
_cell_volume 2650.521110
_symmetry_space_group_name_H-M "C 2/M"
_symmetry_group_IT_number 12
_symmetry_cell_setting 'monoclinic'
loop_
_space_group_symop_operation_xyz
x,y,z
-x,y,-z
-x,-y,-z
x,-y,z
1/2+x,1/2+y,z
1/2-x,1/2+y,-z
1/2-x,1/2-y,-z
1/2+x,1/2-y,z
loop_
_atom_site_type_symbol
_atom_site_label
_atom_site_fract_x
_atom_site_fract_y
_atom_site_fract_z
Si Si1 0.296080 0.820705 0.574213
Si Si2 0.452193 0.822781 0.925035
Si Si3 0.054981 0.177719 0.428512
Si Si4 0.955935 0.166297 0.757477
Si Si5 0.790181 0.170187 0.749756
Si Si6 0.707268 0.820644 0.076635
O O1 0.250000 0.750000 0.500000
O O2 0.375746 0.774371 0.557404
O O3 0.266644 0.758683 0.664515
O O4 0.289401 0.000000 0.573991
O O5 0.482905 0.775204 0.832646
O O6 0.372820 0.767416 0.935948
O O7 0.456204 0.000000 0.930008
O O8 0.500000 0.750483 0.000000
O O9 0.018655 0.217797 0.336752
O O10 0.000000 0.224372 0.500000
O O11 0.074404 0.000000 0.431588
O O12 0.872951 0.166688 0.752431
O O13 0.984357 0.000000 0.779437
O O14 0.762223 0.256954 0.833811
O O15 0.759656 0.000000 0.748276
O O16 0.714414 0.000000 0.076515
O O17 0.750000 0.750000 0.000000
#
# Coordination Sequence:
#
# PCOD8087637 Si02
#       6
#     8   8   8   8   8   8
#     4  11  21  34  53  77 104 134 171 211 254 305
#     4   9  18  32  49  69  94 126 162 200 242 286
#     4   9  18  34  54  75 102 134 167 206 253 302
#     4   8  15  28  48  72  95 124 160 197 240 291
#     4   9  17  32  52  73  98 129 167 208 251 301
#     4  10  19  32  51  74 100 131 166 205 249 298
#
# _framework density 18.109646000000001
#
# number of rings (size 3 to 8) (size 9 to 14) (size 15 to 20)
#    0.000    2.667    0.000    3.500    0.000    5.333 
#    0.000    1.667    0.000    4.000    0.000    0.000 
#    0.000    0.000    0.000    0.000    0.000    0.000 
#
# Total GULP energy -297511.649607 kJ/mol
# GULP energy per Si atom -12396.318734 kJ/mol
# Density = 1.806843 g / cm^3
# Si number density = 18.109646 Si / 1000 Ang^3
#
#
#
# Elastic Constant Matrix: (Units=GPa)
#
#
# Indices 1 2 3 4 5 6 
#
# 1 46.3308 33.5569 60.3791 0.0000 1.3931 0.0000
# 2 33.5569 91.7639 61.2720 0.0000 2.7491 0.0000
# 3 60.3791 61.2720 195.5188 0.0000 -2.7330 0.0000
# 4 0.0000 0.0000 0.0000 36.7581 0.0000 1.1753
# 5 1.3931 2.7491 -2.7330 0.0000 32.8686 0.0000
# 6 0.0000 0.0000 0.0000 1.1753 0.0000 18.9301
#
#
#
# Elastic Compliance Matrix: (Units=1/GPa)
#
#
# Indices 1 2 3 4 5 6 
#
# 1 0.040546 -0.008085 -0.010014 0.000000 -0.001875 0.000000
# 2 -0.008085 0.015469 -0.002367 0.000000 -0.001148 0.000000
# 3 -0.010014 -0.002367 0.008968 0.000000 0.001368 0.000000
# 4 0.000000 0.000000 0.000000 0.027259 0.000000 -0.001692
# 5 -0.001875 -0.001148 0.001368 0.000000 0.030713 0.000000
# 6 0.000000 0.000000 0.000000 -0.001692 0.000000 0.052931
#
#
# Mechanical properties :
#
#
# Convention : Reuss Voigt Hill
#
# Bulk Modulus (GPa) = 41.57689 71.55886 56.56787
# Shear Modulus (GPa) = 22.23854 29.60506 25.92180
#
# Velocity S-wave (km/s) = 3.50808 4.04761 3.78746
# Velocity P-wave (km/s) = 6.27830 7.83864 7.10145
#
# Compressibility (1/GPa) = 0.02405183
#
# Stress axis : x y z
#
# Youngs Moduli (GPa) = 24.66323 64.64591 111.50819
#
# Poissons Ratio (x) = 0.52264 1.11663
# Poissons Ratio (y) = 0.19939 0.26395
# Poissons Ratio (z) = 0.24697 0.15302
#
# Static dielectric constant tensor:
#      x y z
#    x 3.056430 0.000000 0.056480 
#    y 0.000000 3.403060 0.000000 
#    z 0.056480 0.000000 3.785970 
# 
# 
# High freq. dielectric constant tensor:
#      x y z
#    x 1.654770 0.000000 -0.000180 
#    y 0.000000 1.703870 0.000000 
#    z -0.000180 0.000000 1.723970 
# 
# From -- ./inp_files/172379.got.cif
#   From: 2010.06.25/outbox.cif.g09.slc.cpg/sg12_87_cif.got.tgz:172379.got - 2010.06.28 00:19:55.
