data_PCOD8087538
_publ_section_title
;
Structure prediction by ZEFSAII (Michael W. Deem and Ramdas Pophale) SiO2 
 PCOD8087538
Probable space group: C 2/M
;
_chemical_formula_sum "Si O2"
_cell_formula_units_Z 64
_cell_length_a 30.602277
_cell_length_b 18.722986
_cell_length_c 9.350309
_cell_angle_alpha 90.000000
_cell_angle_beta 36.938892
_cell_angle_gamma 90.000000
_cell_volume 3219.604200
_symmetry_space_group_name_H-M "C 2/M"
_symmetry_group_IT_number 12
_symmetry_cell_setting 'monoclinic'
loop_
_space_group_symop_operation_xyz
x,y,z
-x,y,-z
-x,-y,-z
x,-y,z
1/2+x,1/2+y,z
1/2-x,1/2+y,-z
1/2-x,1/2-y,-z
1/2+x,1/2-y,z
loop_
_atom_site_type_symbol
_atom_site_label
_atom_site_fract_x
_atom_site_fract_y
_atom_site_fract_z
Si Si1 0.100336 0.312758 0.133765
Si Si2 0.328484 0.920870 0.240615
Si Si3 0.838920 0.803561 0.635875
Si Si4 0.918920 0.579688 0.267067
Si Si5 0.085210 0.084670 0.774631
Si Si6 0.289261 0.302184 0.079211
Si Si7 0.816354 0.921097 0.232507
Si Si8 0.446702 0.187281 0.433137
O O1 0.073051 0.339171 0.357822
O O2 0.034028 0.305506 0.194342
O O3 0.157118 0.371682 0.932816
O O4 0.139597 0.237473 0.048090
O O5 0.367103 0.888422 0.280184
O O6 0.242884 0.923356 0.486440
O O7 0.360642 0.000000 0.126746
O O8 0.865457 0.869529 0.467411
O O9 0.781758 0.748255 0.711247
O O10 0.913186 0.763341 0.481225
O O11 0.799218 0.827506 0.888012
O O12 0.893226 0.500000 0.375738
O O13 0.911644 0.628103 0.424243
O O14 0.000000 0.579865 0.000000
O O15 0.111708 0.102440 0.867885
O O16 0.095028 0.000000 0.713355
O O17 0.000000 0.106139 0.000000
O O18 0.286693 0.372279 0.182834
O O19 0.827448 0.000000 0.136670
#
# Coordination Sequence:
#
# PCOD8087538 Si02
#       8
#     8   8   8   8   8   8   8   8
#     4  10  21  35  53  79 112 147 185 235 283 341
#     4  10  20  35  55  80 111 148 191 234 282 340
#     4  10  22  40  61  87 118 153 193 244 297 351
#     4  10  19  32  50  76 110 148 189 232 275 332
#     4  10  23  42  62  89 123 157 200 250 299 356
#     4  10  22  40  61  87 118 149 195 245 295 355
#     4  10  22  40  61  87 117 151 196 246 293 348
#     4  10  21  35  52  80 113 146 188 231 284 345
#
# _framework density 19.878219000000001
#
# number of rings (size 3 to 8) (size 9 to 14) (size 15 to 20)
#    0.000    2.000    1.250    1.500    1.750    4.500 
#    0.000    1.250    0.000   11.250    0.000    0.000 
#    0.000    0.000    0.000    0.000    0.000    0.000 
#
# Total GULP energy -396609.823257 kJ/mol
# GULP energy per Si atom -12394.056977 kJ/mol
# Density = 1.983298 g / cm^3
# Si number density = 19.878219 Si / 1000 Ang^3
#
#
#
# Elastic Constant Matrix: (Units=GPa)
#
#
# Indices 1 2 3 4 5 6 
#
# 1 93.5303 43.6509 25.1629 0.0000 -2.4907 0.0000
# 2 43.6509 95.1645 44.9665 0.0000 17.7607 0.0000
# 3 25.1629 44.9665 71.2796 0.0000 -0.7144 0.0000
# 4 0.0000 0.0000 0.0000 8.3972 0.0000 -7.9156
# 5 -2.4907 17.7607 -0.7144 0.0000 27.7257 0.0000
# 6 0.0000 0.0000 0.0000 -7.9156 0.0000 26.3303
#
#
#
# Elastic Compliance Matrix: (Units=1/GPa)
#
#
# Indices 1 2 3 4 5 6 
#
# 1 0.014521 -0.007746 -0.000177 0.000000 0.006262 0.000000
# 2 -0.007746 0.022369 -0.011531 0.000000 -0.015322 0.000000
# 3 -0.000177 -0.011531 0.021445 0.000000 0.007923 0.000000
# 4 0.000000 0.000000 0.000000 0.166181 0.000000 0.049958
# 5 0.006262 -0.015322 0.007923 0.000000 0.046649 0.000000
# 6 0.000000 0.000000 0.000000 0.049958 0.000000 0.052998
#
#
# Mechanical properties :
#
#
# Convention : Reuss Voigt Hill
#
# Bulk Modulus (GPa) = 51.47064 54.17056 52.82060
# Shear Modulus (GPa) = 13.53012 22.23690 17.88351
#
# Velocity S-wave (km/s) = 2.61176 3.34826 3.00268
# Velocity P-wave (km/s) = 5.91982 6.50063 6.21701
#
# Compressibility (1/GPa) = 0.01942855
#
# Stress axis : x y z
#
# Youngs Moduli (GPa) = 68.86579 44.70508 46.63044
#
# Poissons Ratio (x) = 0.34626 0.00826
# Poissons Ratio (y) = 0.53340 0.53767
# Poissons Ratio (z) = 0.01220 0.51547
#
# Static dielectric constant tensor:
#      x y z
#    x 3.828290 0.000000 -0.209600 
#    y 0.000000 3.533080 0.000000 
#    z -0.209600 0.000000 3.568540 
# 
# 
# High freq. dielectric constant tensor:
#      x y z
#    x 1.790880 0.000000 -0.015030 
#    y 0.000000 1.763760 0.000000 
#    z -0.015030 0.000000 1.765180 
# 
# From -- ./inp_files/112831.got.cif
#   From: 2010.06.25/outbox.cif.g09.slc.cpg/sg12_57_cif.got.tgz:112831.got - 2010.06.28 00:19:55.
