data_PCOD8087222
_publ_section_title
;
Structure prediction by ZEFSAII (Michael W. Deem and Ramdas Pophale) SiO2 
 PCOD8087222
Probable space group: C 2/M
;
_chemical_formula_sum "Si O2"
_cell_formula_units_Z 56
_cell_length_a 10.215877
_cell_length_b 25.695590
_cell_length_c 20.175366
_cell_angle_alpha 90.000000
_cell_angle_beta 38.946148
_cell_angle_gamma 90.000000
_cell_volume 3329.069918
_symmetry_space_group_name_H-M "C 2/M"
_symmetry_group_IT_number 12
_symmetry_cell_setting 'monoclinic'
loop_
_space_group_symop_operation_xyz
x,y,z
-x,y,-z
-x,-y,-z
x,-y,z
1/2+x,1/2+y,z
1/2-x,1/2+y,-z
1/2-x,1/2-y,-z
1/2+x,1/2-y,z
loop_
_atom_site_type_symbol
_atom_site_label
_atom_site_fract_x
_atom_site_fract_y
_atom_site_fract_z
Si Si1 0.559492 0.177562 0.290388
Si Si2 0.582315 0.718929 0.608181
Si Si3 0.717982 0.148589 0.720504
Si Si4 0.951886 0.683788 0.944248
Si Si5 0.856772 0.626853 0.497628
Si Si6 0.510041 0.559853 0.574201
Si Si7 0.492914 0.305620 0.926032
O O1 0.510563 0.239794 0.302913
O O2 0.445230 0.149693 0.274929
O O3 0.490329 0.154276 0.387552
O O4 0.806500 0.169133 0.187864
O O5 0.750000 0.750000 0.500000
O O6 0.391334 0.694161 0.640818
O O7 0.703465 0.669761 0.592330
O O8 0.603541 0.152774 0.835767
O O9 0.824145 0.092161 0.680400
O O10 0.991591 0.744156 0.914831
O O11 0.712259 0.668894 0.024846
O O12 0.000000 0.667104 0.000000
O O13 0.731628 0.579101 0.515063
O O14 0.000000 0.604670 0.500000
O O15 0.500000 0.569310 0.500000
O O16 0.480339 0.500000 0.605067
O O17 0.500000 0.319514 0.000000
#
# Coordination Sequence:
#
# PCOD8087222 Si02
#       7
#     8   8   8   8   8   8   8
#     4  11  20  32  52  74 111 154 179 216 253 325
#     4   9  21  29  46  73 113 147 180 213 253 312
#     4  11  20  35  55  77 103 149 188 215 268 326
#     4  10  21  32  49  75 108 140 186 225 258 306
#     4  10  22  35  51  81 109 139 178 219 272 318
#     4  10  21  40  61  81 104 133 181 232 269 324
#     4  10  19  32  47  73 106 150 184 216 256 304
#
# _framework density 16.821515999999999
#
# number of rings (size 3 to 8) (size 9 to 14) (size 15 to 20)
#    0.000    1.857    4.286    0.000    4.000    2.571 
#    0.000    0.000    0.000    0.429    0.000    3.000 
#    0.000    0.000    0.000    0.000    0.000    0.000 
#
# Total GULP energy -347120.144824 kJ/mol
# GULP energy per Si atom -12397.148029 kJ/mol
# Density = 1.678323 g / cm^3
# Si number density = 16.821516 Si / 1000 Ang^3
#
#
#
# Elastic Constant Matrix: (Units=GPa)
#
#
# Indices 1 2 3 4 5 6 
#
# 1 143.6108 44.5592 57.1140 -0.0001 -9.1424 -0.0001
# 2 44.5592 83.9035 45.4882 0.0003 -3.3842 -0.0002
# 3 57.1140 45.4882 114.4493 -0.0015 -12.8086 -0.0009
# 4 -0.0001 0.0003 -0.0015 16.6982 0.0001 0.7013
# 5 -9.1424 -3.3842 -12.8086 0.0001 31.5769 0.0002
# 6 -0.0001 -0.0002 -0.0009 0.7013 0.0002 14.1915
#
#
#
# Elastic Compliance Matrix: (Units=1/GPa)
#
#
# Indices 1 2 3 4 5 6 
#
# 1 0.009304 -0.003116 -0.003290 0.000000 0.001025 0.000000
# 2 -0.003116 0.016258 -0.005042 -0.000001 -0.001205 0.000000
# 3 -0.003290 -0.005042 0.012797 0.000001 0.003698 0.000001
# 4 0.000000 -0.000001 0.000001 0.060011 0.000000 -0.002966
# 5 0.001025 -0.001205 0.003698 0.000000 0.033337 0.000000
# 6 0.000000 0.000000 0.000001 -0.002966 0.000000 0.070611
#
#
# Mechanical properties :
#
#
# Convention : Reuss Voigt Hill
#
# Bulk Modulus (GPa) = 64.66686 70.69849 67.68268
# Shear Modulus (GPa) = 21.70452 25.48013 23.59233
#
# Velocity S-wave (km/s) = 3.59595 3.89618 3.74907
# Velocity P-wave (km/s) = 7.46777 7.89684 7.68530
#
# Compressibility (1/GPa) = 0.01546387
#
# Stress axis : x y z
#
# Youngs Moduli (GPa) = 107.48443 61.50789 78.14483
#
# Poissons Ratio (x) = 0.19167 0.25706
# Poissons Ratio (y) = 0.33494 0.39397
# Poissons Ratio (z) = 0.35358 0.31010
#
# Static dielectric constant tensor:
#      x y z
#    x 3.237890 0.000000 -0.203630 
#    y 0.000000 2.881290 0.000000 
#    z -0.203630 0.000000 3.227460 
# 
# 
# High freq. dielectric constant tensor:
#      x y z
#    x 1.658860 0.000000 -0.013370 
#    y 0.000000 1.602060 0.000000 
#    z -0.013370 0.000000 1.649580 
# 
# From -- ./inp_files/199298.got.cif
#   From: 2010.06.25/outbox.cif.g09.slc.cpg/sg12_100_cif.got.tgz:199298.got - 2010.06.28 00:19:55.
