data_PCOD8087852
_publ_section_title
;
Structure prediction by ZEFSAII (Michael W. Deem and Ramdas Pophale) SiO2 
 PCOD8087852
Probable space group: C 2/M
;
_chemical_formula_sum "Si O2"
_cell_formula_units_Z 48
_cell_length_a 14.286660
_cell_length_b 26.163038
_cell_length_c 11.833041
_cell_angle_alpha 90.000000
_cell_angle_beta 148.512074
_cell_angle_gamma 90.000000
_cell_volume 2310.207402
_symmetry_space_group_name_H-M "C 2/M"
_symmetry_group_IT_number 12
_symmetry_cell_setting 'monoclinic'
loop_
_space_group_symop_operation_xyz
x,y,z
-x,y,-z
-x,-y,-z
x,-y,z
1/2+x,1/2+y,z
1/2-x,1/2+y,-z
1/2-x,1/2-y,-z
1/2+x,1/2-y,z
loop_
_atom_site_type_symbol
_atom_site_label
_atom_site_fract_x
_atom_site_fract_y
_atom_site_fract_z
Si Si1 0.543355 0.087302 0.919108
Si Si2 0.463515 0.194063 0.178827
Si Si3 0.264305 0.337891 0.652329
Si Si4 0.058754 0.059988 0.680925
Si Si5 0.745081 0.442994 0.454389
Si Si6 0.137854 0.198012 0.004100
O O1 0.493262 0.147092 0.858905
O O2 0.422459 0.053252 0.712694
O O3 0.500000 0.067812 0.000000
O O4 0.746613 0.081094 0.088454
O O5 0.624780 0.196261 0.436456
O O6 0.274414 0.185713 0.045850
O O7 0.442072 0.244441 0.080979
O O8 0.220431 0.399121 0.605226
O O9 0.262266 0.314509 0.775597
O O10 0.463797 0.336585 0.806343
O O11 0.000000 0.084406 0.500000
O O12 0.920303 0.074464 0.636972
O O13 0.071642 0.000000 0.680284
O O14 0.713422 0.500000 0.368650
#
# Coordination Sequence:
#
# PCOD8087852 Si02
#       6
#     8   8   8   8   8   8
#     4  11  21  33  54  84 117 151 192 236 290 345
#     4  10  22  38  58  86 116 150 191 239 285 342
#     4  10  21  38  63  85 116 150 192 240 284 342
#     4  10  19  32  51  78 114 152 191 235 286 341
#     4  10  21  37  57  84 116 152 193 238 287 340
#     4  10  21  40  61  83 113 154 192 235 291 335
#
# _framework density 20.777355
#
# number of rings (size 3 to 8) (size 9 to 14) (size 15 to 20)
#    0.000    1.833    1.667    2.500    2.333    0.667 
#    0.000    3.333    0.000    9.000    0.000    0.000 
#    0.000    0.000    0.000    0.000    0.000    0.000 
#
# Total GULP energy -297499.674959 kJ/mol
# GULP energy per Si atom -12395.819790 kJ/mol
# Density = 2.073006 g / cm^3
# Si number density = 20.777355 Si / 1000 Ang^3
#
#
#
# Elastic Constant Matrix: (Units=GPa)
#
#
# Indices 1 2 3 4 5 6 
#
# 1 31.3046 33.7497 32.5527 0.0000 -8.1638 0.0000
# 2 33.7497 82.4595 5.2023 0.0000 -16.8777 0.0000
# 3 32.5527 5.2023 83.5231 0.0000 18.2240 0.0000
# 4 0.0000 0.0000 0.0000 44.9121 0.0000 -22.7789
# 5 -8.1638 -16.8777 18.2240 0.0000 25.4805 0.0000
# 6 0.0000 0.0000 0.0000 -22.7789 0.0000 60.0205
#
#
#
# Elastic Compliance Matrix: (Units=1/GPa)
#
#
# Indices 1 2 3 4 5 6 
#
# 1 0.411162 -0.116113 -0.195483 0.000000 0.194636 0.000000
# 2 -0.116113 0.047706 0.051550 0.000000 -0.042472 0.000000
# 3 -0.195483 0.051550 0.108023 0.000000 -0.105746 0.000000
# 4 0.000000 0.000000 0.000000 0.027573 0.000000 0.010465
# 5 0.194636 -0.042472 -0.105746 0.000000 0.149104 0.000000
# 6 0.000000 0.000000 0.000000 0.010465 0.000000 0.020632
#
#
# Mechanical properties :
#
#
# Convention : Reuss Voigt Hill
#
# Bulk Modulus (GPa) = 21.36867 37.81076 29.58971
# Shear Modulus (GPa) = 3.84647 34.46813 19.15730
#
# Velocity S-wave (km/s) = 1.36209 4.07741 3.03979
# Velocity P-wave (km/s) = 3.57500 6.35646 5.15681
#
# Compressibility (1/GPa) = 0.04679749
#
# Stress axis : x y z
#
# Youngs Moduli (GPa) = 2.43213 20.96194 9.25727
#
# Poissons Ratio (x) = 2.43396 1.80964
# Poissons Ratio (y) = 0.28240 -0.47721
# Poissons Ratio (z) = 0.47544 -1.08059
#
# Static dielectric constant tensor:
#      x y z
#    x 3.498250 0.000000 0.162420 
#    y 0.000000 3.717290 0.000000 
#    z 0.162420 0.000000 3.902810 
# 
# 
# High freq. dielectric constant tensor:
#      x y z
#    x 1.793560 0.000000 0.017250 
#    y 0.000000 1.813640 0.000000 
#    z 0.017250 0.000000 1.822440 
# 
# From -- ./inp_files/149630.got.cif
#   From: 2010.06.25/outbox.cif.g09.slc.cpg/sg12_75_cif.got.tgz:149630.got - 2010.06.28 00:19:55.
