data_PCOD8087510
_publ_section_title
;
Structure prediction by ZEFSAII (Michael W. Deem and Ramdas Pophale) SiO2 
 PCOD8087510
Probable space group: C 2/M
;
_chemical_formula_sum "Si O2"
_cell_formula_units_Z 64
_cell_length_a 17.662391
_cell_length_b 13.757570
_cell_length_c 16.434579
_cell_angle_alpha 90.000000
_cell_angle_beta 115.745261
_cell_angle_gamma 90.000000
_cell_volume 3597.049775
_symmetry_space_group_name_H-M "C 2/M"
_symmetry_group_IT_number 12
_symmetry_cell_setting 'monoclinic'
loop_
_space_group_symop_operation_xyz
x,y,z
-x,y,-z
-x,-y,-z
x,-y,z
1/2+x,1/2+y,z
1/2-x,1/2+y,-z
1/2-x,1/2-y,-z
1/2+x,1/2-y,z
loop_
_atom_site_type_symbol
_atom_site_label
_atom_site_fract_x
_atom_site_fract_y
_atom_site_fract_z
Si Si1 0.571045 0.888132 0.772907
Si Si2 0.887728 0.613424 0.748073
Si Si3 0.169835 0.612020 0.106282
Si Si4 0.867865 0.109311 0.172230
Si Si5 0.872902 0.221341 0.494724
Si Si6 0.288743 0.886059 0.545250
Si Si7 0.654830 0.778350 0.944587
Si Si8 0.556808 0.720191 0.647928
O O1 0.484834 0.862385 0.779193
O O2 0.645884 0.859844 0.869635
O O3 0.576288 0.826913 0.692690
O O4 0.577414 0.000000 0.750607
O O5 0.870155 0.500000 0.743905
O O6 0.858882 0.657796 0.821001
O O7 0.831473 0.654295 0.648148
O O8 0.140829 0.500000 0.082603
O O9 0.269756 0.620552 0.146167
O O10 0.122779 0.676014 0.014715
O O11 0.893816 0.181081 0.109496
O O12 0.919216 0.136610 0.276957
O O13 0.890991 0.000000 0.157196
O O14 0.810187 0.137108 0.496550
O O15 0.832582 0.327609 0.492074
O O16 0.886769 0.208362 0.405474
O O17 0.958987 0.208518 0.583420
O O18 0.303990 0.000000 0.537447
O O19 0.750000 0.750000 0.000000
#
# Coordination Sequence:
#
# PCOD8087510 Si02
#       8
#     8   8   8   8   8   8   8   8
#     4  10  19  32  50  75 106 133 163 208 261 315
#     4   9  17  29  48  73 102 132 163 201 258 314
#     4   9  16  28  48  75 102 129 162 206 255 311
#     4   9  18  32  50  71 101 135 171 212 255 300
#     4  10  21  34  53  77 105 137 179 220 256 312
#     4  10  20  36  53  74 106 142 173 214 265 308
#     4   9  18  31  47  69  98 130 165 205 256 305
#     4  10  20  34  51  78 106 136 176 219 261 303
#
# _framework density 17.792358
#
# number of rings (size 3 to 8) (size 9 to 14) (size 15 to 20)
#    0.000    2.500    1.250    1.125    0.000    3.500 
#    0.000    4.375    0.000    0.000    0.000    7.875 
#    0.000    0.000    0.000    0.000    0.000    0.000 
#
# Total GULP energy -396693.542956 kJ/mol
# GULP energy per Si atom -12396.673217 kJ/mol
# Density = 1.775186 g / cm^3
# Si number density = 17.792358 Si / 1000 Ang^3
#
#
#
# Elastic Constant Matrix: (Units=GPa)
#
#
# Indices 1 2 3 4 5 6 
#
# 1 53.7071 15.5053 19.0776 0.0000 4.5066 0.0000
# 2 15.5053 89.1789 29.5617 0.0000 1.7954 0.0000
# 3 19.0776 29.5617 95.6875 0.0000 6.7358 0.0000
# 4 0.0000 0.0000 0.0000 26.6419 0.0000 -0.5439
# 5 4.5066 1.7954 6.7358 0.0000 20.3045 0.0000
# 6 0.0000 0.0000 0.0000 -0.5439 0.0000 16.5249
#
#
#
# Elastic Compliance Matrix: (Units=1/GPa)
#
#
# Indices 1 2 3 4 5 6 
#
# 1 0.020732 -0.002501 -0.003125 0.000000 -0.003344 0.000000
# 2 -0.002501 0.012795 -0.003495 0.000000 0.000583 0.000000
# 3 -0.003125 -0.003495 0.012372 0.000000 -0.003102 0.000000
# 4 0.000000 0.000000 0.000000 0.037560 0.000000 0.001236
# 5 -0.003344 0.000583 -0.003102 0.000000 0.050970 0.000000
# 6 0.000000 0.000000 0.000000 0.001236 0.000000 0.060555
#
#
# Mechanical properties :
#
#
# Convention : Reuss Voigt Hill
#
# Bulk Modulus (GPa) = 36.15913 40.76252 38.46083
# Shear Modulus (GPa) = 22.47725 24.32286 23.40005
#
# Velocity S-wave (km/s) = 3.55816 3.70136 3.63047
# Velocity P-wave (km/s) = 6.10309 6.42080 6.26396
#
# Compressibility (1/GPa) = 0.02765553
#
# Stress axis : x y z
#
# Youngs Moduli (GPa) = 48.23370 78.15414 80.82784
#
# Poissons Ratio (x) = 0.19549 0.25262
# Poissons Ratio (y) = 0.12065 0.28252
# Poissons Ratio (z) = 0.15075 0.27317
#
# Static dielectric constant tensor:
#      x y z
#    x 3.175350 0.000000 -0.054720 
#    y 0.000000 3.337530 0.000000 
#    z -0.054720 0.000000 3.590560 
# 
# 
# High freq. dielectric constant tensor:
#      x y z
#    x 1.667860 0.000000 0.006430 
#    y 0.000000 1.676560 0.000000 
#    z 0.006430 0.000000 1.702780 
# 
# From -- ./inp_files/225256.got.cif
#   From: 2010.06.25/outbox.cif.g09.slc.cpg/sg12_113_cif.got.tgz:225256.got - 2010.06.28 00:19:55.
