data_PCOD8087194
_publ_section_title
;
Structure prediction by ZEFSAII (Michael W. Deem and Ramdas Pophale) SiO2 
 PCOD8087194
Probable space group: C 2/M
;
_chemical_formula_sum "Si O2"
_cell_formula_units_Z 64
_cell_length_a 27.536390
_cell_length_b 14.061035
_cell_length_c 11.189729
_cell_angle_alpha 90.000000
_cell_angle_beta 65.367389
_cell_angle_gamma 90.000000
_cell_volume 3938.286262
_symmetry_space_group_name_H-M "C 2/M"
_symmetry_group_IT_number 12
_symmetry_cell_setting 'monoclinic'
loop_
_space_group_symop_operation_xyz
x,y,z
-x,y,-z
-x,-y,-z
x,-y,z
1/2+x,1/2+y,z
1/2-x,1/2+y,-z
1/2-x,1/2-y,-z
1/2+x,1/2-y,z
loop_
_atom_site_type_symbol
_atom_site_label
_atom_site_fract_x
_atom_site_fract_y
_atom_site_fract_z
Si Si1 0.190461 0.111358 0.584816
Si Si2 0.010032 0.104912 0.349074
Si Si3 0.773211 0.395254 0.690244
Si Si4 0.637465 0.104343 0.600943
Si Si5 0.726498 0.278290 0.150276
Si Si6 0.377531 0.613196 0.695005
Si Si7 0.592698 0.705520 0.586463
Si Si8 0.276034 0.888355 0.302566
O O1 0.217784 0.136422 0.683569
O O2 0.133129 0.162343 0.642535
O O3 0.227279 0.147795 0.436882
O O4 0.181805 0.000000 0.580359
O O5 0.968706 0.175554 0.326051
O O6 0.000000 0.105329 0.500000
O O7 0.072284 0.133157 0.267256
O O8 0.999035 0.000000 0.308197
O O9 0.766792 0.500000 0.756065
O O10 0.816621 0.401834 0.543247
O O11 0.790930 0.320527 0.771197
O O12 0.593543 0.180446 0.602812
O O13 0.666661 0.133545 0.695206
O O14 0.610038 0.000000 0.641468
O O15 0.675202 0.346791 0.187093
O O16 0.771405 0.332357 0.182412
O O17 0.750000 0.250000 0.000000
O O18 0.372276 0.500000 0.673949
O O19 0.386723 0.669471 0.562579
O O20 0.270196 0.000000 0.284222
#
# Coordination Sequence:
#
# PCOD8087194 Si02
#       8
#     8   8   8   8   8   8   8   8
#     4   9  15  24  46  71  90 114 144 185 242 287
#     4   8  16  27  42  67  94 119 149 186 229 275
#     4   9  18  31  41  61  94 121 148 188 232 276
#     4   9  17  28  46  69  94 123 147 183 241 286
#     4  12  22  30  45  66  88 127 168 186 218 269
#     4  10  19  32  46  64  94 126 156 192 226 264
#     4  11  15  24  48  71  95 119 150 184 229 282
#     4   9  17  30  45  66  94 120 151 190 234 281
#
# _framework density 16.250723000000001
#
# number of rings (size 3 to 8) (size 9 to 14) (size 15 to 20)
#    0.000    2.375    2.500    4.500    0.000    3.000 
#    0.000    0.000    0.000    4.125    0.000    3.500 
#    0.000   12.000    0.000    0.000    0.000    0.000 
#
# Total GULP energy -396588.688523 kJ/mol
# GULP energy per Si atom -12393.396516 kJ/mol
# Density = 1.621374 g / cm^3
# Si number density = 16.250723 Si / 1000 Ang^3
#
#
#
# Elastic Constant Matrix: (Units=GPa)
#
#
# Indices 1 2 3 4 5 6 
#
# 1 98.3163 67.6822 18.5161 0.0000 6.0359 0.0000
# 2 67.6822 104.5949 30.8106 0.0000 10.6919 0.0000
# 3 18.5161 30.8106 45.9329 0.0000 2.9842 0.0000
# 4 0.0000 0.0000 0.0000 11.6813 0.0000 3.1915
# 5 6.0359 10.6919 2.9842 0.0000 9.8179 0.0000
# 6 0.0000 0.0000 0.0000 3.1915 0.0000 28.2011
#
#
#
# Elastic Compliance Matrix: (Units=1/GPa)
#
#
# Indices 1 2 3 4 5 6 
#
# 1 0.018391 -0.012304 0.000718 0.000000 0.001874 0.000000
# 2 -0.012304 0.021375 -0.008526 0.000000 -0.013122 0.000000
# 3 0.000718 -0.008526 0.027162 0.000000 0.000587 0.000000
# 4 0.000000 0.000000 0.000000 0.088338 0.000000 -0.009997
# 5 0.001874 -0.013122 0.000587 0.000000 0.114815 0.000000
# 6 0.000000 0.000000 0.000000 -0.009997 0.000000 0.036591
#
#
# Mechanical properties :
#
#
# Convention : Reuss Voigt Hill
#
# Bulk Modulus (GPa) = 37.44612 53.65132 45.54872
# Shear Modulus (GPa) = 14.05297 18.72907 16.39102
#
# Velocity S-wave (km/s) = 2.94387 3.39854 3.17934
# Velocity P-wave (km/s) = 5.88625 6.96323 6.44726
#
# Compressibility (1/GPa) = 0.02670504
#
# Stress axis : x y z
#
# Youngs Moduli (GPa) = 54.37451 46.78375 36.81583
#
# Poissons Ratio (x) = 0.57561 -0.02642
# Poissons Ratio (y) = 0.66900 0.31387
# Poissons Ratio (z) = -0.03901 0.39886
#
# Static dielectric constant tensor:
#      x y z
#    x 3.273690 0.000000 0.193310 
#    y 0.000000 4.093200 0.000000 
#    z 0.193310 0.000000 2.576780 
# 
# 
# High freq. dielectric constant tensor:
#      x y z
#    x 1.614140 0.000000 0.023390 
#    y 0.000000 1.640250 0.000000 
#    z 0.023390 0.000000 1.557770 
# 
# From -- ./inp_files/104580.got.cif
#   From: 2010.06.25/outbox.cif.g09.slc.cpg/sg12_53_cif.got.tgz:104580.got - 2010.06.28 00:19:55.
