data_PCOD8087040
_publ_section_title
;
Structure prediction by ZEFSAII (Michael W. Deem and Ramdas Pophale) SiO2 
 PCOD8087040
Probable space group: C 2/M
;
_chemical_formula_sum "Si O2"
_cell_formula_units_Z 56
_cell_length_a 24.626947
_cell_length_b 9.347391
_cell_length_c 14.867477
_cell_angle_alpha 90.000000
_cell_angle_beta 127.836013
_cell_angle_gamma 90.000000
_cell_volume 2702.954172
_symmetry_space_group_name_H-M "C 2/M"
_symmetry_group_IT_number 12
_symmetry_cell_setting 'monoclinic'
loop_
_space_group_symop_operation_xyz
x,y,z
-x,y,-z
-x,-y,-z
x,-y,z
1/2+x,1/2+y,z
1/2-x,1/2+y,-z
1/2-x,1/2-y,-z
1/2+x,1/2-y,z
loop_
_atom_site_type_symbol
_atom_site_label
_atom_site_fract_x
_atom_site_fract_y
_atom_site_fract_z
Si Si1 0.112110 0.660115 0.529823
Si Si2 0.660881 0.168649 0.091665
Si Si3 0.873037 0.162927 0.117253
Si Si4 0.742166 0.653936 0.408421
Si Si5 0.397112 0.666527 0.815600
Si Si6 0.532234 0.334411 0.296364
Si Si7 0.318425 0.335302 0.254927
O O1 0.081306 0.500000 0.514727
O O2 0.189253 0.645299 0.576694
O O3 0.067330 0.742100 0.410261
O O4 0.121388 0.746746 0.632216
O O5 0.598811 0.240836 0.088468
O O6 0.739760 0.205429 0.201382
O O7 0.648577 0.000000 0.080061
O O8 0.651307 0.226054 0.981621
O O9 0.827169 0.192925 0.158080
O O10 0.951859 0.189578 0.223748
O O11 0.863174 0.000000 0.072476
O O12 0.720053 0.500000 0.424111
O O13 0.750000 0.750000 0.500000
O O14 0.680971 0.708532 0.285064
O O15 0.410596 0.500000 0.852254
O O16 0.444425 0.716982 0.780215
O O17 0.553810 0.500000 0.331141
O O18 0.332691 0.500000 0.293428
#
# Coordination Sequence:
#
# PCOD8087040 Si02
#       7
#     8   8   8   8   8   8   8
#     4  11  22  35  57  89 121 152 186 234 292 342
#     4  11  23  38  61  90 116 147 189 242 297 339
#     4  10  23  43  63  82 111 154 200 241 282 336
#     4  10  19  31  52  83 116 150 186 232 286 336
#     4  10  20  36  58  85 117 151 190 233 282 344
#     4  10  22  40  61  85 116 157 196 231 279 343
#     4  10  22  40  62  87 114 149 194 241 288 340
#
# _framework density 20.718071999999999
#
# number of rings (size 3 to 8) (size 9 to 14) (size 15 to 20)
#    0.000    1.714    2.857    1.286    0.000    4.571 
#    0.000    5.714    0.000    0.000    0.000    0.000 
#    0.000    0.000    0.000    0.000    0.000    0.000 
#
# Total GULP energy -346995.245492 kJ/mol
# GULP energy per Si atom -12392.687339 kJ/mol
# Density = 2.067092 g / cm^3
# Si number density = 20.718072 Si / 1000 Ang^3
#
#
#
# Elastic Constant Matrix: (Units=GPa)
#
#
# Indices 1 2 3 4 5 6 
#
# 1 35.6171 15.6292 6.7537 0.0000 -4.3185 0.0000
# 2 15.6292 79.3274 43.4086 0.0000 -12.7875 0.0000
# 3 6.7537 43.4086 72.6813 0.0000 -16.3706 0.0000
# 4 0.0000 0.0000 0.0000 41.5173 0.0000 -7.4604
# 5 -4.3185 -12.7875 -16.3706 0.0000 26.4321 0.0000
# 6 0.0000 0.0000 0.0000 -7.4604 0.0000 16.8768
#
#
#
# Elastic Compliance Matrix: (Units=1/GPa)
#
#
# Indices 1 2 3 4 5 6 
#
# 1 0.030990 -0.006563 0.001703 0.000000 0.002943 0.000000
# 2 -0.006563 0.020257 -0.011066 0.000000 0.001874 0.000000
# 3 0.001703 -0.011066 0.022158 0.000000 0.008648 0.000000
# 4 0.000000 0.000000 0.000000 0.026165 0.000000 0.011566
# 5 0.002943 0.001874 0.008648 0.000000 0.044576 0.000000
# 6 0.000000 0.000000 0.000000 0.011566 0.000000 0.064366
#
#
# Mechanical properties :
#
#
# Convention : Reuss Voigt Hill
#
# Bulk Modulus (GPa) = 24.06661 35.46766 29.76713
# Shear Modulus (GPa) = 19.66843 25.08753 22.37798
#
# Velocity S-wave (km/s) = 3.08447 3.48358 3.29008
# Velocity P-wave (km/s) = 4.93222 5.77380 5.36952
#
# Compressibility (1/GPa) = 0.04155134
#
# Stress axis : x y z
#
# Youngs Moduli (GPa) = 32.26817 49.36638 45.13140
#
# Poissons Ratio (x) = 0.32401 -0.07686
# Poissons Ratio (y) = 0.21179 0.49944
# Poissons Ratio (z) = -0.05495 0.54630
#
# Static dielectric constant tensor:
#      x y z
#    x 3.745070 0.000000 -0.021950 
#    y 0.000000 3.982890 0.000000 
#    z -0.021950 0.000000 3.613980 
# 
# 
# High freq. dielectric constant tensor:
#      x y z
#    x 1.813470 0.000000 -0.006270 
#    y 0.000000 1.806790 0.000000 
#    z -0.006270 0.000000 1.808730 
# 
# From -- ./inp_files/238933.got.cif
#   From: 2010.06.25/outbox.cif.g09.slc.cpg/sg12_120_cif.got.tgz:238933.got - 2010.06.28 00:19:55.
