data_PCOD8087991
_publ_section_title
;
Structure prediction by ZEFSAII (Michael W. Deem and Ramdas Pophale) SiO2 
 PCOD8087991
Probable space group: C 2/M
;
_chemical_formula_sum "Si O2"
_cell_formula_units_Z 56
_cell_length_a 25.303098
_cell_length_b 8.937741
_cell_length_c 19.009186
_cell_angle_alpha 90.000000
_cell_angle_beta 131.443769
_cell_angle_gamma 90.000000
_cell_volume 3222.536490
_symmetry_space_group_name_H-M "C 2/M"
_symmetry_group_IT_number 12
_symmetry_cell_setting 'monoclinic'
loop_
_space_group_symop_operation_xyz
x,y,z
-x,y,-z
-x,-y,-z
x,-y,z
1/2+x,1/2+y,z
1/2-x,1/2+y,-z
1/2-x,1/2-y,-z
1/2+x,1/2-y,z
loop_
_atom_site_type_symbol
_atom_site_label
_atom_site_fract_x
_atom_site_fract_y
_atom_site_fract_z
Si Si1 0.360947 0.174009 0.607462
Si Si2 0.451416 0.823501 0.391886
Si Si3 0.351197 0.671136 0.101547
Si Si4 0.770275 0.172782 0.415436
Si Si5 0.245097 0.827018 0.107618
Si Si6 0.001094 0.826802 0.708333
Si Si7 0.301585 0.674524 0.284601
O O1 0.307159 0.210988 0.623218
O O2 0.328725 0.226689 0.504859
O O3 0.432558 0.262196 0.686822
O O4 0.378156 0.000000 0.616927
O O5 0.500000 0.776653 0.500000
O O6 0.486971 0.758140 0.353866
O O7 0.374278 0.758211 0.335243
O O8 0.445301 0.000000 0.378403
O O9 0.331209 0.500000 0.103780
O O10 0.313240 0.781055 0.122342
O O11 0.434535 0.697963 0.180755
O O12 0.325846 0.706123 0.999636
O O13 0.770934 0.211992 0.334049
O O14 0.789153 0.000000 0.446479
O O15 0.243159 0.731688 0.177573
O O16 0.252095 0.000000 0.133579
O O17 0.990080 0.000000 0.680954
O O18 0.315183 0.500000 0.285919
#
# Coordination Sequence:
#
# PCOD8087991 Si02
#       7
#     8   8   8   8   8   8   8
#     4  10  20  35  55  78 103 133 175 220 257 300
#     4  11  23  35  48  73 106 137 170 209 254 304
#     4   9  19  34  51  74 103 136 171 210 256 311
#     4   9  20  37  55  75 102 138 176 214 257 306
#     4  10  19  32  52  76 103 133 171 214 257 305
#     4  11  21  34  53  76 104 137 171 207 256 313
#     4  11  21  34  52  75 104 137 172 208 256 313
#
# _framework density 17.377616
#
# number of rings (size 3 to 8) (size 9 to 14) (size 15 to 20)
#    0.000    1.857    1.429    3.000    0.000    6.286 
#    0.000    0.000    0.000    0.857    0.000    6.000 
#    0.000    0.000    0.000    0.000    0.000    0.000 
#
# Total GULP energy -347288.008087 kJ/mol
# GULP energy per Si atom -12403.143146 kJ/mol
# Density = 1.733806 g / cm^3
# Si number density = 17.377616 Si / 1000 Ang^3
#
#
#
# Elastic Constant Matrix: (Units=GPa)
#
#
# Indices 1 2 3 4 5 6 
#
# 1 77.6549 27.3132 47.8934 0.0000 6.4310 0.0000
# 2 27.3132 65.5526 42.4908 0.0000 5.6915 0.0000
# 3 47.8934 42.4908 114.9916 0.0000 6.6428 0.0000
# 4 0.0000 0.0000 0.0000 28.3888 0.0000 1.0430
# 5 6.4310 5.6915 6.6428 0.0000 24.4109 0.0000
# 6 0.0000 0.0000 0.0000 1.0430 0.0000 27.3020
#
#
#
# Elastic Compliance Matrix: (Units=1/GPa)
#
#
# Indices 1 2 3 4 5 6 
#
# 1 0.018029 -0.003328 -0.006146 0.000000 -0.002301 0.000000
# 2 -0.003328 0.020851 -0.006186 0.000000 -0.002301 0.000000
# 3 -0.006146 -0.006186 0.013578 0.000000 -0.000634 0.000000
# 4 0.000000 0.000000 0.000000 0.035275 0.000000 -0.001348
# 5 -0.002301 -0.002301 -0.000634 0.000000 0.042281 0.000000
# 6 0.000000 0.000000 0.000000 -0.001348 0.000000 0.036679
#
#
# Mechanical properties :
#
#
# Convention : Reuss Voigt Hill
#
# Bulk Modulus (GPa) = 47.30720 54.84379 51.07549
# Shear Modulus (GPa) = 24.38314 25.38709 24.88511
#
# Velocity S-wave (km/s) = 3.74991 3.82633 3.78831
# Velocity P-wave (km/s) = 6.78463 7.15189 6.97068
#
# Compressibility (1/GPa) = 0.02113843
#
# Stress axis : x y z
#
# Youngs Moduli (GPa) = 55.46466 47.95942 73.64606
#
# Poissons Ratio (x) = 0.15963 0.45266
# Poissons Ratio (y) = 0.18461 0.45554
# Poissons Ratio (z) = 0.34091 0.29665
#
# Static dielectric constant tensor:
#      x y z
#    x 3.145870 0.000000 -0.010190 
#    y 0.000000 3.375160 0.000000 
#    z -0.010190 0.000000 3.453320 
# 
# 
# High freq. dielectric constant tensor:
#      x y z
#    x 1.648930 0.000000 0.002290 
#    y 0.000000 1.686540 0.000000 
#    z 0.002290 0.000000 1.675110 
# 
# From -- ./inp_files/288260.got.cif
#   From: 2010.06.25/outbox.cif.g09.slc.cpg/sg12_145_cif.got.tgz:288260.got - 2010.06.28 00:19:55.
