data_PCOD8087178
_publ_section_title
;
Structure prediction by ZEFSAII (Michael W. Deem and Ramdas Pophale) SiO2 
 PCOD8087178
Probable space group: C 2/M
;
_chemical_formula_sum "Si O2"
_cell_formula_units_Z 64
_cell_length_a 24.650416
_cell_length_b 20.159498
_cell_length_c 9.694268
_cell_angle_alpha 90.000000
_cell_angle_beta 136.733628
_cell_angle_gamma 90.000000
_cell_volume 3301.850784
_symmetry_space_group_name_H-M "C 2/M"
_symmetry_group_IT_number 12
_symmetry_cell_setting 'monoclinic'
loop_
_space_group_symop_operation_xyz
x,y,z
-x,y,-z
-x,-y,-z
x,-y,z
1/2+x,1/2+y,z
1/2-x,1/2+y,-z
1/2-x,1/2-y,-z
1/2+x,1/2-y,z
loop_
_atom_site_type_symbol
_atom_site_label
_atom_site_fract_x
_atom_site_fract_y
_atom_site_fract_z
Si Si1 0.925620 0.207144 0.951737
Si Si2 0.929456 0.635035 0.474745
Si Si3 0.175588 0.760375 0.710335
Si Si4 0.793343 0.812000 0.511103
Si Si5 0.329279 0.681716 0.022803
Si Si6 0.219466 0.426229 0.896111
Si Si7 0.801916 0.577968 0.827891
Si Si8 0.462566 0.140573 0.066708
O O1 0.853992 0.169415 0.742889
O O2 0.910222 0.182908 0.081511
O O3 0.926387 0.287037 0.962573
O O4 0.000000 0.181549 0.000000
O O5 0.875234 0.697562 0.340952
O O6 0.868978 0.574460 0.334730
O O7 0.000000 0.629944 0.500000
O O8 0.964775 0.641718 0.692095
O O9 0.153455 0.787560 0.519257
O O10 0.270481 0.744238 0.881067
O O11 0.150184 0.814412 0.777161
O O12 0.750000 0.750000 0.500000
O O13 0.740874 0.875144 0.365817
O O14 0.279415 0.614610 0.909998
O O15 0.251517 0.500000 0.951089
O O16 0.222322 0.401472 0.061482
O O17 0.784628 0.500000 0.765743
O O18 0.895419 0.590957 0.994252
O O19 0.500000 0.108886 0.000000
#
# Coordination Sequence:
#
# PCOD8087178 Si02
#       8
#     8   8   8   8   8   8   8   8
#     4  11  23  38  62  92 124 154 199 259 330 374
#     4  11  21  33  56  89 124 160 203 246 301 367
#     4  10  19  31  56  86 114 158 201 253 306 353
#     4  12  21  38  63  88 121 165 203 255 317 366
#     4  10  19  35  57  84 118 150 204 262 308 354
#     4  10  22  39  60  86 120 170 217 252 302 369
#     4  11  23  40  61  88 122 169 214 253 304 370
#     4  11  22  37  55  87 129 167 196 244 304 375
#
# _framework density 19.383068999999999
#
# number of rings (size 3 to 8) (size 9 to 14) (size 15 to 20)
#    0.000    1.250    5.000    2.250    1.750    1.000 
#    0.000    1.875    0.000    1.500    0.000    1.750 
#    0.000    0.000    0.000    0.000    0.000    0.000 
#
# Total GULP energy -396424.327082 kJ/mol
# GULP energy per Si atom -12388.260221 kJ/mol
# Density = 1.933895 g / cm^3
# Si number density = 19.383069 Si / 1000 Ang^3
#
#
#
# Elastic Constant Matrix: (Units=GPa)
#
#
# Indices 1 2 3 4 5 6 
#
# 1 147.3712 38.2626 16.4517 0.0000 -12.9056 0.0000
# 2 38.2626 75.0938 26.1567 0.0000 0.8786 0.0000
# 3 16.4517 26.1567 89.8678 0.0000 -11.3173 0.0000
# 4 0.0000 0.0000 0.0000 25.2543 0.0000 -3.7476
# 5 -12.9056 0.8786 -11.3173 0.0000 30.2699 0.0000
# 6 0.0000 0.0000 0.0000 -3.7476 0.0000 19.2313
#
#
#
# Elastic Compliance Matrix: (Units=1/GPa)
#
#
# Indices 1 2 3 4 5 6 
#
# 1 0.008201 -0.004297 0.000216 0.000000 0.003702 0.000000
# 2 -0.004297 0.017204 -0.004737 0.000000 -0.004103 0.000000
# 3 0.000216 -0.004737 0.013113 0.000000 0.005132 0.000000
# 4 0.000000 0.000000 0.000000 0.040776 0.000000 0.007946
# 5 0.003702 -0.004103 0.005132 0.000000 0.036652 0.000000
# 6 0.000000 0.000000 0.000000 0.007946 0.000000 0.053547
#
#
# Mechanical properties :
#
#
# Convention : Reuss Voigt Hill
#
# Bulk Modulus (GPa) = 47.89118 52.67498 50.28308
# Shear Modulus (GPa) = 25.76078 30.38189 28.07133
#
# Velocity S-wave (km/s) = 3.64955 3.96339 3.80970
# Velocity P-wave (km/s) = 6.52076 6.94114 6.73423
#
# Compressibility (1/GPa) = 0.02088067
#
# Stress axis : x y z
#
# Youngs Moduli (GPa) = 121.92984 58.12451 76.25910
#
# Poissons Ratio (x) = 0.24978 -0.01644
# Poissons Ratio (y) = 0.52397 0.36128
# Poissons Ratio (z) = -0.02628 0.27536
#
# Static dielectric constant tensor:
#      x y z
#    x 3.572850 0.000000 0.001020 
#    y 0.000000 3.255530 0.000000 
#    z 0.001020 0.000000 4.204500 
# 
# 
# High freq. dielectric constant tensor:
#      x y z
#    x 1.762070 0.000000 -0.016530 
#    y 0.000000 1.721250 0.000000 
#    z -0.016530 0.000000 1.750080 
# 
# From -- ./inp_files/99138.got.cif
#   From: 2010.06.25/outbox.cif.g09.slc.cpg/sg12_50_cif.got.tgz:99138.got - 2010.06.28 00:19:55.
