data_PCOD8087300
_publ_section_title
;
Structure prediction by ZEFSAII (Michael W. Deem and Ramdas Pophale) SiO2 
 PCOD8087300
Probable space group: C 2/M
;
_chemical_formula_sum "Si O2"
_cell_formula_units_Z 56
_cell_length_a 15.500541
_cell_length_b 13.280020
_cell_length_c 20.751584
_cell_angle_alpha 90.000000
_cell_angle_beta 43.564810
_cell_angle_gamma 90.000000
_cell_volume 2943.920830
_symmetry_space_group_name_H-M "C 2/M"
_symmetry_group_IT_number 12
_symmetry_cell_setting 'monoclinic'
loop_
_space_group_symop_operation_xyz
x,y,z
-x,y,-z
-x,-y,-z
x,-y,z
1/2+x,1/2+y,z
1/2-x,1/2+y,-z
1/2-x,1/2-y,-z
1/2+x,1/2-y,z
loop_
_atom_site_type_symbol
_atom_site_label
_atom_site_fract_x
_atom_site_fract_y
_atom_site_fract_z
Si Si1 0.415924 0.388861 0.482909
Si Si2 0.341160 0.382834 0.716421
Si Si3 0.115230 0.117412 0.795850
Si Si4 0.764279 0.211580 0.144853
Si Si5 0.458054 0.883302 0.813080
Si Si6 0.708597 0.206981 0.665555
Si Si7 0.888505 0.240992 0.952387
O O1 0.500000 0.398193 0.500000
O O2 0.356829 0.500000 0.501003
O O3 0.510895 0.357165 0.374284
O O4 0.308003 0.304333 0.552752
O O5 0.323643 0.500000 0.742806
O O6 0.296209 0.316858 0.800885
O O7 0.259215 0.357291 0.698309
O O8 0.185161 0.145463 0.823966
O O9 0.183221 0.177236 0.700291
O O10 0.967713 0.144864 0.883022
O O11 0.128876 0.000000 0.773307
O O12 0.663644 0.145392 0.161546
O O13 0.880149 0.237831 0.034352
O O14 0.580293 0.842851 0.709933
O O15 0.461094 0.837631 0.884372
O O16 0.463235 0.000000 0.819429
O O17 0.750000 0.250000 0.000000
#
# Coordination Sequence:
#
# PCOD8087300 Si02
#       7
#     8   8   8   8   8   8   8
#     4   8  13  25  49  76  97 125 164 203 247 292
#     4   9  17  30  51  76 100 129 165 207 252 291
#     4  10  20  34  53  74  99 132 165 199 243 296
#     4  10  20  33  48  73 103 130 166 202 240 294
#     4  10  19  32  49  69  96 130 164 201 248 294
#     4   9  17  31  51  74  98 123 165 211 243 287
#     4   9  20  34  48  71  94 121 163 202 235 281
#
# _framework density 19.02225
#
# number of rings (size 3 to 8) (size 9 to 14) (size 15 to 20)
#    0.000    2.714    0.000    3.000    0.000    4.000 
#    0.000    6.429    0.000   16.714    0.000    0.000 
#    0.000    0.000    0.000    0.000    0.000    0.000 
#
# Total GULP energy -346939.294334 kJ/mol
# GULP energy per Si atom -12390.689083 kJ/mol
# Density = 1.897895 g / cm^3
# Si number density = 19.022250 Si / 1000 Ang^3
#
#
#
# Elastic Constant Matrix: (Units=GPa)
#
#
# Indices 1 2 3 4 5 6 
#
# 1 35.5523 23.6474 16.7071 0.0000 -15.9349 0.0000
# 2 23.6474 151.5349 53.4711 0.0000 -8.7089 0.0000
# 3 16.7071 53.4711 90.3243 0.0000 -22.0120 0.0000
# 4 0.0000 0.0000 0.0000 21.9385 0.0000 -3.7140
# 5 -15.9349 -8.7089 -22.0120 0.0000 21.5638 0.0000
# 6 0.0000 0.0000 0.0000 -3.7140 0.0000 21.1855
#
#
#
# Elastic Compliance Matrix: (Units=1/GPa)
#
#
# Indices 1 2 3 4 5 6 
#
# 1 0.046812 -0.006672 0.004079 0.000000 0.036061 0.000000
# 2 -0.006672 0.009374 -0.006115 0.000000 -0.007387 0.000000
# 3 0.004079 -0.006115 0.018729 0.000000 0.019663 0.000000
# 4 0.000000 0.000000 0.000000 0.046976 0.000000 0.008235
# 5 0.036061 -0.007387 0.019663 0.000000 0.090110 0.000000
# 6 0.000000 0.000000 0.000000 0.008235 0.000000 0.048646
#
#
# Mechanical properties :
#
#
# Convention : Reuss Voigt Hill
#
# Bulk Modulus (GPa) = 17.39192 51.67365 34.53278
# Shear Modulus (GPa) = 16.82214 25.17662 20.99938
#
# Velocity S-wave (km/s) = 2.97701 3.64199 3.32616
# Velocity P-wave (km/s) = 4.58035 6.70144 5.73972
#
# Compressibility (1/GPa) = 0.05749796
#
# Stress axis : x y z
#
# Youngs Moduli (GPa) = 21.36225 106.68259 53.39438
#
# Poissons Ratio (x) = 0.71178 -0.21781
# Poissons Ratio (y) = 0.14253 0.32652
# Poissons Ratio (z) = -0.08714 0.65238
#
# Static dielectric constant tensor:
#      x y z
#    x 3.318810 0.000000 -0.186110 
#    y 0.000000 3.353470 0.000000 
#    z -0.186110 0.000000 4.160990 
# 
# 
# High freq. dielectric constant tensor:
#      x y z
#    x 1.717500 0.000000 -0.019290 
#    y 0.000000 1.724780 0.000000 
#    z -0.019290 0.000000 1.747460 
# 
# From -- ./inp_files/342978.got.cif
#   From: 2010.06.25/outbox.cif.g09.slc.cpg/sg12_172_cif.got.tgz:342978.got - 2010.06.28 00:19:55.
