data_PCOD8087321
_publ_section_title
;
Structure prediction by ZEFSAII (Michael W. Deem and Ramdas Pophale) SiO2 
 PCOD8087321
Probable space group: C 2/M
;
_chemical_formula_sum "Si O2"
_cell_formula_units_Z 64
_cell_length_a 31.715426
_cell_length_b 8.797268
_cell_length_c 15.836881
_cell_angle_alpha 90.000000
_cell_angle_beta 126.018080
_cell_angle_gamma 90.000000
_cell_volume 3573.930216
_symmetry_space_group_name_H-M "C 2/M"
_symmetry_group_IT_number 12
_symmetry_cell_setting 'monoclinic'
loop_
_space_group_symop_operation_xyz
x,y,z
-x,y,-z
-x,-y,-z
x,-y,z
1/2+x,1/2+y,z
1/2-x,1/2+y,-z
1/2-x,1/2-y,-z
1/2+x,1/2-y,z
loop_
_atom_site_type_symbol
_atom_site_label
_atom_site_fract_x
_atom_site_fract_y
_atom_site_fract_z
Si Si1 0.440259 0.675654 0.824095
Si Si2 0.317392 0.179742 0.410558
Si Si3 0.666466 0.323962 0.392356
Si Si4 0.712361 0.178325 0.285233
Si Si5 0.045098 0.179140 0.858228
Si Si6 0.028289 0.679847 0.661232
Si Si7 0.076644 0.320056 0.545154
Si Si8 0.393222 0.822861 0.927829
O O1 0.445381 0.500000 0.856416
O O2 0.393240 0.701736 0.704015
O O3 0.491878 0.737232 0.839147
O O4 0.432130 0.769594 0.899889
O O5 0.322563 0.221357 0.514298
O O6 0.266872 0.262502 0.310853
O O7 0.367899 0.244364 0.420504
O O8 0.311607 0.000000 0.393131
O O9 0.678397 0.500000 0.426217
O O10 0.704299 0.268068 0.362895
O O11 0.666321 0.217990 0.165703
O O12 0.714118 0.000000 0.306571
O O13 0.049942 0.242570 0.770158
O O14 0.046383 0.000000 0.855018
O O15 0.093940 0.237831 0.970074
O O16 0.028945 0.500000 0.674567
O O17 0.066212 0.730084 0.629208
O O18 0.969822 0.738691 0.570719
O O19 0.076398 0.500000 0.539231
O O20 0.401217 0.000000 0.951086
#
# Coordination Sequence:
#
# PCOD8087321 Si02
#       8
#     8   8   8   8   8   8   8   8
#     4   9  19  33  48  70 103 136 162 196 243 291
#     4  11  20  31  50  75 100 128 164 202 244 291
#     4  10  19  32  49  71 101 135 167 198 238 287
#     4  10  21  36  50  68  96 130 169 209 246 284
#     4  11  21  32  49  75 104 131 161 199 246 294
#     4   9  17  34  56  76 101 131 162 195 236 288
#     4   8  17  33  54  78 102 129 160 197 240 288
#     4  10  21  35  51  70  94 129 172 210 241 282
#
# _framework density 17.907457999999998
#
# number of rings (size 3 to 8) (size 9 to 14) (size 15 to 20)
#    0.000    2.250    0.000    4.125    0.000    4.500 
#    0.000    3.125    0.000    0.750    0.000    0.000 
#    0.000    0.000    0.000    0.000    0.000    0.000 
#
# Total GULP energy -396856.853108 kJ/mol
# GULP energy per Si atom -12401.776660 kJ/mol
# Density = 1.786670 g / cm^3
# Si number density = 17.907458 Si / 1000 Ang^3
#
#
#
# Elastic Constant Matrix: (Units=GPa)
#
#
# Indices 1 2 3 4 5 6 
#
# 1 110.6082 26.9129 60.1003 0.0000 12.1664 0.0000
# 2 26.9129 48.4671 33.9141 0.0000 1.4244 0.0000
# 3 60.1003 33.9141 122.2057 0.0000 -4.9179 0.0000
# 4 0.0000 0.0000 0.0000 17.7210 0.0000 1.2836
# 5 12.1664 1.4244 -4.9179 0.0000 19.3533 0.0000
# 6 0.0000 0.0000 0.0000 1.2836 0.0000 22.6287
#
#
#
# Elastic Compliance Matrix: (Units=1/GPa)
#
#
# Indices 1 2 3 4 5 6 
#
# 1 0.014653 -0.003075 -0.006784 0.000000 -0.010709 0.000000
# 2 -0.003075 0.026519 -0.005908 0.000000 -0.001520 0.000000
# 3 -0.006784 -0.005908 0.013486 0.000000 0.008127 0.000000
# 4 0.000000 0.000000 0.000000 0.056663 0.000000 -0.003214
# 5 -0.010709 -0.001520 0.008127 0.000000 0.060580 0.000000
# 6 0.000000 0.000000 0.000000 -0.003214 0.000000 0.044374
#
#
# Mechanical properties :
#
#
# Convention : Reuss Voigt Hill
#
# Bulk Modulus (GPa) = 43.24601 58.12618 50.68610
# Shear Modulus (GPa) = 19.56810 22.63085 21.09948
#
# Velocity S-wave (km/s) = 3.30924 3.55881 3.43629
# Velocity P-wave (km/s) = 6.22925 7.02969 6.64154
#
# Compressibility (1/GPa) = 0.02312352
#
# Stress axis : x y z
#
# Youngs Moduli (GPa) = 68.24417 37.70884 74.15093
#
# Poissons Ratio (x) = 0.11595 0.50304
# Poissons Ratio (y) = 0.20985 0.43811
# Poissons Ratio (z) = 0.46297 0.22280
#
# Static dielectric constant tensor:
#      x y z
#    x 3.515840 0.000000 0.179440 
#    y 0.000000 3.196450 0.000000 
#    z 0.179440 0.000000 3.320620 
# 
# 
# High freq. dielectric constant tensor:
#      x y z
#    x 1.680950 0.000000 0.012640 
#    y 0.000000 1.689120 0.000000 
#    z 0.012640 0.000000 1.690160 
# 
# From -- ./inp_files/243854.got.cif
#   From: 2010.06.25/outbox.cif.g09.slc.cpg/sg12_122_cif.got.tgz:243854.got - 2010.06.28 00:19:55.
