data_PCOD8087749
_publ_section_title
;
Structure prediction by ZEFSAII (Michael W. Deem and Ramdas Pophale) SiO2 
 PCOD8087749
Probable space group: C 2/M
;
_chemical_formula_sum "Si O2"
_cell_formula_units_Z 64
_cell_length_a 28.721585
_cell_length_b 8.918998
_cell_length_c 13.955456
_cell_angle_alpha 90.000000
_cell_angle_beta 104.288001
_cell_angle_gamma 90.000000
_cell_volume 3464.355901
_symmetry_space_group_name_H-M "C 2/M"
_symmetry_group_IT_number 12
_symmetry_cell_setting 'monoclinic'
loop_
_space_group_symop_operation_xyz
x,y,z
-x,y,-z
-x,-y,-z
x,-y,z
1/2+x,1/2+y,z
1/2-x,1/2+y,-z
1/2-x,1/2-y,-z
1/2+x,1/2-y,z
loop_
_atom_site_type_symbol
_atom_site_label
_atom_site_fract_x
_atom_site_fract_y
_atom_site_fract_z
Si Si1 0.303356 0.176056 0.315730
Si Si2 0.523648 0.323453 0.212890
Si Si3 0.799822 0.671465 0.519944
Si Si4 0.569439 0.823011 0.910660
Si Si5 0.114570 0.177689 0.755759
Si Si6 0.103199 0.674256 0.138288
Si Si7 0.298523 0.827101 0.727077
Si Si8 0.981758 0.176533 0.390686
O O1 0.325107 0.221580 0.432805
O O2 0.334193 0.266158 0.254578
O O3 0.247488 0.222988 0.277713
O O4 0.307729 0.000000 0.296469
O O5 0.516443 0.500000 0.195314
O O6 0.484142 0.238985 0.129040
O O7 0.575610 0.271890 0.203737
O O8 0.517582 0.279468 0.321985
O O9 0.787698 0.500000 0.498707
O O10 0.750000 0.750000 0.500000
O O11 0.824597 0.702105 0.635502
O O12 0.606201 0.747214 0.855790
O O13 0.569516 0.000000 0.894806
O O14 0.586826 0.777798 0.024861
O O15 0.071930 0.232883 0.662846
O O16 0.114609 0.000000 0.765792
O O17 0.092709 0.500000 0.153510
O O18 0.160121 0.709023 0.175049
O O19 0.281513 0.000000 0.724652
O O20 0.000000 0.251092 0.500000
O O21 0.980358 0.000000 0.403314
#
# Coordination Sequence:
#
# PCOD8087749 Si02
#       8
#     8   8   8   8   8   8   8   8
#     4  10  19  32  51  76 104 135 171 207 248 300
#     4  10  20  33  53  79 104 134 170 205 246 301
#     4   8  15  28  47  69  96 129 162 199 241 288
#     4  10  20  36  55  74  99 131 168 211 257 302
#     4  10  20  34  54  77 100 133 173 209 250 301
#     4  10  21  35  53  76 102 133 167 209 260 304
#     4   9  18  34  52  73 103 135 170 211 252 296
#     4   8  16  32  51  74 105 135 165 203 244 290
#
# _framework density 18.473852999999998
#
# number of rings (size 3 to 8) (size 9 to 14) (size 15 to 20)
#    0.000    2.625    0.000    2.625    0.000    4.500 
#    0.000    0.625    0.000   12.750    0.000    0.000 
#    0.000    0.000    0.000    0.000    0.000    0.000 
#
# Total GULP energy -396544.995609 kJ/mol
# GULP energy per Si atom -12392.031113 kJ/mol
# Density = 1.843181 g / cm^3
# Si number density = 18.473853 Si / 1000 Ang^3
#
#
#
# Elastic Constant Matrix: (Units=GPa)
#
#
# Indices 1 2 3 4 5 6 
#
# 1 97.2900 31.8444 45.1874 0.0000 -13.6724 0.0000
# 2 31.8444 58.4484 33.4982 0.0000 -7.4774 0.0000
# 3 45.1874 33.4982 111.4521 0.0000 -2.7145 0.0000
# 4 0.0000 0.0000 0.0000 22.7880 0.0000 -3.3178
# 5 -13.6724 -7.4774 -2.7145 0.0000 21.2395 0.0000
# 6 0.0000 0.0000 0.0000 -3.3178 0.0000 31.0658
#
#
#
# Elastic Compliance Matrix: (Units=1/GPa)
#
#
# Indices 1 2 3 4 5 6 
#
# 1 0.014907 -0.004608 -0.004479 0.000000 0.007401 0.000000
# 2 -0.004608 0.023030 -0.004944 0.000000 0.004510 0.000000
# 3 -0.004479 -0.004944 0.012200 0.000000 -0.003064 0.000000
# 4 0.000000 0.000000 0.000000 0.044576 0.000000 0.004761
# 5 0.007401 0.004510 -0.003064 0.000000 0.053042 0.000000
# 6 0.000000 0.000000 0.000000 0.004761 0.000000 0.032698
#
#
# Mechanical properties :
#
#
# Convention : Reuss Voigt Hill
#
# Bulk Modulus (GPa) = 45.29889 54.25005 49.77447
# Shear Modulus (GPa) = 23.16176 25.46270 24.31223
#
# Velocity S-wave (km/s) = 3.54469 3.71659 3.63165
# Velocity P-wave (km/s) = 6.42860 6.91715 6.67734
#
# Compressibility (1/GPa) = 0.02207560
#
# Stress axis : x y z
#
# Youngs Moduli (GPa) = 67.08180 43.42150 81.97000
#
# Poissons Ratio (x) = 0.20009 0.36712
# Poissons Ratio (y) = 0.30912 0.40524
# Poissons Ratio (z) = 0.30044 0.21467
#
# Static dielectric constant tensor:
#      x y z
#    x 3.210860 0.000000 -0.122300 
#    y 0.000000 3.311130 0.000000 
#    z -0.122300 0.000000 4.125710 
# 
# 
# High freq. dielectric constant tensor:
#      x y z
#    x 1.702040 0.000000 -0.009770 
#    y 0.000000 1.711380 0.000000 
#    z -0.009770 0.000000 1.719060 
# 
# From -- ./inp_files/244178.got.cif
#   From: 2010.06.25/outbox.cif.g09.slc.cpg/sg12_123_cif.got.tgz:244178.got - 2010.06.28 00:19:55.
