data_PCOD8087362
_publ_section_title
;
Structure prediction by ZEFSAII (Michael W. Deem and Ramdas Pophale) SiO2 
 PCOD8087362
Probable space group: C 2/M
;
_chemical_formula_sum "Si O2"
_cell_formula_units_Z 56
_cell_length_a 27.932155
_cell_length_b 16.471526
_cell_length_c 8.310621
_cell_angle_alpha 90.000000
_cell_angle_beta 127.281625
_cell_angle_gamma 90.000000
_cell_volume 3042.310457
_symmetry_space_group_name_H-M "C 2/M"
_symmetry_group_IT_number 12
_symmetry_cell_setting 'monoclinic'
loop_
_space_group_symop_operation_xyz
x,y,z
-x,y,-z
-x,-y,-z
x,-y,z
1/2+x,1/2+y,z
1/2-x,1/2+y,-z
1/2-x,1/2-y,-z
1/2+x,1/2-y,z
loop_
_atom_site_type_symbol
_atom_site_label
_atom_site_fract_x
_atom_site_fract_y
_atom_site_fract_z
Si Si1 0.689385 0.780158 0.954584
Si Si2 0.334204 0.093454 0.846124
Si Si3 0.930230 0.291456 0.882061
Si Si4 0.703571 0.407842 0.490888
Si Si5 0.370252 0.658354 0.947501
Si Si6 0.128287 0.214987 0.533740
Si Si7 0.430212 0.411842 0.381258
O O1 0.641572 0.770743 0.714778
O O2 0.750000 0.750000 0.000000
O O3 0.685184 0.871299 0.016881
O O4 0.677248 0.723129 0.082912
O O5 0.393343 0.136646 0.893886
O O6 0.275583 0.103240 0.610543
O O7 0.351583 0.000000 0.906491
O O8 0.924425 0.207349 0.970076
O O9 0.900326 0.277206 0.648749
O O10 0.000000 0.315765 0.000000
O O11 0.691750 0.500000 0.531232
O O12 0.666400 0.398304 0.250167
O O13 0.684351 0.337158 0.577562
O O14 0.396866 0.606652 0.146344
O O15 0.080489 0.148819 0.494294
O O16 0.500000 0.412134 0.500000
O O17 0.407059 0.500000 0.388968
#
# Coordination Sequence:
#
# PCOD8087362 Si02
#       7
#     8   8   8   8   8   8   8
#     4  10  19  34  55  79 106 139 169 212 268 322
#     4  10  22  38  56  80 110 140 175 223 276 323
#     4  10  21  37  58  78 103 143 188 228 265 311
#     4  10  19  33  52  80 113 140 171 219 274 321
#     4   9  20  32  52  78 108 140 183 218 260 319
#     4  10  20  33  56  79 106 138 182 219 263 323
#     4  10  19  32  49  75 112 148 180 217 262 313
#
# _framework density 18.407063000000001
#
# number of rings (size 3 to 8) (size 9 to 14) (size 15 to 20)
#    0.000    2.143    1.429    1.714    2.000    2.000 
#    0.000    1.429    0.000    7.714    0.000    0.000 
#    0.000    0.000    0.000    0.000    0.000    0.000 
#
# Total GULP energy -347014.776183 kJ/mol
# GULP energy per Si atom -12393.384864 kJ/mol
# Density = 1.836517 g / cm^3
# Si number density = 18.407063 Si / 1000 Ang^3
#
#
#
# Elastic Constant Matrix: (Units=GPa)
#
#
# Indices 1 2 3 4 5 6 
#
# 1 100.0208 44.9888 38.3279 0.0000 7.7809 0.0000
# 2 44.9888 100.8804 38.8434 0.0000 7.0041 0.0000
# 3 38.3279 38.8434 51.3804 0.0000 4.9133 0.0000
# 4 0.0000 0.0000 0.0000 30.9945 0.0000 4.4096
# 5 7.7809 7.0041 4.9133 0.0000 31.6365 0.0000
# 6 0.0000 0.0000 0.0000 4.4096 0.0000 21.6285
#
#
#
# Elastic Compliance Matrix: (Units=1/GPa)
#
#
# Indices 1 2 3 4 5 6 
#
# 1 0.014820 -0.003244 -0.008448 0.000000 -0.001615 0.000000
# 2 -0.003244 0.014761 -0.008632 0.000000 -0.001130 0.000000
# 3 -0.008448 -0.008632 0.032390 0.000000 -0.001042 0.000000
# 4 0.000000 0.000000 0.000000 0.033228 0.000000 -0.006774
# 5 -0.001615 -0.001130 -0.001042 0.000000 0.032418 0.000000
# 6 0.000000 0.000000 0.000000 -0.006774 0.000000 0.047616
#
#
# Mechanical properties :
#
#
# Convention : Reuss Voigt Hill
#
# Bulk Modulus (GPa) = 46.89688 55.17800 51.03744
# Shear Modulus (GPa) = 22.42259 25.52667 23.97463
#
# Velocity S-wave (km/s) = 3.49399 3.72800 3.61289
# Velocity P-wave (km/s) = 6.46608 6.96938 6.72244
#
# Compressibility (1/GPa) = 0.02132338
#
# Stress axis : x y z
#
# Youngs Moduli (GPa) = 67.47585 67.74397 30.87381
#
# Poissons Ratio (x) = 0.21977 0.26083
# Poissons Ratio (y) = 0.21890 0.26649
# Poissons Ratio (z) = 0.57006 0.58474
#
# Static dielectric constant tensor:
#      x y z
#    x 3.451070 0.000000 -0.165150 
#    y 0.000000 3.658630 0.000000 
#    z -0.165150 0.000000 3.545040 
# 
# 
# High freq. dielectric constant tensor:
#      x y z
#    x 1.713730 0.000000 -0.002550 
#    y 0.000000 1.707630 0.000000 
#    z -0.002550 0.000000 1.711680 
# 
# From -- ./inp_files/112659.got.cif
#   From: 2010.06.25/outbox.cif.g09.slc.cpg/sg12_57_cif.got.tgz:112659.got - 2010.06.28 00:19:55.
