data_PCOD8087175
_publ_section_title
;
Structure prediction by ZEFSAII (Michael W. Deem and Ramdas Pophale) SiO2 
 PCOD8087175
Probable space group: C 2/M
;
_chemical_formula_sum "Si O2"
_cell_formula_units_Z 56
_cell_length_a 22.324695
_cell_length_b 17.449248
_cell_length_c 8.990217
_cell_angle_alpha 90.000000
_cell_angle_beta 48.815201
_cell_angle_gamma 90.000000
_cell_volume 2635.667724
_symmetry_space_group_name_H-M "C 2/M"
_symmetry_group_IT_number 12
_symmetry_cell_setting 'monoclinic'
loop_
_space_group_symop_operation_xyz
x,y,z
-x,y,-z
-x,-y,-z
x,-y,z
1/2+x,1/2+y,z
1/2-x,1/2+y,-z
1/2-x,1/2-y,-z
1/2+x,1/2-y,z
loop_
_atom_site_type_symbol
_atom_site_label
_atom_site_fract_x
_atom_site_fract_y
_atom_site_fract_z
Si Si1 0.955242 0.085488 0.876689
Si Si2 0.161789 0.190319 0.803222
Si Si3 0.233177 0.671638 0.111021
Si Si4 0.579798 0.086444 0.277135
Si Si5 0.593831 0.690063 0.614534
Si Si6 0.529779 0.807768 0.113062
Si Si7 0.867183 0.912289 0.728296
O O1 0.941129 0.095381 0.721065
O O2 0.031809 0.134154 0.799335
O O3 0.977255 0.000000 0.881272
O O4 0.877349 0.108158 0.096653
O O5 0.247748 0.188788 0.744477
O O6 0.165916 0.202628 0.617215
O O7 0.105603 0.252129 0.976996
O O8 0.142598 0.643848 0.251458
O O9 0.250000 0.750000 0.000000
O O10 0.287077 0.605090 0.950812
O O11 0.500000 0.088112 0.500000
O O12 0.559238 0.115834 0.145944
O O13 0.613716 0.000000 0.210756
O O14 0.543042 0.768284 0.673929
O O15 0.626242 0.651822 0.411493
O O16 0.500000 0.832431 0.000000
O O17 0.862901 0.000000 0.672521
#
# Coordination Sequence:
#
# PCOD8087175 Si02
#       7
#     8   8   8   8   8   8   8
#     4   9  17  29  48  78 123 168 200 228 278 356
#     4   9  19  35  55  89 118 157 201 249 303 356
#     4  11  22  41  66  88 117 161 202 253 313 371
#     4  11  25  43  66  92 119 158 212 263 304 361
#     4  10  19  31  55  89 127 155 199 245 295 366
#     4   9  19  37  60  89 125 161 206 253 302 368
#     4  10  21  35  54  87 125 163 201 248 305 368
#
# _framework density 21.246987000000001
#
# number of rings (size 3 to 8) (size 9 to 14) (size 15 to 20)
#    0.000    2.143    1.429    2.571    2.000    3.714 
#    0.000    2.143    0.000    1.714    0.000    0.000 
#    0.000    0.000    0.000    0.000    0.000    0.000 
#
# Total GULP energy -347013.667687 kJ/mol
# GULP energy per Si atom -12393.345275 kJ/mol
# Density = 2.119863 g / cm^3
# Si number density = 21.246987 Si / 1000 Ang^3
#
#
#
# Elastic Constant Matrix: (Units=GPa)
#
#
# Indices 1 2 3 4 5 6 
#
# 1 146.0748 46.1202 24.2188 0.0000 10.4121 0.0000
# 2 46.1202 87.3593 16.8600 0.0000 2.8937 0.0000
# 3 24.2188 16.8600 46.9681 0.0000 12.6237 0.0000
# 4 0.0000 0.0000 0.0000 9.1179 0.0000 -1.1361
# 5 10.4121 2.8937 12.6237 0.0000 27.0228 0.0000
# 6 0.0000 0.0000 0.0000 -1.1361 0.0000 25.5645
#
#
#
# Elastic Compliance Matrix: (Units=1/GPa)
#
#
# Indices 1 2 3 4 5 6 
#
# 1 0.008663 -0.004022 -0.002564 0.000000 -0.001709 0.000000
# 2 -0.004022 0.014184 -0.003460 0.000000 0.001647 0.000000
# 3 -0.002564 -0.003460 0.026863 0.000000 -0.011191 0.000000
# 4 0.000000 0.000000 0.000000 0.110285 0.000000 0.004901
# 5 -0.001709 0.001647 -0.011191 0.000000 0.042716 0.000000
# 6 0.000000 0.000000 0.000000 0.004901 0.000000 0.039335
#
#
# Mechanical properties :
#
#
# Convention : Reuss Voigt Hill
#
# Bulk Modulus (GPa) = 33.76408 50.53336 42.14872
# Shear Modulus (GPa) = 18.38181 25.22126 21.80153
#
# Velocity S-wave (km/s) = 2.94453 3.44910 3.20675
# Velocity P-wave (km/s) = 5.24272 6.30057 5.79583
#
# Compressibility (1/GPa) = 0.02961727
#
# Stress axis : x y z
#
# Youngs Moduli (GPa) = 115.43978 70.50429 37.22620
#
# Poissons Ratio (x) = 0.28356 0.09543
# Poissons Ratio (y) = 0.46429 0.12881
# Poissons Ratio (z) = 0.29594 0.24397
#
# Static dielectric constant tensor:
#      x y z
#    x 4.058520 0.000000 0.039710 
#    y 0.000000 3.835770 0.000000 
#    z 0.039710 0.000000 3.451470 
# 
# 
# High freq. dielectric constant tensor:
#      x y z
#    x 1.843040 0.000000 0.009120 
#    y 0.000000 1.825890 0.000000 
#    z 0.009120 0.000000 1.806990 
# 
# From -- ./inp_files/89507.got.cif
#   From: 2010.06.25/outbox.cif.g09.slc.cpg/sg12_45_cif.got.tgz:89507.got - 2010.06.28 00:19:55.
