data_PCOD8087031
_publ_section_title
;
Structure prediction by ZEFSAII (Michael W. Deem and Ramdas Pophale) SiO2 
 PCOD8087031
Probable space group: C 2/M
;
_chemical_formula_sum "Si O2"
_cell_formula_units_Z 56
_cell_length_a 29.632749
_cell_length_b 15.433405
_cell_length_c 11.330603
_cell_angle_alpha 90.000000
_cell_angle_beta 32.465076
_cell_angle_gamma 90.000000
_cell_volume 2781.553623
_symmetry_space_group_name_H-M "C 2/M"
_symmetry_group_IT_number 12
_symmetry_cell_setting 'monoclinic'
loop_
_space_group_symop_operation_xyz
x,y,z
-x,y,-z
-x,-y,-z
x,-y,z
1/2+x,1/2+y,z
1/2-x,1/2+y,-z
1/2-x,1/2-y,-z
1/2+x,1/2-y,z
loop_
_atom_site_type_symbol
_atom_site_label
_atom_site_fract_x
_atom_site_fract_y
_atom_site_fract_z
Si Si1 0.142703 0.094017 0.813975
Si Si2 0.633227 0.761293 0.086533
Si Si3 0.998605 0.833018 0.272272
Si Si4 0.189981 0.401289 0.139416
Si Si5 0.089472 0.767330 0.747647
Si Si6 0.721557 0.167464 0.329062
Si Si7 0.877804 0.097466 0.732056
O O1 0.141041 0.169565 0.720287
O O2 0.222227 0.098430 0.725587
O O3 0.144400 0.000000 0.747437
O O4 0.059629 0.098344 0.076651
O O5 0.549237 0.758979 0.189965
O O6 0.632420 0.838123 0.184591
O O7 0.622506 0.663868 0.160394
O O8 0.721709 0.755071 0.820454
O O9 0.923844 0.813875 0.347455
O O10 0.954679 0.877853 0.479526
O O11 0.155764 0.500000 0.205318
O O12 0.185360 0.370262 0.285615
O O13 0.284731 0.395406 0.879017
O O14 0.147087 0.685905 0.586508
O O15 0.000000 0.737608 0.000000
O O16 0.891030 0.000000 0.750315
#
# Coordination Sequence:
#
# PCOD8087031 Si02
#       7
#     8   8   8   8   8   8   8
#     4  10  21  35  54  82 110 139 177 221 272 328
#     4  10  20  33  52  81 115 148 180 216 264 329
#     4  10  20  32  52  80 115 146 170 213 268 325
#     4  10  20  35  57  82 110 147 186 223 266 321
#     4  10  21  36  55  77 101 138 183 228 274 317
#     4  10  19  36  57  78 107 143 182 223 272 325
#     4  10  19  31  52  83 113 141 174 214 267 331
#
# _framework density 20.132633999999999
#
# number of rings (size 3 to 8) (size 9 to 14) (size 15 to 20)
#    0.000    2.000    0.000    5.143    0.000    7.714 
#    0.000    0.714    0.000    9.429    0.000    0.000 
#    0.000    0.000    0.000    0.000    0.000    0.000 
#
# Total GULP energy -346893.769647 kJ/mol
# GULP energy per Si atom -12389.063202 kJ/mol
# Density = 2.008681 g / cm^3
# Si number density = 20.132634 Si / 1000 Ang^3
#
#
#
# Elastic Constant Matrix: (Units=GPa)
#
#
# Indices 1 2 3 4 5 6 
#
# 1 86.5485 34.8654 7.9141 0.0000 2.3743 0.0000
# 2 34.8654 95.6092 34.9053 0.0000 0.4796 0.0000
# 3 7.9141 34.9053 83.1886 0.0000 7.5381 0.0000
# 4 0.0000 0.0000 0.0000 18.2931 0.0000 2.0918
# 5 2.3743 0.4796 7.5381 0.0000 16.2075 0.0000
# 6 0.0000 0.0000 0.0000 2.0918 0.0000 17.1572
#
#
#
# Elastic Compliance Matrix: (Units=1/GPa)
#
#
# Indices 1 2 3 4 5 6 
#
# 1 0.013693 -0.005414 0.001186 0.000000 -0.002397 0.000000
# 2 -0.005414 0.014563 -0.005876 0.000000 0.003095 0.000000
# 3 0.001186 -0.005876 0.015006 0.000000 -0.006979 0.000000
# 4 0.000000 0.000000 0.000000 0.055438 0.000000 -0.006759
# 5 -0.002397 0.003095 -0.006979 0.000000 0.065206 0.000000
# 6 0.000000 0.000000 0.000000 -0.006759 0.000000 0.059109
#
#
# Mechanical properties :
#
#
# Convention : Reuss Voigt Hill
#
# Bulk Modulus (GPa) = 43.37640 46.74623 45.06131
# Shear Modulus (GPa) = 19.92769 22.84231 21.38500
#
# Velocity S-wave (km/s) = 3.14955 3.37202 3.26269
# Velocity P-wave (km/s) = 5.90071 6.19921 6.05180
#
# Compressibility (1/GPa) = 0.02305401
#
# Stress axis : x y z
#
# Youngs Moduli (GPa) = 73.03197 68.66528 66.64007
#
# Poissons Ratio (x) = 0.37178 -0.07906
# Poissons Ratio (y) = 0.39542 0.39158
# Poissons Ratio (z) = -0.08665 0.40348
#
# Static dielectric constant tensor:
#      x y z
#    x 3.765900 0.000000 -0.133540 
#    y 0.000000 3.379310 0.000000 
#    z -0.133540 0.000000 3.877970 
# 
# 
# High freq. dielectric constant tensor:
#      x y z
#    x 1.790020 0.000000 -0.003890 
#    y 0.000000 1.751480 0.000000 
#    z -0.003890 0.000000 1.783580 
# 
# From -- ./inp_files/189584.got.cif
#   From: 2010.06.25/outbox.cif.g09.slc.cpg/sg12_95_cif.got.tgz:189584.got - 2010.06.28 00:19:55.
