data_PCOD8087111
_publ_section_title
;
Structure prediction by ZEFSAII (Michael W. Deem and Ramdas Pophale) SiO2 
 PCOD8087111
Probable space group: C 2/M
;
_chemical_formula_sum "Si O2"
_cell_formula_units_Z 40
_cell_length_a 19.677138
_cell_length_b 18.780618
_cell_length_c 13.012041
_cell_angle_alpha 90.000000
_cell_angle_beta 152.495828
_cell_angle_gamma 90.000000
_cell_volume 2220.667700
_symmetry_space_group_name_H-M "C 2/M"
_symmetry_group_IT_number 12
_symmetry_cell_setting 'monoclinic'
loop_
_space_group_symop_operation_xyz
x,y,z
-x,y,-z
-x,-y,-z
x,-y,z
1/2+x,1/2+y,z
1/2-x,1/2+y,-z
1/2-x,1/2-y,-z
1/2+x,1/2-y,z
loop_
_atom_site_type_symbol
_atom_site_label
_atom_site_fract_x
_atom_site_fract_y
_atom_site_fract_z
Si Si1 0.612574 0.706503 0.414167
Si Si2 0.952380 0.416149 0.221988
Si Si3 0.702054 0.672476 0.974893
Si Si4 0.629607 0.181688 0.603683
Si Si5 0.423494 0.828902 0.788275
O O1 0.474001 0.661849 0.272099
O O2 0.680191 0.758535 0.591565
O O3 0.553606 0.754107 0.240176
O O4 0.747502 0.655652 0.562848
O O5 0.945819 0.500000 0.220592
O O6 0.067786 0.387545 0.461405
O O7 0.004189 0.393307 0.178080
O O8 0.788756 0.385404 0.023452
O O9 0.750000 0.750000 0.000000
O O10 0.736574 0.660975 0.142318
O O11 0.500000 0.214590 0.500000
O O12 0.500000 0.824228 0.000000
#
# Coordination Sequence:
#
# PCOD8087111 Si02
#       5
#     8   8   8   8   8
#     4  10  19  31  53  86 108 131 180 231 273 313
#     4  10  22  38  53  77 112 151 185 214 268 333
#     4  11  18  33  56  86 109 135 178 233 272 316
#     4   9  17  30  54  80 109 138 172 222 278 317
#     4  10  20  34  54  77 108 149 178 222 268 321
#
# _framework density 18.012601
#
# number of rings (size 3 to 8) (size 9 to 14) (size 15 to 20)
#    0.000    2.000    6.000    1.200    0.000    4.000 
#    0.000    1.000    0.000    2.400    0.000    0.000 
#    0.000    0.000    0.000    0.000    0.000    0.000 
#
# Total GULP energy -247930.137084 kJ/mol
# GULP energy per Si atom -12396.506854 kJ/mol
# Density = 1.797160 g / cm^3
# Si number density = 18.012601 Si / 1000 Ang^3
#
#
#
# Elastic Constant Matrix: (Units=GPa)
#
#
# Indices 1 2 3 4 5 6 
#
# 1 118.4702 48.3104 51.5953 0.0000 4.1022 0.0000
# 2 48.3104 90.3885 37.1549 0.0000 6.6359 0.0000
# 3 51.5953 37.1549 80.4193 0.0000 11.5866 0.0000
# 4 0.0000 0.0000 0.0000 14.1619 0.0000 4.9148
# 5 4.1022 6.6359 11.5866 0.0000 44.5492 0.0000
# 6 0.0000 0.0000 0.0000 4.9148 0.0000 17.0017
#
#
#
# Elastic Compliance Matrix: (Units=1/GPa)
#
#
# Indices 1 2 3 4 5 6 
#
# 1 0.013011 -0.004369 -0.006494 0.000000 0.001142 0.000000
# 2 -0.004369 0.015131 -0.004074 0.000000 -0.000792 0.000000
# 3 -0.006494 -0.004074 0.019022 0.000000 -0.003743 0.000000
# 4 0.000000 0.000000 0.000000 0.078486 0.000000 -0.022689
# 5 0.001142 -0.000792 -0.003743 0.000000 0.023433 0.000000
# 6 0.000000 0.000000 0.000000 -0.022689 0.000000 0.065377
#
#
# Mechanical properties :
#
#
# Convention : Reuss Voigt Hill
#
# Bulk Modulus (GPa) = 57.82955 62.59991 60.21473
# Shear Modulus (GPa) = 19.99230 25.29039 22.64135
#
# Velocity S-wave (km/s) = 3.33514 3.75112 3.54923
# Velocity P-wave (km/s) = 6.85607 7.32052 7.09210
#
# Compressibility (1/GPa) = 0.01729220
#
# Stress axis : x y z
#
# Youngs Moduli (GPa) = 76.85849 66.08964 52.56941
#
# Poissons Ratio (x) = 0.28871 0.34137
# Poissons Ratio (y) = 0.33576 0.21416
# Poissons Ratio (z) = 0.49909 0.26924
#
# Static dielectric constant tensor:
#      x y z
#    x 3.736630 0.000000 -0.032290 
#    y 0.000000 2.826380 0.000000 
#    z -0.032290 0.000000 3.643580 
# 
# 
# High freq. dielectric constant tensor:
#      x y z
#    x 1.719870 0.000000 -0.002060 
#    y 0.000000 1.638450 0.000000 
#    z -0.002060 0.000000 1.695870 
# 
# From -- ./inp_files/159667.got.cif
#   From: 2010.06.25/outbox.cif.g09.slc.cpg/sg12_80_cif.got.tgz:159667.got - 2010.06.28 00:19:55.
