data_PCOD8087903
_publ_section_title
;
Structure prediction by ZEFSAII (Michael W. Deem and Ramdas Pophale) SiO2 
 PCOD8087903
Probable space group: C 2/M
;
_chemical_formula_sum "Si O2"
_cell_formula_units_Z 48
_cell_length_a 23.321097
_cell_length_b 9.484079
_cell_length_c 12.513010
_cell_angle_alpha 90.000000
_cell_angle_beta 89.226833
_cell_angle_gamma 90.000000
_cell_volume 2767.364637
_symmetry_space_group_name_H-M "C 2/M"
_symmetry_group_IT_number 12
_symmetry_cell_setting 'monoclinic'
loop_
_space_group_symop_operation_xyz
x,y,z
-x,y,-z
-x,-y,-z
x,-y,z
1/2+x,1/2+y,z
1/2-x,1/2+y,-z
1/2-x,1/2-y,-z
1/2+x,1/2-y,z
loop_
_atom_site_type_symbol
_atom_site_label
_atom_site_fract_x
_atom_site_fract_y
_atom_site_fract_z
Si Si1 0.065032 0.162658 0.488808
Si Si2 0.443470 0.166781 0.130746
Si Si3 0.427551 0.833089 0.893872
Si Si4 0.252270 0.662108 0.607375
Si Si5 0.625777 0.836932 0.666138
Si Si6 0.865759 0.837667 0.722448
O O1 0.105400 0.253151 0.563504
O O2 0.085338 0.185732 0.367419
O O3 0.000000 0.216681 0.500000
O O4 0.070321 0.000000 0.523365
O O5 0.509110 0.215067 0.146212
O O6 0.404066 0.227272 0.227027
O O7 0.441564 0.000000 0.130203
O O8 0.419421 0.217604 0.016725
O O9 0.379961 0.755507 0.824970
O O10 0.419399 0.000000 0.881763
O O11 0.262519 0.500000 0.574034
O O12 0.250000 0.750000 0.500000
O O13 0.194030 0.681060 0.676309
O O14 0.304530 0.714777 0.679471
O O15 0.608777 0.000000 0.650713
O O16 0.862681 0.000000 0.758071
#
# Coordination Sequence:
#
# PCOD8087903 Si02
#       6
#     8   8   8   8   8   8
#     4  10  20  32  47  70 102 133 157 194 250 299
#     4   8  16  32  52  75 100 124 158 206 249 283
#     4   9  17  32  54  74  96 129 163 198 244 294
#     4  10  20  34  51  70  96 133 167 201 245 290
#     4  10  19  32  52  74  95 125 167 207 242 285
#     4  10  20  33  47  69 102 130 159 202 246 289
#
# _framework density 17.345022
#
# number of rings (size 3 to 8) (size 9 to 14) (size 15 to 20)
#    0.000    2.500    1.667    2.000    0.000    1.667 
#    0.000    3.333    0.000    0.000    0.000    0.000 
#    0.000    0.000    0.000    0.000    0.000    0.000 
#
# Total GULP energy -297602.026180 kJ/mol
# GULP energy per Si atom -12400.084424 kJ/mol
# Density = 1.730554 g / cm^3
# Si number density = 17.345022 Si / 1000 Ang^3
#
#
#
# Elastic Constant Matrix: (Units=GPa)
#
#
# Indices 1 2 3 4 5 6 
#
# 1 78.0181 22.7894 29.3365 0.0000 17.8130 0.0000
# 2 22.7894 43.2115 36.5888 0.0000 13.9858 0.0000
# 3 29.3365 36.5888 93.2689 0.0000 19.2882 0.0000
# 4 0.0000 0.0000 0.0000 26.6463 0.0000 8.1385
# 5 17.8130 13.9858 19.2882 0.0000 34.1718 0.0000
# 6 0.0000 0.0000 0.0000 8.1385 0.0000 22.5148
#
#
#
# Elastic Compliance Matrix: (Units=1/GPa)
#
#
# Indices 1 2 3 4 5 6 
#
# 1 0.016283 -0.005202 -0.001999 0.000000 -0.005230 0.000000
# 2 -0.005202 0.038035 -0.012031 0.000000 -0.006065 0.000000
# 3 -0.001999 -0.012031 0.016797 0.000000 -0.003515 0.000000
# 4 0.000000 0.000000 0.000000 0.042186 0.000000 -0.015249
# 5 -0.005230 -0.006065 -0.003515 0.000000 0.036457 0.000000
# 6 0.000000 0.000000 0.000000 -0.015249 0.000000 0.049927
#
#
# Mechanical properties :
#
#
# Convention : Reuss Voigt Hill
#
# Bulk Modulus (GPa) = 30.62625 43.54755 37.08690
# Shear Modulus (GPa) = 20.07771 25.05216 22.56494
#
# Velocity S-wave (km/s) = 3.40597 3.80457 3.61078
# Velocity P-wave (km/s) = 5.75872 6.66790 6.22992
#
# Compressibility (1/GPa) = 0.03265173
#
# Stress axis : x y z
#
# Youngs Moduli (GPa) = 61.41386 26.29158 59.53445
#
# Poissons Ratio (x) = 0.13676 0.11903
# Poissons Ratio (y) = 0.31946 0.71623
# Poissons Ratio (z) = 0.12279 0.31630
#
# Static dielectric constant tensor:
#      x y z
#    x 3.475760 0.000000 -0.162090 
#    y 0.000000 3.019460 0.000000 
#    z -0.162090 0.000000 3.299460 
# 
# 
# High freq. dielectric constant tensor:
#      x y z
#    x 1.674740 0.000000 -0.000360 
#    y 0.000000 1.649390 0.000000 
#    z -0.000360 0.000000 1.665670 
# 
# From -- ./inp_files/164191.got.cif
#   From: 2010.06.25/outbox.cif.g09.slc.cpg/sg12_83_cif.got.tgz:164191.got - 2010.06.28 00:19:55.
