data_PCOD8087905
_publ_section_title
;
Structure prediction by ZEFSAII (Michael W. Deem and Ramdas Pophale) SiO2 
 PCOD8087905
Probable space group: C 2/M
;
_chemical_formula_sum "Si O2"
_cell_formula_units_Z 64
_cell_length_a 19.576144
_cell_length_b 8.646000
_cell_length_c 21.463064
_cell_angle_alpha 90.000000
_cell_angle_beta 103.448757
_cell_angle_gamma 90.000000
_cell_volume 3533.122415
_symmetry_space_group_name_H-M "C 2/M"
_symmetry_group_IT_number 12
_symmetry_cell_setting 'monoclinic'
loop_
_space_group_symop_operation_xyz
x,y,z
-x,y,-z
-x,-y,-z
x,-y,z
1/2+x,1/2+y,z
1/2-x,1/2+y,-z
1/2-x,1/2-y,-z
1/2+x,1/2-y,z
loop_
_atom_site_type_symbol
_atom_site_label
_atom_site_fract_x
_atom_site_fract_y
_atom_site_fract_z
Si Si1 0.026480 0.315826 0.329147
Si Si2 0.643990 0.322517 0.809074
Si Si3 0.685504 0.322344 0.950847
Si Si4 0.348115 0.181131 0.559168
Si Si5 0.195511 0.178685 0.575556
Si Si6 0.535745 0.815366 0.945363
Si Si7 0.000715 0.321406 0.807604
Si Si8 0.132452 0.318972 0.683692
O O1 0.030474 0.500000 0.328963
O O2 0.086370 0.251421 0.387564
O O3 0.041765 0.252143 0.261149
O O4 0.949232 0.263455 0.336008
O O5 0.617332 0.500000 0.800905
O O6 0.697665 0.303208 0.878519
O O7 0.581811 0.201998 0.807805
O O8 0.674551 0.271588 0.748144
O O9 0.679464 0.500000 0.968211
O O10 0.615166 0.240634 0.959206
O O11 0.750000 0.250000 0.000000
O O12 0.277672 0.213729 0.583135
O O13 0.347971 0.273518 0.494700
O O14 0.356136 0.000000 0.545940
O O15 0.169466 0.280508 0.627071
O O16 0.181558 0.000000 0.587008
O O17 0.490727 0.751424 0.875403
O O18 0.536124 0.000000 0.945380
O O19 0.500000 0.748746 0.000000
O O20 0.982569 0.500000 0.807931
O O21 0.138045 0.500000 0.697422
#
# Coordination Sequence:
#
# PCOD8087905 Si02
#       8
#     8   8   8   8   8   8   8   8
#     4   8  15  29  50  72  89 116 160 200 233 275
#     4   9  17  30  48  71  97 125 159 198 241 286
#     4  10  20  33  51  73  99 132 168 207 249 294
#     4   9  18  34  52  67  90 126 164 197 233 283
#     4  10  20  33  49  70  97 127 158 194 238 285
#     4   9  17  30  49  73 101 132 166 204 246 295
#     4   8  14  27  47  69  94 125 159 194 238 290
#     4  10  19  32  52  74  96 123 156 195 237 285
#
# _framework density 18.114287999999998
#
# number of rings (size 3 to 8) (size 9 to 14) (size 15 to 20)
#    0.000    2.875    0.000    2.250    0.000    2.750 
#    0.000    6.875    0.000    4.500    0.000    0.000 
#    0.000    0.000    0.000    0.000    0.000    0.000 
#
# Total GULP energy -396430.353137 kJ/mol
# GULP energy per Si atom -12388.448536 kJ/mol
# Density = 1.807306 g / cm^3
# Si number density = 18.114288 Si / 1000 Ang^3
#
#
#
# Elastic Constant Matrix: (Units=GPa)
#
#
# Indices 1 2 3 4 5 6 
#
# 1 59.8595 19.4624 61.1611 0.0000 0.2399 0.0000
# 2 19.4624 33.0503 30.0714 0.0000 0.0962 0.0000
# 3 61.1611 30.0714 149.9514 0.0000 -1.8002 0.0000
# 4 0.0000 0.0000 0.0000 27.3715 0.0000 -0.9183
# 5 0.2399 0.0962 -1.8002 0.0000 29.8215 0.0000
# 6 0.0000 0.0000 0.0000 -0.9183 0.0000 20.6366
#
#
#
# Elastic Compliance Matrix: (Units=1/GPa)
#
#
# Indices 1 2 3 4 5 6 
#
# 1 0.030329 -0.008064 -0.010764 0.000000 -0.000868 0.000000
# 2 -0.008064 0.039164 -0.004569 0.000000 -0.000337 0.000000
# 3 -0.010764 -0.004569 0.011985 0.000000 0.000825 0.000000
# 4 0.000000 0.000000 0.000000 0.036589 0.000000 0.001628
# 5 -0.000868 -0.000337 0.000825 0.000000 0.033591 0.000000
# 6 0.000000 0.000000 0.000000 0.001628 0.000000 0.048530
#
#
# Mechanical properties :
#
#
# Convention : Reuss Voigt Hill
#
# Bulk Modulus (GPa) = 28.83106 51.58346 40.20726
# Shear Modulus (GPa) = 19.33927 24.37701 21.85814
#
# Velocity S-wave (km/s) = 3.27100 3.67240 3.47750
# Velocity P-wave (km/s) = 5.49697 6.82060 6.19424
#
# Compressibility (1/GPa) = 0.03468481
#
# Stress axis : x y z
#
# Youngs Moduli (GPa) = 32.97210 25.53391 83.43661
#
# Poissons Ratio (x) = 0.20590 0.89807
# Poissons Ratio (y) = 0.26588 0.38122
# Poissons Ratio (z) = 0.35490 0.11666
#
# Static dielectric constant tensor:
#      x y z
#    x 3.073260 0.000000 0.039850 
#    y 0.000000 3.214060 0.000000 
#    z 0.039850 0.000000 3.979490 
# 
# 
# High freq. dielectric constant tensor:
#      x y z
#    x 1.658530 0.000000 -0.000020 
#    y 0.000000 1.690180 0.000000 
#    z -0.000020 0.000000 1.727980 
# 
# From -- ./inp_files/319239.got.cif
#   From: 2010.06.25/outbox.cif.g09.slc.cpg/sg12_160_cif.got.tgz:319239.got - 2010.06.28 00:19:55.
