data_PCOD8087588
_publ_section_title
;
Structure prediction by ZEFSAII (Michael W. Deem and Ramdas Pophale) SiO2 
 PCOD8087588
Probable space group: C 2/M
;
_chemical_formula_sum "Si O2"
_cell_formula_units_Z 56
_cell_length_a 19.080288
_cell_length_b 9.180586
_cell_length_c 35.036369
_cell_angle_alpha 90.000000
_cell_angle_beta 148.738542
_cell_angle_gamma 90.000000
_cell_volume 3184.894815
_symmetry_space_group_name_H-M "C 2/M"
_symmetry_group_IT_number 12
_symmetry_cell_setting 'monoclinic'
loop_
_space_group_symop_operation_xyz
x,y,z
-x,y,-z
-x,-y,-z
x,-y,z
1/2+x,1/2+y,z
1/2-x,1/2+y,-z
1/2-x,1/2-y,-z
1/2+x,1/2-y,z
loop_
_atom_site_type_symbol
_atom_site_label
_atom_site_fract_x
_atom_site_fract_y
_atom_site_fract_z
Si Si1 0.407019 0.333484 0.421818
Si Si2 0.107429 0.171824 0.932318
Si Si3 0.595027 0.329765 0.010870
Si Si4 0.436022 0.830429 0.564072
Si Si5 0.859004 0.169891 0.601060
Si Si6 0.895488 0.666286 0.693326
Si Si7 0.098557 0.328582 0.854678
O O1 0.500000 0.282091 0.500000
O O2 0.441437 0.500000 0.427123
O O3 0.438136 0.228988 0.401024
O O4 0.251414 0.310749 0.357819
O O5 0.034142 0.244739 0.861602
O O6 0.124587 0.000000 0.933653
O O7 0.250000 0.250000 0.000000
O O8 0.035524 0.200715 0.940239
O O9 0.601000 0.500000 0.021778
O O10 0.749845 0.271945 0.084712
O O11 0.500000 0.258053 0.000000
O O12 0.299267 0.793188 0.477306
O O13 0.442082 0.750435 0.607131
O O14 0.452325 0.000000 0.579204
O O15 0.915206 0.227353 0.667081
O O16 0.887459 0.000000 0.611097
O O17 0.914787 0.500000 0.688719
O O18 0.005567 0.710678 0.775705
O O19 0.097950 0.500000 0.863748
#
# Coordination Sequence:
#
# PCOD8087588 Si02
#       7
#     8   8   8   8   8   8   8
#     4  10  19  32  51  72  96 130 170 212 256 305
#     4   9  16  28  49  73  98 129 164 201 240 289
#     4   8  14  27  49  75  98 124 160 198 235 281
#     4  10  20  33  51  73  97 125 165 215 260 305
#     4  10  20  33  51  73  98 129 165 208 257 309
#     4  10  20  34  51  72 101 135 170 210 260 309
#     4   9  18  32  50  72 100 133 164 200 247 299
#
# _framework density 17.582999000000001
#
# number of rings (size 3 to 8) (size 9 to 14) (size 15 to 20)
#    0.000    2.571    1.429    2.143    0.000    2.571 
#    0.000    1.429    0.000   12.429    0.000    0.000 
#    0.000    0.000    0.000    0.000    0.000    0.000 
#
# Total GULP energy -347070.594961 kJ/mol
# GULP energy per Si atom -12395.378391 kJ/mol
# Density = 1.754298 g / cm^3
# Si number density = 17.582999 Si / 1000 Ang^3
#
#
#
# Elastic Constant Matrix: (Units=GPa)
#
#
# Indices 1 2 3 4 5 6 
#
# 1 118.0764 53.4953 53.4549 0.0000 -26.1458 0.0000
# 2 53.4953 75.6076 41.8681 -0.0006 -21.6682 0.0003
# 3 53.4549 41.8681 96.9781 0.0000 -18.8336 0.0000
# 4 0.0000 -0.0006 0.0000 22.1267 0.0001 -10.7123
# 5 -26.1458 -21.6682 -18.8336 0.0001 26.0459 -0.0001
# 6 0.0000 0.0003 0.0000 -10.7123 -0.0001 29.5346
#
#
#
# Elastic Compliance Matrix: (Units=1/GPa)
#
#
# Indices 1 2 3 4 5 6 
#
# 1 0.014562 -0.006163 -0.004098 0.000000 0.006527 0.000000
# 2 -0.006163 0.022873 -0.004635 0.000001 0.009491 0.000000
# 3 -0.004098 -0.004635 0.015151 0.000000 0.002986 0.000000
# 4 0.000000 0.000001 0.000000 0.054821 0.000000 0.019884
# 5 0.006527 0.009491 0.002986 0.000000 0.055001 0.000000
# 6 0.000000 0.000000 0.000000 0.019884 0.000000 0.041070
#
#
# Mechanical properties :
#
#
# Convention : Reuss Voigt Hill
#
# Bulk Modulus (GPa) = 43.87025 65.36652 54.61839
# Shear Modulus (GPa) = 20.75818 24.99769 22.87794
#
# Velocity S-wave (km/s) = 3.43969 3.77463 3.61104
# Velocity P-wave (km/s) = 6.38591 7.50025 6.96540
#
# Compressibility (1/GPa) = 0.02279449
#
# Stress axis : x y z
#
# Youngs Moduli (GPa) = 68.67177 43.71908 66.00024
#
# Poissons Ratio (x) = 0.26945 0.27049
# Poissons Ratio (y) = 0.42324 0.30589
# Poissons Ratio (z) = 0.28143 0.20263
#
# Static dielectric constant tensor:
#      x y z
#    x 3.473300 0.000000 -0.271470 
#    y 0.000000 3.258070 0.000000 
#    z -0.271470 0.000000 3.342030 
# 
# 
# High freq. dielectric constant tensor:
#      x y z
#    x 1.678540 0.000000 -0.021420 
#    y 0.000000 1.670850 0.000000 
#    z -0.021420 0.000000 1.659900 
# 
# From -- ./inp_files/313330.got.cif
#   From: 2010.06.25/outbox.cif.g09.slc.cpg/sg12_157_cif.got.tgz:313330.got - 2010.06.28 00:19:55.
