data_PCOD8087861
_publ_section_title
;
Structure prediction by ZEFSAII (Michael W. Deem and Ramdas Pophale) SiO2 
 PCOD8087861
Probable space group: C 2/M
;
_chemical_formula_sum "Si O2"
_cell_formula_units_Z 64
_cell_length_a 24.795125
_cell_length_b 14.277396
_cell_length_c 10.005912
_cell_angle_alpha 90.000000
_cell_angle_beta 90.192363
_cell_angle_gamma 90.000000
_cell_volume 3542.171127
_symmetry_space_group_name_H-M "C 2/M"
_symmetry_group_IT_number 12
_symmetry_cell_setting 'monoclinic'
loop_
_space_group_symop_operation_xyz
x,y,z
-x,y,-z
-x,-y,-z
x,-y,z
1/2+x,1/2+y,z
1/2-x,1/2+y,-z
1/2-x,1/2-y,-z
1/2+x,1/2-y,z
loop_
_atom_site_type_symbol
_atom_site_label
_atom_site_fract_x
_atom_site_fract_y
_atom_site_fract_z
Si Si1 0.131726 0.281772 0.480163
Si Si2 0.250935 0.108993 0.152257
Si Si3 0.769456 0.603562 0.619027
Si Si4 0.321106 0.603686 0.600803
Si Si5 0.699922 0.391465 0.867956
Si Si6 0.964486 0.603797 0.629685
Si Si7 0.036457 0.390367 0.872523
Si Si8 0.139228 0.716666 0.793746
O O1 0.189299 0.321124 0.435914
O O2 0.130007 0.173177 0.435760
O O3 0.086235 0.330915 0.393552
O O4 0.124160 0.295595 0.637930
O O5 0.210270 0.139165 0.268647
O O6 0.306179 0.164026 0.168563
O O7 0.265420 0.000000 0.163454
O O8 0.222274 0.134054 0.013471
O O9 0.796324 0.500000 0.618424
O O10 0.717644 0.603869 0.525863
O O11 0.749120 0.629918 0.766956
O O12 0.345280 0.500000 0.625114
O O13 0.681268 0.500000 0.857712
O O14 0.648311 0.325846 0.832759
O O15 0.943486 0.500000 0.667994
O O16 0.000000 0.598993 0.500000
O O17 0.001043 0.644713 0.747799
O O18 0.052420 0.500000 0.859436
O O19 0.090700 0.328248 0.879397
O O20 0.000000 0.370846 0.000000
#
# Coordination Sequence:
#
# PCOD8087861 Si02
#       8
#     8   8   8   8   8   8   8   8
#     4  12  21  32  57  83 107 144 189 222 261 321
#     4  10  21  35  53  81 115 145 179 221 266 320
#     4  10  19  32  51  79 112 142 177 217 261 317
#     4  10  20  34  52  78 112 145 178 219 262 313
#     4  10  22  37  52  79 117 148 177 220 267 317
#     4  10  21  37  56  80 107 135 175 227 275 317
#     4  10  23  41  59  82 111 138 174 229 282 323
#     4  12  21  34  59  81 104 147 188 218 267 329
#
# _framework density 18.068014000000002
#
# number of rings (size 3 to 8) (size 9 to 14) (size 15 to 20)
#    0.000    1.500    3.750    2.250    0.000    3.000 
#    0.000    3.750    0.000    1.500    0.000    0.000 
#    0.000    0.000    0.000    0.000    0.000    0.000 
#
# Total GULP energy -396827.229347 kJ/mol
# GULP energy per Si atom -12400.850917 kJ/mol
# Density = 1.802689 g / cm^3
# Si number density = 18.068014 Si / 1000 Ang^3
#
#
#
# Elastic Constant Matrix: (Units=GPa)
#
#
# Indices 1 2 3 4 5 6 
#
# 1 69.5903 51.3383 26.5672 0.0000 -0.9389 0.0000
# 2 51.3383 92.9191 20.2903 0.0000 -2.5967 0.0000
# 3 26.5672 20.2903 99.5462 0.0000 -0.2466 0.0000
# 4 0.0000 0.0000 0.0000 25.0208 0.0000 0.6870
# 5 -0.9389 -2.5967 -0.2466 0.0000 25.7145 0.0000
# 6 0.0000 0.0000 0.0000 0.6870 0.0000 31.2870
#
#
#
# Elastic Compliance Matrix: (Units=1/GPa)
#
#
# Indices 1 2 3 4 5 6 
#
# 1 0.025814 -0.013365 -0.004166 0.000000 -0.000447 0.000000
# 2 -0.013365 0.018215 -0.000142 0.000000 0.001350 0.000000
# 3 -0.004166 -0.000142 0.011186 0.000000 -0.000059 0.000000
# 4 0.000000 0.000000 0.000000 0.039991 0.000000 -0.000878
# 5 -0.000447 0.001350 -0.000059 0.000000 0.039008 0.000000
# 6 0.000000 0.000000 0.000000 -0.000878 0.000000 0.031981
#
#
# Mechanical properties :
#
#
# Convention : Reuss Voigt Hill
#
# Bulk Modulus (GPa) = 50.33249 50.93858 50.63553
# Shear Modulus (GPa) = 24.01922 27.32843 25.67383
#
# Velocity S-wave (km/s) = 3.65002 3.89335 3.77364
# Velocity P-wave (km/s) = 6.75879 6.96166 6.86098
#
# Compressibility (1/GPa) = 0.01986788
#
# Stress axis : x y z
#
# Youngs Moduli (GPa) = 38.73849 54.89911 89.39436
#
# Poissons Ratio (x) = 0.73374 0.37244
# Poissons Ratio (y) = 0.51775 0.01274
# Poissons Ratio (z) = 0.16139 0.00782
#
# Static dielectric constant tensor:
#      x y z
#    x 3.018550 0.000000 -0.030990 
#    y 0.000000 3.746530 0.000000 
#    z -0.030990 0.000000 3.490500 
# 
# 
# High freq. dielectric constant tensor:
#      x y z
#    x 1.664300 0.000000 -0.001330 
#    y 0.000000 1.706380 0.000000 
#    z -0.001330 0.000000 1.716070 
# 
# From -- ./inp_files/96895.got.cif
#   From: 2010.06.25/outbox.cif.g09.slc.cpg/sg12_49_cif.got.tgz:96895.got - 2010.06.28 00:19:55.
