data_PCOD8087686
_publ_section_title
;
Structure prediction by ZEFSAII (Michael W. Deem and Ramdas Pophale) SiO2 
 PCOD8087686
Probable space group: C 2/M
;
_chemical_formula_sum "Si O2"
_cell_formula_units_Z 64
_cell_length_a 29.981114
_cell_length_b 8.742045
_cell_length_c 30.649238
_cell_angle_alpha 90.000000
_cell_angle_beta 151.462476
_cell_angle_gamma 90.000000
_cell_volume 3837.662931
_symmetry_space_group_name_H-M "C 2/M"
_symmetry_group_IT_number 12
_symmetry_cell_setting 'monoclinic'
loop_
_space_group_symop_operation_xyz
x,y,z
-x,y,-z
-x,-y,-z
x,-y,z
1/2+x,1/2+y,z
1/2-x,1/2+y,-z
1/2-x,1/2-y,-z
1/2+x,1/2-y,z
loop_
_atom_site_type_symbol
_atom_site_label
_atom_site_fract_x
_atom_site_fract_y
_atom_site_fract_z
Si Si1 0.630228 0.178142 0.930919
Si Si2 0.523341 0.179124 0.924119
Si Si3 0.658006 0.322238 0.866754
Si Si4 0.160490 0.177785 0.203736
Si Si5 0.368333 0.178370 0.401702
Si Si6 0.972971 0.819181 0.411795
Si Si7 0.172558 0.180809 0.114903
Si Si8 0.631073 0.180537 0.754019
O O1 0.558110 0.230045 0.906190
O O2 0.606333 0.273314 0.866911
O O3 0.622572 0.000000 0.912929
O O4 0.733061 0.219662 0.036387
O O5 0.415947 0.226251 0.835762
O O6 0.536385 0.000000 0.941303
O O7 0.582401 0.258987 0.012538
O O8 0.641352 0.500000 0.843593
O O9 0.614531 0.225961 0.789860
O O10 0.258229 0.206400 0.312194
O O11 0.167325 0.238625 0.160094
O O12 0.132710 0.000000 0.180371
O O13 0.400757 0.239600 0.382642
O O14 0.421557 0.267556 0.486038
O O15 0.392998 0.000000 0.425343
O O16 0.948965 0.764190 0.342609
O O17 0.964500 0.000000 0.408843
O O18 0.267627 0.242217 0.174554
O O19 0.171977 0.000000 0.112544
O O20 0.621564 0.000000 0.739638
#
# Coordination Sequence:
#
# PCOD8087686 Si02
#       8
#     8   8   8   8   8   8   8   8
#     4   9  19  34  48  69 100 132 166 204 252 303
#     4  11  22  34  49  72 101 134 171 212 253 292
#     4  10  19  32  51  74  99 127 166 211 253 296
#     4  10  21  36  51  70  97 135 178 211 242 293
#     4  10  19  35  53  71  98 133 171 208 250 300
#     4  11  21  32  50  76 103 129 164 210 255 299
#     4  10  20  34  49  68  98 137 177 208 239 290
#     4  11  20  33  52  74 101 137 170 201 251 304
#
# _framework density 16.676817
#
# number of rings (size 3 to 8) (size 9 to 14) (size 15 to 20)
#    0.000    1.750    2.500    3.750    0.000    5.000 
#    0.000    0.000    0.000    0.000    0.000    0.875 
#    0.000    0.000    0.000    0.000    0.000    0.000 
#
# Total GULP energy -396922.801499 kJ/mol
# GULP energy per Si atom -12403.837547 kJ/mol
# Density = 1.663886 g / cm^3
# Si number density = 16.676817 Si / 1000 Ang^3
#
#
#
# Elastic Constant Matrix: (Units=GPa)
#
#
# Indices 1 2 3 4 5 6 
#
# 1 93.2835 23.4012 43.3821 -0.0002 -6.2236 -0.0002
# 2 23.4012 43.9127 20.2900 -0.0009 -4.6337 -0.0022
# 3 43.3821 20.2900 88.1241 0.0000 -7.2294 -0.0002
# 4 -0.0002 -0.0009 0.0000 23.7060 0.0000 -3.3925
# 5 -6.2236 -4.6337 -7.2294 0.0000 20.8936 -0.0002
# 6 -0.0002 -0.0022 -0.0002 -3.3925 -0.0002 26.0701
#
#
#
# Elastic Compliance Matrix: (Units=1/GPa)
#
#
# Indices 1 2 3 4 5 6 
#
# 1 0.014879 -0.004993 -0.006075 0.000000 0.001223 0.000000
# 2 -0.004993 0.027444 -0.003585 0.000001 0.003359 0.000002
# 3 -0.006075 -0.003585 0.015387 0.000000 0.002719 0.000000
# 4 0.000000 0.000001 0.000000 0.042984 0.000000 0.005594
# 5 0.001223 0.003359 0.002719 0.000000 0.049911 0.000001
# 6 0.000000 0.000002 0.000000 0.005594 0.000001 0.039086
#
#
# Mechanical properties :
#
#
# Convention : Reuss Voigt Hill
#
# Bulk Modulus (GPa) = 35.20676 44.38521 39.79598
# Shear Modulus (GPa) = 21.88503 23.35041 22.61772
#
# Velocity S-wave (km/s) = 3.62650 3.74595 3.68671
# Velocity P-wave (km/s) = 6.22032 6.73663 6.48362
#
# Compressibility (1/GPa) = 0.02840364
#
# Stress axis : x y z
#
# Youngs Moduli (GPa) = 67.20708 36.43739 64.99089
#
# Poissons Ratio (x) = 0.18194 0.39481
# Poissons Ratio (y) = 0.33559 0.23301
# Poissons Ratio (z) = 0.40828 0.13064
#
# Static dielectric constant tensor:
#      x y z
#    x 3.063190 0.000000 -0.060150 
#    y 0.000000 3.119820 0.000000 
#    z -0.060150 0.000000 3.081390 
# 
# 
# High freq. dielectric constant tensor:
#      x y z
#    x 1.622700 0.000000 -0.011110 
#    y 0.000000 1.650860 0.000000 
#    z -0.011110 0.000000 1.630840 
# 
# From -- ./inp_files/384601.got.cif
#   From: 2010.06.25/outbox.cif.g09.slc.cpg/sg12_193_cif.got.tgz:384601.got - 2010.06.28 00:19:55.
