data_PCOD8087334
_publ_section_title
;
Structure prediction by ZEFSAII (Michael W. Deem and Ramdas Pophale) SiO2 
 PCOD8087334
Probable space group: C 2/M
;
_chemical_formula_sum "Si O2"
_cell_formula_units_Z 56
_cell_length_a 31.680368
_cell_length_b 8.848199
_cell_length_c 18.197656
_cell_angle_alpha 90.000000
_cell_angle_beta 143.036824
_cell_angle_gamma 90.000000
_cell_volume 3067.276457
_symmetry_space_group_name_H-M "C 2/M"
_symmetry_group_IT_number 12
_symmetry_cell_setting 'monoclinic'
loop_
_space_group_symop_operation_xyz
x,y,z
-x,y,-z
-x,-y,-z
x,-y,z
1/2+x,1/2+y,z
1/2-x,1/2+y,-z
1/2-x,1/2-y,-z
1/2+x,1/2-y,z
loop_
_atom_site_type_symbol
_atom_site_label
_atom_site_fract_x
_atom_site_fract_y
_atom_site_fract_z
Si Si1 0.290503 0.330353 0.862679
Si Si2 0.212420 0.824572 0.878109
Si Si3 0.838470 0.329126 0.417193
Si Si4 0.912954 0.323111 0.956513
Si Si5 0.315368 0.180196 0.548773
Si Si6 0.080732 0.179321 0.601115
Si Si7 0.929178 0.324193 0.817114
O O1 0.293029 0.500000 0.899843
O O2 0.265320 0.208183 0.886066
O O3 0.239804 0.325389 0.722624
O O4 0.366923 0.280180 0.944736
O O5 0.134096 0.765808 0.741841
O O6 0.207225 0.000000 0.887986
O O7 0.250000 0.750000 0.000000
O O8 0.867554 0.500000 0.462159
O O9 0.829422 0.257748 0.485941
O O10 0.892499 0.238414 0.440624
O O11 0.892171 0.500000 0.933078
O O12 0.907400 0.257119 0.866006
O O13 0.991105 0.293286 0.093884
O O14 0.250000 0.250000 0.500000
O O15 0.382041 0.240782 0.686688
O O16 0.306940 0.000000 0.535413
O O17 0.000000 0.236258 0.500000
O O18 0.082984 0.000000 0.601166
O O19 0.916309 0.500000 0.808886
#
# Coordination Sequence:
#
# PCOD8087334 Si02
#       7
#     8   8   8   8   8   8   8
#     4  10  19  32  50  73 101 132 166 208 254 304
#     4  10  20  36  57  80 106 135 170 214 260 312
#     4   9  19  33  50  74 104 135 171 212 254 307
#     4   9  16  30  50  70  93 131 174 208 250 302
#     4  10  19  32  49  72 102 133 169 212 255 299
#     4   9  19  37  59  80 105 139 175 215 264 316
#     4   8  16  30  48  68  97 132 168 210 251 299
#
# _framework density 18.257238999999998
#
# number of rings (size 3 to 8) (size 9 to 14) (size 15 to 20)
#    0.000    2.714    0.000    2.571    0.000    2.000 
#    2.571    2.143    0.000    0.000    0.000    0.000 
#    0.000    0.000    0.000    0.000    0.000    0.000 
#
# Total GULP energy -346925.392526 kJ/mol
# GULP energy per Si atom -12390.192590 kJ/mol
# Density = 1.821569 g / cm^3
# Si number density = 18.257239 Si / 1000 Ang^3
#
#
#
# Elastic Constant Matrix: (Units=GPa)
#
#
# Indices 1 2 3 4 5 6 
#
# 1 108.7757 24.2566 71.1678 0.0000 5.7534 0.0000
# 2 24.2566 33.4438 29.3895 0.0000 1.6723 0.0000
# 3 71.1678 29.3895 133.1936 0.0000 -6.7042 0.0000
# 4 0.0000 0.0000 0.0000 20.5714 0.0000 1.5898
# 5 5.7534 1.6723 -6.7042 0.0000 31.8408 0.0000
# 6 0.0000 0.0000 0.0000 1.5898 0.0000 31.6213
#
#
#
# Elastic Compliance Matrix: (Units=1/GPa)
#
#
# Indices 1 2 3 4 5 6 
#
# 1 0.015197 -0.004346 -0.007366 0.000000 -0.004069 0.000000
# 2 -0.004346 0.038775 -0.006364 0.000000 -0.002591 0.000000
# 3 -0.007366 -0.006364 0.013070 0.000000 0.004417 0.000000
# 4 0.000000 0.000000 0.000000 0.048801 0.000000 -0.002454
# 5 -0.004069 -0.002591 0.004417 0.000000 0.033208 0.000000
# 6 0.000000 0.000000 0.000000 -0.002454 0.000000 0.031748
#
#
# Mechanical properties :
#
#
# Convention : Reuss Voigt Hill
#
# Bulk Modulus (GPa) = 32.37250 58.33789 45.35519
# Shear Modulus (GPa) = 22.00259 26.84666 24.42463
#
# Velocity S-wave (km/s) = 3.47528 3.83883 3.66157
# Velocity P-wave (km/s) = 5.82008 7.18829 6.54006
#
# Compressibility (1/GPa) = 0.03089042
#
# Stress axis : x y z
#
# Youngs Moduli (GPa) = 65.80405 25.78974 76.51044
#
# Poissons Ratio (x) = 0.11208 0.56355
# Poissons Ratio (y) = 0.28597 0.48693
# Poissons Ratio (z) = 0.48469 0.16413
#
# Static dielectric constant tensor:
#      x y z
#    x 3.695200 0.000000 -1.361750 
#    y 0.000000 3.206830 0.000000 
#    z -1.361750 0.000000 8.053820 
# 
# 
# High freq. dielectric constant tensor:
#      x y z
#    x 1.705000 0.000000 0.000810 
#    y 0.000000 1.687030 0.000000 
#    z 0.000810 0.000000 1.712510 
# 
# From -- ./inp_files/295100.got.cif
#   From: 2010.06.25/outbox.cif.g09.slc.cpg/sg12_148_cif.got.tgz:295100.got - 2010.06.28 00:19:55.
