data_PCOD8087794
_publ_section_title
;
Structure prediction by ZEFSAII (Michael W. Deem and Ramdas Pophale) SiO2 
 PCOD8087794
Probable space group: C 2/M
;
_chemical_formula_sum "Si O2"
_cell_formula_units_Z 64
_cell_length_a 25.456915
_cell_length_b 8.975387
_cell_length_c 15.321386
_cell_angle_alpha 90.000000
_cell_angle_beta 70.897647
_cell_angle_gamma 90.000000
_cell_volume 3307.951725
_symmetry_space_group_name_H-M "C 2/M"
_symmetry_group_IT_number 12
_symmetry_cell_setting 'monoclinic'
loop_
_space_group_symop_operation_xyz
x,y,z
-x,y,-z
-x,-y,-z
x,-y,z
1/2+x,1/2+y,z
1/2-x,1/2+y,-z
1/2-x,1/2-y,-z
1/2+x,1/2-y,z
loop_
_atom_site_type_symbol
_atom_site_label
_atom_site_fract_x
_atom_site_fract_y
_atom_site_fract_z
Si Si1 0.500926 0.322824 0.269652
Si Si2 0.654618 0.672421 0.870421
Si Si3 0.122601 0.177887 0.244806
Si Si4 0.469843 0.675865 0.099573
Si Si5 0.883132 0.177141 0.399486
Si Si6 0.799381 0.324716 0.311328
Si Si7 0.325716 0.323882 0.604856
Si Si8 0.309001 0.325874 0.959100
O O1 0.501438 0.500000 0.266429
O O2 0.558799 0.263047 0.278091
O O3 0.495646 0.258628 0.174372
O O4 0.447256 0.270203 0.354694
O O5 0.668814 0.500000 0.845955
O O6 0.594460 0.716347 0.867972
O O7 0.697046 0.772933 0.791610
O O8 0.656849 0.709583 0.971662
O O9 0.150838 0.243002 0.317111
O O10 0.156370 0.238157 0.142099
O O11 0.122970 0.000000 0.243074
O O12 0.479089 0.500000 0.091970
O O13 0.500000 0.750102 0.000000
O O14 0.845376 0.243180 0.343728
O O15 0.861967 0.237326 0.504387
O O16 0.878008 0.000000 0.394937
O O17 0.808547 0.500000 0.312763
O O18 0.738026 0.277409 0.376791
O O19 0.331139 0.500000 0.607634
O O20 0.298991 0.500000 0.952069
O O21 0.250000 0.250000 0.000000
#
# Coordination Sequence:
#
# PCOD8087794 Si02
#       8
#     8   8   8   8   8   8   8   8
#     4   9  16  27  48  75 103 132 163 210 263 304
#     4  10  19  32  51  77 104 134 172 214 257 302
#     4   9  17  31  49  77 109 135 169 213 262 312
#     4   9  15  25  44  72 101 126 159 205 255 301
#     4  10  19  34  54  78 104 132 171 220 265 308
#     4  11  21  34  52  76 106 141 173 211 264 315
#     4   9  19  32  49  73 105 139 171 213 264 312
#     4  10  20  33  52  76 106 142 177 212 252 303
#
# _framework density 19.347321000000001
#
# number of rings (size 3 to 8) (size 9 to 14) (size 15 to 20)
#    0.000    2.375    1.250    2.250    0.000    5.000 
#    0.000    3.125    0.000    1.875    0.000    0.875 
#    0.000    0.000    0.000    0.000    0.000    0.000 
#
# Total GULP energy -396715.266448 kJ/mol
# GULP energy per Si atom -12397.352077 kJ/mol
# Density = 1.930329 g / cm^3
# Si number density = 19.347321 Si / 1000 Ang^3
#
#
#
# Elastic Constant Matrix: (Units=GPa)
#
#
# Indices 1 2 3 4 5 6 
#
# 1 120.0922 20.8664 59.6301 0.0000 -4.4506 0.0000
# 2 20.8664 18.5207 21.0268 0.0000 -2.7921 0.0000
# 3 59.6301 21.0268 159.3339 0.0000 -14.1218 0.0000
# 4 0.0000 0.0000 0.0000 15.8832 0.0000 -2.3299
# 5 -4.4506 -2.7921 -14.1218 0.0000 35.0938 0.0000
# 6 0.0000 0.0000 0.0000 -2.3299 0.0000 18.1714
#
#
#
# Elastic Compliance Matrix: (Units=1/GPa)
#
#
# Indices 1 2 3 4 5 6 
#
# 1 0.011498 -0.009523 -0.003095 0.000000 -0.000545 0.000000
# 2 -0.009523 0.071499 -0.005677 0.000000 0.002196 0.000000
# 3 -0.003095 -0.005677 0.008409 0.000000 0.002539 0.000000
# 4 0.000000 0.000000 0.000000 0.064167 0.000000 0.008227
# 5 -0.000545 0.002196 0.002539 0.000000 0.029623 0.000000
# 6 0.000000 0.000000 0.000000 0.008227 0.000000 0.056087
#
#
# Mechanical properties :
#
#
# Convention : Reuss Voigt Hill
#
# Bulk Modulus (GPa) = 18.24267 55.66594 36.95431
# Shear Modulus (GPa) = 16.88374 26.92455 21.90415
#
# Velocity S-wave (km/s) = 2.95730 3.73452 3.36840
# Velocity P-wave (km/s) = 4.59460 6.88694 5.85407
#
# Compressibility (1/GPa) = 0.05481652
#
# Stress axis : x y z
#
# Youngs Moduli (GPa) = 86.97157 13.98618 118.92695
#
# Poissons Ratio (x) = 0.13319 0.36804
# Poissons Ratio (y) = 0.82823 0.67514
# Poissons Ratio (z) = 0.26915 0.07940
#
# Static dielectric constant tensor:
#      x y z
#    x 3.802100 0.000000 0.028610 
#    y 0.000000 2.960650 0.000000 
#    z 0.028610 0.000000 3.959200 
# 
# 
# High freq. dielectric constant tensor:
#      x y z
#    x 1.763030 0.000000 -0.003260 
#    y 0.000000 1.685950 0.000000 
#    z -0.003260 0.000000 1.770950 
# 
# From -- ./inp_files/239621.got.cif
#   From: 2010.06.25/outbox.cif.g09.slc.cpg/sg12_120_cif.got.tgz:239621.got - 2010.06.28 00:19:55.
