data_PCOD8087683
_publ_section_title
;
Structure prediction by ZEFSAII (Michael W. Deem and Ramdas Pophale) SiO2 
 PCOD8087683
Probable space group: C 2/M
;
_chemical_formula_sum "Si O2"
_cell_formula_units_Z 56
_cell_length_a 31.500404
_cell_length_b 9.220528
_cell_length_c 14.881108
_cell_angle_alpha 90.000000
_cell_angle_beta 134.580133
_cell_angle_gamma 90.000000
_cell_volume 3078.587584
_symmetry_space_group_name_H-M "C 2/M"
_symmetry_group_IT_number 12
_symmetry_cell_setting 'monoclinic'
loop_
_space_group_symop_operation_xyz
x,y,z
-x,y,-z
-x,-y,-z
x,-y,z
1/2+x,1/2+y,z
1/2-x,1/2+y,-z
1/2-x,1/2-y,-z
1/2+x,1/2-y,z
loop_
_atom_site_type_symbol
_atom_site_label
_atom_site_fract_x
_atom_site_fract_y
_atom_site_fract_z
Si Si1 0.056974 0.328457 0.201320
Si Si2 0.857678 0.335399 0.181264
Si Si3 0.682872 0.827735 0.068981
Si Si4 0.090535 0.828998 0.422212
Si Si5 0.005515 0.664416 0.610437
Si Si6 0.315028 0.670303 0.290918
Si Si7 0.075879 0.328214 0.028800
O O1 0.063505 0.500000 0.225616
O O2 0.096223 0.245598 0.333607
O O3 0.081690 0.278988 0.141020
O O4 0.987669 0.279812 0.106783
O O5 0.838952 0.500000 0.175940
O O6 0.926738 0.327621 0.256822
O O7 0.844925 0.240176 0.248694
O O8 0.822274 0.274389 0.041942
O O9 0.746867 0.776764 0.201877
O O10 0.630436 0.759557 0.052878
O O11 0.676312 0.000000 0.060786
O O12 0.148785 0.785114 0.566338
O O13 0.031603 0.772170 0.383326
O O14 0.085357 0.000000 0.402352
O O15 0.980677 0.500000 0.583433
O O16 0.000000 0.717052 0.500000
O O17 0.317656 0.500000 0.278279
O O18 0.078352 0.500000 0.029761
#
# Coordination Sequence:
#
# PCOD8087683 Si02
#       7
#     8   8   8   8   8   8   8
#     4   9  17  32  57  82  99 121 159 209 255 296
#     4  10  19  32  53  76  96 125 166 211 252 287
#     4   9  17  31  51  73  97 128 167 207 246 290
#     4  11  22  33  47  71 105 141 166 193 242 300
#     4  10  19  32  51  74  98 125 162 210 252 286
#     4  10  21  34  47  67 101 140 170 197 235 292
#     4   8  15  31  56  81  99 119 159 212 257 293
#
# _framework density 18.190159999999999
#
# number of rings (size 3 to 8) (size 9 to 14) (size 15 to 20)
#    0.000    2.429    1.429    2.571    0.000    3.714 
#    0.000    2.143    0.000    2.571    0.000    0.000 
#    0.000    0.000    0.000    0.000    0.000    0.000 
#
# Total GULP energy -347169.138915 kJ/mol
# GULP energy per Si atom -12398.897818 kJ/mol
# Density = 1.814876 g / cm^3
# Si number density = 18.190160 Si / 1000 Ang^3
#
#
#
# Elastic Constant Matrix: (Units=GPa)
#
#
# Indices 1 2 3 4 5 6 
#
# 1 71.3174 28.3470 56.6439 0.0000 -4.8646 0.0000
# 2 28.3470 36.1221 41.1743 0.0000 -5.6854 0.0000
# 3 56.6439 41.1743 148.1849 0.0000 -12.3242 0.0000
# 4 0.0000 0.0000 0.0000 22.1294 0.0000 -2.4336
# 5 -4.8646 -5.6854 -12.3242 0.0000 27.7531 0.0000
# 6 0.0000 0.0000 0.0000 -2.4336 0.0000 13.6882
#
#
#
# Elastic Compliance Matrix: (Units=1/GPa)
#
#
# Indices 1 2 3 4 5 6 
#
# 1 0.023155 -0.011908 -0.005615 0.000000 -0.000874 0.000000
# 2 -0.011908 0.046957 -0.008171 0.000000 0.003904 0.000000
# 3 -0.005615 -0.008171 0.011364 0.000000 0.002388 0.000000
# 4 0.000000 0.000000 0.000000 0.046090 0.000000 0.008194
# 5 -0.000874 0.003904 0.002388 0.000000 0.037739 0.000000
# 6 0.000000 0.000000 0.000000 0.008194 0.000000 0.074512
#
#
# Mechanical properties :
#
#
# Convention : Reuss Voigt Hill
#
# Bulk Modulus (GPa) = 33.23632 56.43942 44.83787
# Shear Modulus (GPa) = 16.59840 21.34478 18.97159
#
# Velocity S-wave (km/s) = 3.02403 3.42924 3.23299
# Velocity P-wave (km/s) = 5.52307 6.83918 6.21606
#
# Compressibility (1/GPa) = 0.03008757
#
# Stress axis : x y z
#
# Youngs Moduli (GPa) = 43.18684 21.29612 88.00062
#
# Poissons Ratio (x) = 0.25360 0.49412
# Poissons Ratio (y) = 0.51429 0.71902
# Poissons Ratio (z) = 0.24249 0.17400
#
# Static dielectric constant tensor:
#      x y z
#    x 3.462730 0.000000 0.018220 
#    y 0.000000 3.025780 0.000000 
#    z 0.018220 0.000000 3.596240 
# 
# 
# High freq. dielectric constant tensor:
#      x y z
#    x 1.696760 0.000000 -0.004840 
#    y 0.000000 1.667730 0.000000 
#    z -0.004840 0.000000 1.717420 
# 
# From -- ./inp_files/237437.got.cif
#   From: 2010.06.25/outbox.cif.g09.slc.cpg/sg12_119_cif.got.tgz:237437.got - 2010.06.28 00:19:55.
