data_PCOD8087506
_publ_section_title
;
Structure prediction by ZEFSAII (Michael W. Deem and Ramdas Pophale) SiO2 
 PCOD8087506
Probable space group: C 2/M
;
_chemical_formula_sum "Si O2"
_cell_formula_units_Z 40
_cell_length_a 25.924507
_cell_length_b 8.613348
_cell_length_c 9.245473
_cell_angle_alpha 90.000000
_cell_angle_beta 89.566391
_cell_angle_gamma 90.000000
_cell_volume 2064.425421
_symmetry_space_group_name_H-M "C 2/M"
_symmetry_group_IT_number 12
_symmetry_cell_setting 'monoclinic'
loop_
_space_group_symop_operation_xyz
x,y,z
-x,y,-z
-x,-y,-z
x,-y,z
1/2+x,1/2+y,z
1/2-x,1/2+y,-z
1/2-x,1/2-y,-z
1/2+x,1/2-y,z
loop_
_atom_site_type_symbol
_atom_site_label
_atom_site_fract_x
_atom_site_fract_y
_atom_site_fract_z
Si Si1 0.940238 0.815154 0.157739
Si Si2 0.655913 0.315153 0.662466
Si Si3 0.445951 0.684076 0.833870
Si Si4 0.253602 0.183582 0.840594
Si Si5 0.347994 0.315389 0.664458
O O1 0.895608 0.746212 0.261346
O O2 0.996639 0.757685 0.211673
O O3 0.937646 0.000000 0.161022
O O4 0.931197 0.754636 0.994313
O O5 0.654149 0.500000 0.663117
O O6 0.705607 0.252951 0.747485
O O7 0.658820 0.253741 0.498376
O O8 0.446529 0.500000 0.839033
O O9 0.403999 0.742049 0.719001
O O10 0.305862 0.238264 0.766429
O O11 0.252044 0.000000 0.849251
O O12 0.250000 0.250000 0.000000
O O13 0.342440 0.500000 0.674918
#
# Coordination Sequence:
#
# PCOD8087506 Si02
#       5
#     8   8   8   8   8
#     4   8  13  24  41  67 100 131 161 199 240 280
#     4   9  18  30  47  72 103 131 161 202 247 289
#     4   8  14  24  43  69  99 131 163 197 238 283
#     4  11  22  36  53  73  96 128 166 205 244 289
#     4  10  19  32  50  75 103 131 160 197 244 295
#
# _framework density 19.375851000000001
#
# number of rings (size 3 to 8) (size 9 to 14) (size 15 to 20)
#    0.000    2.800    0.000    3.600    0.000    4.000 
#    0.000    5.000    0.000    0.000    0.000   15.400 
#    0.000    0.000    0.000    0.000    0.000    0.000 
#
# Total GULP energy -247920.601388 kJ/mol
# GULP energy per Si atom -12396.030069 kJ/mol
# Density = 1.933175 g / cm^3
# Si number density = 19.375851 Si / 1000 Ang^3
#
#
#
# Elastic Constant Matrix: (Units=GPa)
#
#
# Indices 1 2 3 4 5 6 
#
# 1 148.1677 19.6641 78.3928 0.0000 20.2415 0.0000
# 2 19.6641 20.0238 19.2128 0.0000 3.1541 0.0000
# 3 78.3928 19.2128 149.7538 0.0000 20.3915 0.0000
# 4 0.0000 0.0000 0.0000 17.5651 0.0000 -2.4185
# 5 20.2415 3.1541 20.3915 0.0000 37.6882 0.0000
# 6 0.0000 0.0000 0.0000 -2.4185 0.0000 19.4599
#
#
#
# Elastic Compliance Matrix: (Units=1/GPa)
#
#
# Indices 1 2 3 4 5 6 
#
# 1 0.010059 -0.005422 -0.004206 0.000000 -0.002673 0.000000
# 2 -0.005422 0.059900 -0.004923 0.000000 0.000563 0.000000
# 3 -0.004206 -0.004923 0.009875 0.000000 -0.002672 0.000000
# 4 0.000000 0.000000 0.000000 0.057922 0.000000 0.007199
# 5 -0.002673 0.000563 -0.002672 0.000000 0.029368 0.000000
# 6 0.000000 0.000000 0.000000 0.007199 0.000000 0.052282
#
#
# Mechanical properties :
#
#
# Convention : Reuss Voigt Hill
#
# Bulk Modulus (GPa) = 19.71149 61.38717 40.54933
# Shear Modulus (GPa) = 18.83807 28.32101 23.57954
#
# Velocity S-wave (km/s) = 3.12147 3.82732 3.49227
# Velocity P-wave (km/s) = 4.81526 7.16116 6.10201
#
# Compressibility (1/GPa) = 0.05073182
#
# Stress axis : x y z
#
# Youngs Moduli (GPa) = 99.41088 16.69442 101.26598
#
# Poissons Ratio (x) = 0.09051 0.42595
# Poissons Ratio (y) = 0.53897 0.49858
# Poissons Ratio (z) = 0.41815 0.08219
#
# Static dielectric constant tensor:
#      x y z
#    x 3.955100 0.000000 0.113640 
#    y 0.000000 2.925420 0.000000 
#    z 0.113640 0.000000 3.767300 
# 
# 
# High freq. dielectric constant tensor:
#      x y z
#    x 1.775050 0.000000 0.001930 
#    y 0.000000 1.687220 0.000000 
#    z 0.001930 0.000000 1.760960 
# 
# From -- ./inp_files/92826.got.cif
#   From: 2010.06.25/outbox.cif.g09.slc.cpg/sg12_47_cif.got.tgz:92826.got - 2010.06.28 00:19:55.
