data_PCOD8087318
_publ_section_title
;
Structure prediction by ZEFSAII (Michael W. Deem and Ramdas Pophale) SiO2 
 PCOD8087318
Probable space group: C 2/M
;
_chemical_formula_sum "Si O2"
_cell_formula_units_Z 64
_cell_length_a 23.467734
_cell_length_b 8.876855
_cell_length_c 21.350116
_cell_angle_alpha 90.000000
_cell_angle_beta 127.590000
_cell_angle_gamma 90.000000
_cell_volume 3524.299945
_symmetry_space_group_name_H-M "C 2/M"
_symmetry_group_IT_number 12
_symmetry_cell_setting 'monoclinic'
loop_
_space_group_symop_operation_xyz
x,y,z
-x,y,-z
-x,-y,-z
x,-y,z
1/2+x,1/2+y,z
1/2-x,1/2+y,-z
1/2-x,1/2-y,-z
1/2+x,1/2-y,z
loop_
_atom_site_type_symbol
_atom_site_label
_atom_site_fract_x
_atom_site_fract_y
_atom_site_fract_z
Si Si1 0.723006 0.330478 0.665923
Si Si2 0.825101 0.824303 0.033617
Si Si3 0.317851 0.821618 0.239482
Si Si4 0.072705 0.176362 0.269115
Si Si5 0.727191 0.678959 0.419858
Si Si6 0.885653 0.666291 0.820873
Si Si7 0.922204 0.175448 0.218015
Si Si8 0.326101 0.820458 0.907564
O O1 0.692772 0.500000 0.636886
O O2 0.675925 0.242053 0.685779
O O3 0.719402 0.241961 0.597746
O O4 0.803910 0.335580 0.743744
O O5 0.881190 0.793713 0.125985
O O6 0.813038 0.000000 0.013110
O O7 0.750000 0.750000 0.000000
O O8 0.856924 0.746005 0.992642
O O9 0.390715 0.776581 0.252546
O O10 0.252223 0.749045 0.157373
O O11 0.308263 0.000000 0.235459
O O12 0.145480 0.232802 0.351301
O O13 0.066882 0.232611 0.193354
O O14 0.004407 0.230090 0.263587
O O15 0.072194 0.000000 0.262855
O O16 0.733644 0.500000 0.426696
O O17 0.750000 0.750000 0.500000
O O18 0.919261 0.500000 0.841099
O O19 0.882954 0.725194 0.890946
O O20 0.917270 0.000000 0.233509
O O21 0.316592 0.000000 0.904638
#
# Coordination Sequence:
#
# PCOD8087318 Si02
#       8
#     8   8   8   8   8   8   8   8
#     4   9  17  31  51  76 106 136 168 209 254 298
#     4  11  21  32  49  71  99 132 174 221 267 309
#     4  11  20  30  49  76 102 133 174 215 258 304
#     4   9  19  35  54  75 101 135 173 207 246 307
#     4  10  19  33  56  85 111 135 168 207 250 302
#     4   8  16  30  49  71  96 129 166 210 259 299
#     4  10  21  36  51  70 101 139 173 212 260 306
#     4  10  19  32  49  70  99 132 171 219 266 308
#
# _framework density 18.159634
#
# number of rings (size 3 to 8) (size 9 to 14) (size 15 to 20)
#    0.000    2.250    1.250    3.375    0.000    5.000 
#    0.000    0.625    0.000    4.500    0.000    5.250 
#    0.000    0.000    0.000    0.000    0.000    0.000 
#
# Total GULP energy -396751.599396 kJ/mol
# GULP energy per Si atom -12398.487481 kJ/mol
# Density = 1.811830 g / cm^3
# Si number density = 18.159634 Si / 1000 Ang^3
#
#
#
# Elastic Constant Matrix: (Units=GPa)
#
#
# Indices 1 2 3 4 5 6 
#
# 1 118.4482 55.1966 51.9508 0.0000 -23.8253 0.0000
# 2 55.1966 97.9821 43.7445 0.0000 -15.3268 0.0000
# 3 51.9508 43.7445 77.4173 0.0000 -27.1487 0.0000
# 4 0.0000 0.0000 0.0000 26.4182 0.0000 -10.9407
# 5 -23.8253 -15.3268 -27.1487 0.0000 31.5449 0.0000
# 6 0.0000 0.0000 0.0000 -10.9407 0.0000 31.6181
#
#
#
# Elastic Compliance Matrix: (Units=1/GPa)
#
#
# Indices 1 2 3 4 5 6 
#
# 1 0.013691 -0.004830 -0.005235 0.000000 0.003489 0.000000
# 2 -0.004830 0.015353 -0.005869 0.000000 -0.001239 0.000000
# 3 -0.005235 -0.005869 0.024863 0.000000 0.014593 0.000000
# 4 0.000000 0.000000 0.000000 0.044184 0.000000 0.015289
# 5 0.003489 -0.001239 0.014593 0.000000 0.046293 0.000000
# 6 0.000000 0.000000 0.000000 0.015289 0.000000 0.036918
#
#
# Mechanical properties :
#
#
# Convention : Reuss Voigt Hill
#
# Bulk Modulus (GPa) = 45.37041 66.18124 55.77582
# Shear Modulus (GPa) = 22.67409 27.44663 25.06036
#
# Velocity S-wave (km/s) = 3.53738 3.89190 3.71887
# Velocity P-wave (km/s) = 6.45930 7.53121 7.01576
#
# Compressibility (1/GPa) = 0.02204080
#
# Stress axis : x y z
#
# Youngs Moduli (GPa) = 73.04175 65.13403 40.21967
#
# Poissons Ratio (x) = 0.31458 0.21054
# Poissons Ratio (y) = 0.35277 0.23604
# Poissons Ratio (z) = 0.38236 0.38225
#
# Static dielectric constant tensor:
#      x y z
#    x 3.455960 0.000000 -0.284860 
#    y 0.000000 3.445760 0.000000 
#    z -0.284860 0.000000 3.288530 
# 
# 
# High freq. dielectric constant tensor:
#      x y z
#    x 1.701730 0.000000 -0.030490 
#    y 0.000000 1.710570 0.000000 
#    z -0.030490 0.000000 1.671810 
# 
# From -- ./inp_files/319807.got.cif
#   From: 2010.06.25/outbox.cif.g09.slc.cpg/sg12_160_cif.got.tgz:319807.got - 2010.06.28 00:19:55.
