data_PCOD8087823
_publ_section_title
;
Structure prediction by ZEFSAII (Michael W. Deem and Ramdas Pophale) SiO2 
 PCOD8087823
Probable space group: C 2/M
;
_chemical_formula_sum "Si O2"
_cell_formula_units_Z 64
_cell_length_a 28.226829
_cell_length_b 14.510191
_cell_length_c 9.462037
_cell_angle_alpha 90.000000
_cell_angle_beta 51.525954
_cell_angle_gamma 90.000000
_cell_volume 3034.035411
_symmetry_space_group_name_H-M "C 2/M"
_symmetry_group_IT_number 12
_symmetry_cell_setting 'monoclinic'
loop_
_space_group_symop_operation_xyz
x,y,z
-x,y,-z
-x,-y,-z
x,-y,z
1/2+x,1/2+y,z
1/2-x,1/2+y,-z
1/2-x,1/2-y,-z
1/2+x,1/2-y,z
loop_
_atom_site_type_symbol
_atom_site_label
_atom_site_fract_x
_atom_site_fract_y
_atom_site_fract_z
Si Si1 0.381955 0.395998 0.868933
Si Si2 0.562393 0.292589 0.470769
Si Si3 0.428791 0.098903 0.617064
Si Si4 0.126265 0.104488 0.574361
Si Si5 0.257307 0.897669 0.833528
Si Si6 0.320577 0.894918 0.011018
Si Si7 0.556547 0.394483 0.972230
Si Si8 0.741540 0.273607 0.351373
O O1 0.403198 0.500000 0.795091
O O2 0.385163 0.334036 0.724794
O O3 0.314218 0.395580 0.047558
O O4 0.424399 0.350781 0.913196
O O5 0.500000 0.304687 0.500000
O O6 0.580110 0.185986 0.469908
O O7 0.567293 0.348567 0.607677
O O8 0.500000 0.089154 0.500000
O O9 0.404507 0.000000 0.600550
O O10 0.391557 0.118505 0.832617
O O11 0.114974 0.110180 0.762358
O O12 0.188468 0.153778 0.423448
O O13 0.131366 0.000000 0.510932
O O14 0.280608 0.820247 0.682574
O O15 0.280663 0.000000 0.745868
O O16 0.279424 0.874848 0.950180
O O17 0.301401 0.821254 0.168531
O O18 0.310898 0.000000 0.083839
O O19 0.537966 0.500000 0.035935
O O20 0.500000 0.343727 0.000000
O O21 0.750000 0.250000 0.500000
#
# Coordination Sequence:
#
# PCOD8087823 Si02
#       8
#     8   8   8   8   8   8   8   8
#     4  10  19  32  51  77 109 145 188 235 284 341
#     4  11  21  33  56  88 117 148 189 239 294 351
#     4   9  19  36  58  85 116 150 193 248 303 352
#     4  11  23  38  55  82 120 154 190 240 298 354
#     4  10  21  37  58  81 109 150 199 253 304 355
#     4  10  20  37  61  86 114 151 197 250 310 370
#     4   9  18  33  51  71 105 154 195 227 274 342
#     4  12  24  37  57  85 121 162 204 248 302 371
#
# _framework density 21.094018999999999
#
# number of rings (size 3 to 8) (size 9 to 14) (size 15 to 20)
#    0.000    1.750    0.000    4.875    0.000    5.000 
#    0.000    0.000    0.000    0.000    0.000    0.875 
#    0.000   15.500    0.000    0.000    0.000    0.000 
#
# Total GULP energy -396458.213474 kJ/mol
# GULP energy per Si atom -12389.319171 kJ/mol
# Density = 2.104601 g / cm^3
# Si number density = 21.094019 Si / 1000 Ang^3
#
#
#
# Elastic Constant Matrix: (Units=GPa)
#
#
# Indices 1 2 3 4 5 6 
#
# 1 80.3517 25.8159 31.3837 0.0000 1.5648 0.0000
# 2 25.8159 145.1380 36.7824 0.0000 11.0725 0.0000
# 3 31.3837 36.7824 71.0967 0.0000 1.4303 0.0000
# 4 0.0000 0.0000 0.0000 29.6420 0.0000 0.7139
# 5 1.5648 11.0725 1.4303 0.0000 37.8015 0.0000
# 6 0.0000 0.0000 0.0000 0.7139 0.0000 17.9720
#
#
#
# Elastic Compliance Matrix: (Units=1/GPa)
#
#
# Indices 1 2 3 4 5 6 
#
# 1 0.015204 -0.001150 -0.006115 0.000000 -0.000061 0.000000
# 2 -0.001150 0.008198 -0.003689 0.000000 -0.002214 0.000000
# 3 -0.006115 -0.003689 0.018661 0.000000 0.000628 0.000000
# 4 0.000000 0.000000 0.000000 0.033768 0.000000 -0.001341
# 5 -0.000061 -0.002214 0.000628 0.000000 0.027081 0.000000
# 6 0.000000 0.000000 0.000000 -0.001341 0.000000 0.055695
#
#
# Mechanical properties :
#
#
# Convention : Reuss Voigt Hill
#
# Bulk Modulus (GPa) = 49.61702 53.83893 51.72798
# Shear Modulus (GPa) = 26.70419 30.59006 28.64712
#
# Velocity S-wave (km/s) = 3.56189 3.81225 3.68920
# Velocity P-wave (km/s) = 6.36310 6.70495 6.53626
#
# Compressibility (1/GPa) = 0.02015437
#
# Stress axis : x y z
#
# Youngs Moduli (GPa) = 65.77001 121.97408 53.58783
#
# Poissons Ratio (x) = 0.14026 0.32771
# Poissons Ratio (y) = 0.07563 0.19771
# Poissons Ratio (z) = 0.40221 0.45001
#
# Static dielectric constant tensor:
#      x y z
#    x 3.788040 0.000000 -0.131750 
#    y 0.000000 4.288450 0.000000 
#    z -0.131750 0.000000 3.718040 
# 
# 
# High freq. dielectric constant tensor:
#      x y z
#    x 1.815040 0.000000 -0.018600 
#    y 0.000000 1.831240 0.000000 
#    z -0.018600 0.000000 1.816200 
# 
# From -- ./inp_files/111949.got.cif
#   From: 2010.06.25/outbox.cif.g09.slc.cpg/sg12_56_cif.got.tgz:111949.got - 2010.06.28 00:19:55.
