data_PCOD8087249
_publ_section_title
;
Structure prediction by ZEFSAII (Michael W. Deem and Ramdas Pophale) SiO2 
 PCOD8087249
Probable space group: C 2/M
;
_chemical_formula_sum "Si O2"
_cell_formula_units_Z 56
_cell_length_a 23.803519
_cell_length_b 8.970763
_cell_length_c 20.642564
_cell_angle_alpha 90.000000
_cell_angle_beta 53.250957
_cell_angle_gamma 90.000000
_cell_volume 3531.910700
_symmetry_space_group_name_H-M "C 2/M"
_symmetry_group_IT_number 12
_symmetry_cell_setting 'monoclinic'
loop_
_space_group_symop_operation_xyz
x,y,z
-x,y,-z
-x,-y,-z
x,-y,z
1/2+x,1/2+y,z
1/2-x,1/2+y,-z
1/2-x,1/2-y,-z
1/2+x,1/2-y,z
loop_
_atom_site_type_symbol
_atom_site_label
_atom_site_fract_x
_atom_site_fract_y
_atom_site_fract_z
Si Si1 0.415752 0.168413 0.259757
Si Si2 0.296840 0.323273 0.279351
Si Si3 0.794190 0.825570 0.913805
Si Si4 0.722084 0.168717 0.581999
Si Si5 0.569765 0.327400 0.990533
Si Si6 0.791470 0.324891 0.152151
Si Si7 0.445944 0.672921 0.848133
O O1 0.378219 0.267393 0.229176
O O2 0.363495 0.170068 0.358363
O O3 0.490278 0.236577 0.228006
O O4 0.425393 0.000000 0.227325
O O5 0.293319 0.500000 0.283241
O O6 0.252143 0.255124 0.370559
O O7 0.265666 0.261352 0.233949
O O8 0.764168 0.781080 0.864753
O O9 0.874864 0.773117 0.862258
O O10 0.788905 0.000000 0.930686
O O11 0.750000 0.750000 0.000000
O O12 0.750000 0.250000 0.500000
O O13 0.751038 0.000000 0.563270
O O14 0.590634 0.500000 0.966017
O O15 0.631534 0.225023 0.921792
O O16 0.500000 0.285818 0.000000
O O17 0.557777 0.289752 0.073617
O O18 0.791997 0.500000 0.165709
O O19 0.460058 0.500000 0.825945
#
# Coordination Sequence:
#
# PCOD8087249 Si02
#       7
#     8   8   8   8   8   8   8
#     4   9  19  32  49  75 105 129 160 202 245 294
#     4  10  19  32  51  73 102 134 163 200 248 298
#     4  10  21  35  50  68  92 131 177 221 257 295
#     4   9  18  32  52  80 109 134 161 193 240 301
#     4  10  20  31  46  67  92 127 169 208 252 301
#     4  11  21  33  48  69  96 128 171 217 255 293
#     4  10  19  32  48  68  97 132 173 210 251 302
#
# _framework density 15.85544
#
# number of rings (size 3 to 8) (size 9 to 14) (size 15 to 20)
#    0.857    1.286    1.429    3.000    0.000    3.143 
#    0.000    0.000    0.000    0.000    0.000    1.000 
#    0.000    8.000    0.000    0.000    0.000    0.000 
#
# Total GULP energy -347080.110137 kJ/mol
# GULP energy per Si atom -12395.718219 kJ/mol
# Density = 1.581935 g / cm^3
# Si number density = 15.855440 Si / 1000 Ang^3
#
#
#
# Elastic Constant Matrix: (Units=GPa)
#
#
# Indices 1 2 3 4 5 6 
#
# 1 113.7551 48.8783 51.0559 0.0001 11.6766 0.0004
# 2 48.8783 107.8317 53.9473 0.0007 11.3150 -0.0003
# 3 51.0559 53.9473 87.1225 0.0000 9.8325 0.0002
# 4 0.0001 0.0007 0.0000 30.7424 -0.0002 -0.7895
# 5 11.6766 11.3150 9.8325 -0.0002 10.1944 0.0004
# 6 0.0004 -0.0003 0.0002 -0.7895 0.0004 19.9089
#
#
#
# Elastic Compliance Matrix: (Units=1/GPa)
#
#
# Indices 1 2 3 4 5 6 
#
# 1 0.012938 -0.002511 -0.005239 0.000000 -0.006978 0.000000
# 2 -0.002511 0.014489 -0.006744 0.000000 -0.006701 0.000000
# 3 -0.005239 -0.006744 0.019304 0.000000 -0.005132 0.000000
# 4 0.000000 0.000000 0.000000 0.032562 0.000001 0.001291
# 5 -0.006978 -0.006701 -0.005132 0.000001 0.118474 -0.000002
# 6 0.000000 0.000000 0.000000 0.001291 -0.000002 0.050280
#
#
# Mechanical properties :
#
#
# Convention : Reuss Voigt Hill
#
# Bulk Modulus (GPa) = 56.36481 68.49693 62.43087
# Shear Modulus (GPa) = 17.67108 22.49098 20.08103
#
# Velocity S-wave (km/s) = 3.34205 3.77039 3.56266
# Velocity P-wave (km/s) = 7.10766 7.88981 7.50892
#
# Compressibility (1/GPa) = 0.01774157
#
# Stress axis : x y z
#
# Youngs Moduli (GPa) = 77.29443 69.01781 51.80371
#
# Poissons Ratio (x) = 0.17330 0.27142
# Poissons Ratio (y) = 0.19408 0.34937
# Poissons Ratio (z) = 0.40497 0.46546
#
# Static dielectric constant tensor:
#      x y z
#    x 3.017430 0.000000 0.041200 
#    y 0.000000 3.057520 0.000000 
#    z 0.041200 0.000000 2.813230 
# 
# 
# High freq. dielectric constant tensor:
#      x y z
#    x 1.592080 0.000000 0.005230 
#    y 0.000000 1.621880 0.000000 
#    z 0.005230 0.000000 1.587920 
# 
# From -- ./inp_files/319004.got.cif
#   From: 2010.06.25/outbox.cif.g09.slc.cpg/sg12_160_cif.got.tgz:319004.got - 2010.06.28 00:19:55.
