data_PCOD8087012
_publ_section_title
;
Structure prediction by ZEFSAII (Michael W. Deem and Ramdas Pophale) SiO2 
 PCOD8087012
Probable space group: C 2/M
;
_chemical_formula_sum "Si O2"
_cell_formula_units_Z 48
_cell_length_a 19.289523
_cell_length_b 8.729944
_cell_length_c 21.873114
_cell_angle_alpha 90.000000
_cell_angle_beta 135.158599
_cell_angle_gamma 90.000000
_cell_volume 2597.305717
_symmetry_space_group_name_H-M "C 2/M"
_symmetry_group_IT_number 12
_symmetry_cell_setting 'monoclinic'
loop_
_space_group_symop_operation_xyz
x,y,z
-x,y,-z
-x,-y,-z
x,-y,z
1/2+x,1/2+y,z
1/2-x,1/2+y,-z
1/2-x,1/2-y,-z
1/2+x,1/2-y,z
loop_
_atom_site_type_symbol
_atom_site_label
_atom_site_fract_x
_atom_site_fract_y
_atom_site_fract_z
Si Si1 0.962394 0.182054 0.270815
Si Si2 0.672268 0.820131 0.405635
Si Si3 0.718573 0.819635 0.778217
Si Si4 0.960582 0.175625 0.135511
Si Si5 0.685796 0.674990 0.287282
Si Si6 0.598049 0.683243 0.028912
O O1 0.881475 0.233402 0.268519
O O2 0.934830 0.248607 0.185667
O O3 0.066820 0.248997 0.356056
O O4 0.972436 0.000000 0.275412
O O5 0.750000 0.750000 0.500000
O O6 0.705875 0.783115 0.357499
O O7 0.666969 0.000000 0.411544
O O8 0.741387 0.779941 0.722098
O O9 0.805384 0.756036 0.876103
O O10 0.705153 0.000000 0.779332
O O11 0.075830 0.195435 0.193143
O O12 0.930843 0.000000 0.120742
O O13 0.901066 0.247234 0.040785
O O14 0.702428 0.500000 0.318702
O O15 0.595114 0.500000 0.028069
O O16 0.500000 0.747324 0.000000
#
# Coordination Sequence:
#
# PCOD8087012 Si02
#       6
#     8   8   8   8   8   8
#     4  10  21  36  53  76 112 148 179 222 273 318
#     4  11  22  39  63  86 106 132 171 216 265 328
#     4  10  19  31  52  81 112 147 186 226 267 313
#     4   8  14  27  47  72 102 143 188 226 264 308
#     4   9  17  32  54  80 110 143 179 219 267 319
#     4   9  14  24  47  77 105 141 191 233 262 306
#
# _framework density 18.480689999999999
#
# number of rings (size 3 to 8) (size 9 to 14) (size 15 to 20)
#    0.000    2.500    1.667    3.000    0.000    1.333 
#    0.000    0.833    0.000    9.500    0.000    0.000 
#    0.000    0.000    0.000    0.000    0.000    0.000 
#
# Total GULP energy -297500.103794 kJ/mol
# GULP energy per Si atom -12395.837658 kJ/mol
# Density = 1.843863 g / cm^3
# Si number density = 18.480690 Si / 1000 Ang^3
#
#
#
# Elastic Constant Matrix: (Units=GPa)
#
#
# Indices 1 2 3 4 5 6 
#
# 1 129.8592 38.8774 49.3273 0.0000 6.3048 0.0000
# 2 38.8774 65.2415 36.7232 0.0000 1.7484 0.0000
# 3 49.3273 36.7232 117.6931 0.0000 3.2891 0.0000
# 4 0.0000 0.0000 0.0000 17.8918 0.0000 -0.1878
# 5 6.3048 1.7484 3.2891 0.0000 18.5956 0.0000
# 6 0.0000 0.0000 0.0000 -0.1878 0.0000 27.1042
#
#
#
# Elastic Compliance Matrix: (Units=1/GPa)
#
#
# Indices 1 2 3 4 5 6 
#
# 1 0.010227 -0.004432 -0.002832 0.000000 -0.002550 0.000000
# 2 -0.004432 0.020523 -0.004557 0.000000 0.000379 0.000000
# 3 -0.002832 -0.004557 0.011122 0.000000 -0.000578 0.000000
# 4 0.000000 0.000000 0.000000 0.055896 0.000000 0.000387
# 5 -0.002550 0.000379 -0.000578 0.000000 0.054707 0.000000
# 6 0.000000 0.000000 0.000000 0.000387 0.000000 0.036897
#
#
# Mechanical properties :
#
#
# Convention : Reuss Voigt Hill
#
# Bulk Modulus (GPa) = 54.85379 62.51661 58.68520
# Shear Modulus (GPa) = 22.82152 25.24271 24.03211
#
# Velocity S-wave (km/s) = 3.51790 3.69981 3.61000
# Velocity P-wave (km/s) = 6.80051 7.22170 7.01427
#
# Compressibility (1/GPa) = 0.01823028
#
# Stress axis : x y z
#
# Youngs Moduli (GPa) = 97.77974 48.72476 89.91350
#
# Poissons Ratio (x) = 0.21594 0.25466
# Poissons Ratio (y) = 0.43333 0.40974
# Poissons Ratio (z) = 0.27694 0.22204
#
# Static dielectric constant tensor:
#      x y z
#    x 3.460780 0.000000 -0.200910 
#    y 0.000000 3.043790 0.000000 
#    z -0.200910 0.000000 3.469410 
# 
# 
# High freq. dielectric constant tensor:
#      x y z
#    x 1.716930 0.000000 -0.012350 
#    y 0.000000 1.681720 0.000000 
#    z -0.012350 0.000000 1.712630 
# 
# From -- ./inp_files/314487.got.cif
#   From: 2010.06.25/outbox.cif.g09.slc.cpg/sg12_158_cif.got.tgz:314487.got - 2010.06.28 00:19:55.
