data_PCOD8087566
_publ_section_title
;
Structure prediction by ZEFSAII (Michael W. Deem and Ramdas Pophale) SiO2 
 PCOD8087566
Probable space group: C 2/M
;
_chemical_formula_sum "Si O2"
_cell_formula_units_Z 56
_cell_length_a 19.141079
_cell_length_b 9.147871
_cell_length_c 18.368149
_cell_angle_alpha 90.000000
_cell_angle_beta 85.594415
_cell_angle_gamma 90.000000
_cell_volume 3206.761924
_symmetry_space_group_name_H-M "C 2/M"
_symmetry_group_IT_number 12
_symmetry_cell_setting 'monoclinic'
loop_
_space_group_symop_operation_xyz
x,y,z
-x,y,-z
-x,-y,-z
x,-y,z
1/2+x,1/2+y,z
1/2-x,1/2+y,-z
1/2-x,1/2-y,-z
1/2+x,1/2-y,z
loop_
_atom_site_type_symbol
_atom_site_label
_atom_site_fract_x
_atom_site_fract_y
_atom_site_fract_z
Si Si1 0.344507 0.668764 0.435286
Si Si2 0.674785 0.324831 0.011558
Si Si3 0.714014 0.664828 0.404469
Si Si4 0.090842 0.168114 0.310591
Si Si5 0.016807 0.327341 0.580111
Si Si6 0.550765 0.659544 0.927786
Si Si7 0.074821 0.826007 0.147688
O O1 0.357499 0.500000 0.417594
O O2 0.334318 0.700426 0.521801
O O3 0.277398 0.721762 0.395101
O O4 0.410019 0.759138 0.400782
O O5 0.682979 0.500000 0.007720
O O6 0.638123 0.274586 0.090121
O O7 0.750000 0.250000 0.000000
O O8 0.624004 0.266822 0.949092
O O9 0.743595 0.500000 0.409784
O O10 0.669355 0.683124 0.334904
O O11 0.091793 0.225312 0.227808
O O12 0.041559 0.272269 0.360405
O O13 0.065142 0.000000 0.318540
O O14 0.021514 0.500000 0.584291
O O15 0.000000 0.273295 0.500000
O O16 0.571852 0.500000 0.896048
O O17 0.502079 0.740643 0.870586
O O18 0.500000 0.640913 0.000000
O O19 0.068919 0.000000 0.142428
#
# Coordination Sequence:
#
# PCOD8087566 Si02
#       7
#     8   8   8   8   8   8   8
#     4  10  19  32  51  71  93 123 164 207 245 294
#     4   9  16  28  49  76 101 127 161 198 235 278
#     4   9  18  31  48  71  97 125 158 201 251 296
#     4  10  19  33  53  74  98 129 165 207 252 299
#     4  11  22  34  50  72  98 127 162 207 253 296
#     4   7  11  23  45  70  94 123 160 195 223 267
#     4   8  15  29  50  73  96 127 165 199 237 285
#
# _framework density 17.463100000000001
#
# number of rings (size 3 to 8) (size 9 to 14) (size 15 to 20)
#    0.000    2.857    1.429    2.571    0.000    1.714 
#    0.000    2.143    0.000    8.143    0.000    0.000 
#    0.000    0.000    0.000    0.000    0.000    0.000 
#
# Total GULP energy -346954.844856 kJ/mol
# GULP energy per Si atom -12391.244459 kJ/mol
# Density = 1.742335 g / cm^3
# Si number density = 17.463100 Si / 1000 Ang^3
#
#
#
# Elastic Constant Matrix: (Units=GPa)
#
#
# Indices 1 2 3 4 5 6 
#
# 1 127.0367 39.9875 56.7532 0.0000 13.0621 0.0000
# 2 39.9875 47.5396 27.1342 0.0000 0.3703 0.0000
# 3 56.7532 27.1342 105.9216 0.0000 17.7286 0.0000
# 4 0.0000 0.0000 0.0000 11.3355 0.0000 -2.1451
# 5 13.0621 0.3703 17.7286 0.0000 25.8784 0.0000
# 6 0.0000 0.0000 0.0000 -2.1451 0.0000 31.2696
#
#
#
# Elastic Compliance Matrix: (Units=1/GPa)
#
#
# Indices 1 2 3 4 5 6 
#
# 1 0.012662 -0.008297 -0.004077 0.000000 -0.003480 0.000000
# 2 -0.008297 0.030544 -0.004526 0.000000 0.006851 0.000000
# 3 -0.004077 -0.004526 0.014039 0.000000 -0.007495 0.000000
# 4 0.000000 0.000000 0.000000 0.089379 0.000000 0.006132
# 5 -0.003480 0.006851 -0.007495 0.000000 0.045436 0.000000
# 6 0.000000 0.000000 0.000000 0.006132 0.000000 0.032401
#
#
# Mechanical properties :
#
#
# Convention : Reuss Voigt Hill
#
# Bulk Modulus (GPa) = 42.64992 58.69419 50.67206
# Shear Modulus (GPa) = 18.79176 24.13823 21.46500
#
# Velocity S-wave (km/s) = 3.28393 3.72188 3.50975
# Velocity P-wave (km/s) = 6.23336 7.22172 6.74567
#
# Compressibility (1/GPa) = 0.02344670
#
# Stress axis : x y z
#
# Youngs Moduli (GPa) = 78.97381 32.73999 71.22946
#
# Poissons Ratio (x) = 0.27164 0.29038
# Poissons Ratio (y) = 0.65524 0.32236
# Poissons Ratio (z) = 0.32195 0.14817
#
# Static dielectric constant tensor:
#      x y z
#    x 3.414050 0.000000 0.378490 
#    y 0.000000 2.946620 0.000000 
#    z 0.378490 0.000000 3.329130 
# 
# 
# High freq. dielectric constant tensor:
#      x y z
#    x 1.681320 0.000000 0.020260 
#    y 0.000000 1.643580 0.000000 
#    z 0.020260 0.000000 1.652790 
# 
# From -- ./inp_files/280147.got.cif
#   From: 2010.06.25/outbox.cif.g09.slc.cpg/sg12_141_cif.got.tgz:280147.got - 2010.06.28 00:19:55.
