data_PCOD8087798
_publ_section_title
;
Structure prediction by ZEFSAII (Michael W. Deem and Ramdas Pophale) SiO2 
 PCOD8087798
Probable space group: C 2/M
;
_chemical_formula_sum "Si O2"
_cell_formula_units_Z 60
_cell_length_a 21.061960
_cell_length_b 20.593900
_cell_length_c 15.578712
_cell_angle_alpha 90.000000
_cell_angle_beta 150.142564
_cell_angle_gamma 90.000000
_cell_volume 3364.045496
_symmetry_space_group_name_H-M "C 2/M"
_symmetry_group_IT_number 12
_symmetry_cell_setting 'monoclinic'
loop_
_space_group_symop_operation_xyz
x,y,z
-x,y,-z
-x,-y,-z
x,-y,z
1/2+x,1/2+y,z
1/2-x,1/2+y,-z
1/2-x,1/2-y,-z
1/2+x,1/2-y,z
loop_
_atom_site_type_symbol
_atom_site_label
_atom_site_fract_x
_atom_site_fract_y
_atom_site_fract_z
Si Si1 0.435754 0.664474 0.014832
Si Si2 0.464296 0.429400 0.620099
Si Si3 0.187236 0.732538 0.706601
Si Si4 0.624565 0.201172 0.449680
Si Si5 0.163295 0.834590 0.413790
Si Si6 0.000000 0.154340 0.500000
Si Si7 0.657088 0.192979 0.856279
Si Si8 0.694976 0.428179 0.016526
O O1 0.342416 0.727846 0.896506
O O2 0.500000 0.646440 0.000000
O O3 0.541490 0.678540 0.210248
O O4 0.346590 0.604386 0.941440
O O5 0.415840 0.500000 0.531305
O O6 0.349635 0.394158 0.535805
O O7 0.521859 0.389371 0.608771
O O8 0.572957 0.439166 0.816374
O O9 0.145647 0.689768 0.575710
O O10 0.129783 0.805138 0.634050
O O11 0.122977 0.704082 0.716782
O O12 0.710723 0.151116 0.495660
O O13 0.680056 0.272030 0.493358
O O14 0.476460 0.194532 0.249400
O O15 0.750000 0.250000 0.000000
O O16 0.714669 0.120757 0.931496
O O17 0.757505 0.500000 0.106458
#
# Coordination Sequence:
#
# PCOD8087798 Si02
#       8
#     8   8   8   8   8   4   8   8
#     4  10  19  32  51  77 105 140 177 211 260 324
#     4  10  20  35  53  76 105 142 183 220 261 321
#     4  11  19  30  52  80 111 133 170 220 268 316
#     4  11  19  32  53  79 106 139 167 223 276 317
#     4  10  20  34  52  76 110 134 176 218 270 317
#     4  12  19  32  52  82 109 140 168 228 278 314
#     4  11  20  34  54  80 107 140 180 218 268 325
#     4   9  20  35  52  73 105 141 178 222 262 312
#
# _framework density 17.83567
#
# number of rings (size 3 to 8) (size 9 to 14) (size 15 to 20)
#    0.000    1.600    4.000    3.400    0.000    0.267 
#    0.000    0.667    0.000    6.400    0.000    0.000 
#    0.000    8.000    0.000    0.000    0.000    0.000 
#
# Total GULP energy -371736.717992 kJ/mol
# GULP energy per Si atom -12391.223933 kJ/mol
# Density = 1.779507 g / cm^3
# Si number density = 17.835670 Si / 1000 Ang^3
#
#
#
# Elastic Constant Matrix: (Units=GPa)
#
#
# Indices 1 2 3 4 5 6 
#
# 1 117.6934 46.3551 34.0414 0.0000 14.1603 0.0000
# 2 46.3551 104.8660 20.9078 0.0000 9.6022 0.0000
# 3 34.0414 20.9078 58.4562 0.0000 14.7734 0.0000
# 4 0.0000 0.0000 0.0000 16.0632 0.0000 0.7392
# 5 14.1603 9.6022 14.7734 0.0000 36.3666 0.0000
# 6 0.0000 0.0000 0.0000 0.7392 0.0000 13.7839
#
#
#
# Elastic Compliance Matrix: (Units=1/GPa)
#
#
# Indices 1 2 3 4 5 6 
#
# 1 0.011714 -0.004046 -0.005005 0.000000 -0.001459 0.000000
# 2 -0.004046 0.011727 -0.001620 0.000000 -0.000863 0.000000
# 3 -0.005005 -0.001620 0.022289 0.000000 -0.006678 0.000000
# 4 0.000000 0.000000 0.000000 0.062408 0.000000 -0.003347
# 5 -0.001459 -0.000863 -0.006678 0.000000 0.031006 0.000000
# 6 0.000000 0.000000 0.000000 -0.003347 0.000000 0.072728
#
#
# Mechanical properties :
#
#
# Convention : Reuss Voigt Hill
#
# Bulk Modulus (GPa) = 41.00730 53.73602 47.37166
# Shear Modulus (GPa) = 20.71741 25.22349 22.97045
#
# Velocity S-wave (km/s) = 3.41188 3.76469 3.59262
# Velocity P-wave (km/s) = 6.20990 7.00649 6.62019
#
# Compressibility (1/GPa) = 0.02438590
#
# Stress axis : x y z
#
# Youngs Moduli (GPa) = 85.37039 85.27633 44.86603
#
# Poissons Ratio (x) = 0.34506 0.22457
# Poissons Ratio (y) = 0.34544 0.07268
# Poissons Ratio (z) = 0.42730 0.13813
#
# Static dielectric constant tensor:
#      x y z
#    x 3.541560 0.000000 0.024820 
#    y 0.000000 3.526650 0.000000 
#    z 0.024820 0.000000 3.260230 
# 
# 
# High freq. dielectric constant tensor:
#      x y z
#    x 1.703110 0.000000 -0.006380 
#    y 0.000000 1.661830 0.000000 
#    z -0.006380 0.000000 1.678750 
# 
# From -- ./inp_files/235206.got.cif
#   From: 2010.06.25/outbox.cif.g09.slc.cpg/sg12_118_cif.got.tgz:235206.got - 2010.06.28 00:19:55.
