data_PCOD8087203
_publ_section_title
;
Structure prediction by ZEFSAII (Michael W. Deem and Ramdas Pophale) SiO2 
 PCOD8087203
Probable space group: C 2/M
;
_chemical_formula_sum "Si O2"
_cell_formula_units_Z 48
_cell_length_a 23.102546
_cell_length_b 9.045383
_cell_length_c 17.032387
_cell_angle_alpha 90.000000
_cell_angle_beta 119.420670
_cell_angle_gamma 90.000000
_cell_volume 3100.264536
_symmetry_space_group_name_H-M "C 2/M"
_symmetry_group_IT_number 12
_symmetry_cell_setting 'monoclinic'
loop_
_space_group_symop_operation_xyz
x,y,z
-x,y,-z
-x,-y,-z
x,-y,z
1/2+x,1/2+y,z
1/2-x,1/2+y,-z
1/2-x,1/2-y,-z
1/2+x,1/2-y,z
loop_
_atom_site_type_symbol
_atom_site_label
_atom_site_fract_x
_atom_site_fract_y
_atom_site_fract_z
Si Si1 0.120211 0.328026 0.741094
Si Si2 0.480994 0.170795 0.575118
Si Si3 0.233921 0.832334 0.749709
Si Si4 0.849005 0.827471 0.533662
Si Si5 0.769339 0.171895 0.631377
Si Si6 0.212715 0.831723 0.906119
O O1 0.138363 0.500000 0.756512
O O2 0.042767 0.302626 0.674355
O O3 0.162360 0.252179 0.698290
O O4 0.142811 0.250718 0.838620
O O5 0.500000 0.220207 0.500000
O O6 0.423231 0.272214 0.570497
O O7 0.458453 0.000000 0.560287
O O8 0.285500 0.750130 0.725746
O O9 0.258645 0.826651 0.857341
O O10 0.224212 0.000000 0.714810
O O11 0.829132 0.796370 0.611042
O O12 0.799514 0.740178 0.444496
O O13 0.843648 0.000000 0.510439
O O14 0.758396 0.000000 0.637884
O O15 0.197608 0.000000 0.921027
O O16 0.250000 0.750000 0.000000
#
# Coordination Sequence:
#
# PCOD8087203 Si02
#       6
#     8   8   8   8   8   8
#     4   9  17  29  46  68  97 127 155 190 233 280
#     4  10  20  32  46  67  94 128 163 192 231 281
#     4   9  18  29  46  70  94 120 151 190 234 279
#     4  10  21  32  46  66  90 123 162 200 236 273
#     4  10  19  32  47  65  90 123 160 198 237 279
#     4   9  18  30  47  72  99 124 156 193 239 288
#
# _framework density 15.48255
#
# number of rings (size 3 to 8) (size 9 to 14) (size 15 to 20)
#    1.000    1.500    0.000    3.000    0.000    5.000 
#    0.000    0.000    0.000    0.000    0.000    1.167 
#    0.000    9.333    0.000    0.000    0.000    0.000 
#
# Total GULP energy -297396.084435 kJ/mol
# GULP energy per Si atom -12391.503518 kJ/mol
# Density = 1.544731 g / cm^3
# Si number density = 15.482550 Si / 1000 Ang^3
#
#
#
# Elastic Constant Matrix: (Units=GPa)
#
#
# Indices 1 2 3 4 5 6 
#
# 1 81.8945 50.5053 36.5008 0.0000 -5.2087 0.0000
# 2 50.5053 119.2351 48.0945 0.0000 -4.9959 0.0000
# 3 36.5008 48.0945 84.0346 0.0000 -3.8704 0.0000
# 4 0.0000 0.0000 0.0000 25.5036 0.0000 -2.4640
# 5 -5.2087 -4.9959 -3.8704 0.0000 17.3345 0.0000
# 6 0.0000 0.0000 0.0000 -2.4640 0.0000 28.2235
#
#
#
# Elastic Compliance Matrix: (Units=1/GPa)
#
#
# Indices 1 2 3 4 5 6 
#
# 1 0.017834 -0.005676 -0.004372 0.000000 0.002747 0.000000
# 2 -0.005676 0.012764 -0.004798 0.000000 0.000902 0.000000
# 3 -0.004372 -0.004798 0.016591 0.000000 0.001008 0.000000
# 4 0.000000 0.000000 0.000000 0.039544 0.000000 0.003452
# 5 0.002747 0.000902 0.001008 0.000000 0.058999 0.000000
# 6 0.000000 0.000000 0.000000 0.003452 0.000000 0.035733
#
#
# Mechanical properties :
#
#
# Convention : Reuss Voigt Hill
#
# Bulk Modulus (GPa) = 57.14801 61.70726 59.42764
# Shear Modulus (GPa) = 23.04263 24.21657 23.62960
#
# Velocity S-wave (km/s) = 3.86203 3.95919 3.91091
# Velocity P-wave (km/s) = 7.54178 7.80018 7.67206
#
# Compressibility (1/GPa) = 0.01749842
#
# Stress axis : x y z
#
# Youngs Moduli (GPa) = 56.07167 78.34430 60.27275
#
# Poissons Ratio (x) = 0.44467 0.26348
# Poissons Ratio (y) = 0.31825 0.28921
# Poissons Ratio (z) = 0.24512 0.37592
#
# Static dielectric constant tensor:
#      x y z
#    x 2.824120 0.000000 -0.172710 
#    y 0.000000 3.101670 0.000000 
#    z -0.172710 0.000000 2.749800 
# 
# 
# High freq. dielectric constant tensor:
#      x y z
#    x 1.570180 0.000000 -0.017160 
#    y 0.000000 1.615700 0.000000 
#    z -0.017160 0.000000 1.568400 
# 
# From -- ./inp_files/287125.got.cif
#   From: 2010.06.25/outbox.cif.g09.slc.cpg/sg12_144_cif.got.tgz:287125.got - 2010.06.28 00:19:55.
