data_PCOD8087804
_publ_section_title
;
Structure prediction by ZEFSAII (Michael W. Deem and Ramdas Pophale) SiO2 
 PCOD8087804
Probable space group: C 2/M
;
_chemical_formula_sum "Si O2"
_cell_formula_units_Z 40
_cell_length_a 20.629724
_cell_length_b 8.908206
_cell_length_c 17.965467
_cell_angle_alpha 90.000000
_cell_angle_beta 42.977307
_cell_angle_gamma 90.000000
_cell_volume 2250.717455
_symmetry_space_group_name_H-M "C 2/M"
_symmetry_group_IT_number 12
_symmetry_cell_setting 'monoclinic'
loop_
_space_group_symop_operation_xyz
x,y,z
-x,y,-z
-x,-y,-z
x,-y,z
1/2+x,1/2+y,z
1/2-x,1/2+y,-z
1/2-x,1/2-y,-z
1/2+x,1/2-y,z
loop_
_atom_site_type_symbol
_atom_site_label
_atom_site_fract_x
_atom_site_fract_y
_atom_site_fract_z
Si Si1 0.530421 0.177323 0.729493
Si Si2 0.346521 0.678636 0.946726
Si Si3 0.104575 0.822917 0.929062
Si Si4 0.183833 0.671914 0.725251
Si Si5 0.671710 0.674730 0.515159
O O1 0.430420 0.257388 0.825423
O O2 0.602139 0.223051 0.735757
O O3 0.572436 0.240833 0.615719
O O4 0.516585 0.000000 0.734575
O O5 0.343317 0.500000 0.942336
O O6 0.250000 0.750000 0.000000
O O7 0.361906 0.732574 0.018507
O O8 0.178537 0.767096 0.804924
O O9 0.101603 0.000000 0.928148
O O10 0.000000 0.755739 0.000000
O O11 0.166672 0.500000 0.760666
O O12 0.289856 0.694891 0.601699
O O13 0.661997 0.500000 0.543621
O O14 0.750000 0.750000 0.500000
#
# Coordination Sequence:
#
# PCOD8087804 Si02
#       5
#     8   8   8   8   8
#     4  10  19  32  51  77 106 140 178 217 263 314
#     4  11  23  38  55  77 107 143 179 218 264 317
#     4  10  20  34  53  78 106 138 175 218 266 312
#     4   9  18  30  49  78 108 137 172 215 262 311
#     4   9  17  29  46  74 107 139 174 215 264 313
#
# _framework density 17.772110999999999
#
# number of rings (size 3 to 8) (size 9 to 14) (size 15 to 20)
#    0.000    2.200    2.000    3.000    0.000    6.000 
#    0.000    0.000    0.000    1.200    0.000    8.400 
#    0.000    0.000    0.000    0.000    0.000    0.000 
#
# Total GULP energy -247944.327672 kJ/mol
# GULP energy per Si atom -12397.216384 kJ/mol
# Density = 1.773166 g / cm^3
# Si number density = 17.772111 Si / 1000 Ang^3
#
#
#
# Elastic Constant Matrix: (Units=GPa)
#
#
# Indices 1 2 3 4 5 6 
#
# 1 84.1957 37.0408 58.2609 0.0000 -6.4270 0.0000
# 2 37.0408 68.0302 50.4787 -0.0001 -2.9757 0.0000
# 3 58.2609 50.4787 158.4132 0.0000 -6.4888 0.0000
# 4 0.0000 -0.0001 0.0000 39.7525 0.0000 -0.3132
# 5 -6.4270 -2.9757 -6.4888 0.0000 20.9048 0.0000
# 6 0.0000 0.0000 0.0000 -0.3132 0.0000 22.9433
#
#
#
# Elastic Compliance Matrix: (Units=1/GPa)
#
#
# Indices 1 2 3 4 5 6 
#
# 1 0.018009 -0.006349 -0.004467 0.000000 0.003246 0.000000
# 2 -0.006349 0.021504 -0.004530 0.000000 -0.000297 0.000000
# 3 -0.004467 -0.004530 0.009436 0.000000 0.000911 0.000000
# 4 0.000000 0.000000 0.000000 0.025158 0.000000 0.000343
# 5 0.003246 -0.000297 0.000911 0.000000 0.049074 0.000000
# 6 0.000000 0.000000 0.000000 0.000343 0.000000 0.043590
#
#
# Mechanical properties :
#
#
# Convention : Reuss Voigt Hill
#
# Bulk Modulus (GPa) = 54.76996 66.91109 60.84052
# Shear Modulus (GPa) = 24.56398 27.71072 26.13735
#
# Velocity S-wave (km/s) = 3.72178 3.95299 3.83912
# Velocity P-wave (km/s) = 7.02522 7.65284 7.34574
#
# Compressibility (1/GPa) = 0.01825819
#
# Stress axis : x y z
#
# Youngs Moduli (GPa) = 55.52696 46.50281 105.97428
#
# Poissons Ratio (x) = 0.29524 0.47343
# Poissons Ratio (y) = 0.35253 0.48001
# Poissons Ratio (z) = 0.24806 0.21064
#
# Static dielectric constant tensor:
#      x y z
#    x 2.934750 0.000000 0.051070 
#    y 0.000000 3.395220 0.000000 
#    z 0.051070 0.000000 3.788040 
# 
# 
# High freq. dielectric constant tensor:
#      x y z
#    x 1.631940 0.000000 0.003270 
#    y 0.000000 1.696430 0.000000 
#    z 0.003270 0.000000 1.709450 
# 
# From -- ./inp_files/162744.got.cif
#   From: 2010.06.25/outbox.cif.g09.slc.cpg/sg12_82_cif.got.tgz:162744.got - 2010.06.28 00:19:55.
