data_PCOD8087556
_publ_section_title
;
Structure prediction by ZEFSAII (Michael W. Deem and Ramdas Pophale) SiO2 
 PCOD8087556
Probable space group: C 2/M
;
_chemical_formula_sum "Si O2"
_cell_formula_units_Z 52
_cell_length_a 17.143961
_cell_length_b 18.558289
_cell_length_c 9.016125
_cell_angle_alpha 90.000000
_cell_angle_beta 82.457701
_cell_angle_gamma 90.000000
_cell_volume 2843.775203
_symmetry_space_group_name_H-M "C 2/M"
_symmetry_group_IT_number 12
_symmetry_cell_setting 'monoclinic'
loop_
_space_group_symop_operation_xyz
x,y,z
-x,y,-z
-x,-y,-z
x,-y,z
1/2+x,1/2+y,z
1/2-x,1/2+y,-z
1/2-x,1/2-y,-z
1/2+x,1/2-y,z
loop_
_atom_site_type_symbol
_atom_site_label
_atom_site_fract_x
_atom_site_fract_y
_atom_site_fract_z
Si Si1 0.842649 0.725239 0.708353
Si Si2 0.894295 0.719533 0.370597
Si Si3 0.760665 0.136247 0.673844
Si Si4 0.188666 0.140101 0.662476
Si Si5 0.611602 0.000000 0.148775
Si Si6 0.734143 0.000000 0.881592
Si Si7 0.532408 0.150308 0.156660
Si Si8 0.715083 0.500000 0.818980
O O1 0.897114 0.718345 0.548337
O O2 0.819471 0.808206 0.740473
O O3 0.765701 0.677355 0.708729
O O4 0.888893 0.698112 0.842491
O O5 0.821411 0.674387 0.331212
O O6 0.883530 0.802548 0.316934
O O7 0.971070 0.681319 0.289443
O O8 0.797227 0.112604 0.508207
O O9 0.747829 0.069135 0.780507
O O10 0.170975 0.069833 0.764718
O O11 0.555347 0.931707 0.190234
O O12 0.689125 0.000000 0.238208
O O13 0.644843 0.000000 0.970488
O O14 0.796952 0.000000 0.000497
O O15 0.500000 0.158655 0.000000
#
# Coordination Sequence:
#
# PCOD8087556 Si02
#       8
#     8   8   8   8   4   4   8   4
#     4   9  18  36  53  75 103 137 187 233 271 314
#     4   9  20  33  55  77 103 140 185 230 268 318
#     4   9  18  33  56  76 102 135 185 237 269 315
#     4   9  17  35  56  79  99 137 186 233 275 312
#     4  10  23  36  48  76 120 156 174 210 264 324
#     4  10  19  32  50  80 107 142 175 214 273 312
#     4  12  22  35  51  75 115 153 180 212 267 329
#     4  10  19  32  55  75 114 140 178 220 268 316
#
# _framework density 18.285551000000002
#
# number of rings (size 3 to 8) (size 9 to 14) (size 15 to 20)
#    0.462    1.846    1.538    3.923    0.000    1.846 
#    0.000    6.154    0.000    0.923    0.000    6.462 
#    0.000    0.000    0.000    0.000    0.000    0.000 
#
# Total GULP energy -322240.564994 kJ/mol
# GULP energy per Si atom -12393.867884 kJ/mol
# Density = 1.824393 g / cm^3
# Si number density = 18.285551 Si / 1000 Ang^3
#
#
#
# Elastic Constant Matrix: (Units=GPa)
#
#
# Indices 1 2 3 4 5 6 
#
# 1 57.6791 37.4993 20.0146 0.0000 5.5094 0.0000
# 2 37.4993 143.3115 58.6892 0.0000 1.6355 0.0000
# 3 20.0146 58.6892 46.3316 0.0000 5.8193 0.0000
# 4 0.0000 0.0000 0.0000 42.1163 0.0000 -16.1794
# 5 5.5094 1.6355 5.8193 0.0000 33.9236 0.0000
# 6 0.0000 0.0000 0.0000 -16.1794 0.0000 47.5008
#
#
#
# Elastic Compliance Matrix: (Units=1/GPa)
#
#
# Indices 1 2 3 4 5 6 
#
# 1 0.021550 -0.004015 -0.003892 0.000000 -0.002639 0.000000
# 2 -0.004015 0.015459 -0.018229 0.000000 0.003034 0.000000
# 3 -0.003892 -0.018229 0.047182 0.000000 -0.006583 0.000000
# 4 0.000000 0.000000 0.000000 0.027318 0.000000 0.009305
# 5 -0.002639 0.003034 -0.006583 0.000000 0.030890 0.000000
# 6 0.000000 0.000000 0.000000 0.009305 0.000000 0.024222
#
#
# Mechanical properties :
#
#
# Convention : Reuss Voigt Hill
#
# Bulk Modulus (GPa) = 31.32860 53.30316 42.31588
# Shear Modulus (GPa) = 21.78344 33.44939 27.61642
#
# Velocity S-wave (km/s) = 3.45526 4.28165 3.89046
# Velocity P-wave (km/s) = 5.75227 7.32510 6.58580
#
# Compressibility (1/GPa) = 0.03191972
#
# Stress axis : x y z
#
# Youngs Moduli (GPa) = 46.40342 64.68856 21.19439
#
# Poissons Ratio (x) = 0.25971 0.08250
# Poissons Ratio (y) = 0.18630 0.38634
# Poissons Ratio (z) = 0.18062 1.17918
#
# Static dielectric constant tensor:
#      x y z
#    x -0.578940 0.000000 1.788280 
#    y 0.000000 3.180870 0.000000 
#    z 1.788280 0.000000 2.548300 
# 
# 
# High freq. dielectric constant tensor:
#      x y z
#    x 1.684160 0.000000 0.014800 
#    y 0.000000 1.715370 0.000000 
#    z 0.014800 0.000000 1.698990 
# 
# From -- ./inp_files/75265.got.cif
#   From: 2010.06.25/outbox.cif.g09.slc.cpg/sg12_38_cif.got.tgz:75265.got - 2010.06.28 00:19:55.
