data_PCOD8087774
_publ_section_title
;
Structure prediction by ZEFSAII (Michael W. Deem and Ramdas Pophale) SiO2 
 PCOD8087774
Probable space group: C 2/M
;
_chemical_formula_sum "Si O2"
_cell_formula_units_Z 64
_cell_length_a 28.061065
_cell_length_b 9.120456
_cell_length_c 30.668149
_cell_angle_alpha 90.000000
_cell_angle_beta 152.293858
_cell_angle_gamma 90.000000
_cell_volume 3649.239225
_symmetry_space_group_name_H-M "C 2/M"
_symmetry_group_IT_number 12
_symmetry_cell_setting 'monoclinic'
loop_
_space_group_symop_operation_xyz
x,y,z
-x,y,-z
-x,-y,-z
x,-y,z
1/2+x,1/2+y,z
1/2-x,1/2+y,-z
1/2-x,1/2-y,-z
1/2+x,1/2-y,z
loop_
_atom_site_type_symbol
_atom_site_label
_atom_site_fract_x
_atom_site_fract_y
_atom_site_fract_z
Si Si1 0.328226 0.831866 0.169659
Si Si2 0.613628 0.167568 0.689815
Si Si3 0.887404 0.827424 0.397324
Si Si4 0.248256 0.673432 0.365163
Si Si5 0.473513 0.331371 0.693612
Si Si6 0.949200 0.831285 0.773961
Si Si7 0.323437 0.331314 0.026348
Si Si8 0.391283 0.828579 0.547061
O O1 0.316957 0.792276 0.211734
O O2 0.410638 0.728385 0.213155
O O3 0.219370 0.811609 0.057534
O O4 0.368205 0.000000 0.198380
O O5 0.651130 0.264111 0.679829
O O6 0.495828 0.202576 0.605743
O O7 0.627640 0.000000 0.687449
O O8 0.808389 0.778546 0.370461
O O9 0.000000 0.764137 0.500000
O O10 0.892478 0.000000 0.396477
O O11 0.249792 0.500000 0.373002
O O12 0.132631 0.731721 0.266913
O O13 0.298952 0.749341 0.447938
O O14 0.474573 0.500000 0.679249
O O15 0.430604 0.314852 0.707390
O O16 0.400108 0.238360 0.602553
O O17 0.936562 0.000000 0.778365
O O18 0.061166 0.769781 0.878177
O O19 0.324934 0.500000 0.042206
O O20 0.250000 0.250000 0.000000
O O21 0.366571 0.000000 0.530888
#
# Coordination Sequence:
#
# PCOD8087774 Si02
#       8
#     8   8   8   8   8   8   8   8
#     4   9  18  32  52  80 110 137 171 217 262 308
#     4   9  18  31  51  80 106 133 169 210 261 313
#     4  10  20  35  54  77 104 133 171 220 266 310
#     4  11  23  37  54  76 103 140 179 218 268 317
#     4  10  19  32  51  76 107 141 179 214 254 309
#     4  10  22  37  52  76 108 143 179 218 262 310
#     4  10  19  34  56  80 108 140 177 220 263 306
#     4  10  20  34  52  76 107 141 177 214 257 310
#
# _framework density 17.537903
#
# number of rings (size 3 to 8) (size 9 to 14) (size 15 to 20)
#    0.000    2.125    2.500    1.875    0.000    5.250 
#    0.000    0.000    0.000    0.750    0.000    5.250 
#    0.000    0.000    0.000    0.000    0.000    0.000 
#
# Total GULP energy -396860.504754 kJ/mol
# GULP energy per Si atom -12401.890774 kJ/mol
# Density = 1.749799 g / cm^3
# Si number density = 17.537903 Si / 1000 Ang^3
#
#
#
# Elastic Constant Matrix: (Units=GPa)
#
#
# Indices 1 2 3 4 5 6 
#
# 1 93.0330 42.8295 59.2902 0.0000 1.1431 -0.0003
# 2 42.8295 66.5314 41.6472 -0.0004 5.8249 -0.0041
# 3 59.2902 41.6472 119.5800 0.0000 1.9600 0.0000
# 4 0.0000 -0.0004 0.0000 26.1554 0.0000 0.0036
# 5 1.1431 5.8249 1.9600 0.0000 23.9620 -0.0001
# 6 -0.0003 -0.0041 0.0000 0.0036 -0.0001 30.5582
#
#
#
# Elastic Compliance Matrix: (Units=1/GPa)
#
#
# Indices 1 2 3 4 5 6 
#
# 1 0.018517 -0.008052 -0.006403 0.000000 0.001598 -0.000001
# 2 -0.008052 0.023139 -0.003986 0.000000 -0.004915 0.000003
# 3 -0.006403 -0.003986 0.012922 0.000000 0.000217 -0.000001
# 4 0.000000 0.000000 0.000000 0.038233 0.000000 -0.000005
# 5 0.001598 -0.004915 0.000217 0.000000 0.042833 -0.000001
# 6 -0.000001 0.000003 -0.000001 -0.000005 -0.000001 0.032724
#
#
# Mechanical properties :
#
#
# Convention : Reuss Voigt Hill
#
# Bulk Modulus (GPa) = 56.50881 62.96422 59.73652
# Shear Modulus (GPa) = 23.67993 25.16030 24.42012
#
# Velocity S-wave (km/s) = 3.67851 3.79175 3.73556
# Velocity P-wave (km/s) = 7.09457 7.42628 7.26232
#
# Compressibility (1/GPa) = 0.01769636
#
# Stress axis : x y z
#
# Youngs Moduli (GPa) = 54.00553 43.21630 77.38775
#
# Poissons Ratio (x) = 0.34797 0.49550
# Poissons Ratio (y) = 0.43485 0.30848
# Poissons Ratio (z) = 0.34579 0.17226
#
# Static dielectric constant tensor:
#      x y z
#    x 3.154970 0.000000 -0.160260 
#    y 0.000000 3.254410 0.000000 
#    z -0.160260 0.000000 3.310450 
# 
# 
# High freq. dielectric constant tensor:
#      x y z
#    x 1.663090 0.000000 -0.015250 
#    y 0.000000 1.681110 0.000000 
#    z -0.015250 0.000000 1.669010 
# 
# From -- ./inp_files/244011.got.cif
#   From: 2010.06.25/outbox.cif.g09.slc.cpg/sg12_123_cif.got.tgz:244011.got - 2010.06.28 00:19:55.
