data_PCOD8087610
_publ_section_title
;
Structure prediction by ZEFSAII (Michael W. Deem and Ramdas Pophale) SiO2 
 PCOD8087610
Probable space group: C 2/M
;
_chemical_formula_sum "Si O2"
_cell_formula_units_Z 56
_cell_length_a 18.148058
_cell_length_b 9.221641
_cell_length_c 32.790615
_cell_angle_alpha 90.000000
_cell_angle_beta 33.213157
_cell_angle_gamma 90.000000
_cell_volume 3005.900260
_symmetry_space_group_name_H-M "C 2/M"
_symmetry_group_IT_number 12
_symmetry_cell_setting 'monoclinic'
loop_
_space_group_symop_operation_xyz
x,y,z
-x,y,-z
-x,-y,-z
x,-y,z
1/2+x,1/2+y,z
1/2-x,1/2+y,-z
1/2-x,1/2-y,-z
1/2+x,1/2-y,z
loop_
_atom_site_type_symbol
_atom_site_label
_atom_site_fract_x
_atom_site_fract_y
_atom_site_fract_z
Si Si1 0.933513 0.171350 0.988484
Si Si2 0.371226 0.827872 0.866456
Si Si3 0.532026 0.672147 0.421740
Si Si4 0.290815 0.672169 0.586636
Si Si5 0.488651 0.827186 0.726796
Si Si6 0.358672 0.333027 0.713403
Si Si7 0.047101 0.666640 0.860015
O O1 0.018801 0.242636 0.913346
O O2 0.939926 0.000000 0.979740
O O3 0.780674 0.229166 0.058187
O O4 0.000000 0.219617 0.000000
O O5 0.433195 0.769075 0.795607
O O6 0.458956 0.769425 0.863613
O O7 0.375172 0.000000 0.863595
O O8 0.544040 0.500000 0.415806
O O9 0.383034 0.720919 0.505454
O O10 0.642955 0.732812 0.402298
O O11 0.560968 0.730490 0.362964
O O12 0.285945 0.500000 0.591452
O O13 0.140448 0.732893 0.650919
O O14 0.395120 0.762546 0.735249
O O15 0.481817 0.000000 0.727224
O O16 0.396642 0.500000 0.704528
O O17 0.201814 0.317123 0.776063
O O18 0.008989 0.500000 0.886162
#
# Coordination Sequence:
#
# PCOD8087610 Si02
#       7
#     8   8   8   8   8   8   8
#     4  10  20  34  52  74 100 127 153 189 242 292
#     4   9  18  33  52  72  95 125 161 198 235 278
#     4   8  14  27  47  71  98 125 158 200 238 275
#     4   8  14  26  48  74  94 121 164 203 232 272
#     4  10  19  32  51  73  97 126 161 198 236 283
#     4  10  20  32  47  70 100 129 156 194 244 285
#     4  10  20  34  52  72  94 125 165 201 232 274
#
# _framework density 18.630025
#
# number of rings (size 3 to 8) (size 9 to 14) (size 15 to 20)
#    0.000    2.714    0.000    3.000    0.000    6.000 
#    0.000    1.429    0.000    2.571    0.000    2.000 
#    0.000    0.000    0.000    0.000    0.000    0.000 
#
# Total GULP energy -347162.332201 kJ/mol
# GULP energy per Si atom -12398.654721 kJ/mol
# Density = 1.858762 g / cm^3
# Si number density = 18.630025 Si / 1000 Ang^3
#
#
#
# Elastic Constant Matrix: (Units=GPa)
#
#
# Indices 1 2 3 4 5 6 
#
# 1 110.3628 22.8470 41.0235 0.0029 15.3833 0.0250
# 2 22.8470 19.1910 20.7813 0.0372 5.9959 0.0047
# 3 41.0235 20.7813 112.1719 -0.0017 17.9731 -0.0021
# 4 0.0029 0.0372 -0.0017 18.6411 0.0010 1.4073
# 5 15.3833 5.9959 17.9731 0.0010 40.0101 0.0026
# 6 0.0250 0.0047 -0.0021 1.4073 0.0026 21.6125
#
#
#
# Elastic Compliance Matrix: (Units=1/GPa)
#
#
# Indices 1 2 3 4 5 6 
#
# 1 0.012631 -0.012185 -0.002022 0.000023 -0.002122 -0.000013
# 2 -0.012185 0.077763 -0.009519 -0.000155 -0.002693 0.000007
# 3 -0.002022 -0.009519 0.011923 0.000020 -0.003152 0.000005
# 4 0.000023 -0.000155 0.000020 0.053910 0.000004 -0.003510
# 5 -0.002122 -0.002693 -0.003152 0.000004 0.027629 -0.000001
# 6 -0.000013 0.000007 0.000005 -0.003510 -0.000001 0.046498
#
#
# Mechanical properties :
#
#
# Convention : Reuss Voigt Hill
#
# Bulk Modulus (GPa) = 18.22640 45.66992 31.94816
# Shear Modulus (GPa) = 16.88658 26.52436 21.70547
#
# Velocity S-wave (km/s) = 3.01394 3.77734 3.41703
# Velocity P-wave (km/s) = 4.68149 6.60241 5.72312
#
# Compressibility (1/GPa) = 0.05486546
#
# Stress axis : x y z
#
# Youngs Moduli (GPa) = 79.17130 12.85964 83.87205
#
# Poissons Ratio (x) = 0.15669 0.16959
# Poissons Ratio (y) = 0.96467 0.79837
# Poissons Ratio (z) = 0.16008 0.12241
#
# Static dielectric constant tensor:
#      x y z
#    x 3.544360 0.000020 -0.038780 
#    y 0.000020 2.882970 -0.000010 
#    z -0.038780 -0.000010 3.716620 
# 
# 
# High freq. dielectric constant tensor:
#      x y z
#    x 1.731500 0.000000 -0.000500 
#    y 0.000000 1.664750 0.000000 
#    z -0.000500 0.000000 1.741770 
# 
# From -- ./inp_files/276675.got.cif
#   From: 2010.06.25/outbox.cif.g09.slc.cpg/sg12_139_cif.got.tgz:276675.got - 2010.06.28 00:19:55.
