data_PCOD8087698
_publ_section_title
;
Structure prediction by ZEFSAII (Michael W. Deem and Ramdas Pophale) SiO2 
 PCOD8087698
Probable space group: C 2/M
;
_chemical_formula_sum "Si O2"
_cell_formula_units_Z 40
_cell_length_a 27.696643
_cell_length_b 9.391330
_cell_length_c 12.187009
_cell_angle_alpha 90.000000
_cell_angle_beta 42.662666
_cell_angle_gamma 90.000000
_cell_volume 2148.208619
_symmetry_space_group_name_H-M "C 2/M"
_symmetry_group_IT_number 12
_symmetry_cell_setting 'monoclinic'
loop_
_space_group_symop_operation_xyz
x,y,z
-x,y,-z
-x,-y,-z
x,-y,z
1/2+x,1/2+y,z
1/2-x,1/2+y,-z
1/2-x,1/2-y,-z
1/2+x,1/2-y,z
loop_
_atom_site_type_symbol
_atom_site_label
_atom_site_fract_x
_atom_site_fract_y
_atom_site_fract_z
Si Si1 0.350836 0.333001 0.509396
Si Si2 0.791909 0.168797 0.245793
Si Si3 0.424330 0.666003 0.164685
Si Si4 0.423542 0.335327 0.607261
Si Si5 0.193797 0.162349 0.027249
O O1 0.331502 0.500000 0.549849
O O2 0.279516 0.248455 0.596769
O O3 0.410534 0.305556 0.316501
O O4 0.381552 0.270189 0.572859
O O5 0.857726 0.228293 0.207426
O O6 0.810503 0.212452 0.090434
O O7 0.780652 0.000000 0.279680
O O8 0.427806 0.500000 0.131787
O O9 0.500000 0.735361 0.000000
O O10 0.500000 0.261036 0.500000
O O11 0.435228 0.500000 0.557865
O O12 0.382455 0.313697 0.789598
O O13 0.218382 0.000000 0.993849
O O14 0.250000 0.250000 0.000000
#
# Coordination Sequence:
#
# PCOD8087698 Si02
#       5
#     8   8   8   8   8
#     4  10  19  33  54  75  99 133 169 205 244 294
#     4  10  20  33  52  75 102 133 163 204 250 294
#     4   9  19  33  51  77 102 127 166 212 252 288
#     4   9  18  30  48  75 101 127 164 207 246 286
#     4  10  19  32  51  75 102 130 162 202 248 296
#
# _framework density 18.620166000000001
#
# number of rings (size 3 to 8) (size 9 to 14) (size 15 to 20)
#    0.000    2.400    2.000    0.600    2.800    0.000 
#    0.000    0.000    0.000    4.800    0.000    0.000 
#    0.000    0.000    0.000    0.000    0.000    0.000 
#
# Total GULP energy -247955.562902 kJ/mol
# GULP energy per Si atom -12397.778145 kJ/mol
# Density = 1.857779 g / cm^3
# Si number density = 18.620166 Si / 1000 Ang^3
#
#
#
# Elastic Constant Matrix: (Units=GPa)
#
#
# Indices 1 2 3 4 5 6 
#
# 1 94.2799 16.0389 41.3278 0.0000 -11.8075 0.0000
# 2 16.0389 23.4339 24.0843 0.0000 -4.2297 0.0000
# 3 41.3278 24.0843 117.3313 0.0000 -8.9873 0.0000
# 4 0.0000 0.0000 0.0000 18.2206 0.0000 -2.2167
# 5 -11.8075 -4.2297 -8.9873 0.0000 40.1637 0.0000
# 6 0.0000 0.0000 0.0000 -2.2167 0.0000 20.3533
#
#
#
# Elastic Compliance Matrix: (Units=1/GPa)
#
#
# Indices 1 2 3 4 5 6 
#
# 1 0.013309 -0.005103 -0.003441 0.000000 0.002605 0.000000
# 2 -0.005103 0.056464 -0.009617 0.000000 0.002294 0.000000
# 3 -0.003441 -0.009617 0.011755 0.000000 0.000606 0.000000
# 4 0.000000 0.000000 0.000000 0.055620 0.000000 0.006058
# 5 0.002605 0.002294 0.000606 0.000000 0.026041 0.000000
# 6 0.000000 0.000000 0.000000 0.006058 0.000000 0.049792
#
#
# Mechanical properties :
#
#
# Convention : Reuss Voigt Hill
#
# Bulk Modulus (GPa) = 22.12041 44.21633 33.16837
# Shear Modulus (GPa) = 18.91272 25.98714 22.44993
#
# Velocity S-wave (km/s) = 3.19048 3.73989 3.47605
# Velocity P-wave (km/s) = 5.04756 6.51514 5.82773
#
# Compressibility (1/GPa) = 0.04520712
#
# Stress axis : x y z
#
# Youngs Moduli (GPa) = 75.13443 17.71044 85.06706
#
# Poissons Ratio (x) = 0.09037 0.29272
# Poissons Ratio (y) = 0.38338 0.81810
# Poissons Ratio (z) = 0.25854 0.17032
#
# Static dielectric constant tensor:
#      x y z
#    x 3.743090 0.000000 -0.833040 
#    y 0.000000 2.999550 0.000000 
#    z -0.833040 0.000000 3.683530 
# 
# 
# High freq. dielectric constant tensor:
#      x y z
#    x 1.734020 0.000000 0.005360 
#    y 0.000000 1.665730 0.000000 
#    z 0.005360 0.000000 1.737350 
# 
# From -- ./inp_files/140382.got.cif
#   From: 2010.06.25/outbox.cif.g09.slc.cpg/sg12_71_cif.got.tgz:140382.got - 2010.06.28 00:19:55.
