data_PCOD8087209
_publ_section_title
;
Structure prediction by ZEFSAII (Michael W. Deem and Ramdas Pophale) SiO2 
 PCOD8087209
Probable space group: C 2/M
;
_chemical_formula_sum "Si O2"
_cell_formula_units_Z 64
_cell_length_a 24.646858
_cell_length_b 8.783871
_cell_length_c 21.544198
_cell_angle_alpha 90.000000
_cell_angle_beta 127.997778
_cell_angle_gamma 90.000000
_cell_volume 3675.556865
_symmetry_space_group_name_H-M "C 2/M"
_symmetry_group_IT_number 12
_symmetry_cell_setting 'monoclinic'
loop_
_space_group_symop_operation_xyz
x,y,z
-x,y,-z
-x,-y,-z
x,-y,z
1/2+x,1/2+y,z
1/2-x,1/2+y,-z
1/2-x,1/2-y,-z
1/2+x,1/2-y,z
loop_
_atom_site_type_symbol
_atom_site_label
_atom_site_fract_x
_atom_site_fract_y
_atom_site_fract_z
Si Si1 0.887269 0.319334 0.050944
Si Si2 0.235622 0.321326 0.395981
Si Si3 0.008500 0.179464 0.289749
Si Si4 0.360003 0.318183 0.163153
Si Si5 0.721780 0.180264 0.127524
Si Si6 0.970003 0.820270 0.835230
Si Si7 0.855193 0.820284 0.563003
Si Si8 0.829757 0.320109 0.777158
O O1 0.890130 0.500000 0.058950
O O2 0.856498 0.250089 0.092099
O O3 0.962587 0.255873 0.087162
O O4 0.837349 0.264325 0.960714
O O5 0.225671 0.500000 0.398947
O O6 0.181680 0.238158 0.401457
O O7 0.313534 0.271343 0.471486
O O8 0.221644 0.274275 0.315188
O O9 0.930736 0.239355 0.246842
O O10 0.033571 0.229782 0.239132
O O11 0.065374 0.241690 0.379618
O O12 0.005811 0.000000 0.291797
O O13 0.358911 0.500000 0.155716
O O14 0.295899 0.255690 0.157770
O O15 0.705871 0.241037 0.185292
O O16 0.725337 0.000000 0.130786
O O17 0.903036 0.760315 0.823001
O O18 0.975756 0.000000 0.847245
O O19 0.856706 0.000000 0.569901
O O20 0.842513 0.500000 0.787960
#
# Coordination Sequence:
#
# PCOD8087209 Si02
#       8
#     8   8   8   8   8   8   8   8
#     4  10  19  32  50  71  91 117 152 200 243 276
#     4   9  17  26  42  67  93 120 151 189 226 264
#     4   8  14  25  45  67  89 116 146 183 227 272
#     4   9  17  32  51  70  90 120 158 195 233 277
#     4   9  19  33  49  66  91 127 161 189 234 284
#     4  10  19  32  48  69  94 125 153 187 237 285
#     4   9  15  26  43  66  94 120 148 185 230 275
#     4  10  19  32  47  66  94 128 160 192 226 276
#
# _framework density 17.412327000000001
#
# number of rings (size 3 to 8) (size 9 to 14) (size 15 to 20)
#    0.000    2.750    1.250    1.875    0.000    0.500 
#    0.000    5.000    0.000    0.750    0.000    5.250 
#    0.000    0.000    0.000   10.625    0.000   12.000 
#
# Total GULP energy -396547.546165 kJ/mol
# GULP energy per Si atom -12392.110818 kJ/mol
# Density = 1.737270 g / cm^3
# Si number density = 17.412327 Si / 1000 Ang^3
#
#
#
# Elastic Constant Matrix: (Units=GPa)
#
#
# Indices 1 2 3 4 5 6 
#
# 1 132.8547 23.6047 98.2442 0.0000 13.3942 0.0000
# 2 23.6047 26.8304 24.0520 0.0000 3.1882 0.0000
# 3 98.2442 24.0520 151.2282 0.0000 27.8172 0.0000
# 4 0.0000 0.0000 0.0000 16.3306 0.0000 0.7960
# 5 13.3942 3.1882 27.8172 0.0000 26.1436 0.0000
# 6 0.0000 0.0000 0.0000 0.7960 0.0000 19.7486
#
#
#
# Elastic Compliance Matrix: (Units=1/GPa)
#
#
# Indices 1 2 3 4 5 6 
#
# 1 0.015290 -0.005137 -0.009686 0.000000 0.003099 0.000000
# 2 -0.005137 0.045332 -0.004153 0.000000 0.001522 0.000000
# 3 -0.009686 -0.004153 0.015616 0.000000 -0.011147 0.000000
# 4 0.000000 0.000000 0.000000 0.061355 0.000000 -0.002473
# 5 0.003099 0.001522 -0.011147 0.000000 0.048337 0.000000
# 6 0.000000 0.000000 0.000000 -0.002473 0.000000 0.050736
#
#
# Mechanical properties :
#
#
# Convention : Reuss Voigt Hill
#
# Bulk Modulus (GPa) = 26.11871 66.96834 46.54352
# Shear Modulus (GPa) = 17.39857 23.44539 20.42198
#
# Velocity S-wave (km/s) = 3.16446 3.67343 3.42840
# Velocity P-wave (km/s) = 5.32770 7.51903 6.51614
#
# Compressibility (1/GPa) = 0.03828674
#
# Stress axis : x y z
#
# Youngs Moduli (GPa) = 65.40237 22.05936 64.03793
#
# Poissons Ratio (x) = 0.11332 0.62027
# Poissons Ratio (y) = 0.33597 0.26592
# Poissons Ratio (z) = 0.63349 0.09160
#
# Static dielectric constant tensor:
#      x y z
#    x 2.974430 0.000000 0.005790 
#    y 0.000000 3.021630 0.000000 
#    z 0.005790 0.000000 3.391320 
# 
# 
# High freq. dielectric constant tensor:
#      x y z
#    x 1.655490 0.000000 0.026510 
#    y 0.000000 1.650130 0.000000 
#    z 0.026510 0.000000 1.677810 
# 
# From -- ./inp_files/323731.got.cif
#   From: 2010.06.25/outbox.cif.g09.slc.cpg/sg12_162_cif.got.tgz:323731.got - 2010.06.28 00:19:55.
