data_PCOD8087642
_publ_section_title
;
Structure prediction by ZEFSAII (Michael W. Deem and Ramdas Pophale) SiO2 
 PCOD8087642
Probable space group: C 2/M
;
_chemical_formula_sum "Si O2"
_cell_formula_units_Z 48
_cell_length_a 13.544891
_cell_length_b 22.562855
_cell_length_c 13.339426
_cell_angle_alpha 90.000000
_cell_angle_beta 134.856629
_cell_angle_gamma 90.000000
_cell_volume 2889.852853
_symmetry_space_group_name_H-M "C 2/M"
_symmetry_group_IT_number 12
_symmetry_cell_setting 'monoclinic'
loop_
_space_group_symop_operation_xyz
x,y,z
-x,y,-z
-x,-y,-z
x,-y,z
1/2+x,1/2+y,z
1/2-x,1/2+y,-z
1/2-x,1/2-y,-z
1/2+x,1/2-y,z
loop_
_atom_site_type_symbol
_atom_site_label
_atom_site_fract_x
_atom_site_fract_y
_atom_site_fract_z
Si Si1 0.611648 0.826923 0.877242
Si Si2 0.788814 0.432583 0.404781
Si Si3 0.826719 0.791027 0.192607
Si Si4 0.631800 0.670349 0.381142
Si Si5 0.580679 0.932271 0.711355
Si Si6 0.693271 0.211244 0.312838
O O1 0.649616 0.776361 0.824473
O O2 0.627092 0.890394 0.835361
O O3 0.456924 0.818399 0.809080
O O4 0.716214 0.825202 0.045001
O O5 0.749622 0.500000 0.402290
O O6 0.661493 0.391876 0.348434
O O7 0.810990 0.424989 0.301996
O O8 0.928177 0.413542 0.563549
O O9 0.774474 0.789044 0.267664
O O10 0.969340 0.827381 0.289530
O O11 0.679116 0.721467 0.339053
O O12 0.718266 0.673321 0.545344
O O13 0.580492 0.000000 0.749703
#
# Coordination Sequence:
#
# PCOD8087642 Si02
#       6
#     8   8   8   8   8   8
#     4  10  19  34  51  73 102 135 165 201 248 298
#     4   9  17  31  53  78 101 126 162 211 255 290
#     4  10  21  32  49  74 106 134 160 202 253 298
#     4  10  19  32  51  77 100 128 165 207 251 291
#     4   9  17  31  54  78  98 127 168 209 246 291
#     4  10  19  32  51  74 100 133 168 202 242 296
#
# _framework density 16.609843000000001
#
# number of rings (size 3 to 8) (size 9 to 14) (size 15 to 20)
#    0.000    2.333    1.667    3.000    0.000    0.000 
#    0.000    3.333    0.000    8.000    0.000    0.000 
#    0.000    0.000    0.000    0.000    0.000    0.000 
#
# Total GULP energy -297660.062782 kJ/mol
# GULP energy per Si atom -12402.502616 kJ/mol
# Density = 1.657204 g / cm^3
# Si number density = 16.609843 Si / 1000 Ang^3
#
#
#
# Elastic Constant Matrix: (Units=GPa)
#
#
# Indices 1 2 3 4 5 6 
#
# 1 127.2643 49.3095 55.6167 0.0000 -2.3367 0.0000
# 2 49.3095 75.3748 38.8243 0.0000 -3.2407 0.0000
# 3 55.6167 38.8243 74.6439 0.0000 12.8446 0.0000
# 4 0.0000 0.0000 0.0000 22.0483 0.0000 -2.7617
# 5 -2.3367 -3.2407 12.8446 0.0000 25.5406 0.0000
# 6 0.0000 0.0000 0.0000 -2.7617 0.0000 24.1369
#
#
#
# Elastic Compliance Matrix: (Units=1/GPa)
#
#
# Indices 1 2 3 4 5 6 
#
# 1 0.013308 -0.004000 -0.008711 0.000000 0.005091 0.000000
# 2 -0.004000 0.020825 -0.009024 0.000000 0.006815 0.000000
# 3 -0.008711 -0.009024 0.027276 0.000000 -0.015659 0.000000
# 4 0.000000 0.000000 0.000000 0.046014 0.000000 0.005265
# 5 0.005091 0.006815 -0.015659 0.000000 0.048359 0.000000
# 6 0.000000 0.000000 0.000000 0.005265 0.000000 0.042033
#
#
# Mechanical properties :
#
#
# Convention : Reuss Voigt Hill
#
# Bulk Modulus (GPa) = 55.74615 62.75381 59.24998
# Shear Modulus (GPa) = 20.22131 23.24731 21.73431
#
# Velocity S-wave (km/s) = 3.49295 3.74520 3.62127
# Velocity P-wave (km/s) = 7.06418 7.52098 7.29615
#
# Compressibility (1/GPa) = 0.01793846
#
# Stress axis : x y z
#
# Youngs Moduli (GPa) = 75.14322 48.01964 36.66273
#
# Poissons Ratio (x) = 0.19208 0.31937
# Poissons Ratio (y) = 0.30058 0.33084
# Poissons Ratio (z) = 0.65458 0.43332
#
# Static dielectric constant tensor:
#      x y z
#    x 3.052240 0.000000 0.059570 
#    y 0.000000 2.980020 0.000000 
#    z 0.059570 0.000000 3.096250 
# 
# 
# High freq. dielectric constant tensor:
#      x y z
#    x 1.640710 0.000000 0.000860 
#    y 0.000000 1.627980 0.000000 
#    z 0.000860 0.000000 1.634570 
# 
# From -- ./inp_files/50576.got.cif
#   From: 2010.06.25/outbox.cif.g09.slc.cpg/sg12_26_cif.got.tgz:50576.got - 2010.06.28 00:19:55.
