data_PCOD8087580
_publ_section_title
;
Structure prediction by ZEFSAII (Michael W. Deem and Ramdas Pophale) SiO2 
 PCOD8087580
Probable space group: C 2/M
;
_chemical_formula_sum "Si O2"
_cell_formula_units_Z 56
_cell_length_a 19.033830
_cell_length_b 9.115679
_cell_length_c 19.990685
_cell_angle_alpha 90.000000
_cell_angle_beta 114.342670
_cell_angle_gamma 90.000000
_cell_volume 3160.147039
_symmetry_space_group_name_H-M "C 2/M"
_symmetry_group_IT_number 12
_symmetry_cell_setting 'monoclinic'
loop_
_space_group_symop_operation_xyz
x,y,z
-x,y,-z
-x,-y,-z
x,-y,z
1/2+x,1/2+y,z
1/2-x,1/2+y,-z
1/2-x,1/2-y,-z
1/2+x,1/2-y,z
loop_
_atom_site_type_symbol
_atom_site_label
_atom_site_fract_x
_atom_site_fract_y
_atom_site_fract_z
Si Si1 0.420559 0.325918 0.504756
Si Si2 0.229197 0.671384 0.560070
Si Si3 0.943584 0.326730 0.919213
Si Si4 0.005475 0.830665 0.192921
Si Si5 0.312932 0.331121 0.935768
Si Si6 0.165423 0.165178 0.903641
Si Si7 0.102168 0.830272 0.353742
O O1 0.500000 0.277938 0.500000
O O2 0.408671 0.500000 0.495642
O O3 0.347120 0.248884 0.438537
O O4 0.419324 0.266256 0.581091
O O5 0.212040 0.500000 0.542055
O O6 0.250000 0.750000 0.500000
O O7 0.308198 0.693516 0.633745
O O8 0.939473 0.500000 0.914454
O O9 0.971589 0.267620 0.859999
O O10 0.859357 0.262879 0.900245
O O11 0.000000 0.271488 0.000000
O O12 0.047394 0.763122 0.274860
O O13 0.913927 0.817498 0.167684
O O14 0.029247 0.000000 0.189176
O O15 0.318425 0.500000 0.917748
O O16 0.224491 0.280798 0.895916
O O17 0.347327 0.300391 0.022935
O O18 0.198495 0.000000 0.909476
O O19 0.082457 0.000000 0.351434
#
# Coordination Sequence:
#
# PCOD8087580 Si02
#       7
#     8   8   8   8   8   8   8
#     4   9  17  31  52  78 106 136 170 205 244 291
#     4   9  16  29  50  75 103 134 168 203 243 292
#     4  11  22  34  50  73 100 127 163 214 258 298
#     4  10  19  34  54  73  99 133 170 209 253 306
#     4  10  19  32  51  72  95 126 167 209 252 303
#     4   9  18  31  49  72  96 127 164 206 254 301
#     4   8  16  31  51  74 100 134 170 206 249 296
#
# _framework density 17.720694999999999
#
# number of rings (size 3 to 8) (size 9 to 14) (size 15 to 20)
#    0.000    2.571    1.429    2.143    0.000    2.000 
#    0.000    5.000    0.000    1.714    0.000    0.000 
#    0.000    0.000    0.000    0.000    0.000    0.000 
#
# Total GULP energy -347056.583978 kJ/mol
# GULP energy per Si atom -12394.877999 kJ/mol
# Density = 1.768036 g / cm^3
# Si number density = 17.720695 Si / 1000 Ang^3
#
#
#
# Elastic Constant Matrix: (Units=GPa)
#
#
# Indices 1 2 3 4 5 6 
#
# 1 117.9320 42.9456 46.3827 0.0000 12.5768 0.0000
# 2 42.9456 58.5545 28.7161 0.0000 5.0882 0.0000
# 3 46.3827 28.7161 94.3327 0.0000 15.7071 0.0000
# 4 0.0000 0.0000 0.0000 14.5926 0.0000 3.7158
# 5 12.5768 5.0882 15.7071 0.0000 24.8076 0.0000
# 6 0.0000 0.0000 0.0000 3.7158 0.0000 33.0819
#
#
#
# Elastic Compliance Matrix: (Units=1/GPa)
#
#
# Indices 1 2 3 4 5 6 
#
# 1 0.012910 -0.007454 -0.003626 0.000000 -0.002721 0.000000
# 2 -0.007454 0.024381 -0.003972 0.000000 0.001293 0.000000
# 3 -0.003626 -0.003972 0.014701 0.000000 -0.006655 0.000000
# 4 0.000000 0.000000 0.000000 0.070545 0.000000 -0.007924
# 5 -0.002721 0.001293 -0.006655 0.000000 0.045638 0.000000
# 6 0.000000 0.000000 0.000000 -0.007924 0.000000 0.031118
#
#
# Mechanical properties :
#
#
# Convention : Reuss Voigt Hill
#
# Bulk Modulus (GPa) = 45.68725 56.32312 51.00518
# Shear Modulus (GPa) = 21.12445 24.68139 22.90292
#
# Velocity S-wave (km/s) = 3.45639 3.73607 3.59895
# Velocity P-wave (km/s) = 6.46272 7.10379 6.79082
#
# Compressibility (1/GPa) = 0.02188795
#
# Stress axis : x y z
#
# Youngs Moduli (GPa) = 77.45917 41.01594 68.02377
#
# Poissons Ratio (x) = 0.30574 0.24663
# Poissons Ratio (y) = 0.57739 0.27019
# Poissons Ratio (z) = 0.28084 0.16292
#
# Static dielectric constant tensor:
#      x y z
#    x 3.551490 0.000000 0.311920 
#    y 0.000000 3.227050 0.000000 
#    z 0.311920 0.000000 3.430350 
# 
# 
# High freq. dielectric constant tensor:
#      x y z
#    x 1.687430 0.000000 0.019530 
#    y 0.000000 1.677090 0.000000 
#    z 0.019530 0.000000 1.657880 
# 
# From -- ./inp_files/319332.got.cif
#   From: 2010.06.25/outbox.cif.g09.slc.cpg/sg12_160_cif.got.tgz:319332.got - 2010.06.28 00:19:55.
