data_PCOD8087887
_publ_section_title
;
Structure prediction by ZEFSAII (Michael W. Deem and Ramdas Pophale) SiO2 
 PCOD8087887
Probable space group: C 2/M
;
_chemical_formula_sum "Si O2"
_cell_formula_units_Z 56
_cell_length_a 19.069215
_cell_length_b 8.922226
_cell_length_c 23.341497
_cell_angle_alpha 90.000000
_cell_angle_beta 51.535118
_cell_angle_gamma 90.000000
_cell_volume 3109.501101
_symmetry_space_group_name_H-M "C 2/M"
_symmetry_group_IT_number 12
_symmetry_cell_setting 'monoclinic'
loop_
_space_group_symop_operation_xyz
x,y,z
-x,y,-z
-x,-y,-z
x,-y,z
1/2+x,1/2+y,z
1/2-x,1/2+y,-z
1/2-x,1/2-y,-z
1/2+x,1/2-y,z
loop_
_atom_site_type_symbol
_atom_site_label
_atom_site_fract_x
_atom_site_fract_y
_atom_site_fract_z
Si Si1 0.991409 0.327538 0.940917
Si Si2 0.100882 0.329522 0.782229
Si Si3 0.575873 0.321403 0.505267
Si Si4 0.769188 0.327015 0.375869
Si Si5 0.063195 0.676725 0.633660
Si Si6 0.343063 0.325171 0.939871
Si Si7 0.961585 0.827832 0.778404
O O1 0.961455 0.500000 0.960423
O O2 0.915487 0.240242 0.946234
O O3 0.087178 0.313055 0.857904
O O4 0.000000 0.258359 0.000000
O O5 0.072230 0.500000 0.778127
O O6 0.201147 0.301465 0.706150
O O7 0.039108 0.206109 0.784492
O O8 0.500000 0.264227 0.500000
O O9 0.576333 0.500000 0.507636
O O10 0.672221 0.252991 0.436124
O O11 0.553905 0.258046 0.578369
O O12 0.757473 0.500000 0.395666
O O13 0.846575 0.265784 0.379516
O O14 0.063253 0.500000 0.624614
O O15 0.975795 0.724018 0.715393
O O16 0.336136 0.500000 0.955428
O O17 0.369294 0.294438 0.859706
O O18 0.250000 0.250000 0.000000
O O19 0.967128 0.000000 0.756184
#
# Coordination Sequence:
#
# PCOD8087887 Si02
#       7
#     8   8   8   8   8   8   8
#     4   9  17  30  49  73 101 133 168 206 251 300
#     4   8  14  27  47  69  94 124 160 202 243 284
#     4  10  20  33  48  68  98 131 160 195 241 290
#     4   8  15  29  49  71  91 119 161 201 238 279
#     4  10  19  32  52  73  93 121 159 202 243 287
#     4  10  20  33  51  74 101 133 167 205 248 296
#     4   9  17  30  49  73  97 122 158 202 244 285
#
# _framework density 18.009319999999999
#
# number of rings (size 3 to 8) (size 9 to 14) (size 15 to 20)
#    0.000    2.857    0.000    2.571    0.000    2.286 
#    0.000    4.286    0.000    5.143    0.000    0.000 
#    0.000    0.000    0.000    0.000    0.000    0.000 
#
# Total GULP energy -346876.202152 kJ/mol
# GULP energy per Si atom -12388.435791 kJ/mol
# Density = 1.796833 g / cm^3
# Si number density = 18.009320 Si / 1000 Ang^3
#
#
#
# Elastic Constant Matrix: (Units=GPa)
#
#
# Indices 1 2 3 4 5 6 
#
# 1 81.5240 26.0809 70.3738 0.0000 7.7208 -0.0001
# 2 26.0809 37.0501 35.2601 0.0000 -3.4357 -0.0004
# 3 70.3738 35.2601 164.1946 0.0000 11.1132 0.0000
# 4 0.0000 0.0000 0.0000 24.2316 0.0000 4.4012
# 5 7.7208 -3.4357 11.1132 0.0000 26.3320 0.0000
# 6 -0.0001 -0.0004 0.0000 4.4012 0.0000 17.0638
#
#
#
# Elastic Compliance Matrix: (Units=1/GPa)
#
#
# Indices 1 2 3 4 5 6 
#
# 1 0.021642 -0.008949 -0.007047 0.000000 -0.004539 0.000000
# 2 -0.008949 0.039221 -0.005261 0.000000 0.009962 0.000001
# 3 -0.007047 -0.005261 0.010445 0.000000 -0.003029 0.000000
# 4 0.000000 0.000000 0.000000 0.043297 0.000000 -0.011167
# 5 -0.004539 0.009962 -0.003029 0.000000 0.041886 0.000000
# 6 0.000000 0.000001 0.000000 -0.011167 0.000000 0.061484
#
#
# Mechanical properties :
#
#
# Convention : Reuss Voigt Hill
#
# Bulk Modulus (GPa) = 34.72940 60.68871 47.70905
# Shear Modulus (GPa) = 18.51254 23.59574 21.05414
#
# Velocity S-wave (km/s) = 3.20963 3.62359 3.42287
# Velocity P-wave (km/s) = 5.74993 7.16093 6.49386
#
# Compressibility (1/GPa) = 0.02879405
#
# Stress axis : x y z
#
# Youngs Moduli (GPa) = 46.20574 25.49665 95.73620
#
# Poissons Ratio (x) = 0.22818 0.67464
# Poissons Ratio (y) = 0.41351 0.50367
# Poissons Ratio (z) = 0.32560 0.13414
#
# Static dielectric constant tensor:
#      x y z
#    x 3.027710 0.000000 -0.070960 
#    y 0.000000 3.193880 0.000000 
#    z -0.070960 0.000000 3.776490 
# 
# 
# High freq. dielectric constant tensor:
#      x y z
#    x 1.646550 0.000000 0.005880 
#    y 0.000000 1.685400 0.000000 
#    z 0.005880 0.000000 1.725390 
# 
# From -- ./inp_files/342218.got.cif
#   From: 2010.06.25/outbox.cif.g09.slc.cpg/sg12_172_cif.got.tgz:342218.got - 2010.06.28 00:19:55.
