data_PCOD8087992
_publ_section_title
;
Structure prediction by ZEFSAII (Michael W. Deem and Ramdas Pophale) SiO2 
 PCOD8087992
Probable space group: C 2/M
;
_chemical_formula_sum "Si O2"
_cell_formula_units_Z 64
_cell_length_a 17.852291
_cell_length_b 9.198147
_cell_length_c 20.472432
_cell_angle_alpha 90.000000
_cell_angle_beta 91.287852
_cell_angle_gamma 90.000000
_cell_volume 3360.887866
_symmetry_space_group_name_H-M "C 2/M"
_symmetry_group_IT_number 12
_symmetry_cell_setting 'monoclinic'
loop_
_space_group_symop_operation_xyz
x,y,z
-x,y,-z
-x,-y,-z
x,-y,z
1/2+x,1/2+y,z
1/2-x,1/2+y,-z
1/2-x,1/2-y,-z
1/2+x,1/2-y,z
loop_
_atom_site_type_symbol
_atom_site_label
_atom_site_fract_x
_atom_site_fract_y
_atom_site_fract_z
Si Si1 0.170152 0.668275 0.264072
Si Si2 0.157868 0.167509 0.764650
Si Si3 0.898407 0.830083 0.618511
Si Si4 0.915493 0.327518 0.866074
Si Si5 0.916347 0.669725 0.120666
Si Si6 0.427611 0.330805 0.365218
Si Si7 0.827256 0.329950 0.989498
Si Si8 0.411276 0.164243 0.491294
O O1 0.153548 0.500000 0.280211
O O2 0.255496 0.693289 0.247020
O O3 0.153150 0.765863 0.326091
O O4 0.119173 0.723349 0.203177
O O5 0.137098 0.255774 0.828168
O O6 0.109752 0.224056 0.702297
O O7 0.139759 0.000000 0.777765
O O8 0.875181 0.752217 0.550605
O O9 0.984427 0.798196 0.638083
O O10 0.882598 0.000000 0.610302
O O11 0.916871 0.500000 0.871961
O O12 0.999692 0.265553 0.873132
O O13 0.864715 0.267152 0.924228
O O14 0.916646 0.500000 0.136389
O O15 0.885274 0.702943 0.048433
O O16 0.411510 0.500000 0.377873
O O17 0.389126 0.242119 0.423294
O O18 0.809717 0.500000 0.983187
O O19 0.750000 0.250000 0.000000
O O20 0.500000 0.166337 0.500000
O O21 0.380004 0.000000 0.490608
#
# Coordination Sequence:
#
# PCOD8087992 Si02
#       8
#     8   8   8   8   8   8   8   8
#     4  10  20  34  52  73 100 136 174 210 253 308
#     4  10  21  36  53  75 106 140 170 208 261 312
#     4  10  19  32  52  76 103 134 168 211 259 305
#     4   9  18  34  55  77 103 137 175 214 256 302
#     4  10  20  34  55  80 103 133 176 219 254 299
#     4   9  18  33  52  75 103 135 170 208 255 308
#     4  10  20  35  55  79 108 140 173 211 258 309
#     4   9  17  30  51  78 104 131 168 213 256 302
#
# _framework density 19.042587999999999
#
# number of rings (size 3 to 8) (size 9 to 14) (size 15 to 20)
#    0.000    2.375    0.000    2.625    0.000    6.000 
#    0.000    1.875    0.000    1.500    0.000    0.000 
#    0.000    0.000    0.000    0.000    0.000    0.000 
#
# Total GULP energy -396896.527919 kJ/mol
# GULP energy per Si atom -12403.016497 kJ/mol
# Density = 1.899925 g / cm^3
# Si number density = 19.042588 Si / 1000 Ang^3
#
#
#
# Elastic Constant Matrix: (Units=GPa)
#
#
# Indices 1 2 3 4 5 6 
#
# 1 60.3372 24.4373 16.7988 0.0000 -11.6984 0.0000
# 2 24.4373 65.5009 44.4944 0.0000 -13.2180 0.0000
# 3 16.7988 44.4944 101.0483 0.0000 -29.8993 0.0000
# 4 0.0000 0.0000 0.0000 32.9180 0.0000 -4.0990
# 5 -11.6984 -13.2180 -29.8993 0.0000 24.5723 0.0000
# 6 0.0000 0.0000 0.0000 -4.0990 0.0000 22.8549
#
#
#
# Elastic Compliance Matrix: (Units=1/GPa)
#
#
# Indices 1 2 3 4 5 6 
#
# 1 0.020679 -0.007666 0.002548 0.000000 0.008822 0.000000
# 2 -0.007666 0.024624 -0.010514 0.000000 -0.003197 0.000000
# 3 0.002548 -0.010514 0.019982 0.000000 0.019871 0.000000
# 4 0.000000 0.000000 0.000000 0.031072 0.000000 0.005573
# 5 0.008822 -0.003197 0.019871 0.000000 0.067355 0.000000
# 6 0.000000 0.000000 0.000000 0.005573 0.000000 0.044754
#
#
# Mechanical properties :
#
#
# Convention : Reuss Voigt Hill
#
# Bulk Modulus (GPa) = 29.39360 44.26082 36.82721
# Shear Modulus (GPa) = 19.91470 25.47943 22.69707
#
# Velocity S-wave (km/s) = 3.23739 3.66187 3.45615
# Velocity P-wave (km/s) = 5.42618 6.41659 5.94206
#
# Compressibility (1/GPa) = 0.03402101
#
# Stress axis : x y z
#
# Youngs Moduli (GPa) = 48.35782 40.61087 50.04487
#
# Poissons Ratio (x) = 0.31131 -0.12750
# Poissons Ratio (y) = 0.37069 0.52619
# Poissons Ratio (z) = -0.12320 0.42699
#
# Static dielectric constant tensor:
#      x y z
#    x 3.475660 0.000000 0.059570 
#    y 0.000000 3.359160 0.000000 
#    z 0.059570 0.000000 3.646060 
# 
# 
# High freq. dielectric constant tensor:
#      x y z
#    x 1.732390 0.000000 -0.000520 
#    y 0.000000 1.722460 0.000000 
#    z -0.000520 0.000000 1.756290 
# 
# From -- ./inp_files/314036.got.cif
#   From: 2010.06.25/outbox.cif.g09.slc.cpg/sg12_158_cif.got.tgz:314036.got - 2010.06.28 00:19:55.
