data_PCOD8087627
_publ_section_title
;
Structure prediction by ZEFSAII (Michael W. Deem and Ramdas Pophale) SiO2 
 PCOD8087627
Probable space group: C 2/M
;
_chemical_formula_sum "Si O2"
_cell_formula_units_Z 64
_cell_length_a 5.165278
_cell_length_b 17.924536
_cell_length_c 37.101892
_cell_angle_alpha 90.000000
_cell_angle_beta 93.701725
_cell_angle_gamma 90.000000
_cell_volume 3427.919809
_symmetry_space_group_name_H-M "C 2/M"
_symmetry_group_IT_number 12
_symmetry_cell_setting 'monoclinic'
loop_
_space_group_symop_operation_xyz
x,y,z
-x,y,-z
-x,-y,-z
x,-y,z
1/2+x,1/2+y,z
1/2-x,1/2+y,-z
1/2-x,1/2-y,-z
1/2+x,1/2-y,z
loop_
_atom_site_type_symbol
_atom_site_label
_atom_site_fract_x
_atom_site_fract_y
_atom_site_fract_z
Si Si1 0.611738 0.702596 0.209461
Si Si2 0.740285 0.089050 0.478969
Si Si3 0.966300 0.297439 0.958496
Si Si4 0.810594 0.088417 0.645680
Si Si5 0.028453 0.913002 0.148140
Si Si6 0.291444 0.088371 0.602108
Si Si7 0.376129 0.297789 0.707457
Si Si8 0.007458 0.413001 0.102851
O O1 0.384480 0.761897 0.200312
O O2 0.565196 0.628890 0.185980
O O3 0.616204 0.677131 0.250961
O O4 0.500000 0.119403 0.500000
O O5 0.721278 0.121600 0.438341
O O6 0.000000 0.119468 0.500000
O O7 0.740289 0.000000 0.478082
O O8 0.685120 0.261874 0.949382
O O9 0.990927 0.371098 0.934984
O O10 0.000000 0.322989 0.000000
O O11 0.548832 0.116733 0.624311
O O12 0.835970 0.127058 0.684543
O O13 0.042900 0.115364 0.622116
O O14 0.813121 0.000000 0.652258
O O15 0.251556 0.889715 0.122251
O O16 0.754571 0.889705 0.128739
O O17 0.041655 0.000000 0.157412
O O18 0.296252 0.000000 0.599610
O O19 0.644494 0.259908 0.698140
O O20 0.012118 0.500000 0.093584
#
# Coordination Sequence:
#
# PCOD8087627 Si02
#       8
#     8   8   8   8   8   8   8   8
#     4  10  21  36  55  78 103 134 170 208 253 302
#     4   9  15  23  37  59  92 131 160 189 242 300
#     4  10  21  36  54  78 106 137 177 222 263 305
#     4  10  19  32  51  73  99 132 166 203 250 298
#     4  10  21  36  54  79 109 137 171 214 255 304
#     4   9  17  28  43  68 100 129 163 206 246 293
#     4  10  21  37  54  75 104 133 167 211 251 296
#     4  10  21  36  54  78 107 139 173 211 258 308
#
# _framework density 18.670214999999999
#
# number of rings (size 3 to 8) (size 9 to 14) (size 15 to 20)
#    0.000    2.250    0.000    3.000    0.000    6.750 
#    0.000    0.000    0.000   13.500    0.000    0.000 
#    0.000   35.000    0.000    0.000    0.000    0.000 
#
# Total GULP energy -396903.847393 kJ/mol
# GULP energy per Si atom -12403.245231 kJ/mol
# Density = 1.862772 g / cm^3
# Si number density = 18.670215 Si / 1000 Ang^3
#
#
#
# Elastic Constant Matrix: (Units=GPa)
#
#
# Indices 1 2 3 4 5 6 
#
# 1 112.9467 16.2472 32.6528 0.0000 4.4549 0.0000
# 2 16.2472 45.6801 58.0122 0.0000 4.4567 0.0000
# 3 32.6528 58.0122 116.4483 0.0000 5.0835 0.0000
# 4 0.0000 0.0000 0.0000 23.6327 0.0000 1.9389
# 5 4.4549 4.4567 5.0835 0.0000 24.9321 0.0000
# 6 0.0000 0.0000 0.0000 1.9389 0.0000 10.5422
#
#
#
# Elastic Compliance Matrix: (Units=1/GPa)
#
#
# Indices 1 2 3 4 5 6 
#
# 1 0.009670 0.000149 -0.002733 0.000000 -0.001197 0.000000
# 2 0.000149 0.060136 -0.029795 0.000000 -0.004701 0.000000
# 3 -0.002733 -0.029795 0.024158 0.000000 0.000889 0.000000
# 4 0.000000 0.000000 0.000000 0.042962 0.000000 -0.007902
# 5 -0.001197 -0.004701 0.000889 0.000000 0.040982 0.000000
# 6 0.000000 0.000000 0.000000 -0.007902 0.000000 0.096311
#
#
# Mechanical properties :
#
#
# Convention : Reuss Voigt Hill
#
# Bulk Modulus (GPa) = 34.24092 54.32218 44.28155
# Shear Modulus (GPa) = 14.33847 23.03225 18.68536
#
# Velocity S-wave (km/s) = 2.77426 3.51613 3.16699
# Velocity P-wave (km/s) = 5.35180 6.75596 6.09445
#
# Compressibility (1/GPa) = 0.02920483
#
# Stress axis : x y z
#
# Youngs Moduli (GPa) = 103.41531 16.62910 41.39363
#
# Poissons Ratio (x) = -0.00247 0.11314
# Poissons Ratio (y) = -0.01537 1.23331
# Poissons Ratio (z) = 0.28266 0.49546
#
# Static dielectric constant tensor:
#      x y z
#    x 3.833460 0.000000 -0.001500 
#    y 0.000000 2.990610 0.000000 
#    z -0.001500 0.000000 3.486070 
# 
# 
# High freq. dielectric constant tensor:
#      x y z
#    x 1.749400 0.000000 0.000270 
#    y 0.000000 1.687910 0.000000 
#    z 0.000270 0.000000 1.732600 
# 
# From -- ./inp_files/371604.got.cif
#   From: 2010.06.25/outbox.cif.g09.slc.cpg/sg12_186_cif.got.tgz:371604.got - 2010.06.28 00:19:55.
