data_PCOD8087103
_publ_section_title
;
Structure prediction by ZEFSAII (Michael W. Deem and Ramdas Pophale) SiO2 
 PCOD8087103
Probable space group: C 2/M
;
_chemical_formula_sum "Si O2"
_cell_formula_units_Z 56
_cell_length_a 19.697253
_cell_length_b 13.633989
_cell_length_c 15.939872
_cell_angle_alpha 90.000000
_cell_angle_beta 43.749661
_cell_angle_gamma 90.000000
_cell_volume 2960.132368
_symmetry_space_group_name_H-M "C 2/M"
_symmetry_group_IT_number 12
_symmetry_cell_setting 'monoclinic'
loop_
_space_group_symop_operation_xyz
x,y,z
-x,y,-z
-x,-y,-z
x,-y,z
1/2+x,1/2+y,z
1/2-x,1/2+y,-z
1/2-x,1/2-y,-z
1/2+x,1/2-y,z
loop_
_atom_site_type_symbol
_atom_site_label
_atom_site_fract_x
_atom_site_fract_y
_atom_site_fract_z
Si Si1 0.260337 0.725941 0.356793
Si Si2 0.340478 0.884122 0.406388
Si Si3 0.769253 0.387146 0.048495
Si Si4 0.943262 0.110465 0.133273
Si Si5 0.566657 0.886121 0.225557
Si Si6 0.646654 0.609396 0.008657
Si Si7 0.212011 0.724105 0.217163
O O1 0.282426 0.829088 0.383098
O O2 0.208046 0.647538 0.462940
O O3 0.364346 0.685488 0.235369
O O4 0.192453 0.737260 0.334182
O O5 0.454696 0.853279 0.309553
O O6 0.327104 0.000000 0.404180
O O7 0.747587 0.500000 0.088300
O O8 0.694919 0.339384 0.046239
O O9 0.746565 0.330238 0.153729
O O10 0.878617 0.372208 0.912992
O O11 0.030125 0.111738 0.124748
O O12 0.901001 0.000000 0.158658
O O13 0.000000 0.146371 0.000000
O O14 0.616711 0.821323 0.255139
O O15 0.571178 0.000000 0.249830
O O16 0.688868 0.500000 0.969493
O O17 0.691014 0.656260 0.883629
#
# Coordination Sequence:
#
# PCOD8087103 Si02
#       7
#     8   8   8   8   8   8   8
#     4  11  24  37  58  83 109 146 192 233 281 337
#     4  10  24  44  59  77 108 152 196 237 277 331
#     4   9  19  33  52  83 116 148 178 215 275 337
#     4  10  19  31  53  84 115 142 173 228 285 333
#     4   9  19  36  60  84 113 148 186 226 275 331
#     4   9  17  30  49  80 113 142 174 214 273 330
#     4  11  20  32  56  86 113 143 177 235 278 328
#
# _framework density 18.918071999999999
#
# number of rings (size 3 to 8) (size 9 to 14) (size 15 to 20)
#    0.000    2.143    1.429    3.429    4.000    2.857 
#    0.000    1.429    0.000    3.000    0.000    3.000 
#    0.000    0.000    0.000    0.000    0.000    0.000 
#
# Total GULP energy -347005.774976 kJ/mol
# GULP energy per Si atom -12393.063392 kJ/mol
# Density = 1.887501 g / cm^3
# Si number density = 18.918072 Si / 1000 Ang^3
#
#
#
# Elastic Constant Matrix: (Units=GPa)
#
#
# Indices 1 2 3 4 5 6 
#
# 1 64.7465 31.9788 23.5762 0.0000 9.6451 0.0000
# 2 31.9788 84.3226 36.4427 0.0000 9.0791 0.0000
# 3 23.5762 36.4427 68.2666 0.0000 12.5549 0.0000
# 4 0.0000 0.0000 0.0000 24.8942 0.0000 -2.8455
# 5 9.6451 9.0791 12.5549 0.0000 33.4617 0.0000
# 6 0.0000 0.0000 0.0000 -2.8455 0.0000 20.1225
#
#
#
# Elastic Compliance Matrix: (Units=1/GPa)
#
#
# Indices 1 2 3 4 5 6 
#
# 1 0.019950 -0.005856 -0.003221 0.000000 -0.002953 0.000000
# 2 -0.005856 0.017178 -0.007090 0.000000 -0.000313 0.000000
# 3 -0.003221 -0.007090 0.020431 0.000000 -0.004814 0.000000
# 4 0.000000 0.000000 0.000000 0.040830 0.000000 0.005774
# 5 -0.002953 -0.000313 -0.004814 0.000000 0.032627 0.000000
# 6 0.000000 0.000000 0.000000 0.005774 0.000000 0.050512
#
#
# Mechanical properties :
#
#
# Convention : Reuss Voigt Hill
#
# Bulk Modulus (GPa) = 39.64290 44.59234 42.11762
# Shear Modulus (GPa) = 22.49519 24.05155 23.27337
#
# Velocity S-wave (km/s) = 3.45205 3.56947 3.51125
# Velocity P-wave (km/s) = 6.07367 6.37265 6.22495
#
# Compressibility (1/GPa) = 0.02522520
#
# Stress axis : x y z
#
# Youngs Moduli (GPa) = 50.12580 58.21399 48.94540
#
# Poissons Ratio (x) = 0.34090 0.15763
# Poissons Ratio (y) = 0.29354 0.34703
# Poissons Ratio (z) = 0.16143 0.41275
#
# Static dielectric constant tensor:
#      x y z
#    x 3.595780 0.000000 -0.039650 
#    y 0.000000 3.416030 0.000000 
#    z -0.039650 0.000000 3.373540 
# 
# 
# High freq. dielectric constant tensor:
#      x y z
#    x 1.735590 0.000000 -0.005980 
#    y 0.000000 1.737370 0.000000 
#    z -0.005980 0.000000 1.713550 
# 
# From -- ./inp_files/233682.got.cif
#   From: 2010.06.25/outbox.cif.g09.slc.cpg/sg12_117_cif.got.tgz:233682.got - 2010.06.28 00:19:55.
