data_PCOD8087501
_publ_section_title
;
Structure prediction by ZEFSAII (Michael W. Deem and Ramdas Pophale) SiO2 
 PCOD8087501
Probable space group: C 2/M
;
_chemical_formula_sum "Si O2"
_cell_formula_units_Z 48
_cell_length_a 24.707498
_cell_length_b 8.860794
_cell_length_c 12.103100
_cell_angle_alpha 90.000000
_cell_angle_beta 81.997235
_cell_angle_gamma 90.000000
_cell_volume 2623.903506
_symmetry_space_group_name_H-M "C 2/M"
_symmetry_group_IT_number 12
_symmetry_cell_setting 'monoclinic'
loop_
_space_group_symop_operation_xyz
x,y,z
-x,y,-z
-x,-y,-z
x,-y,z
1/2+x,1/2+y,z
1/2-x,1/2+y,-z
1/2-x,1/2-y,-z
1/2+x,1/2-y,z
loop_
_atom_site_type_symbol
_atom_site_label
_atom_site_fract_x
_atom_site_fract_y
_atom_site_fract_z
Si Si1 0.062048 0.834395 0.945666
Si Si2 0.532431 0.177616 0.742692
Si Si3 0.583182 0.678850 0.178397
Si Si4 0.840877 0.678124 0.669633
Si Si5 0.881932 0.821797 0.430808
Si Si6 0.769625 0.826780 0.385878
O O1 0.067040 0.717739 0.843474
O O2 0.082954 0.000000 0.900011
O O3 0.094485 0.779999 0.046012
O O4 0.000000 0.849859 0.000000
O O5 0.472317 0.247320 0.761436
O O6 0.562923 0.244965 0.627728
O O7 0.527773 0.000000 0.732508
O O8 0.578200 0.500000 0.195383
O O9 0.634146 0.744844 0.229851
O O10 0.853093 0.500000 0.665937
O O11 0.867169 0.750671 0.552933
O O12 0.774904 0.712576 0.696739
O O13 0.833884 0.786113 0.352366
O O14 0.891293 0.000000 0.443029
O O15 0.750000 0.750000 0.500000
O O16 0.765079 0.000000 0.414929
#
# Coordination Sequence:
#
# PCOD8087501 Si02
#       6
#     8   8   8   8   8   8
#     4   8  16  32  51  69  92 124 162 198 233 283
#     4  11  21  32  49  74 100 126 159 201 244 281
#     4  10  20  34  51  72  98 130 163 193 235 291
#     4  10  19  32  50  75 102 125 157 201 243 281
#     4  10  19  33  51  71  98 132 164 193 235 290
#     4   8  16  30  49  70  93 124 160 197 235 279
#
# _framework density 18.293355999999999
#
# number of rings (size 3 to 8) (size 9 to 14) (size 15 to 20)
#    0.000    2.500    0.000    4.000    0.000    5.667 
#    0.000    3.333    0.000    1.000    0.000    0.000 
#    0.000    0.000    0.000    0.000    0.000    0.000 
#
# Total GULP energy -297316.572195 kJ/mol
# GULP energy per Si atom -12388.190508 kJ/mol
# Density = 1.825172 g / cm^3
# Si number density = 18.293356 Si / 1000 Ang^3
#
#
#
# Elastic Constant Matrix: (Units=GPa)
#
#
# Indices 1 2 3 4 5 6 
#
# 1 56.6770 20.0306 9.8798 0.0000 28.3875 0.0000
# 2 20.0306 85.4059 13.5238 0.0000 13.3102 0.0000
# 3 9.8798 13.5238 30.9364 0.0000 19.7663 0.0000
# 4 0.0000 0.0000 0.0000 26.2908 0.0000 4.3033
# 5 28.3875 13.3102 19.7663 0.0000 28.3985 0.0000
# 6 0.0000 0.0000 0.0000 4.3033 0.0000 24.0189
#
#
#
# Elastic Compliance Matrix: (Units=1/GPa)
#
#
# Indices 1 2 3 4 5 6 
#
# 1 0.046421 -0.005453 0.028047 0.000000 -0.063369 0.000000
# 2 -0.005453 0.013443 -0.006469 0.000000 0.003653 0.000000
# 3 0.028047 -0.006469 0.075946 0.000000 -0.077865 0.000000
# 4 0.000000 0.000000 0.000000 0.039185 0.000000 -0.007020
# 5 -0.063369 0.003653 -0.077865 0.000000 0.151043 0.000000
# 6 0.000000 0.000000 0.000000 -0.007020 0.000000 0.042892
#
#
# Mechanical properties :
#
#
# Convention : Reuss Voigt Hill
#
# Bulk Modulus (GPa) = 5.95020 28.87640 17.41330
# Shear Modulus (GPa) = 12.73242 24.38064 18.55653
#
# Velocity S-wave (km/s) = 2.64107 3.65466 3.18840
# Velocity P-wave (km/s) = 3.54402 5.79898 4.80563
#
# Compressibility (1/GPa) = 0.16806147
#
# Stress axis : x y z
#
# Youngs Moduli (GPa) = 21.54193 74.38972 13.16726
#
# Poissons Ratio (x) = 0.40562 -0.36931
# Poissons Ratio (y) = 0.11746 0.08518
# Poissons Ratio (z) = -0.60419 0.48122
#
# Static dielectric constant tensor:
#      x y z
#    x 4.679540 0.000000 0.278060 
#    y 0.000000 3.395930 0.000000 
#    z 0.278060 0.000000 3.348710 
# 
# 
# High freq. dielectric constant tensor:
#      x y z
#    x 1.702330 0.000000 0.019100 
#    y 0.000000 1.719200 0.000000 
#    z 0.019100 0.000000 1.682540 
# 
# From -- ./inp_files/172199.got.cif
#   From: 2010.06.25/outbox.cif.g09.slc.cpg/sg12_87_cif.got.tgz:172199.got - 2010.06.28 00:19:55.
