data_PCOD8087265
_publ_section_title
;
Structure prediction by ZEFSAII (Michael W. Deem and Ramdas Pophale) SiO2 
 PCOD8087265
Probable space group: C 2/M
;
_chemical_formula_sum "Si O2"
_cell_formula_units_Z 56
_cell_length_a 8.977777
_cell_length_b 19.454604
_cell_length_c 23.624319
_cell_angle_alpha 90.000000
_cell_angle_beta 45.480921
_cell_angle_gamma 90.000000
_cell_volume 2942.052373
_symmetry_space_group_name_H-M "C 2/M"
_symmetry_group_IT_number 12
_symmetry_cell_setting 'monoclinic'
loop_
_space_group_symop_operation_xyz
x,y,z
-x,y,-z
-x,-y,-z
x,-y,z
1/2+x,1/2+y,z
1/2-x,1/2+y,-z
1/2-x,1/2-y,-z
1/2+x,1/2-y,z
loop_
_atom_site_type_symbol
_atom_site_label
_atom_site_fract_x
_atom_site_fract_y
_atom_site_fract_z
Si Si1 0.247812 0.701723 0.426124
Si Si2 0.285478 0.351543 0.529333
Si Si3 0.569629 0.688011 0.245257
Si Si4 0.534004 0.169279 0.779031
Si Si5 0.963355 0.922399 0.185854
Si Si6 0.978875 0.576500 0.320000
Si Si7 0.144092 0.919476 0.909371
O O1 0.333903 0.648382 0.449670
O O2 0.315254 0.779147 0.423507
O O3 0.350700 0.681618 0.338696
O O4 0.000000 0.696283 0.500000
O O5 0.500000 0.370898 0.500000
O O6 0.122594 0.409682 0.591684
O O7 0.572246 0.759442 0.211093
O O8 0.768731 0.683681 0.233359
O O9 0.591273 0.627870 0.192916
O O10 0.613067 0.128912 0.702239
O O11 0.357711 0.123780 0.857178
O O12 0.722249 0.913830 0.264820
O O13 0.986298 0.902893 0.113258
O O14 0.043244 0.000000 0.175632
O O15 0.926825 0.500000 0.312892
O O16 0.205325 0.000000 0.893889
O O17 0.000000 0.898336 0.000000
#
# Coordination Sequence:
#
# PCOD8087265 Si02
#       7
#     8   8   8   8   8   8   8
#     4  10  21  32  53  75 107 149 200 248 290 343
#     4  10  19  32  48  74 103 142 194 244 288 339
#     4  12  23  37  59  84 120 157 194 254 290 340
#     4  11  22  36  57  89 115 151 199 234 292 348
#     4   9  20  37  58  84 113 151 191 232 291 351
#     4  10  19  35  56  77 112 150 191 245 296 352
#     4   9  19  41  69  92 119 153 187 227 281 352
#
# _framework density 19.034331000000002
#
# number of rings (size 3 to 8) (size 9 to 14) (size 15 to 20)
#    0.000    1.857    1.429    4.714    4.000    1.429 
#    0.000    4.286    0.000    5.143    0.000    0.000 
#    0.000    0.000    0.000    0.000    0.000    0.000 
#
# Total GULP energy -347068.621550 kJ/mol
# GULP energy per Si atom -12395.307912 kJ/mol
# Density = 1.899101 g / cm^3
# Si number density = 19.034331 Si / 1000 Ang^3
#
#
#
# Elastic Constant Matrix: (Units=GPa)
#
#
# Indices 1 2 3 4 5 6 
#
# 1 86.1658 44.4762 14.6254 -0.0011 1.3652 0.0022
# 2 44.4762 95.8574 27.9290 0.0038 3.5770 0.0006
# 3 14.6254 27.9290 107.9192 0.0099 5.0534 0.0062
# 4 -0.0011 0.0038 0.0099 29.0745 0.0017 2.3388
# 5 1.3652 3.5770 5.0534 0.0017 19.5787 -0.0054
# 6 0.0022 0.0006 0.0062 2.3388 -0.0054 24.4028
#
#
#
# Elastic Compliance Matrix: (Units=1/GPa)
#
#
# Indices 1 2 3 4 5 6 
#
# 1 0.015268 -0.007017 -0.000267 0.000002 0.000286 -0.000001
# 2 -0.007017 0.014542 -0.002744 -0.000001 -0.001459 0.000001
# 3 -0.000267 -0.002744 0.010110 -0.000003 -0.002090 -0.000003
# 4 0.000002 -0.000001 -0.000003 0.034662 -0.000003 -0.003322
# 5 0.000286 -0.001459 -0.002090 -0.000003 0.051862 0.000012
# 6 -0.000001 0.000001 -0.000003 -0.003322 0.000012 0.041297
#
#
# Mechanical properties :
#
#
# Convention : Reuss Voigt Hill
#
# Bulk Modulus (GPa) = 50.34013 51.55596 50.94804
# Shear Modulus (GPa) = 25.71766 28.13866 26.92816
#
# Velocity S-wave (km/s) = 3.67975 3.84905 3.76535
# Velocity P-wave (km/s) = 6.67521 6.84822 6.76227
#
# Compressibility (1/GPa) = 0.01986487
#
# Stress axis : x y z
#
# Youngs Moduli (GPa) = 65.49500 68.76620 98.90886
#
# Poissons Ratio (x) = 0.48255 0.02636
# Poissons Ratio (y) = 0.45960 0.27142
# Poissons Ratio (z) = 0.01746 0.18870
#
# Static dielectric constant tensor:
#      x y z
#    x 3.340410 -0.000010 0.191990 
#    y -0.000010 3.518340 0.000010 
#    z 0.191990 0.000010 3.487480 
# 
# 
# High freq. dielectric constant tensor:
#      x y z
#    x 1.730530 0.000000 0.010540 
#    y 0.000000 1.734340 0.000000 
#    z 0.010540 0.000000 1.731950 
# 
# From -- ./inp_files/257685.got.cif
#   From: 2010.06.25/outbox.cif.g09.slc.cpg/sg12_129_cif.got.tgz:257685.got - 2010.06.28 00:19:55.
