data_PCOD8087082
_publ_section_title
;
Structure prediction by ZEFSAII (Michael W. Deem and Ramdas Pophale) SiO2 
 PCOD8087082
Probable space group: C 2/M
;
_chemical_formula_sum "Si O2"
_cell_formula_units_Z 64
_cell_length_a 24.396215
_cell_length_b 9.164073
_cell_length_c 16.185190
_cell_angle_alpha 90.000000
_cell_angle_beta 87.879914
_cell_angle_gamma 90.000000
_cell_volume 3616.024896
_symmetry_space_group_name_H-M "C 2/M"
_symmetry_group_IT_number 12
_symmetry_cell_setting 'monoclinic'
loop_
_space_group_symop_operation_xyz
x,y,z
-x,y,-z
-x,-y,-z
x,-y,z
1/2+x,1/2+y,z
1/2-x,1/2+y,-z
1/2-x,1/2-y,-z
1/2+x,1/2-y,z
loop_
_atom_site_type_symbol
_atom_site_label
_atom_site_fract_x
_atom_site_fract_y
_atom_site_fract_z
Si Si1 0.007650 0.172551 0.865921
Si Si2 0.435090 0.829454 0.276444
Si Si3 0.201501 0.826998 0.955259
Si Si4 0.316941 0.167405 0.210926
Si Si5 0.942435 0.671911 0.464883
Si Si6 0.234671 0.666142 0.617501
Si Si7 0.416992 0.671839 0.991408
Si Si8 0.836685 0.169337 0.506798
O O1 0.017398 0.249507 0.777976
O O2 0.948002 0.220274 0.905605
O O3 0.011515 0.000000 0.852464
O O4 0.052928 0.232773 0.928411
O O5 0.375668 0.787220 0.244497
O O6 0.439533 0.775723 0.370263
O O7 0.446279 0.000000 0.270169
O O8 0.199491 0.774853 0.861281
O O9 0.209620 0.000000 0.956468
O O10 0.250000 0.750000 0.000000
O O11 0.145966 0.777564 0.005613
O O12 0.271029 0.189401 0.284214
O O13 0.317564 0.000000 0.179558
O O14 0.933973 0.500000 0.473399
O O15 0.893951 0.748846 0.519065
O O16 0.000000 0.722274 0.500000
O O17 0.218137 0.500000 0.594753
O O18 0.192837 0.772002 0.573565
O O19 0.297398 0.698402 0.587976
O O20 0.421901 0.500000 0.998429
O O21 0.848827 0.000000 0.493281
#
# Coordination Sequence:
#
# PCOD8087082 Si02
#       8
#     8   8   8   8   8   8   8   8
#     4   9  16  31  54  78 101 131 169 214 259 305
#     4  10  19  32  52  80 107 135 174 219 264 309
#     4  11  22  37  55  78 108 142 178 215 262 319
#     4  10  19  34  55  78 107 140 177 219 263 313
#     4  10  21  38  56  73 105 151 183 210 265 332
#     4   9  18  34  54  78 109 143 175 216 271 325
#     4   8  16  31  52  75 102 134 170 207 254 311
#     4  10  19  31  53  82 109 137 177 226 268 310
#
# _framework density 17.698993000000002
#
# number of rings (size 3 to 8) (size 9 to 14) (size 15 to 20)
#    0.000    2.375    2.500    1.500    0.000    1.750 
#    0.000    3.750    0.000    4.500    0.000    0.000 
#    0.000    0.000    0.000    0.000    0.000    0.000 
#
# Total GULP energy -396766.825650 kJ/mol
# GULP energy per Si atom -12398.963302 kJ/mol
# Density = 1.765871 g / cm^3
# Si number density = 17.698993 Si / 1000 Ang^3
#
#
#
# Elastic Constant Matrix: (Units=GPa)
#
#
# Indices 1 2 3 4 5 6 
#
# 1 144.5904 53.3621 67.7546 0.0000 -9.8648 0.0000
# 2 53.3621 55.7235 40.2783 0.0000 -4.8127 0.0000
# 3 67.7546 40.2783 100.6624 0.0000 -10.7233 0.0000
# 4 0.0000 0.0000 0.0000 28.4377 0.0000 -3.8606
# 5 -9.8648 -4.8127 -10.7233 0.0000 31.3765 0.0000
# 6 0.0000 0.0000 0.0000 -3.8606 0.0000 27.1563
#
#
#
# Elastic Compliance Matrix: (Units=1/GPa)
#
#
# Indices 1 2 3 4 5 6 
#
# 1 0.012283 -0.008129 -0.004915 0.000000 0.000935 0.000000
# 2 -0.008129 0.030634 -0.006805 0.000000 -0.000183 0.000000
# 3 -0.004915 -0.006805 0.016283 0.000000 0.002976 0.000000
# 4 0.000000 0.000000 0.000000 0.035857 0.000000 0.005098
# 5 0.000935 -0.000183 0.002976 0.000000 0.033154 0.000000
# 6 0.000000 0.000000 0.000000 0.005098 0.000000 0.037549
#
#
# Mechanical properties :
#
#
# Convention : Reuss Voigt Hill
#
# Bulk Modulus (GPa) = 51.28233 69.30737 60.29485
# Shear Modulus (GPa) = 23.58950 26.69950 25.14450
#
# Velocity S-wave (km/s) = 3.65474 3.88820 3.77327
# Velocity P-wave (km/s) = 6.84449 7.70723 7.28864
#
# Compressibility (1/GPa) = 0.01949989
#
# Stress axis : x y z
#
# Youngs Moduli (GPa) = 81.41113 32.64384 61.41452
#
# Poissons Ratio (x) = 0.26536 0.30188
# Poissons Ratio (y) = 0.66179 0.41795
# Poissons Ratio (z) = 0.40017 0.22216
#
# Static dielectric constant tensor:
#      x y z
#    x 3.521950 0.000000 -0.236080 
#    y 0.000000 3.145600 0.000000 
#    z -0.236080 0.000000 3.289880 
# 
# 
# High freq. dielectric constant tensor:
#      x y z
#    x 1.681000 0.000000 -0.023970 
#    y 0.000000 1.673270 0.000000 
#    z -0.023970 0.000000 1.674320 
# 
# From -- ./inp_files/287662.got.cif
#   From: 2010.06.25/outbox.cif.g09.slc.cpg/sg12_144_cif.got.tgz:287662.got - 2010.06.28 00:19:55.
