data_PCOD8087317
_publ_section_title
;
Structure prediction by ZEFSAII (Michael W. Deem and Ramdas Pophale) SiO2 
 PCOD8087317
Probable space group: C 2/M
;
_chemical_formula_sum "Si O2"
_cell_formula_units_Z 64
_cell_length_a 30.094344
_cell_length_b 9.095624
_cell_length_c 14.808044
_cell_angle_alpha 90.000000
_cell_angle_beta 101.046307
_cell_angle_gamma 90.000000
_cell_volume 3978.261049
_symmetry_space_group_name_H-M "C 2/M"
_symmetry_group_IT_number 12
_symmetry_cell_setting 'monoclinic'
loop_
_space_group_symop_operation_xyz
x,y,z
-x,y,-z
-x,-y,-z
x,-y,z
1/2+x,1/2+y,z
1/2-x,1/2+y,-z
1/2-x,1/2-y,-z
1/2+x,1/2-y,z
loop_
_atom_site_type_symbol
_atom_site_label
_atom_site_fract_x
_atom_site_fract_y
_atom_site_fract_z
Si Si1 0.132547 0.825664 0.755389
Si Si2 0.055605 0.174037 0.426429
Si Si3 0.316417 0.170951 0.075174
Si Si4 0.290391 0.669354 0.691213
Si Si5 0.044196 0.826851 0.623882
Si Si6 0.282958 0.330853 0.896080
Si Si7 0.187128 0.329074 0.621664
Si Si8 0.856472 0.327381 0.585200
O O1 0.143865 0.754011 0.855967
O O2 0.081238 0.775469 0.711324
O O3 0.166328 0.769552 0.691842
O O4 0.137180 0.000000 0.764064
O O5 0.057603 0.233922 0.530218
O O6 0.094346 0.254249 0.384511
O O7 0.006476 0.221475 0.366749
O O8 0.063372 0.000000 0.422906
O O9 0.269739 0.204758 0.108763
O O10 0.327994 0.000000 0.076704
O O11 0.314216 0.231358 0.972397
O O12 0.302691 0.500000 0.677754
O O13 0.294817 0.707510 0.798355
O O14 0.240269 0.704114 0.636113
O O15 0.325152 0.772503 0.653527
O O16 0.044283 0.000000 0.612977
O O17 0.292699 0.500000 0.923334
O O18 0.178450 0.500000 0.641872
O O19 0.165398 0.281508 0.518595
O O20 0.861844 0.500000 0.595895
#
# Coordination Sequence:
#
# PCOD8087317 Si02
#       8
#     8   8   8   8   8   8   8   8
#     4  11  19  29  49  75  98 126 163 198 237 286
#     4   9  16  32  51  67  92 127 164 199 239 282
#     4  10  19  32  49  70  99 127 154 196 246 290
#     4  10  20  35  51  65  92 133 171 201 234 277
#     4   8  16  29  49  72  93 122 163 203 234 281
#     4   9  18  33  50  69  92 124 165 202 234 280
#     4  10  20  34  46  65  99 133 165 201 235 277
#     4  11  22  32  46  71 100 128 165 205 241 282
#
# _framework density 16.087430000000001
#
# number of rings (size 3 to 8) (size 9 to 14) (size 15 to 20)
#    0.000    2.250    2.500    2.250    0.000    2.000 
#    0.000    2.500    0.000    0.000    0.000    0.875 
#    0.000    7.000    0.000    0.000    0.000    0.000 
#
# Total GULP energy -396807.574344 kJ/mol
# GULP energy per Si atom -12400.236698 kJ/mol
# Density = 1.605081 g / cm^3
# Si number density = 16.087430 Si / 1000 Ang^3
#
#
#
# Elastic Constant Matrix: (Units=GPa)
#
#
# Indices 1 2 3 4 5 6 
#
# 1 100.0166 40.4947 45.4606 0.0000 11.5515 0.0000
# 2 40.4947 60.6988 38.6812 0.0000 7.2660 0.0000
# 3 45.4606 38.6812 79.4238 0.0000 14.9113 0.0000
# 4 0.0000 0.0000 0.0000 26.5956 0.0000 -1.0536
# 5 11.5515 7.2660 14.9113 0.0000 21.9723 0.0000
# 6 0.0000 0.0000 0.0000 -1.0536 0.0000 22.4329
#
#
#
# Elastic Compliance Matrix: (Units=1/GPa)
#
#
# Indices 1 2 3 4 5 6 
#
# 1 0.015273 -0.006697 -0.005030 0.000000 -0.002402 0.000000
# 2 -0.006697 0.026825 -0.009428 0.000000 0.001048 0.000000
# 3 -0.005030 -0.009428 0.021751 0.000000 -0.008999 0.000000
# 4 0.000000 0.000000 0.000000 0.037670 0.000000 0.001769
# 5 -0.002402 0.001048 -0.008999 0.000000 0.052535 0.000000
# 6 0.000000 0.000000 0.000000 0.001769 0.000000 0.044661
#
#
# Mechanical properties :
#
#
# Convention : Reuss Voigt Hill
#
# Bulk Modulus (GPa) = 46.42525 54.37913 50.40219
# Shear Modulus (GPa) = 20.14468 21.90033 21.02250
#
# Velocity S-wave (km/s) = 3.54248 3.69363 3.61884
# Velocity P-wave (km/s) = 6.75670 7.21569 6.98996
#
# Compressibility (1/GPa) = 0.02154000
#
# Stress axis : x y z
#
# Youngs Moduli (GPa) = 65.47404 37.27838 45.97507
#
# Poissons Ratio (x) = 0.24964 0.23125
# Poissons Ratio (y) = 0.43845 0.43347
# Poissons Ratio (z) = 0.32932 0.35147
#
# Static dielectric constant tensor:
#      x y z
#    x 3.083020 0.000000 0.251990 
#    y 0.000000 2.962350 0.000000 
#    z 0.251990 0.000000 3.061170 
# 
# 
# High freq. dielectric constant tensor:
#      x y z
#    x 1.603630 0.000000 0.014300 
#    y 0.000000 1.614890 0.000000 
#    z 0.014300 0.000000 1.605290 
# 
# From -- ./inp_files/248529.got.cif
#   From: 2010.06.25/outbox.cif.g09.slc.cpg/sg12_125_cif.got.tgz:248529.got - 2010.06.28 00:19:55.
