data_PCOD8087697
_publ_section_title
;
Structure prediction by ZEFSAII (Michael W. Deem and Ramdas Pophale) SiO2 
 PCOD8087697
Probable space group: C 2/M
;
_chemical_formula_sum "Si O2"
_cell_formula_units_Z 64
_cell_length_a 19.833613
_cell_length_b 9.113595
_cell_length_c 19.123022
_cell_angle_alpha 90.000000
_cell_angle_beta 89.586290
_cell_angle_gamma 90.000000
_cell_volume 3456.501606
_symmetry_space_group_name_H-M "C 2/M"
_symmetry_group_IT_number 12
_symmetry_cell_setting 'monoclinic'
loop_
_space_group_symop_operation_xyz
x,y,z
-x,y,-z
-x,-y,-z
x,-y,z
1/2+x,1/2+y,z
1/2-x,1/2+y,-z
1/2-x,1/2-y,-z
1/2+x,1/2-y,z
loop_
_atom_site_type_symbol
_atom_site_label
_atom_site_fract_x
_atom_site_fract_y
_atom_site_fract_z
Si Si1 0.232768 0.671623 0.929473
Si Si2 0.428399 0.674294 0.418483
Si Si3 0.921453 0.174249 0.574869
Si Si4 0.639931 0.327487 0.159594
Si Si5 0.623109 0.332061 0.849873
Si Si6 0.181702 0.174973 0.308988
Si Si7 0.174417 0.173118 0.696980
Si Si8 0.514876 0.670180 0.076688
O O1 0.229847 0.500000 0.943039
O O2 0.288466 0.716872 0.872618
O O3 0.161509 0.726888 0.902665
O O4 0.250000 0.750000 0.000000
O O5 0.428986 0.500000 0.414966
O O6 0.405670 0.727048 0.495979
O O7 0.504409 0.731963 0.402256
O O8 0.375671 0.735708 0.362293
O O9 0.863158 0.234510 0.626232
O O10 0.921991 0.000000 0.578414
O O11 0.628234 0.500000 0.158775
O O12 0.641753 0.272854 0.239674
O O13 0.580011 0.255133 0.113614
O O14 0.644595 0.500000 0.863889
O O15 0.638791 0.287117 0.770375
O O16 0.544897 0.307864 0.867382
O O17 0.254866 0.246531 0.312097
O O18 0.191202 0.000000 0.309668
O O19 0.186363 0.000000 0.689486
O O20 0.530347 0.500000 0.063021
O O21 0.500000 0.741772 0.000000
#
# Coordination Sequence:
#
# PCOD8087697 Si02
#       8
#     8   8   8   8   8   8   8   8
#     4  11  21  35  55  76 101 134 168 207 250 299
#     4   8  15  29  48  76 106 133 166 212 259 295
#     4   8  15  28  50  76 103 132 170 214 254 295
#     4   9  18  31  49  74 100 127 165 212 252 287
#     4  10  20  33  51  76 102 131 166 207 256 306
#     4  10  19  32  51  75 101 133 173 211 249 297
#     4  10  20  32  49  74 106 136 166 205 253 306
#     4   9  17  30  49  72  96 121 160 212 255 294
#
# _framework density 18.515830000000001
#
# number of rings (size 3 to 8) (size 9 to 14) (size 15 to 20)
#    0.000    2.625    1.250    1.875    1.750    2.500 
#    0.000    0.000    0.000    5.625    0.000    1.750 
#    0.000    0.000    0.000    0.000    0.000    0.000 
#
# Total GULP energy -396665.715684 kJ/mol
# GULP energy per Si atom -12395.803615 kJ/mol
# Density = 1.847369 g / cm^3
# Si number density = 18.515830 Si / 1000 Ang^3
#
#
#
# Elastic Constant Matrix: (Units=GPa)
#
#
# Indices 1 2 3 4 5 6 
#
# 1 93.1619 20.4716 52.5892 0.0000 14.9812 0.0000
# 2 20.4716 25.8993 21.4736 0.0000 -1.3303 0.0000
# 3 52.5892 21.4736 130.5614 0.0000 8.9210 0.0000
# 4 0.0000 0.0000 0.0000 15.7815 0.0000 0.3526
# 5 14.9812 -1.3303 8.9210 0.0000 38.9761 0.0000
# 6 0.0000 0.0000 0.0000 0.3526 0.0000 24.3123
#
#
#
# Elastic Compliance Matrix: (Units=1/GPa)
#
#
# Indices 1 2 3 4 5 6 
#
# 1 0.016293 -0.009301 -0.004656 0.000000 -0.005514 0.000000
# 2 -0.009301 0.050429 -0.004988 0.000000 0.006438 0.000000
# 3 -0.004656 -0.004988 0.010407 0.000000 -0.000763 0.000000
# 4 0.000000 0.000000 0.000000 0.063386 0.000000 -0.000919
# 5 -0.005514 0.006438 -0.000763 0.000000 0.028171 0.000000
# 6 0.000000 0.000000 0.000000 -0.000919 0.000000 0.041145
#
#
# Mechanical properties :
#
#
# Convention : Reuss Voigt Hill
#
# Bulk Modulus (GPa) = 25.48464 48.74348 37.11406
# Shear Modulus (GPa) = 19.17178 26.15318 22.66248
#
# Velocity S-wave (km/s) = 3.22130 3.76237 3.50230
# Velocity P-wave (km/s) = 5.25635 6.72728 6.03679
#
# Compressibility (1/GPa) = 0.03923932
#
# Stress axis : x y z
#
# Youngs Moduli (GPa) = 61.37619 19.82985 96.08823
#
# Poissons Ratio (x) = 0.18444 0.44740
# Poissons Ratio (y) = 0.57087 0.47924
# Poissons Ratio (z) = 0.28578 0.09890
#
# Static dielectric constant tensor:
#      x y z
#    x 3.426420 0.000000 0.031440 
#    y 0.000000 2.879810 0.000000 
#    z 0.031440 0.000000 3.662800 
# 
# 
# High freq. dielectric constant tensor:
#      x y z
#    x 1.728050 0.000000 0.001020 
#    y 0.000000 1.657170 0.000000 
#    z 0.001020 0.000000 1.734960 
# 
# From -- ./inp_files/314205.got.cif
#   From: 2010.06.25/outbox.cif.g09.slc.cpg/sg12_158_cif.got.tgz:314205.got - 2010.06.28 00:19:55.
