data_PCOD8087990
_publ_section_title
;
Structure prediction by ZEFSAII (Michael W. Deem and Ramdas Pophale) SiO2 
 PCOD8087990
Probable space group: C 2/M
;
_chemical_formula_sum "Si O2"
_cell_formula_units_Z 56
_cell_length_a 19.023740
_cell_length_b 9.063950
_cell_length_c 21.836837
_cell_angle_alpha 90.000000
_cell_angle_beta 124.061254
_cell_angle_gamma 90.000000
_cell_volume 3119.347906
_symmetry_space_group_name_H-M "C 2/M"
_symmetry_group_IT_number 12
_symmetry_cell_setting 'monoclinic'
loop_
_space_group_symop_operation_xyz
x,y,z
-x,y,-z
-x,-y,-z
x,-y,z
1/2+x,1/2+y,z
1/2-x,1/2+y,-z
1/2-x,1/2-y,-z
1/2+x,1/2-y,z
loop_
_atom_site_type_symbol
_atom_site_label
_atom_site_fract_x
_atom_site_fract_y
_atom_site_fract_z
Si Si1 0.375691 0.327966 0.562184
Si Si2 0.175297 0.823994 0.003765
Si Si3 0.997565 0.668381 0.071512
Si Si4 0.766396 0.327579 0.601835
Si Si5 0.163811 0.169506 0.138755
Si Si6 0.023676 0.329982 0.580403
Si Si7 0.782768 0.331743 0.305876
O O1 0.371916 0.500000 0.571819
O O2 0.319105 0.280566 0.475909
O O3 0.345719 0.248875 0.608819
O O4 0.470820 0.275092 0.598716
O O5 0.083019 0.757528 0.939990
O O6 0.176086 0.000000 0.993252
O O7 0.250000 0.750000 0.000000
O O8 0.188763 0.781769 0.081932
O O9 0.992619 0.500000 0.092846
O O10 0.087138 0.741428 0.134025
O O11 0.000000 0.676449 0.000000
O O12 0.780886 0.500000 0.607113
O O13 0.765111 0.274206 0.670688
O O14 0.247361 0.195159 0.220506
O O15 0.134556 0.000000 0.123371
O O16 0.001105 0.500000 0.581915
O O17 0.118996 0.291265 0.644462
O O18 0.000000 0.286485 0.500000
O O19 0.768674 0.500000 0.320176
#
# Coordination Sequence:
#
# PCOD8087990 Si02
#       7
#     8   8   8   8   8   8   8
#     4  10  20  33  51  73  99 130 171 221 266 312
#     4  10  19  33  55  82 110 141 178 216 259 309
#     4   9  17  31  53  79 105 135 173 213 253 303
#     4  10  20  33  51  74  99 130 170 216 265 315
#     4   9  19  35  54  77 106 140 175 214 261 315
#     4  10  19  32  52  76 102 136 177 220 268 320
#     4  10  20  35  54  76 105 138 173 216 268 320
#
# _framework density 17.952470999999999
#
# number of rings (size 3 to 8) (size 9 to 14) (size 15 to 20)
#    0.000    2.286    1.429    1.714    0.000    4.857 
#    0.000    1.429    0.000    5.143    0.000    0.000 
#    0.000    0.000    0.000    0.000    0.000    0.000 
#
# Total GULP energy -347174.940431 kJ/mol
# GULP energy per Si atom -12399.105015 kJ/mol
# Density = 1.791161 g / cm^3
# Si number density = 17.952471 Si / 1000 Ang^3
#
#
#
# Elastic Constant Matrix: (Units=GPa)
#
#
# Indices 1 2 3 4 5 6 
#
# 1 136.5924 64.8380 52.4997 0.0000 5.4195 0.0000
# 2 64.8380 85.8208 34.7905 0.0000 0.2321 0.0000
# 3 52.4997 34.7905 80.1283 0.0000 10.5177 0.0000
# 4 0.0000 0.0000 0.0000 20.3334 0.0000 0.0705
# 5 5.4195 0.2321 10.5177 0.0000 24.8407 0.0000
# 6 0.0000 0.0000 0.0000 0.0705 0.0000 39.4866
#
#
#
# Elastic Compliance Matrix: (Units=1/GPa)
#
#
# Indices 1 2 3 4 5 6 
#
# 1 0.012963 -0.007745 -0.005049 0.000000 -0.000618 0.000000
# 2 -0.007745 0.018930 -0.003540 0.000000 0.003012 0.000000
# 3 -0.005049 -0.003540 0.018187 0.000000 -0.006566 0.000000
# 4 0.000000 0.000000 0.000000 0.049180 0.000000 -0.000088
# 5 -0.000618 0.003012 -0.006566 0.000000 0.043143 0.000000
# 6 0.000000 0.000000 0.000000 -0.000088 0.000000 0.025325
#
#
# Mechanical properties :
#
#
# Convention : Reuss Voigt Hill
#
# Bulk Modulus (GPa) = 57.43303 67.42200 62.42751
# Shear Modulus (GPa) = 24.24813 26.95969 25.60391
#
# Velocity S-wave (km/s) = 3.67915 3.87941 3.78061
# Velocity P-wave (km/s) = 7.07880 7.59630 7.34211
#
# Compressibility (1/GPa) = 0.01741158
#
# Stress axis : x y z
#
# Youngs Moduli (GPa) = 77.14547 52.82521 54.98355
#
# Poissons Ratio (x) = 0.40911 0.27763
# Poissons Ratio (y) = 0.59747 0.19466
# Poissons Ratio (z) = 0.38953 0.18702
#
# Static dielectric constant tensor:
#      x y z
#    x 3.425050 0.000000 0.058270 
#    y 0.000000 3.359670 0.000000 
#    z 0.058270 0.000000 3.177310 
# 
# 
# High freq. dielectric constant tensor:
#      x y z
#    x 1.695010 0.000000 0.007380 
#    y 0.000000 1.702660 0.000000 
#    z 0.007380 0.000000 1.668610 
# 
# From -- ./inp_files/313728.got.cif
#   From: 2010.06.25/outbox.cif.g09.slc.cpg/sg12_157_cif.got.tgz:313728.got - 2010.06.28 00:19:55.
