data_PCOD8087233
_publ_section_title
;
Structure prediction by ZEFSAII (Michael W. Deem and Ramdas Pophale) SiO2 
 PCOD8087233
Probable space group: C 2/M
;
_chemical_formula_sum "Si O2"
_cell_formula_units_Z 56
_cell_length_a 27.561817
_cell_length_b 9.062353
_cell_length_c 18.234211
_cell_angle_alpha 90.000000
_cell_angle_beta 48.332333
_cell_angle_gamma 90.000000
_cell_volume 3402.234354
_symmetry_space_group_name_H-M "C 2/M"
_symmetry_group_IT_number 12
_symmetry_cell_setting 'monoclinic'
loop_
_space_group_symop_operation_xyz
x,y,z
-x,y,-z
-x,-y,-z
x,-y,z
1/2+x,1/2+y,z
1/2-x,1/2+y,-z
1/2-x,1/2-y,-z
1/2+x,1/2-y,z
loop_
_atom_site_type_symbol
_atom_site_label
_atom_site_fract_x
_atom_site_fract_y
_atom_site_fract_z
Si Si1 0.430925 0.166134 0.530575
Si Si2 0.568231 0.166632 0.890549
Si Si3 0.490792 0.670597 0.343260
Si Si4 0.625146 0.672130 0.962037
Si Si5 0.127738 0.171770 0.281129
Si Si6 0.993920 0.173246 0.173077
Si Si7 0.745374 0.825287 0.082823
O O1 0.500000 0.166189 0.500000
O O2 0.438887 0.235744 0.441946
O O3 0.381778 0.265884 0.627200
O O4 0.403424 0.000000 0.551402
O O5 0.622052 0.244749 0.887151
O O6 0.561624 0.247431 0.819004
O O7 0.590464 0.000000 0.854039
O O8 0.500000 0.176687 0.000000
O O9 0.471986 0.500000 0.370582
O O10 0.563790 0.697104 0.297119
O O11 0.485981 0.725024 0.264620
O O12 0.622392 0.500000 0.947428
O O13 0.690928 0.718601 0.935769
O O14 0.565742 0.719536 0.074297
O O15 0.183891 0.264547 0.187336
O O16 0.146520 0.000000 0.266527
O O17 0.983745 0.000000 0.174924
O O18 0.739402 0.000000 0.078496
O O19 0.750000 0.750000 0.000000
#
# Coordination Sequence:
#
# PCOD8087233 Si02
#       7
#     8   8   8   8   8   8   8
#     4   9  17  29  45  66  91 119 152 190 232 273
#     4   9  17  28  43  65  90 115 147 188 231 270
#     4   9  17  29  46  68  93 122 154 188 228 274
#     4   9  18  32  47  63  88 124 159 187 219 266
#     4  10  19  32  48  66  92 125 159 191 225 268
#     4   9  16  28  46  66  90 120 152 185 225 272
#     4  11  22  34  48  68  94 124 159 193 225 264
#
# _framework density 16.459772999999998
#
# number of rings (size 3 to 8) (size 9 to 14) (size 15 to 20)
#    0.000    2.571    0.000    2.571    0.000    8.000 
#    0.000    2.857    0.000    0.000    0.000    1.000 
#    0.000    0.000    0.000    0.000    0.000    0.000 
#
# Total GULP energy -347215.197378 kJ/mol
# GULP energy per Si atom -12400.542763 kJ/mol
# Density = 1.642231 g / cm^3
# Si number density = 16.459773 Si / 1000 Ang^3
#
#
#
# Elastic Constant Matrix: (Units=GPa)
#
#
# Indices 1 2 3 4 5 6 
#
# 1 105.0108 57.2610 52.9922 0.0008 24.0015 -0.0002
# 2 57.2610 83.6890 44.7807 0.0026 12.7366 0.0008
# 3 52.9922 44.7807 94.1877 -0.0038 22.5014 0.0007
# 4 0.0008 0.0026 -0.0038 29.6289 0.0004 4.1820
# 5 24.0015 12.7366 22.5014 0.0004 25.9751 0.0001
# 6 -0.0002 0.0008 0.0007 4.1820 0.0001 23.6253
#
#
#
# Elastic Compliance Matrix: (Units=1/GPa)
#
#
# Indices 1 2 3 4 5 6 
#
# 1 0.018672 -0.009290 -0.003852 0.000000 -0.009361 0.000001
# 2 -0.009290 0.020700 -0.005348 -0.000002 0.003066 0.000000
# 3 -0.003852 -0.005348 0.017464 0.000003 -0.008947 -0.000001
# 4 0.000000 -0.000002 0.000003 0.034616 -0.000002 -0.006127
# 5 -0.009361 0.003066 -0.008947 -0.000002 0.053396 0.000000
# 6 0.000001 0.000000 -0.000001 -0.006127 0.000000 0.043412
#
#
# Mechanical properties :
#
#
# Convention : Reuss Voigt Hill
#
# Bulk Modulus (GPa) = 50.35911 65.88391 58.12151
# Shear Modulus (GPa) = 21.56501 24.36943 22.96722
#
# Velocity S-wave (km/s) = 3.62355 3.85196 3.73950
# Velocity P-wave (km/s) = 6.94035 7.73935 7.35072
#
# Compressibility (1/GPa) = 0.01985738
#
# Stress axis : x y z
#
# Youngs Moduli (GPa) = 53.55657 48.30973 57.25942
#
# Poissons Ratio (x) = 0.44878 0.22058
# Poissons Ratio (y) = 0.49752 0.30620
# Poissons Ratio (z) = 0.20631 0.25834
#
# Static dielectric constant tensor:
#      x y z
#    x 3.052620 0.000000 0.205320 
#    y 0.000000 2.971890 0.000170 
#    z 0.205320 0.000170 3.115750 
# 
# 
# High freq. dielectric constant tensor:
#      x y z
#    x 1.615320 0.000000 0.022140 
#    y 0.000000 1.643800 0.000000 
#    z 0.022140 0.000000 1.614280 
# 
# From -- ./inp_files/291809.got.cif
#   From: 2010.06.25/outbox.cif.g09.slc.cpg/sg12_146_cif.got.tgz:291809.got - 2010.06.28 00:19:55.
