data_PCOD8087437
_publ_section_title
;
Structure prediction by ZEFSAII (Michael W. Deem and Ramdas Pophale) SiO2 
 PCOD8087437
Probable space group: C 2/M
;
_chemical_formula_sum "Si O2"
_cell_formula_units_Z 64
_cell_length_a 29.077298
_cell_length_b 9.501235
_cell_length_c 12.493950
_cell_angle_alpha 90.000000
_cell_angle_beta 91.748169
_cell_angle_gamma 90.000000
_cell_volume 3450.100043
_symmetry_space_group_name_H-M "C 2/M"
_symmetry_group_IT_number 12
_symmetry_cell_setting 'monoclinic'
loop_
_space_group_symop_operation_xyz
x,y,z
-x,y,-z
-x,-y,-z
x,-y,z
1/2+x,1/2+y,z
1/2-x,1/2+y,-z
1/2-x,1/2-y,-z
1/2+x,1/2-y,z
loop_
_atom_site_type_symbol
_atom_site_label
_atom_site_fract_x
_atom_site_fract_y
_atom_site_fract_z
Si Si1 0.006727 0.164529 0.188486
Si Si2 0.392872 0.332756 0.879744
Si Si3 0.829405 0.661831 0.717003
Si Si4 0.113630 0.657445 0.476632
Si Si5 0.592072 0.334627 0.885234
Si Si6 0.137202 0.833729 0.671244
Si Si7 0.516588 0.841399 0.387577
Si Si8 0.238316 0.836249 0.605749
O O1 0.055242 0.217999 0.144773
O O2 0.995518 0.239582 0.298682
O O3 0.962567 0.203009 0.112128
O O4 0.009368 0.000000 0.210547
O O5 0.388357 0.500000 0.864746
O O6 0.353892 0.260534 0.805303
O O7 0.384566 0.284369 0.002172
O O8 0.841153 0.500000 0.746723
O O9 0.843881 0.698359 0.595957
O O10 0.774716 0.689693 0.705551
O O11 0.118528 0.500000 0.524276
O O12 0.107338 0.763152 0.574903
O O13 0.071545 0.666176 0.390628
O O14 0.596972 0.500000 0.877626
O O15 0.619145 0.272219 0.784067
O O16 0.189989 0.789631 0.654716
O O17 0.129764 0.000000 0.663655
O O18 0.500000 0.785155 0.500000
O O19 0.498620 0.000000 0.365464
O O20 0.250000 0.750000 0.500000
O O21 0.237816 0.000000 0.572527
#
# Coordination Sequence:
#
# PCOD8087437 Si02
#       8
#     8   8   8   8   8   8   8   8
#     4  10  19  32  53  77 101 133 173 214 255 300
#     4  10  20  35  56  78 102 137 179 215 250 302
#     4  10  20  35  53  75 106 137 167 211 262 302
#     4  10  19  32  50  72 105 141 165 203 261 307
#     4   9  19  36  54  76 106 136 170 217 264 298
#     4  10  20  34  55  79 103 134 173 214 256 309
#     4  10  20  32  46  69 104 141 171 203 251 308
#     4  10  20  34  54  79 105 135 169 209 258 310
#
# _framework density 18.550187000000001
#
# number of rings (size 3 to 8) (size 9 to 14) (size 15 to 20)
#    0.000    2.125    2.500    1.125    0.000    3.250 
#    0.000    1.875    0.000    1.500    0.000    0.000 
#    0.000    0.000    0.000    0.000    0.000    0.000 
#
# Total GULP energy -396629.807636 kJ/mol
# GULP energy per Si atom -12394.681489 kJ/mol
# Density = 1.850797 g / cm^3
# Si number density = 18.550187 Si / 1000 Ang^3
#
#
#
# Elastic Constant Matrix: (Units=GPa)
#
#
# Indices 1 2 3 4 5 6 
#
# 1 63.6198 21.3066 35.8801 0.0000 6.4841 0.0000
# 2 21.3066 36.0730 39.4285 0.0000 6.4593 0.0000
# 3 35.8801 39.4285 113.7427 0.0000 10.0262 0.0000
# 4 0.0000 0.0000 0.0000 19.6565 0.0000 3.8940
# 5 6.4841 6.4593 10.0262 0.0000 24.9253 0.0000
# 6 0.0000 0.0000 0.0000 3.8940 0.0000 21.5567
#
#
#
# Elastic Compliance Matrix: (Units=1/GPa)
#
#
# Indices 1 2 3 4 5 6 
#
# 1 0.020577 -0.007897 -0.003589 0.000000 -0.001863 0.000000
# 2 -0.007897 0.048413 -0.013858 0.000000 -0.004917 0.000000
# 3 -0.003589 -0.013858 0.014856 0.000000 -0.001451 0.000000
# 4 0.000000 0.000000 0.000000 0.052762 0.000000 -0.009531
# 5 -0.001863 -0.004917 -0.001451 0.000000 0.042462 0.000000
# 6 0.000000 0.000000 0.000000 -0.009531 0.000000 0.048111
#
#
# Mechanical properties :
#
#
# Convention : Reuss Voigt Hill
#
# Bulk Modulus (GPa) = 30.15890 45.18508 37.67199
# Shear Modulus (GPa) = 17.30567 21.01571 19.16069
#
# Velocity S-wave (km/s) = 3.05767 3.36953 3.21738
# Velocity P-wave (km/s) = 5.36275 6.28883 5.84417
#
# Compressibility (1/GPa) = 0.03315770
#
# Stress axis : x y z
#
# Youngs Moduli (GPa) = 48.59707 20.65550 67.31463
#
# Poissons Ratio (x) = 0.16312 0.24162
# Poissons Ratio (y) = 0.38378 0.93282
# Poissons Ratio (z) = 0.17443 0.28624
#
# Static dielectric constant tensor:
#      x y z
#    x 3.668320 0.000000 -0.048900 
#    y 0.000000 3.198910 0.000000 
#    z -0.048900 0.000000 3.441130 
# 
# 
# High freq. dielectric constant tensor:
#      x y z
#    x 1.726220 0.000000 0.000620 
#    y 0.000000 1.696880 0.000000 
#    z 0.000620 0.000000 1.711860 
# 
# From -- ./inp_files/187533.got.cif
#   From: 2010.06.25/outbox.cif.g09.slc.cpg/sg12_94_cif.got.tgz:187533.got - 2010.06.28 00:19:55.
