data_PCOD8087404
_publ_section_title
;
Structure prediction by ZEFSAII (Michael W. Deem and Ramdas Pophale) SiO2 
 PCOD8087404
Probable space group: C 2/M
;
_chemical_formula_sum "Si O2"
_cell_formula_units_Z 48
_cell_length_a 18.411572
_cell_length_b 9.051044
_cell_length_c 24.140338
_cell_angle_alpha 90.000000
_cell_angle_beta 43.116483
_cell_angle_gamma 90.000000
_cell_volume 2749.546817
_symmetry_space_group_name_H-M "C 2/M"
_symmetry_group_IT_number 12
_symmetry_cell_setting 'monoclinic'
loop_
_space_group_symop_operation_xyz
x,y,z
-x,y,-z
-x,-y,-z
x,-y,z
1/2+x,1/2+y,z
1/2-x,1/2+y,-z
1/2-x,1/2-y,-z
1/2+x,1/2-y,z
loop_
_atom_site_type_symbol
_atom_site_label
_atom_site_fract_x
_atom_site_fract_y
_atom_site_fract_z
Si Si1 0.574464 0.826870 0.839906
Si Si2 0.169104 0.325723 0.003026
Si Si3 0.143134 0.330200 0.572219
Si Si4 0.902599 0.673456 0.519456
Si Si5 0.181499 0.673623 0.668288
Si Si6 0.624216 0.332760 0.919219
O O1 0.449757 0.789186 0.910496
O O2 0.618975 0.767864 0.756633
O O3 0.641564 0.744072 0.850180
O O4 0.592587 0.000000 0.838676
O O5 0.190990 0.500000 0.988491
O O6 0.250000 0.250000 0.000000
O O7 0.186403 0.257539 0.932159
O O8 0.172724 0.500000 0.554798
O O9 0.250000 0.250000 0.500000
O O10 0.066339 0.293731 0.562878
O O11 0.107420 0.288557 0.654992
O O12 0.888092 0.500000 0.538357
O O13 0.795428 0.750489 0.599403
O O14 0.000000 0.739213 0.500000
O O15 0.200963 0.500000 0.663019
O O16 0.668463 0.500000 0.893078
O O17 0.500000 0.330331 0.000000
#
# Coordination Sequence:
#
# PCOD8087404 Si02
#       6
#     8   8   8   8   8   8
#     4   9  18  32  49  69  94 124 157 196 242 287
#     4  10  19  32  50  71  97 127 159 196 238 283
#     4   8  14  26  44  63  85 116 151 184 219 266
#     4   9  17  29  45  67  94 122 154 192 233 274
#     4   9  17  30  48  68  90 119 155 191 229 277
#     4   9  17  30  49  71  93 121 159 196 233 284
#
# _framework density 17.457422000000001
#
# number of rings (size 3 to 8) (size 9 to 14) (size 15 to 20)
#    0.000    3.000    0.000    1.000    0.000    3.667 
#    0.000    1.667    0.000    4.000    0.000    0.000 
#    0.000    0.000    0.000    0.000    0.000    0.000 
#
# Total GULP energy -297321.491919 kJ/mol
# GULP energy per Si atom -12388.395497 kJ/mol
# Density = 1.741769 g / cm^3
# Si number density = 17.457422 Si / 1000 Ang^3
#
#
#
# Elastic Constant Matrix: (Units=GPa)
#
#
# Indices 1 2 3 4 5 6 
#
# 1 155.9749 54.4435 68.8293 0.0000 38.1952 0.0001
# 2 54.4435 64.2626 36.5457 0.0000 15.9306 0.0001
# 3 68.8293 36.5457 105.6814 0.0000 36.9880 0.0000
# 4 0.0000 0.0000 0.0000 20.5430 0.0000 3.7270
# 5 38.1952 15.9306 36.9880 0.0000 32.9598 0.0000
# 6 0.0001 0.0001 0.0000 3.7270 0.0000 27.8361
#
#
#
# Elastic Compliance Matrix: (Units=1/GPa)
#
#
# Indices 1 2 3 4 5 6 
#
# 1 0.011710 -0.006510 -0.002844 0.000000 -0.007231 0.000000
# 2 -0.006510 0.023177 -0.004108 0.000000 0.000952 0.000000
# 3 -0.002844 -0.004108 0.017929 0.000000 -0.014838 0.000000
# 4 0.000000 0.000000 0.000000 0.049890 0.000000 -0.006680
# 5 -0.007231 0.000952 -0.014838 0.000000 0.054911 0.000000
# 6 0.000000 0.000000 0.000000 -0.006680 0.000000 0.036819
#
#
# Mechanical properties :
#
#
# Convention : Reuss Voigt Hill
#
# Bulk Modulus (GPa) = 38.62460 71.72844 55.17652
# Shear Modulus (GPa) = 21.74000 27.34114 24.54057
#
# Velocity S-wave (km/s) = 3.53273 3.96177 3.75339
# Velocity P-wave (km/s) = 6.23003 7.88063 7.10344
#
# Compressibility (1/GPa) = 0.02589024
#
# Stress axis : x y z
#
# Youngs Moduli (GPa) = 85.40001 43.14653 55.77640
#
# Poissons Ratio (x) = 0.28090 0.15864
# Poissons Ratio (y) = 0.55599 0.22913
# Poissons Ratio (z) = 0.24289 0.17724
#
# Static dielectric constant tensor:
#      x y z
#    x 3.707120 0.000000 0.646460 
#    y 0.000000 3.364130 0.000000 
#    z 0.646460 0.000000 3.308510 
# 
# 
# High freq. dielectric constant tensor:
#      x y z
#    x 1.677000 0.000000 0.037200 
#    y 0.000000 1.676710 0.000000 
#    z 0.037200 0.000000 1.648960 
# 
# From -- ./inp_files/273652.got.cif
#   From: 2010.06.25/outbox.cif.g09.slc.cpg/sg12_137_cif.got.tgz:273652.got - 2010.06.28 00:19:55.
