data_PCOD8087984
_publ_section_title
;
Structure prediction by ZEFSAII (Michael W. Deem and Ramdas Pophale) SiO2 
 PCOD8087984
Probable space group: C 2/M
;
_chemical_formula_sum "Si O2"
_cell_formula_units_Z 56
_cell_length_a 18.573090
_cell_length_b 8.991398
_cell_length_c 18.548752
_cell_angle_alpha 90.000000
_cell_angle_beta 75.901548
_cell_angle_gamma 90.000000
_cell_volume 3004.301090
_symmetry_space_group_name_H-M "C 2/M"
_symmetry_group_IT_number 12
_symmetry_cell_setting 'monoclinic'
loop_
_space_group_symop_operation_xyz
x,y,z
-x,y,-z
-x,-y,-z
x,-y,z
1/2+x,1/2+y,z
1/2-x,1/2+y,-z
1/2-x,1/2-y,-z
1/2+x,1/2-y,z
loop_
_atom_site_type_symbol
_atom_site_label
_atom_site_fract_x
_atom_site_fract_y
_atom_site_fract_z
Si Si1 0.794318 0.177013 0.139368
Si Si2 0.034541 0.669888 0.569624
Si Si3 0.080455 0.176497 0.001989
Si Si4 0.144957 0.174099 0.726022
Si Si5 0.014699 0.824395 0.283921
Si Si6 0.814346 0.825530 0.440158
Si Si7 0.860105 0.824789 0.859349
O O1 0.815548 0.242584 0.213163
O O2 0.717182 0.243995 0.132980
O O3 0.786894 0.000000 0.141121
O O4 0.858242 0.232131 0.069613
O O5 0.052699 0.500000 0.585861
O O6 0.108426 0.766381 0.549176
O O7 0.000000 0.681031 0.500000
O O8 0.977567 0.738669 0.642008
O O9 0.103134 0.233180 0.075662
O O10 0.075660 0.000000 0.002541
O O11 0.000000 0.243160 0.000000
O O12 0.193189 0.212784 0.643162
O O13 0.060600 0.232460 0.737113
O O14 0.139782 0.000000 0.739999
O O15 0.084994 0.781288 0.218736
O O16 0.010156 0.000000 0.300056
O O17 0.750000 0.750000 0.500000
O O18 0.810913 0.000000 0.454203
O O19 0.845937 0.000000 0.865946
#
# Coordination Sequence:
#
# PCOD8087984 Si02
#       7
#     8   8   8   8   8   8   8
#     4  10  19  32  52  76 102 133 168 206 252 303
#     4  10  21  36  54  77 105 136 173 218 263 309
#     4   9  17  31  54  78  98 130 175 212 242 289
#     4   8  16  32  52  72  95 128 171 213 248 292
#     4   9  18  34  54  73  97 133 174 213 254 302
#     4  10  20  35  55  78 106 138 174 217 263 311
#     4  10  20  33  50  76 107 132 162 209 257 299
#
# _framework density 18.639944
#
# number of rings (size 3 to 8) (size 9 to 14) (size 15 to 20)
#    0.000    2.571    0.000    3.000    0.000    6.286 
#    0.000    7.857    0.000    3.429    0.000    0.000 
#    0.000    0.000    0.000    0.000    0.000    0.000 
#
# Total GULP energy -347164.166050 kJ/mol
# GULP energy per Si atom -12398.720216 kJ/mol
# Density = 1.859752 g / cm^3
# Si number density = 18.639944 Si / 1000 Ang^3
#
#
#
# Elastic Constant Matrix: (Units=GPa)
#
#
# Indices 1 2 3 4 5 6 
#
# 1 133.0391 40.4647 89.7224 0.0000 -8.8085 0.0000
# 2 40.4647 50.6337 55.0052 0.0000 -5.8332 0.0000
# 3 89.7224 55.0052 160.8438 0.0000 -9.7641 0.0000
# 4 0.0000 0.0000 0.0000 22.4908 0.0000 -2.4522
# 5 -8.8085 -5.8332 -9.7641 0.0000 36.2699 0.0000
# 6 0.0000 0.0000 0.0000 -2.4522 0.0000 31.1412
#
#
#
# Elastic Compliance Matrix: (Units=1/GPa)
#
#
# Indices 1 2 3 4 5 6 
#
# 1 0.012532 -0.003780 -0.005642 0.000000 0.000917 0.000000
# 2 -0.003780 0.032737 -0.008969 0.000000 0.001932 0.000000
# 3 -0.005642 -0.008969 0.012465 0.000000 0.000543 0.000000
# 4 0.000000 0.000000 0.000000 0.044848 0.000000 0.003531
# 5 0.000917 0.001932 0.000543 0.000000 0.028251 0.000000
# 6 0.000000 0.000000 0.000000 0.003531 0.000000 0.032390
#
#
# Mechanical properties :
#
#
# Convention : Reuss Voigt Hill
#
# Bulk Modulus (GPa) = 47.73194 79.43347 63.58270
# Shear Modulus (GPa) = 24.15573 28.60200 26.37887
#
# Velocity S-wave (km/s) = 3.60378 3.92145 3.76597
# Velocity P-wave (km/s) = 6.55586 7.95053 7.28664
#
# Compressibility (1/GPa) = 0.02095033
#
# Stress axis : x y z
#
# Youngs Moduli (GPa) = 79.79349 30.54632 80.22473
#
# Poissons Ratio (x) = 0.11547 0.45266
# Poissons Ratio (y) = 0.30164 0.71957
# Poissons Ratio (z) = 0.45023 0.27398
#
# Static dielectric constant tensor:
#      x y z
#    x 3.472040 0.000000 0.063250 
#    y 0.000000 3.198910 0.000000 
#    z 0.063250 0.000000 3.696750 
# 
# 
# High freq. dielectric constant tensor:
#      x y z
#    x 1.723930 0.000000 -0.000020 
#    y 0.000000 1.693080 0.000000 
#    z -0.000020 0.000000 1.741290 
# 
# From -- ./inp_files/275054.got.cif
#   From: 2010.06.25/outbox.cif.g09.slc.cpg/sg12_138_cif.got.tgz:275054.got - 2010.06.28 00:19:55.
