data_PCOD8087282
_publ_section_title
;
Structure prediction by ZEFSAII (Michael W. Deem and Ramdas Pophale) SiO2 
 PCOD8087282
Probable space group: C 2/M
;
_chemical_formula_sum "Si O2"
_cell_formula_units_Z 48
_cell_length_a 22.690853
_cell_length_b 12.571640
_cell_length_c 9.749232
_cell_angle_alpha 90.000000
_cell_angle_beta 112.572847
_cell_angle_gamma 90.000000
_cell_volume 2568.025794
_symmetry_space_group_name_H-M "C 2/M"
_symmetry_group_IT_number 12
_symmetry_cell_setting 'monoclinic'
loop_
_space_group_symop_operation_xyz
x,y,z
-x,y,-z
-x,-y,-z
x,-y,z
1/2+x,1/2+y,z
1/2-x,1/2+y,-z
1/2-x,1/2-y,-z
1/2+x,1/2-y,z
loop_
_atom_site_type_symbol
_atom_site_label
_atom_site_fract_x
_atom_site_fract_y
_atom_site_fract_z
Si Si1 0.485278 0.875992 0.295965
Si Si2 0.815973 0.874434 0.491512
Si Si3 0.203960 0.381493 0.807700
Si Si4 0.401990 0.201247 0.459646
Si Si5 0.796983 0.746046 0.742456
Si Si6 0.381153 0.121579 0.004676
O O1 0.560442 0.845887 0.372634
O O2 0.449523 0.800226 0.373002
O O3 0.473915 0.000000 0.325604
O O4 0.454477 0.854795 0.118290
O O5 0.875838 0.819710 0.466889
O O6 0.815720 0.833560 0.647278
O O7 0.748850 0.845038 0.360457
O O8 0.826330 0.000000 0.496501
O O9 0.231190 0.500000 0.840438
O O10 0.159014 0.371945 0.631737
O O11 0.263104 0.302297 0.841880
O O12 0.165044 0.352429 0.908877
O O13 0.861738 0.693037 0.857850
O O14 0.374475 0.000000 0.952778
#
# Coordination Sequence:
#
# PCOD8087282 Si02
#       6
#     8   8   8   8   8   8
#     4   9  16  30  53  77  99 120 149 192 236 279
#     4  10  21  34  48  67  93 127 163 198 233 275
#     4   9  16  27  48  75  98 122 151 187 234 281
#     4   9  16  29  50  73  96 123 153 190 232 276
#     4  10  19  32  49  67  94 128 160 193 231 280
#     4   9  17  29  47  72  98 120 148 193 240 278
#
# _framework density 18.691400999999999
#
# number of rings (size 3 to 8) (size 9 to 14) (size 15 to 20)
#    0.000    2.667    0.000    4.500    0.000    0.000 
#    0.000    6.667    0.000    9.000    0.000    0.000 
#    0.000    0.000    0.000    0.000    0.000    0.000 
#
# Total GULP energy -297397.592926 kJ/mol
# GULP energy per Si atom -12391.566372 kJ/mol
# Density = 1.864886 g / cm^3
# Si number density = 18.691401 Si / 1000 Ang^3
#
#
#
# Elastic Constant Matrix: (Units=GPa)
#
#
# Indices 1 2 3 4 5 6 
#
# 1 26.8612 21.4667 15.8517 0.0000 12.5522 0.0000
# 2 21.4667 105.2268 42.5562 0.0000 5.4170 0.0000
# 3 15.8517 42.5562 90.6149 0.0000 27.8174 0.0000
# 4 0.0000 0.0000 0.0000 27.4188 0.0000 -0.3853
# 5 12.5522 5.4170 27.8174 0.0000 30.6499 0.0000
# 6 0.0000 0.0000 0.0000 -0.3853 0.0000 23.2771
#
#
#
# Elastic Compliance Matrix: (Units=1/GPa)
#
#
# Indices 1 2 3 4 5 6 
#
# 1 0.055408 -0.011190 0.002663 0.000000 -0.023131 0.000000
# 2 -0.011190 0.014367 -0.007509 0.000000 0.008859 0.000000
# 3 0.002663 -0.007509 0.019440 0.000000 -0.017407 0.000000
# 4 0.000000 0.000000 0.000000 0.036480 0.000000 0.000604
# 5 -0.023131 0.008859 -0.017407 0.000000 0.056332 0.000000
# 6 0.000000 0.000000 0.000000 0.000604 0.000000 0.042971
#
#
# Mechanical properties :
#
#
# Convention : Reuss Voigt Hill
#
# Bulk Modulus (GPa) = 17.49976 42.49469 29.99723
# Shear Modulus (GPa) = 18.10820 25.79103 21.94962
#
# Velocity S-wave (km/s) = 3.11593 3.71864 3.43055
# Velocity P-wave (km/s) = 4.72527 6.42043 5.63694
#
# Compressibility (1/GPa) = 0.05714363
#
# Stress axis : x y z
#
# Youngs Moduli (GPa) = 18.04783 69.60424 51.43976
#
# Poissons Ratio (x) = 0.77886 -0.13699
# Poissons Ratio (y) = 0.20195 0.38628
# Poissons Ratio (z) = -0.04806 0.52268
#
# Static dielectric constant tensor:
#      x y z
#    x 3.420710 0.000000 0.287960 
#    y 0.000000 3.182910 0.000000 
#    z 0.287960 0.000000 3.541330 
# 
# 
# High freq. dielectric constant tensor:
#      x y z
#    x 1.705630 0.000000 0.013480 
#    y 0.000000 1.700700 0.000000 
#    z 0.013480 0.000000 1.727650 
# 
# From -- ./inp_files/94994.got.cif
#   From: 2010.06.25/outbox.cif.g09.slc.cpg/sg12_48_cif.got.tgz:94994.got - 2010.06.28 00:19:55.
