data_PCOD8087144
_publ_section_title
;
Structure prediction by ZEFSAII (Michael W. Deem and Ramdas Pophale) SiO2 
 PCOD8087144
Probable space group: C 2/M
;
_chemical_formula_sum "Si O2"
_cell_formula_units_Z 64
_cell_length_a 21.140051
_cell_length_b 12.803952
_cell_length_c 20.985537
_cell_angle_alpha 90.000000
_cell_angle_beta 143.653444
_cell_angle_gamma 90.000000
_cell_volume 3366.522490
_symmetry_space_group_name_H-M "C 2/M"
_symmetry_group_IT_number 12
_symmetry_cell_setting 'monoclinic'
loop_
_space_group_symop_operation_xyz
x,y,z
-x,y,-z
-x,-y,-z
x,-y,z
1/2+x,1/2+y,z
1/2-x,1/2+y,-z
1/2-x,1/2-y,-z
1/2+x,1/2-y,z
loop_
_atom_site_type_symbol
_atom_site_label
_atom_site_fract_x
_atom_site_fract_y
_atom_site_fract_z
Si Si1 0.651518 0.620228 0.299393
Si Si2 0.165685 0.723241 0.486371
Si Si3 0.320041 0.383020 0.156109
Si Si4 0.498353 0.229882 0.254054
Si Si5 0.761478 0.615448 0.776320
Si Si6 0.564146 0.274028 0.109591
Si Si7 0.903504 0.119491 0.464976
Si Si8 0.422236 0.118383 0.075485
O O1 0.628040 0.500000 0.294850
O O2 0.776688 0.644354 0.417169
O O3 0.578323 0.691943 0.283493
O O4 0.624785 0.642815 0.203483
O O5 0.250000 0.750000 0.500000
O O6 0.119247 0.822308 0.487323
O O7 0.060885 0.678008 0.365016
O O8 0.357116 0.500000 0.166567
O O9 0.396571 0.296650 0.190458
O O10 0.322980 0.371423 0.235035
O O11 0.202784 0.361159 0.033410
O O12 0.457809 0.135431 0.177433
O O13 0.813568 0.500000 0.823668
O O14 0.851817 0.700719 0.857813
O O15 0.705051 0.628473 0.662858
O O16 0.485032 0.201074 0.084561
O O17 0.500000 0.331811 0.000000
O O18 0.000000 0.166599 0.500000
O O19 0.931373 0.000000 0.505201
O O20 0.451784 0.000000 0.079806
#
# Coordination Sequence:
#
# PCOD8087144 Si02
#       8
#     8   8   8   8   8   8   8   8
#     4  10  22  39  57  79 107 145 190 233 277 326
#     4  10  21  37  55  82 113 152 191 232 284 334
#     4  10  19  33  55  84 115 147 180 222 279 338
#     4  10  21  36  56  81 110 147 189 229 275 326
#     4  10  19  31  54  86 114 141 174 221 285 340
#     4  11  20  35  57  81 110 140 182 230 280 331
#     4  10  20  35  58  90 120 144 180 236 295 349
#     4  10  21  34  53  82 114 147 183 226 279 333
#
# _framework density 19.010715000000001
#
# number of rings (size 3 to 8) (size 9 to 14) (size 15 to 20)
#    0.000    1.875    2.500    1.875    0.000    4.750 
#    0.000    0.000    0.000    1.125    0.000    0.000 
#    0.000    0.000    0.000    0.000    0.000    0.000 
#
# Total GULP energy -396623.471977 kJ/mol
# GULP energy per Si atom -12394.483499 kJ/mol
# Density = 1.896745 g / cm^3
# Si number density = 19.010715 Si / 1000 Ang^3
#
#
#
# Elastic Constant Matrix: (Units=GPa)
#
#
# Indices 1 2 3 4 5 6 
#
# 1 70.5409 14.2505 23.2720 0.0000 -3.8990 0.0000
# 2 14.2505 44.1952 25.4084 0.0000 -0.1471 0.0000
# 3 23.2720 25.4084 112.0716 0.0000 -19.8414 0.0000
# 4 0.0000 0.0000 0.0000 22.5738 0.0000 6.6252
# 5 -3.8990 -0.1471 -19.8414 0.0000 31.5461 0.0000
# 6 0.0000 0.0000 0.0000 6.6252 0.0000 60.3490
#
#
#
# Elastic Compliance Matrix: (Units=1/GPa)
#
#
# Indices 1 2 3 4 5 6 
#
# 1 0.015726 -0.003723 -0.002341 0.000000 0.000454 0.000000
# 2 -0.003723 0.027365 -0.006178 0.000000 -0.004218 0.000000
# 3 -0.002341 -0.006178 0.012101 0.000000 0.007293 0.000000
# 4 0.000000 0.000000 0.000000 0.045774 0.000000 -0.005025
# 5 0.000454 -0.004218 0.007293 0.000000 0.036323 0.000000
# 6 0.000000 0.000000 0.000000 -0.005025 0.000000 0.017122
#
#
# Mechanical properties :
#
#
# Convention : Reuss Voigt Hill
#
# Bulk Modulus (GPa) = 32.56542 39.18552 35.87547
# Shear Modulus (GPa) = 26.43682 33.81892 30.12787
#
# Velocity S-wave (km/s) = 3.73316 4.22232 3.98525
# Velocity P-wave (km/s) = 5.97906 6.66542 6.33155
#
# Compressibility (1/GPa) = 0.03070742
#
# Stress axis : x y z
#
# Youngs Moduli (GPa) = 63.59001 36.54297 82.63978
#
# Poissons Ratio (x) = 0.13606 0.19346
# Poissons Ratio (y) = 0.23676 0.51053
# Poissons Ratio (z) = 0.14887 0.22575
#
# Static dielectric constant tensor:
#      x y z
#    x 3.400150 0.000000 -0.181480 
#    y 0.000000 3.172570 0.000000 
#    z -0.181480 0.000000 4.167590 
# 
# 
# High freq. dielectric constant tensor:
#      x y z
#    x 1.729320 0.000000 -0.006420 
#    y 0.000000 1.702410 0.000000 
#    z -0.006420 0.000000 1.767800 
# 
# From -- ./inp_files/321279.got.cif
#   From: 2010.06.25/outbox.cif.g09.slc.cpg/sg12_161_cif.got.tgz:321279.got - 2010.06.28 00:19:55.
