data_PCOD8087100
_publ_section_title
;
Structure prediction by ZEFSAII (Michael W. Deem and Ramdas Pophale) SiO2 
 PCOD8087100
Probable space group: C 2/M
;
_chemical_formula_sum "Si O2"
_cell_formula_units_Z 64
_cell_length_a 32.380319
_cell_length_b 9.197552
_cell_length_c 24.818500
_cell_angle_alpha 90.000000
_cell_angle_beta 26.603499
_cell_angle_gamma 90.000000
_cell_volume 3309.986884
_symmetry_space_group_name_H-M "C 2/M"
_symmetry_group_IT_number 12
_symmetry_cell_setting 'monoclinic'
loop_
_space_group_symop_operation_xyz
x,y,z
-x,y,-z
-x,-y,-z
x,-y,z
1/2+x,1/2+y,z
1/2-x,1/2+y,-z
1/2-x,1/2-y,-z
1/2+x,1/2-y,z
loop_
_atom_site_type_symbol
_atom_site_label
_atom_site_fract_x
_atom_site_fract_y
_atom_site_fract_z
Si Si1 0.137321 0.828816 0.483252
Si Si2 0.426631 0.669007 0.740315
Si Si3 0.934565 0.669236 0.031520
Si Si4 0.389997 0.331265 0.903569
Si Si5 0.981898 0.668437 0.173755
Si Si6 0.791461 0.672961 0.821502
Si Si7 0.269992 0.169371 0.421801
Si Si8 0.775282 0.830300 0.728187
O O1 0.206124 0.764725 0.448553
O O2 0.162103 0.772521 0.394231
O O3 0.033490 0.784287 0.618783
O O4 0.152274 0.000000 0.465196
O O5 0.417363 0.500000 0.734891
O O6 0.377976 0.700313 0.854252
O O7 0.379498 0.767764 0.750522
O O8 0.959740 0.500000 0.998997
O O9 0.829074 0.696730 0.169380
O O10 0.000000 0.743694 0.000000
O O11 0.958312 0.734187 0.945325
O O12 0.405013 0.500000 0.896759
O O13 0.483217 0.252144 0.814092
O O14 0.300497 0.273002 0.040131
O O15 0.001477 0.500000 0.161592
O O16 0.875912 0.697443 0.283192
O O17 0.796174 0.500000 0.813505
O O18 0.796976 0.736302 0.755262
O O19 0.250000 0.250000 0.500000
O O20 0.248909 0.000000 0.455062
O O21 0.792440 0.000000 0.721733
#
# Coordination Sequence:
#
# PCOD8087100 Si02
#       8
#     8   8   8   8   8   8   8   8
#     4   9  19  36  58  83 110 144 190 233 270 322
#     4  10  21  38  59  80 104 143 191 233 275 328
#     4   9  16  28  50  80 108 135 174 221 266 308
#     4  10  21  37  57  81 113 147 179 225 284 338
#     4  10  19  31  53  84 111 141 181 225 268 321
#     4  11  23  38  56  82 113 144 181 230 285 336
#     4  10  20  35  55  82 116 150 187 227 271 324
#     4  10  19  35  59  82 109 146 184 227 274 326
#
# _framework density 19.335424
#
# number of rings (size 3 to 8) (size 9 to 14) (size 15 to 20)
#    0.000    2.125    1.250    2.250    0.000    6.000 
#    0.000    4.375    0.000    3.000    0.000    0.000 
#    0.000    0.000    0.000    0.000    0.000    0.000 
#
# Total GULP energy -396823.371464 kJ/mol
# GULP energy per Si atom -12400.730358 kJ/mol
# Density = 1.929142 g / cm^3
# Si number density = 19.335424 Si / 1000 Ang^3
#
#
#
# Elastic Constant Matrix: (Units=GPa)
#
#
# Indices 1 2 3 4 5 6 
#
# 1 143.5129 45.5626 50.8963 -0.0067 -0.8559 -0.0013
# 2 45.5626 42.8205 30.0065 -0.0123 -1.8921 0.0059
# 3 50.8963 30.0065 100.0659 -0.0133 10.8816 0.0068
# 4 -0.0067 -0.0123 -0.0133 22.6541 0.0013 0.7334
# 5 -0.8559 -1.8921 10.8816 0.0013 36.2406 0.0008
# 6 -0.0013 0.0059 0.0068 0.7334 0.0008 29.4943
#
#
#
# Elastic Compliance Matrix: (Units=1/GPa)
#
#
# Indices 1 2 3 4 5 6 
#
# 1 0.011063 -0.009824 -0.002743 -0.000004 0.000572 0.000003
# 2 -0.009824 0.038968 -0.007117 0.000014 0.003939 -0.000007
# 3 -0.002743 -0.007117 0.014028 0.000004 -0.004649 -0.000002
# 4 -0.000004 0.000014 0.000004 0.044178 -0.000002 -0.001099
# 5 0.000572 0.003939 -0.004649 -0.000002 0.029208 0.000000
# 6 0.000003 -0.000007 -0.000002 -0.001099 0.000000 0.033932
#
#
# Mechanical properties :
#
#
# Convention : Reuss Voigt Hill
#
# Bulk Modulus (GPa) = 40.50074 59.92557 50.21316
# Shear Modulus (GPa) = 22.83353 28.34005 25.58679
#
# Velocity S-wave (km/s) = 3.44018 3.83261 3.64168
# Velocity P-wave (km/s) = 6.06396 7.11654 6.61123
#
# Compressibility (1/GPa) = 0.02469091
#
# Stress axis : x y z
#
# Youngs Moduli (GPa) = 90.38872 25.66235 71.28414
#
# Poissons Ratio (x) = 0.25211 0.19556
# Poissons Ratio (y) = 0.88799 0.50731
# Poissons Ratio (z) = 0.24797 0.18263
#
# Static dielectric constant tensor:
#      x y z
#    x 3.631070 -0.000030 0.118610 
#    y -0.000030 3.202510 -0.000060 
#    z 0.118610 -0.000060 3.858580 
# 
# 
# High freq. dielectric constant tensor:
#      x y z
#    x 1.765840 0.000000 0.002050 
#    y 0.000000 1.712970 0.000000 
#    z 0.002050 0.000000 1.760580 
# 
# From -- ./inp_files/353365.got.cif
#   From: 2010.06.25/outbox.cif.g09.slc.cpg/sg12_177_cif.got.tgz:353365.got - 2010.06.28 00:19:55.
