data_PCOD8087527
_publ_section_title
;
Structure prediction by ZEFSAII (Michael W. Deem and Ramdas Pophale) SiO2 
 PCOD8087527
Probable space group: C 2/M
;
_chemical_formula_sum "Si O2"
_cell_formula_units_Z 48
_cell_length_a 26.455049
_cell_length_b 13.742781
_cell_length_c 13.171412
_cell_angle_alpha 90.000000
_cell_angle_beta 31.689988
_cell_angle_gamma 90.000000
_cell_volume 2515.601945
_symmetry_space_group_name_H-M "C 2/M"
_symmetry_group_IT_number 12
_symmetry_cell_setting 'monoclinic'
loop_
_space_group_symop_operation_xyz
x,y,z
-x,y,-z
-x,-y,-z
x,-y,z
1/2+x,1/2+y,z
1/2-x,1/2+y,-z
1/2-x,1/2-y,-z
1/2+x,1/2-y,z
loop_
_atom_site_type_symbol
_atom_site_label
_atom_site_fract_x
_atom_site_fract_y
_atom_site_fract_z
Si Si1 0.710927 0.387851 0.993480
Si Si2 0.666461 0.391876 0.840650
Si Si3 0.142163 0.611319 0.600059
Si Si4 0.437485 0.886571 0.868756
Si Si5 0.396570 0.200253 0.137556
Si Si6 0.896476 0.282029 0.731352
O O1 0.714246 0.500000 0.023609
O O2 0.646703 0.327089 0.183953
O O3 0.659158 0.378363 0.973436
O O4 0.820148 0.346876 0.798833
O O5 0.632063 0.500000 0.867609
O O6 0.776702 0.374203 0.622290
O O7 0.601644 0.314854 0.891064
O O8 0.129563 0.500000 0.655566
O O9 0.172082 0.672304 0.650360
O O10 0.045008 0.648744 0.712406
O O11 0.402232 0.827565 0.832719
O O12 0.431161 0.000000 0.854196
O O13 0.369534 0.859687 0.081541
O O14 0.500000 0.165596 0.000000
O O15 0.000000 0.280564 0.500000
#
# Coordination Sequence:
#
# PCOD8087527 Si02
#       6
#     8   8   8   8   8   8
#     4  10  22  39  58  84 115 147 184 229 280 334
#     4  10  19  34  53  73 103 141 177 215 262 319
#     4   9  18  31  52  79 104 135 172 215 269 321
#     4  10  19  33  53  78 107 135 171 221 274 323
#     4  10  19  32  50  76 105 138 172 216 264 316
#     4  11  22  37  60  86 111 146 188 231 278 331
#
# _framework density 19.080921
#
# number of rings (size 3 to 8) (size 9 to 14) (size 15 to 20)
#    0.000    2.000    1.667    2.500    0.000    5.333 
#    0.000    0.000    0.000    0.000    0.000    0.000 
#    0.000    0.000    0.000    0.000    0.000    0.000 
#
# Total GULP energy -297529.707663 kJ/mol
# GULP energy per Si atom -12397.071153 kJ/mol
# Density = 1.903749 g / cm^3
# Si number density = 19.080921 Si / 1000 Ang^3
#
#
#
# Elastic Constant Matrix: (Units=GPa)
#
#
# Indices 1 2 3 4 5 6 
#
# 1 54.0548 25.1500 7.7141 0.0000 10.0322 0.0000
# 2 25.1500 109.4130 25.0065 0.0000 4.2923 0.0000
# 3 7.7141 25.0065 46.8353 0.0000 -1.4222 0.0000
# 4 0.0000 0.0000 0.0000 24.2862 0.0000 1.4852
# 5 10.0322 4.2923 -1.4222 0.0000 22.1409 0.0000
# 6 0.0000 0.0000 0.0000 1.4852 0.0000 33.3277
#
#
#
# Elastic Compliance Matrix: (Units=1/GPa)
#
#
# Indices 1 2 3 4 5 6 
#
# 1 0.022555 -0.004440 -0.001632 0.000000 -0.009464 0.000000
# 2 -0.004440 0.011411 -0.005378 0.000000 -0.000546 0.000000
# 3 -0.001632 -0.005378 0.024594 0.000000 0.003361 0.000000
# 4 0.000000 0.000000 0.000000 0.041288 0.000000 -0.001840
# 5 -0.009464 -0.000546 0.003361 0.000000 0.049775 0.000000
# 6 0.000000 0.000000 0.000000 -0.001840 0.000000 0.030087
#
#
# Mechanical properties :
#
#
# Convention : Reuss Voigt Hill
#
# Bulk Modulus (GPa) = 28.04258 36.22714 32.13486
# Shear Modulus (GPa) = 23.31051 26.11313 24.71182
#
# Velocity S-wave (km/s) = 3.49903 3.70340 3.60266
# Velocity P-wave (km/s) = 5.57250 6.10853 5.84666
#
# Compressibility (1/GPa) = 0.03566006
#
# Stress axis : x y z
#
# Youngs Moduli (GPa) = 44.33614 87.63586 40.66109
#
# Poissons Ratio (x) = 0.38914 0.06634
# Poissons Ratio (y) = 0.19687 0.21866
# Poissons Ratio (z) = 0.07234 0.47128
#
# Static dielectric constant tensor:
#      x y z
#    x 3.450980 0.000000 0.172200 
#    y 0.000000 3.572210 0.000000 
#    z 0.172200 0.000000 3.384480 
# 
# 
# High freq. dielectric constant tensor:
#      x y z
#    x 1.736430 0.000000 0.016240 
#    y 0.000000 1.747180 0.000000 
#    z 0.016240 0.000000 1.726760 
# 
# From -- ./inp_files/142840.got.cif
#   From: 2010.06.25/outbox.cif.g09.slc.cpg/sg12_72_cif.got.tgz:142840.got - 2010.06.28 00:19:55.
