data_PCOD8087743
_publ_section_title
;
Structure prediction by ZEFSAII (Michael W. Deem and Ramdas Pophale) SiO2 
 PCOD8087743
Probable space group: C 2/M
;
_chemical_formula_sum "Si O2"
_cell_formula_units_Z 56
_cell_length_a 28.448002
_cell_length_b 8.662029
_cell_length_c 19.808336
_cell_angle_alpha 90.000000
_cell_angle_beta 141.812386
_cell_angle_gamma 90.000000
_cell_volume 3017.695686
_symmetry_space_group_name_H-M "C 2/M"
_symmetry_group_IT_number 12
_symmetry_cell_setting 'monoclinic'
loop_
_space_group_symop_operation_xyz
x,y,z
-x,y,-z
-x,-y,-z
x,-y,z
1/2+x,1/2+y,z
1/2-x,1/2+y,-z
1/2-x,1/2-y,-z
1/2+x,1/2-y,z
loop_
_atom_site_type_symbol
_atom_site_label
_atom_site_fract_x
_atom_site_fract_y
_atom_site_fract_z
Si Si1 0.894340 0.817904 0.576052
Si Si2 0.700640 0.816110 0.136793
Si Si3 0.205793 0.182492 0.886470
Si Si4 0.053175 0.682715 0.754586
Si Si5 0.744426 0.183025 0.331739
Si Si6 0.450319 0.818393 0.097094
Si Si7 0.118334 0.317126 0.292643
O O1 0.827750 0.766302 0.449889
O O2 0.869623 0.765304 0.622505
O O3 0.970613 0.735991 0.635201
O O4 0.906752 0.000000 0.589802
O O5 0.755017 0.758580 0.138089
O O6 0.729358 0.746932 0.240358
O O7 0.701045 0.000000 0.140955
O O8 0.614865 0.752366 0.025988
O O9 0.119010 0.239501 0.784736
O O10 0.209302 0.000000 0.895861
O O11 0.250000 0.250000 0.000000
O O12 0.059742 0.500000 0.756175
O O13 0.062754 0.744118 0.841931
O O14 0.680887 0.247452 0.311593
O O15 0.736788 0.000000 0.321767
O O16 0.535071 0.774222 0.168023
O O17 0.440660 0.000000 0.089609
O O18 0.124666 0.500000 0.312074
#
# Coordination Sequence:
#
# PCOD8087743 Si02
#       7
#     8   8   8   8   8   8   8
#     4  10  19  32  51  76 102 134 174 215 257 302
#     4   9  17  30  48  74 106 136 169 212 251 299
#     4  11  20  32  54  80 106 136 170 209 257 306
#     4  10  19  34  54  78 102 129 170 219 261 305
#     4   9  18  31  48  73 105 138 176 214 249 296
#     4   8  14  26  46  74 101 125 161 207 254 293
#     4   9  17  30  51  77 102 134 173 214 254 298
#
# _framework density 18.557206000000001
#
# number of rings (size 3 to 8) (size 9 to 14) (size 15 to 20)
#    0.000    2.571    1.429    2.571    0.000    0.571 
#    0.000    4.286    0.000    9.429    0.000    2.000 
#    0.000    0.000    0.000    0.000    0.000    0.000 
#
# Total GULP energy -347108.282410 kJ/mol
# GULP energy per Si atom -12396.724372 kJ/mol
# Density = 1.851497 g / cm^3
# Si number density = 18.557206 Si / 1000 Ang^3
#
#
#
# Elastic Constant Matrix: (Units=GPa)
#
#
# Indices 1 2 3 4 5 6 
#
# 1 91.3162 19.6164 66.6805 0.0000 13.8589 0.0000
# 2 19.6164 35.7735 19.0374 0.0000 1.3984 0.0000
# 3 66.6805 19.0374 157.8781 0.0000 9.7708 0.0000
# 4 0.0000 0.0000 0.0000 20.9703 0.0000 3.5855
# 5 13.8589 1.3984 9.7708 0.0000 28.4844 0.0000
# 6 0.0000 0.0000 0.0000 3.5855 0.0000 22.1371
#
#
#
# Elastic Compliance Matrix: (Units=1/GPa)
#
#
# Indices 1 2 3 4 5 6 
#
# 1 0.017919 -0.006155 -0.006442 0.000000 -0.006207 0.000000
# 2 -0.006155 0.031986 -0.001375 0.000000 0.001896 0.000000
# 3 -0.006442 -0.001375 0.009218 0.000000 0.000040 0.000000
# 4 0.000000 0.000000 0.000000 0.049045 0.000000 -0.007944
# 5 -0.006207 0.001896 0.000040 0.000000 0.038020 0.000000
# 6 0.000000 0.000000 0.000000 -0.007944 0.000000 0.046460
#
#
# Mechanical properties :
#
#
# Convention : Reuss Voigt Hill
#
# Bulk Modulus (GPa) = 32.07191 55.07074 43.57133
# Shear Modulus (GPa) = 21.64647 26.29394 23.97020
#
# Velocity S-wave (km/s) = 3.41907 3.76827 3.59791
# Velocity P-wave (km/s) = 5.73646 6.97666 6.38674
#
# Compressibility (1/GPa) = 0.03117993
#
# Stress axis : x y z
#
# Youngs Moduli (GPa) = 55.80624 31.26341 108.48257
#
# Poissons Ratio (x) = 0.19243 0.69883
# Poissons Ratio (y) = 0.34350 0.14913
# Poissons Ratio (z) = 0.35950 0.04298
#
# Static dielectric constant tensor:
#      x y z
#    x 3.569620 0.000000 0.144000 
#    y 0.000000 3.055410 0.000000 
#    z 0.144000 0.000000 3.703470 
# 
# 
# High freq. dielectric constant tensor:
#      x y z
#    x 1.717180 0.000000 0.019900 
#    y 0.000000 1.683880 0.000000 
#    z 0.019900 0.000000 1.722750 
# 
# From -- ./inp_files/292569.got.cif
#   From: 2010.06.25/outbox.cif.g09.slc.cpg/sg12_147_cif.got.tgz:292569.got - 2010.06.28 00:19:55.
