data_PCOD8087579
_publ_section_title
;
Structure prediction by ZEFSAII (Michael W. Deem and Ramdas Pophale) SiO2 
 PCOD8087579
Probable space group: C 2/M
;
_chemical_formula_sum "Si O2"
_cell_formula_units_Z 56
_cell_length_a 16.303053
_cell_length_b 12.957336
_cell_length_c 16.516166
_cell_angle_alpha 90.000000
_cell_angle_beta 62.391993
_cell_angle_gamma 90.000000
_cell_volume 3091.688038
_symmetry_space_group_name_H-M "C 2/M"
_symmetry_group_IT_number 12
_symmetry_cell_setting 'monoclinic'
loop_
_space_group_symop_operation_xyz
x,y,z
-x,y,-z
-x,-y,-z
x,-y,z
1/2+x,1/2+y,z
1/2-x,1/2+y,-z
1/2-x,1/2-y,-z
1/2+x,1/2-y,z
loop_
_atom_site_type_symbol
_atom_site_label
_atom_site_fract_x
_atom_site_fract_y
_atom_site_fract_z
Si Si1 0.678241 0.880206 0.801619
Si Si2 0.094053 0.881976 0.692647
Si Si3 0.007954 0.698344 0.189249
Si Si4 0.215889 0.278214 0.346515
Si Si5 0.095620 0.613821 0.002291
Si Si6 0.546291 0.118054 0.342180
Si Si7 0.927332 0.793093 0.467971
O O1 0.584205 0.862013 0.794851
O O2 0.760543 0.812738 0.727164
O O3 0.705006 0.000000 0.782330
O O4 0.668732 0.847504 0.900982
O O5 0.016604 0.816385 0.776546
O O6 0.195460 0.843909 0.669796
O O7 0.081217 0.872476 0.601987
O O8 0.080913 0.000000 0.724708
O O9 0.084205 0.694319 0.081923
O O10 0.052743 0.639257 0.243970
O O11 0.143686 0.354446 0.337917
O O12 0.172682 0.224693 0.445932
O O13 0.123827 0.500000 0.022710
O O14 0.000000 0.602153 0.000000
O O15 0.463081 0.182898 0.419319
O O16 0.522902 0.000000 0.370350
O O17 0.000000 0.839104 0.500000
#
# Coordination Sequence:
#
# PCOD8087579 Si02
#       7
#     8   8   8   8   8   8   8
#     4   9  17  30  51  76  98 123 156 196 241 280
#     4  10  20  33  49  69  97 130 157 190 240 290
#     4   9  17  31  51  74  96 120 161 204 233 272
#     4  10  20  33  47  71 101 126 157 194 235 286
#     4   8  13  25  49  76  96 118 152 196 241 275
#     4  10  19  32  51  72  95 126 161 197 235 276
#     4   9  20  35  50  71  92 120 164 204 233 273
#
# _framework density 18.113083
#
# number of rings (size 3 to 8) (size 9 to 14) (size 15 to 20)
#    0.000    2.714    0.000    3.000    0.000    4.000 
#    0.000    6.429    0.000   11.571    0.000    0.000 
#    0.000    0.000    0.000    0.000    0.000    0.000 
#
# Total GULP energy -347120.000333 kJ/mol
# GULP energy per Si atom -12397.142869 kJ/mol
# Density = 1.807186 g / cm^3
# Si number density = 18.113083 Si / 1000 Ang^3
#
#
#
# Elastic Constant Matrix: (Units=GPa)
#
#
# Indices 1 2 3 4 5 6 
#
# 1 36.5723 16.9918 28.9964 0.0000 4.2188 0.0000
# 2 16.9918 100.4615 60.3469 0.0000 -9.4898 0.0000
# 3 28.9964 60.3469 139.3739 0.0000 9.3624 0.0000
# 4 0.0000 0.0000 0.0000 18.9020 0.0000 0.7604
# 5 4.2188 -9.4898 9.3624 0.0000 16.8168 0.0000
# 6 0.0000 0.0000 0.0000 0.7604 0.0000 19.2308
#
#
#
# Elastic Compliance Matrix: (Units=1/GPa)
#
#
# Indices 1 2 3 4 5 6 
#
# 1 0.033802 -0.003400 -0.005051 0.000000 -0.007587 0.000000
# 2 -0.003400 0.016215 -0.007257 0.000000 0.014043 0.000000
# 3 -0.005051 -0.007257 0.012007 0.000000 -0.009513 0.000000
# 4 0.000000 0.000000 0.000000 0.052989 0.000000 -0.002095
# 5 -0.007587 0.014043 -0.009513 0.000000 0.074588 0.000000
# 6 0.000000 0.000000 0.000000 -0.002095 0.000000 0.052083
#
#
# Mechanical properties :
#
#
# Convention : Reuss Voigt Hill
#
# Bulk Modulus (GPa) = 32.67002 54.34197 43.50599
# Shear Modulus (GPa) = 17.64902 22.32808 19.98855
#
# Velocity S-wave (km/s) = 3.12489 3.51480 3.32556
# Velocity P-wave (km/s) = 5.57636 6.82190 6.23034
#
# Compressibility (1/GPa) = 0.03060910
#
# Stress axis : x y z
#
# Youngs Moduli (GPa) = 29.58369 61.67209 83.28598
#
# Poissons Ratio (x) = 0.20968 0.42066
# Poissons Ratio (y) = 0.10058 0.60439
# Poissons Ratio (z) = 0.14942 0.44754
#
# Static dielectric constant tensor:
#      x y z
#    x 3.192430 0.000000 0.158350 
#    y 0.000000 3.168270 0.000000 
#    z 0.158350 0.000000 3.740830 
# 
# 
# High freq. dielectric constant tensor:
#      x y z
#    x 1.682420 0.000000 0.012230 
#    y 0.000000 1.685440 0.000000 
#    z 0.012230 0.000000 1.710690 
# 
# From -- ./inp_files/276375.got.cif
#   From: 2010.06.25/outbox.cif.g09.slc.cpg/sg12_139_cif.got.tgz:276375.got - 2010.06.28 00:19:55.
