data_PCOD8087591
_publ_section_title
;
Structure prediction by ZEFSAII (Michael W. Deem and Ramdas Pophale) SiO2 
 PCOD8087591
Probable space group: C 2/M
;
_chemical_formula_sum "Si O2"
_cell_formula_units_Z 48
_cell_length_a 18.438701
_cell_length_b 8.787304
_cell_length_c 23.872268
_cell_angle_alpha 90.000000
_cell_angle_beta 43.575176
_cell_angle_gamma 90.000000
_cell_volume 2666.192727
_symmetry_space_group_name_H-M "C 2/M"
_symmetry_group_IT_number 12
_symmetry_cell_setting 'monoclinic'
loop_
_space_group_symop_operation_xyz
x,y,z
-x,y,-z
-x,-y,-z
x,-y,z
1/2+x,1/2+y,z
1/2-x,1/2+y,-z
1/2-x,1/2-y,-z
1/2+x,1/2-y,z
loop_
_atom_site_type_symbol
_atom_site_label
_atom_site_fract_x
_atom_site_fract_y
_atom_site_fract_z
Si Si1 0.825935 0.819506 0.329719
Si Si2 0.433086 0.821372 0.162870
Si Si3 0.858994 0.321676 0.421243
Si Si4 0.591319 0.178018 0.486938
Si Si5 0.379758 0.667338 0.084574
Si Si6 0.342509 0.319561 0.984160
O O1 0.868119 0.744651 0.250302
O O2 0.896561 0.761202 0.343168
O O3 0.706343 0.759447 0.405247
O O4 0.834686 0.000000 0.321051
O O5 0.367469 0.783554 0.142928
O O6 0.547757 0.747411 0.098485
O O7 0.445636 0.000000 0.161852
O O8 0.846421 0.500000 0.416672
O O9 0.750000 0.250000 0.500000
O O10 0.935230 0.291832 0.432247
O O11 0.500000 0.255044 0.500000
O O12 0.594491 0.000000 0.472959
O O13 0.338599 0.500000 0.126286
O O14 0.500000 0.652976 0.000000
O O15 0.319406 0.724017 0.062319
O O16 0.347245 0.500000 0.974121
O O17 0.250000 0.250000 0.000000
#
# Coordination Sequence:
#
# PCOD8087591 Si02
#       6
#     8   8   8   8   8   8
#     4  10  19  32  51  72  98 131 165 206 253 300
#     4  11  21  33  52  76 102 133 171 212 253 300
#     4   9  16  28  48  71  96 127 164 203 243 297
#     4   8  15  29  50  74  96 123 161 202 245 294
#     4   8  16  32  52  73  99 132 167 203 247 301
#     4  10  20  35  55  78 104 133 168 208 252 302
#
# _framework density 18.0032
#
# number of rings (size 3 to 8) (size 9 to 14) (size 15 to 20)
#    0.000    2.667    0.000    5.000    0.000    3.667 
#    0.000    1.667    0.000   26.000    0.000    0.000 
#    0.000    0.000    0.000    0.000    0.000    0.000 
#
# Total GULP energy -297393.079591 kJ/mol
# GULP energy per Si atom -12391.378316 kJ/mol
# Density = 1.796222 g / cm^3
# Si number density = 18.003200 Si / 1000 Ang^3
#
#
#
# Elastic Constant Matrix: (Units=GPa)
#
#
# Indices 1 2 3 4 5 6 
#
# 1 141.7646 52.3309 60.8478 0.0000 29.1608 0.0000
# 2 52.3309 98.1272 49.3651 0.0001 16.6739 -0.0002
# 3 60.8478 49.3651 108.7774 0.0000 29.0460 0.0000
# 4 0.0000 0.0001 0.0000 28.8667 0.0000 6.2023
# 5 29.1608 16.6739 29.0460 0.0000 27.6475 0.0000
# 6 0.0000 -0.0002 0.0000 6.2023 0.0000 24.9802
#
#
#
# Elastic Compliance Matrix: (Units=1/GPa)
#
#
# Indices 1 2 3 4 5 6 
#
# 1 0.010795 -0.003227 -0.002854 0.000000 -0.006441 0.000000
# 2 -0.003227 0.014278 -0.004565 0.000000 -0.000412 0.000000
# 3 -0.002854 -0.004565 0.015737 0.000000 -0.010770 0.000000
# 4 0.000000 0.000000 0.000000 0.036594 0.000000 -0.009086
# 5 -0.006441 -0.000412 -0.010770 0.000000 0.054527 0.000000
# 6 0.000000 0.000000 0.000000 -0.009086 0.000000 0.042288
#
#
# Mechanical properties :
#
#
# Convention : Reuss Voigt Hill
#
# Bulk Modulus (GPa) = 51.23204 74.86185 63.04695
# Shear Modulus (GPa) = 24.75054 28.70724 26.72889
#
# Velocity S-wave (km/s) = 3.71183 3.99753 3.85733
# Velocity P-wave (km/s) = 6.84757 7.93598 7.41178
#
# Compressibility (1/GPa) = 0.01951904
#
# Stress axis : x y z
#
# Youngs Moduli (GPa) = 92.63472 70.03803 63.54464
#
# Poissons Ratio (x) = 0.22598 0.18137
# Poissons Ratio (y) = 0.29889 0.29006
# Poissons Ratio (z) = 0.26440 0.31970
#
# Static dielectric constant tensor:
#      x y z
#    x 3.947740 0.000000 0.507050 
#    y 0.000000 3.378870 0.000000 
#    z 0.507050 0.000000 3.301440 
# 
# 
# High freq. dielectric constant tensor:
#      x y z
#    x 1.694970 0.000000 0.034680 
#    y 0.000000 1.693210 0.000000 
#    z 0.034680 0.000000 1.677290 
# 
# From -- ./inp_files/313607.got.cif
#   From: 2010.06.25/outbox.cif.g09.slc.cpg/sg12_157_cif.got.tgz:313607.got - 2010.06.28 00:19:55.
