data_PCOD8087655
_publ_section_title
;
Structure prediction by ZEFSAII (Michael W. Deem and Ramdas Pophale) SiO2 
 PCOD8087655
Probable space group: C 2/M
;
_chemical_formula_sum "Si O2"
_cell_formula_units_Z 64
_cell_length_a 19.208377
_cell_length_b 8.735600
_cell_length_c 25.221460
_cell_angle_alpha 90.000000
_cell_angle_beta 125.210536
_cell_angle_gamma 90.000000
_cell_volume 3457.772056
_symmetry_space_group_name_H-M "C 2/M"
_symmetry_group_IT_number 12
_symmetry_cell_setting 'monoclinic'
loop_
_space_group_symop_operation_xyz
x,y,z
-x,y,-z
-x,-y,-z
x,-y,z
1/2+x,1/2+y,z
1/2-x,1/2+y,-z
1/2-x,1/2-y,-z
1/2+x,1/2-y,z
loop_
_atom_site_type_symbol
_atom_site_label
_atom_site_fract_x
_atom_site_fract_y
_atom_site_fract_z
Si Si1 0.684304 0.830710 0.186052
Si Si2 0.215047 0.677251 0.562089
Si Si3 0.058290 0.320437 0.678558
Si Si4 0.116025 0.176726 0.427421
Si Si5 0.702642 0.318389 0.670975
Si Si6 0.147666 0.171802 0.810346
Si Si7 0.409385 0.320142 0.943030
Si Si8 0.750433 0.818511 0.942265
O O1 0.714407 0.772336 0.257133
O O2 0.767895 0.832435 0.187155
O O3 0.612795 0.724979 0.127450
O O4 0.645047 0.000000 0.173085
O O5 0.189841 0.500000 0.545763
O O6 0.147190 0.777024 0.499650
O O7 0.309553 0.707426 0.582081
O O8 0.211650 0.727961 0.620920
O O9 0.076719 0.500000 0.682270
O O10 0.116065 0.230981 0.661769
O O11 0.076234 0.264702 0.746531
O O12 0.960849 0.285350 0.622938
O O13 0.087345 0.000000 0.415423
O O14 0.699595 0.500000 0.660326
O O15 0.167793 0.256249 0.874571
O O16 0.114536 0.000000 0.807358
O O17 0.415236 0.500000 0.948044
O O18 0.336710 0.260865 0.951249
O O19 0.500000 0.247261 0.000000
O O20 0.745642 0.000000 0.942473
O O21 0.750000 0.750000 0.000000
#
# Coordination Sequence:
#
# PCOD8087655 Si02
#       8
#     8   8   8   8   8   8   8   8
#     4   8  16  30  49  73  99 130 165 203 250 302
#     4  10  21  37  57  80 105 137 176 214 256 309
#     4  11  21  34  55  82 108 134 173 219 259 307
#     4  10  21  38  57  77 106 142 175 210 259 313
#     4  10  20  35  55  79 107 137 172 215 263 310
#     4   9  17  32  52  74 102 134 169 210 260 312
#     4   9  18  32  50  72  98 130 167 206 249 297
#     4  10  19  32  51  74 101 134 171 211 255 305
#
# _framework density 18.509027
#
# number of rings (size 3 to 8) (size 9 to 14) (size 15 to 20)
#    0.000    2.375    0.000    3.750    0.000    6.250 
#    0.000    3.750    0.000    4.500    0.000    0.000 
#    0.000    0.000    0.000    0.000    0.000    0.000 
#
# Total GULP energy -396774.587375 kJ/mol
# GULP energy per Si atom -12399.205855 kJ/mol
# Density = 1.846690 g / cm^3
# Si number density = 18.509027 Si / 1000 Ang^3
#
#
#
# Elastic Constant Matrix: (Units=GPa)
#
#
# Indices 1 2 3 4 5 6 
#
# 1 47.1574 18.0464 48.1906 0.0000 -0.9165 0.0000
# 2 18.0464 47.9292 16.8158 0.0000 1.7179 0.0000
# 3 48.1906 16.8158 131.0670 0.0000 -3.6890 0.0000
# 4 0.0000 0.0000 0.0000 39.3616 0.0000 -0.9874
# 5 -0.9165 1.7179 -3.6890 0.0000 30.8409 0.0000
# 6 0.0000 0.0000 0.0000 -0.9874 0.0000 22.3474
#
#
#
# Elastic Compliance Matrix: (Units=1/GPa)
#
#
# Indices 1 2 3 4 5 6 
#
# 1 0.037932 -0.009839 -0.012680 0.000000 0.000159 0.000000
# 2 -0.009839 0.024474 0.000432 0.000000 -0.001604 0.000000
# 3 -0.012680 0.000432 0.012266 0.000000 0.001066 0.000000
# 4 0.000000 0.000000 0.000000 0.025434 0.000000 0.001124
# 5 0.000159 -0.001604 0.001066 0.000000 0.032646 0.000000
# 6 0.000000 0.000000 0.000000 0.001124 0.000000 0.044798
#
#
# Mechanical properties :
#
#
# Convention : Reuss Voigt Hill
#
# Bulk Modulus (GPa) = 32.78752 43.58437 38.18594
# Shear Modulus (GPa) = 21.56202 28.05002 24.80602
#
# Velocity S-wave (km/s) = 3.41683 3.89714 3.66486
# Velocity P-wave (km/s) = 5.77227 6.62186 6.21161
#
# Compressibility (1/GPa) = 0.03049941
#
# Stress axis : x y z
#
# Youngs Moduli (GPa) = 26.36327 40.85888 81.52396
#
# Poissons Ratio (x) = 0.40201 1.03371
# Poissons Ratio (y) = 0.25939 -0.03525
# Poissons Ratio (z) = 0.33428 -0.01767
#
# Static dielectric constant tensor:
#      x y z
#    x 3.367520 0.000000 0.113520 
#    y 0.000000 3.481860 0.000000 
#    z 0.113520 0.000000 3.770070 
# 
# 
# High freq. dielectric constant tensor:
#      x y z
#    x 1.681150 0.000000 -0.000040 
#    y 0.000000 1.726830 0.000000 
#    z -0.000040 0.000000 1.734950 
# 
# From -- ./inp_files/346292.got.cif
#   From: 2010.06.25/outbox.cif.g09.slc.cpg/sg12_174_cif.got.tgz:346292.got - 2010.06.28 00:19:55.
