data_PCOD8087424
_publ_section_title
;
Structure prediction by ZEFSAII (Michael W. Deem and Ramdas Pophale) SiO2 
 PCOD8087424
Probable space group: C 2/M
;
_chemical_formula_sum "Si O2"
_cell_formula_units_Z 56
_cell_length_a 8.684424
_cell_length_b 19.319830
_cell_length_c 22.162377
_cell_angle_alpha 90.000000
_cell_angle_beta 125.999797
_cell_angle_gamma 90.000000
_cell_volume 3008.288062
_symmetry_space_group_name_H-M "C 2/M"
_symmetry_group_IT_number 12
_symmetry_cell_setting 'monoclinic'
loop_
_space_group_symop_operation_xyz
x,y,z
-x,y,-z
-x,-y,-z
x,-y,z
1/2+x,1/2+y,z
1/2-x,1/2+y,-z
1/2-x,1/2-y,-z
1/2+x,1/2-y,z
loop_
_atom_site_type_symbol
_atom_site_label
_atom_site_fract_x
_atom_site_fract_y
_atom_site_fract_z
Si Si1 0.756936 0.076243 0.292981
Si Si2 0.549292 0.674552 0.577106
Si Si3 0.131345 0.079993 0.874550
Si Si4 0.182026 0.325448 0.577106
Si Si5 0.122007 0.923757 0.292981
Si Si6 0.180116 0.826172 1.000000
Si Si7 0.007695 0.579993 0.125450
O O1 0.784984 0.128450 0.354829
O O2 0.584226 0.099421 0.209788
O O3 0.946055 0.073297 0.297370
O O4 0.714768 0.000000 0.309848
O O5 0.500000 0.643496 0.500000
O O6 0.359775 0.676959 0.573183
O O7 0.636497 0.750000 0.590998
O O8 0.330905 0.091782 0.887270
O O9 0.954858 0.099420 0.790211
O O10 0.115603 0.000000 0.891993
O O11 0.118618 0.131427 0.927160
O O12 0.220497 0.371549 0.645171
O O13 0.000000 0.356503 0.500000
O O14 0.214778 0.000000 0.309850
O O15 0.337139 0.868573 0.072840
O O16 0.250000 0.750000 0.000000
O O17 0.000000 0.816692 0.000000
O O18 0.939627 0.500000 0.108008
#
# Coordination Sequence:
#
# PCOD8087424 Si02
#       7
#     8   8   8   8   8   8   8
#     4   8  16  32  54  78 102 131 168 208 250 299
#     4  10  19  32  50  72 101 135 171 209 251 300
#     4   9  18  36  60  81 104 137 173 208 255 314
#     4  10  19  32  50  72 101 135 171 209 251 300
#     4   8  16  32  54  78 102 131 168 208 250 299
#     4  12  25  38  53  77 109 139 173 216 259 304
#     4   9  18  36  60  81 104 137 173 208 255 314
#
# _framework density 18.615238000000002
#
# number of rings (size 3 to 8) (size 9 to 14) (size 15 to 20)
#    0.000    2.571    0.000    5.143    0.000    4.000 
#    0.000    5.714    0.000    6.000    0.000    0.000 
#    0.000    0.000    0.000    0.000    0.000    0.000 
#
# Total GULP energy -347116.803610 kJ/mol
# GULP energy per Si atom -12397.028700 kJ/mol
# Density = 1.857287 g / cm^3
# Si number density = 18.615238 Si / 1000 Ang^3
#
#
#
# Elastic Constant Matrix: (Units=GPa)
#
#
# Indices 1 2 3 4 5 6 
#
# 1 78.3474 51.4773 50.9982 0.0000 1.3746 0.0000
# 2 51.4773 122.2864 107.4758 0.0000 4.5986 0.0000
# 3 50.9982 107.4758 180.8461 0.0001 7.0434 0.0000
# 4 0.0000 0.0000 0.0001 31.4795 0.0000 0.6814
# 5 1.3746 4.5986 7.0434 0.0000 22.5107 0.0000
# 6 0.0000 0.0000 0.0000 0.6814 0.0000 23.1819
#
#
#
# Elastic Compliance Matrix: (Units=1/GPa)
#
#
# Indices 1 2 3 4 5 6 
#
# 1 0.017772 -0.006445 -0.001205 0.000000 0.000608 0.000000
# 2 -0.006445 0.019459 -0.009726 0.000000 -0.000538 0.000000
# 3 -0.001205 -0.009726 0.011712 0.000000 -0.001604 0.000000
# 4 0.000000 0.000000 0.000000 0.031787 0.000000 -0.000934
# 5 0.000608 -0.000538 -0.001604 0.000000 0.044998 0.000000
# 6 0.000000 0.000000 0.000000 -0.000934 0.000000 0.043165
#
#
# Mechanical properties :
#
#
# Convention : Reuss Voigt Hill
#
# Bulk Modulus (GPa) = 70.46805 89.04251 79.75528
# Shear Modulus (GPa) = 23.99533 26.86967 25.43250
#
# Velocity S-wave (km/s) = 3.59418 3.80336 3.70025
# Velocity P-wave (km/s) = 7.42707 8.19905 7.82259
#
# Compressibility (1/GPa) = 0.01419083
#
# Stress axis : x y z
#
# Youngs Moduli (GPa) = 56.26812 51.39119 85.38384
#
# Poissons Ratio (x) = 0.33121 0.10290
# Poissons Ratio (y) = 0.36264 0.83042
# Poissons Ratio (z) = 0.06781 0.49981
#
# Static dielectric constant tensor:
#      x y z
#    x 3.152110 0.000000 0.055900 
#    y 0.000000 3.605680 0.000000 
#    z 0.055900 0.000000 3.832710 
# 
# 
# High freq. dielectric constant tensor:
#      x y z
#    x 1.698390 0.000000 0.003320 
#    y 0.000000 1.721220 0.000000 
#    z 0.003320 0.000000 1.738790 
# 
# From -- ./inp_files/300881.got.cif
#   From: 2010.06.25/outbox.cif.g09.slc.cpg/sg12_151_cif.got.tgz:300881.got - 2010.06.28 00:19:55.
