data_PCOD8087221
_publ_section_title
;
Structure prediction by ZEFSAII (Michael W. Deem and Ramdas Pophale) SiO2 
 PCOD8087221
Probable space group: C 2/M
;
_chemical_formula_sum "Si O2"
_cell_formula_units_Z 44
_cell_length_a 17.409921
_cell_length_b 12.202460
_cell_length_c 13.056982
_cell_angle_alpha 90.000000
_cell_angle_beta 70.955299
_cell_angle_gamma 90.000000
_cell_volume 2622.045649
_symmetry_space_group_name_H-M "C 2/M"
_symmetry_group_IT_number 12
_symmetry_cell_setting 'monoclinic'
loop_
_space_group_symop_operation_xyz
x,y,z
-x,y,-z
-x,-y,-z
x,-y,z
1/2+x,1/2+y,z
1/2-x,1/2+y,-z
1/2-x,1/2-y,-z
1/2+x,1/2-y,z
loop_
_atom_site_type_symbol
_atom_site_label
_atom_site_fract_x
_atom_site_fract_y
_atom_site_fract_z
Si Si1 0.764984 0.747968 0.829729
Si Si2 0.114325 0.370136 0.368319
Si Si3 0.000000 0.238388 0.000000
Si Si4 0.349249 0.627818 0.969794
Si Si5 0.882961 0.629506 0.194672
Si Si6 0.436604 0.870486 0.390386
O O1 0.810867 0.689029 0.717737
O O2 0.829021 0.807848 0.874867
O O3 0.705057 0.838106 0.808432
O O4 0.715458 0.656569 0.913915
O O5 0.126486 0.500000 0.353416
O O6 0.112355 0.330571 0.487825
O O7 0.030278 0.331270 0.352031
O O8 0.953575 0.316648 0.098005
O O9 0.060594 0.160277 0.035495
O O10 0.345146 0.500000 0.948835
O O11 0.893397 0.500000 0.182412
O O12 0.892598 0.672394 0.307200
O O13 0.438061 0.000000 0.392820
#
# Coordination Sequence:
#
# PCOD8087221 Si02
#       6
#     8   8   4   8   8   8
#     4  10  20  30  48  71  94 126 155 183 238 281
#     4   9  16  30  49  71  94 121 157 196 226 267
#     4  10  20  32  52  70  88 126 162 186 232 276
#     4  10  20  34  47  68  96 122 155 195 229 275
#     4  10  19  32  47  71  99 122 152 193 230 275
#     4   8  16  29  48  69  93 122 155 192 231 264
#
# _framework density 16.780791000000001
#
# number of rings (size 3 to 8) (size 9 to 14) (size 15 to 20)
#    0.000    2.545    0.000    3.818    0.000    0.727 
#    0.000    5.455    0.000    0.000    0.000   25.455 
#    0.000    0.000    0.000    0.000    0.000    0.000 
#
# Total GULP energy -272784.924704 kJ/mol
# GULP energy per Si atom -12399.314759 kJ/mol
# Density = 1.674260 g / cm^3
# Si number density = 16.780791 Si / 1000 Ang^3
#
#
#
# Elastic Constant Matrix: (Units=GPa)
#
#
# Indices 1 2 3 4 5 6 
#
# 1 103.5096 31.6358 49.9704 0.0000 5.2260 0.0000
# 2 31.6358 61.9121 26.2854 0.0000 -7.6956 0.0000
# 3 49.9704 26.2854 105.4130 0.0000 -2.2725 0.0000
# 4 0.0000 0.0000 0.0000 24.3019 0.0000 0.7580
# 5 5.2260 -7.6956 -2.2725 0.0000 30.7988 0.0000
# 6 0.0000 0.0000 0.0000 0.7580 0.0000 14.1167
#
#
#
# Elastic Compliance Matrix: (Units=1/GPa)
#
#
# Indices 1 2 3 4 5 6 
#
# 1 0.014164 -0.005443 -0.005447 0.000000 -0.004165 0.000000
# 2 -0.005443 0.020712 -0.002457 0.000000 0.005917 0.000000
# 3 -0.005447 -0.002457 0.012708 0.000000 0.001248 0.000000
# 4 0.000000 0.000000 0.000000 0.041218 0.000000 -0.002213
# 5 -0.004165 0.005917 0.001248 0.000000 0.034746 0.000000
# 6 0.000000 0.000000 0.000000 -0.002213 0.000000 0.070957
#
#
# Mechanical properties :
#
#
# Convention : Reuss Voigt Hill
#
# Bulk Modulus (GPa) = 47.86832 54.06864 50.96848
# Shear Modulus (GPa) = 21.91418 24.70636 23.31027
#
# Velocity S-wave (km/s) = 3.61766 3.84122 3.73111
# Velocity P-wave (km/s) = 6.78509 7.20859 7.00005
#
# Compressibility (1/GPa) = 0.02089064
#
# Stress axis : x y z
#
# Youngs Moduli (GPa) = 70.59955 48.28186 78.68923
#
# Poissons Ratio (x) = 0.26279 0.42863
# Poissons Ratio (y) = 0.38426 0.19333
# Poissons Ratio (z) = 0.38457 0.11862
#
# Static dielectric constant tensor:
#      x y z
#    x 3.280510 0.000000 0.222990 
#    y 0.000000 2.854590 0.000000 
#    z 0.222990 0.000000 3.394640 
# 
# 
# High freq. dielectric constant tensor:
#      x y z
#    x 1.653160 0.000000 0.007150 
#    y 0.000000 1.624150 0.000000 
#    z 0.007150 0.000000 1.655230 
# 
# From -- ./inp_files/153448.got.cif
#   From: 2010.06.25/outbox.cif.g09.slc.cpg/sg12_77_cif.got.tgz:153448.got - 2010.06.28 00:19:55.
