data_PCOD8087426
_publ_section_title
;
Structure prediction by ZEFSAII (Michael W. Deem and Ramdas Pophale) SiO2 
 PCOD8087426
Probable space group: C 2/M
;
_chemical_formula_sum "Si O2"
_cell_formula_units_Z 56
_cell_length_a 27.198340
_cell_length_b 9.486911
_cell_length_c 20.017387
_cell_angle_alpha 90.000000
_cell_angle_beta 145.116535
_cell_angle_gamma 90.000000
_cell_volume 2953.939963
_symmetry_space_group_name_H-M "C 2/M"
_symmetry_group_IT_number 12
_symmetry_cell_setting 'monoclinic'
loop_
_space_group_symop_operation_xyz
x,y,z
-x,y,-z
-x,-y,-z
x,-y,z
1/2+x,1/2+y,z
1/2-x,1/2+y,-z
1/2-x,1/2-y,-z
1/2+x,1/2-y,z
loop_
_atom_site_type_symbol
_atom_site_label
_atom_site_fract_x
_atom_site_fract_y
_atom_site_fract_z
Si Si1 0.461828 0.663376 0.387840
Si Si2 0.688564 0.338704 0.979093
Si Si3 0.251746 0.166983 0.320854
Si Si4 0.442674 0.667844 0.875450
Si Si5 0.802179 0.340253 0.229308
Si Si6 0.000450 0.833209 0.797216
Si Si7 0.890451 0.163651 0.551464
O O1 0.500000 0.717514 0.500000
O O2 0.437535 0.500000 0.363774
O O3 0.375246 0.747234 0.275905
O O4 0.529695 0.698037 0.406808
O O5 0.690398 0.500000 0.955395
O O6 0.718557 0.330349 0.089551
O O7 0.750000 0.250000 0.000000
O O8 0.591577 0.275676 0.870392
O O9 0.154809 0.218788 0.223989
O O10 0.279651 0.216399 0.278008
O O11 0.309590 0.241945 0.441254
O O12 0.260693 0.000000 0.339655
O O13 0.446596 0.500000 0.879447
O O14 0.479131 0.729724 0.846388
O O15 0.500000 0.728294 0.000000
O O16 0.835731 0.500000 0.271490
O O17 0.921445 0.794253 0.660252
O O18 0.010627 0.000000 0.813671
O O19 0.864025 0.000000 0.516969
#
# Coordination Sequence:
#
# PCOD8087426 Si02
#       7
#     8   8   8   8   8   8   8
#     4  10  19  32  50  72 101 140 180 208 241 301
#     4  10  20  35  54  77 104 135 172 213 257 306
#     4  10  20  33  52  79 105 130 167 214 258 300
#     4   9  17  32  55  79 101 129 169 213 255 302
#     4  10  20  32  50  77 106 133 166 215 268 304
#     4   9  18  33  53  74 101 137 173 209 251 302
#     4  10  20  34  51  74 104 138 173 208 250 303
#
# _framework density 18.957732
#
# number of rings (size 3 to 8) (size 9 to 14) (size 15 to 20)
#    0.000    2.286    1.429    1.714    0.000    6.571 
#    0.000    0.714    0.000    1.286    0.000    0.000 
#    0.000    0.000    0.000    0.000    0.000    0.000 
#
# Total GULP energy -347220.630748 kJ/mol
# GULP energy per Si atom -12400.736812 kJ/mol
# Density = 1.891458 g / cm^3
# Si number density = 18.957732 Si / 1000 Ang^3
#
#
#
# Elastic Constant Matrix: (Units=GPa)
#
#
# Indices 1 2 3 4 5 6 
#
# 1 115.1481 33.4077 67.2581 0.0000 -2.7595 0.0000
# 2 33.4077 35.9019 38.1086 0.0000 9.3513 0.0000
# 3 67.2581 38.1086 142.4780 0.0000 6.0044 0.0000
# 4 0.0000 0.0000 0.0000 28.6431 0.0000 0.4347
# 5 -2.7595 9.3513 6.0044 0.0000 36.2570 0.0000
# 6 0.0000 0.0000 0.0000 0.4347 0.0000 12.4072
#
#
#
# Elastic Compliance Matrix: (Units=1/GPa)
#
#
# Indices 1 2 3 4 5 6 
#
# 1 0.014077 -0.009732 -0.004223 0.000000 0.004281 0.000000
# 2 -0.009732 0.048320 -0.007828 0.000000 -0.011907 0.000000
# 3 -0.004223 -0.007828 0.011112 0.000000 -0.000142 0.000000
# 4 0.000000 0.000000 0.000000 0.034931 0.000000 -0.001224
# 5 0.004281 -0.011907 -0.000142 0.000000 0.031001 0.000000
# 6 0.000000 0.000000 0.000000 -0.001224 0.000000 0.080641
#
#
# Mechanical properties :
#
#
# Convention : Reuss Voigt Hill
#
# Bulk Modulus (GPa) = 33.39634 63.45299 48.42467
# Shear Modulus (GPa) = 18.27286 25.77836 22.02561
#
# Velocity S-wave (km/s) = 3.10800 3.69152 3.41226
# Velocity P-wave (km/s) = 5.52576 7.19119 6.41277
#
# Compressibility (1/GPa) = 0.02994340
#
# Stress axis : x y z
#
# Youngs Moduli (GPa) = 71.03808 20.69518 89.99419
#
# Poissons Ratio (x) = 0.20140 0.38001
# Poissons Ratio (y) = 0.69133 0.70452
# Poissons Ratio (z) = 0.29996 0.16201
#
# Static dielectric constant tensor:
#      x y z
#    x 3.564020 0.000000 -0.124520 
#    y 0.000000 3.073600 0.000000 
#    z -0.124520 0.000000 3.679740 
# 
# 
# High freq. dielectric constant tensor:
#      x y z
#    x 1.740800 0.000000 -0.005370 
#    y 0.000000 1.690880 0.000000 
#    z -0.005370 0.000000 1.752030 
# 
# From -- ./inp_files/238992.got.cif
#   From: 2010.06.25/outbox.cif.g09.slc.cpg/sg12_120_cif.got.tgz:238992.got - 2010.06.28 00:19:55.
