data_PCOD8087910
_publ_section_title
;
Structure prediction by ZEFSAII (Michael W. Deem and Ramdas Pophale) SiO2 
 PCOD8087910
Probable space group: C 2/M
;
_chemical_formula_sum "Si O2"
_cell_formula_units_Z 56
_cell_length_a 19.058943
_cell_length_b 8.972405
_cell_length_c 26.693896
_cell_angle_alpha 90.000000
_cell_angle_beta 39.553339
_cell_angle_gamma 90.000000
_cell_volume 2906.833542
_symmetry_space_group_name_H-M "C 2/M"
_symmetry_group_IT_number 12
_symmetry_cell_setting 'monoclinic'
loop_
_space_group_symop_operation_xyz
x,y,z
-x,y,-z
-x,-y,-z
x,-y,z
1/2+x,1/2+y,z
1/2-x,1/2+y,-z
1/2-x,1/2-y,-z
1/2+x,1/2-y,z
loop_
_atom_site_type_symbol
_atom_site_label
_atom_site_fract_x
_atom_site_fract_y
_atom_site_fract_z
Si Si1 0.554963 0.825422 0.232829
Si Si2 0.327858 0.827823 0.315072
Si Si3 0.842283 0.670997 0.722575
Si Si4 0.450005 0.169350 0.975834
Si Si5 0.887843 0.322942 0.587053
Si Si6 0.214884 0.829602 0.070237
Si Si7 0.894317 0.829146 0.179646
O O1 0.422820 0.798652 0.304362
O O2 0.599742 0.755236 0.260650
O O3 0.611265 0.746561 0.154190
O O4 0.583665 0.000000 0.212717
O O5 0.215389 0.738331 0.388482
O O6 0.379421 0.777104 0.234647
O O7 0.296388 0.000000 0.329471
O O8 0.878397 0.500000 0.702424
O O9 0.883011 0.739792 0.646894
O O10 0.710451 0.689881 0.799741
O O11 0.494344 0.278900 0.908570
O O12 0.488589 0.000000 0.943390
O O13 0.500000 0.227336 0.000000
O O14 0.318384 0.180141 0.050977
O O15 0.878185 0.500000 0.592054
O O16 0.000000 0.266371 0.500000
O O17 0.183547 0.000000 0.075453
O O18 0.250000 0.750000 0.000000
O O19 0.904701 0.000000 0.191780
#
# Coordination Sequence:
#
# PCOD8087910 Si02
#       7
#     8   8   8   8   8   8   8
#     4  10  20  35  53  73 101 136 173 212 254 302
#     4  10  20  33  52  76 102 133 165 202 251 303
#     4   8  16  32  53  76 101 132 170 209 250 297
#     4  10  21  35  49  69  99 132 168 215 267 309
#     4   9  18  35  59  83 106 134 168 205 245 295
#     4  11  23  36  51  72 100 136 175 216 262 307
#     4  10  19  32  52  74  96 129 174 217 254 300
#
# _framework density 19.264948
#
# number of rings (size 3 to 8) (size 9 to 14) (size 15 to 20)
#    0.000    2.286    0.000    3.857    0.000    6.286 
#    0.000    3.571    0.000    0.000    0.000    0.000 
#    0.000    0.000    0.000    0.000    0.000    0.000 
#
# Total GULP energy -347136.132865 kJ/mol
# GULP energy per Si atom -12397.719031 kJ/mol
# Density = 1.922110 g / cm^3
# Si number density = 19.264948 Si / 1000 Ang^3
#
#
#
# Elastic Constant Matrix: (Units=GPa)
#
#
# Indices 1 2 3 4 5 6 
#
# 1 88.7819 24.2836 21.1164 -0.0001 -12.5729 0.0000
# 2 24.2836 51.0255 27.1341 -0.0003 -5.9291 -0.0002
# 3 21.1164 27.1341 100.5403 0.0000 -16.1619 0.0000
# 4 -0.0001 -0.0003 0.0000 26.4355 0.0000 -5.6037
# 5 -12.5729 -5.9291 -16.1619 0.0000 25.3227 -0.0001
# 6 0.0000 -0.0002 0.0000 -5.6037 -0.0001 23.6199
#
#
#
# Elastic Compliance Matrix: (Units=1/GPa)
#
#
# Indices 1 2 3 4 5 6 
#
# 1 0.013652 -0.005622 -0.000526 0.000000 0.005126 0.000000
# 2 -0.005622 0.025254 -0.005720 0.000000 -0.000529 0.000000
# 3 -0.000526 -0.005720 0.012640 0.000000 0.006467 0.000000
# 4 0.000000 0.000000 0.000000 0.039831 0.000000 0.009450
# 5 0.005126 -0.000529 0.006467 0.000000 0.046039 0.000000
# 6 0.000000 0.000000 0.000000 0.009450 0.000000 0.044579
#
#
# Mechanical properties :
#
#
# Convention : Reuss Voigt Hill
#
# Bulk Modulus (GPa) = 35.95755 42.82397 39.39076
# Shear Modulus (GPa) = 23.25570 26.26320 24.75945
#
# Velocity S-wave (km/s) = 3.47818 3.69625 3.58887
# Velocity P-wave (km/s) = 5.90217 6.36345 6.13714
#
# Compressibility (1/GPa) = 0.02781057
#
# Stress axis : x y z
#
# Youngs Moduli (GPa) = 73.24749 39.59806 79.11411
#
# Poissons Ratio (x) = 0.22261 0.04162
# Poissons Ratio (y) = 0.41179 0.45252
# Poissons Ratio (z) = 0.03853 0.22649
#
# Static dielectric constant tensor:
#      x y z
#    x 3.811430 0.000000 -0.130310 
#    y 0.000000 3.371830 0.000000 
#    z -0.130310 0.000000 3.444910 
# 
# 
# High freq. dielectric constant tensor:
#      x y z
#    x 1.758440 0.000000 -0.015500 
#    y 0.000000 1.735100 0.000000 
#    z -0.015500 0.000000 1.729720 
# 
# From -- ./inp_files/342232.got.cif
#   From: 2010.06.25/outbox.cif.g09.slc.cpg/sg12_172_cif.got.tgz:342232.got - 2010.06.28 00:19:55.
