data_PCOD8087789
_publ_section_title
;
Structure prediction by ZEFSAII (Michael W. Deem and Ramdas Pophale) SiO2 
 PCOD8087789
Probable space group: C 2/M
;
_chemical_formula_sum "Si O2"
_cell_formula_units_Z 56
_cell_length_a 26.005982
_cell_length_b 8.826796
_cell_length_c 16.543504
_cell_angle_alpha 90.000000
_cell_angle_beta 135.578457
_cell_angle_gamma 90.000000
_cell_volume 2658.028627
_symmetry_space_group_name_H-M "C 2/M"
_symmetry_group_IT_number 12
_symmetry_cell_setting 'monoclinic'
loop_
_space_group_symop_operation_xyz
x,y,z
-x,y,-z
-x,-y,-z
x,-y,z
1/2+x,1/2+y,z
1/2-x,1/2+y,-z
1/2-x,1/2-y,-z
1/2+x,1/2-y,z
loop_
_atom_site_type_symbol
_atom_site_label
_atom_site_fract_x
_atom_site_fract_y
_atom_site_fract_z
Si Si1 0.801778 0.177791 0.991177
Si Si2 0.548340 0.674432 0.235704
Si Si3 0.056019 0.336314 0.994676
Si Si4 0.559735 0.177767 0.782441
Si Si5 0.343462 0.326103 0.775759
Si Si6 0.787244 0.328639 0.270402
Si Si7 0.572893 0.322606 0.625878
O O1 0.881392 0.261174 0.084524
O O2 0.812147 0.000000 0.020274
O O3 0.750000 0.250000 0.000000
O O4 0.767478 0.209021 0.865038
O O5 0.552702 0.500000 0.266227
O O6 0.524197 0.770953 0.288016
O O7 0.625053 0.727169 0.277290
O O8 0.480801 0.704751 0.099779
O O9 0.071389 0.500000 0.966190
O O10 0.128240 0.271841 0.117612
O O11 0.000000 0.380580 0.000000
O O12 0.583170 0.244319 0.723262
O O13 0.563361 0.000000 0.779152
O O14 0.369497 0.500000 0.815736
O O15 0.255454 0.311358 0.690612
O O16 0.816296 0.500000 0.293541
O O17 0.856690 0.217254 0.350013
O O18 0.500000 0.261479 0.500000
O O19 0.568143 0.500000 0.634615
#
# Coordination Sequence:
#
# PCOD8087789 Si02
#       7
#     8   8   8   8   8   8   8
#     4  11  21  34  55  86 124 159 193 236 288 346
#     4  10  19  32  51  76 111 153 192 235 280 334
#     4   9  16  26  42  69 107 149 192 232 270 322
#     4  12  24  38  59  87 119 156 195 239 288 344
#     4   9  18  32  51  77 111 151 193 231 279 338
#     4  10  21  37  59  87 118 154 193 235 286 344
#     4  11  25  44  65  87 111 144 189 241 296 352
#
# _framework density 21.068244
#
# number of rings (size 3 to 8) (size 9 to 14) (size 15 to 20)
#    0.000    1.714    1.429    3.857    0.000    5.714 
#    0.000    0.000    0.000    0.857    0.000    0.000 
#    0.000    0.000    0.000    0.000    0.000    0.000 
#
# Total GULP energy -346898.537877 kJ/mol
# GULP energy per Si atom -12389.233496 kJ/mol
# Density = 2.102029 g / cm^3
# Si number density = 21.068244 Si / 1000 Ang^3
#
#
#
# Elastic Constant Matrix: (Units=GPa)
#
#
# Indices 1 2 3 4 5 6 
#
# 1 146.4299 34.4986 18.4568 0.0000 30.4208 0.0000
# 2 34.4986 87.8263 23.9501 0.0000 15.0573 0.0000
# 3 18.4568 23.9501 53.6900 0.0000 17.8880 0.0000
# 4 0.0000 0.0000 0.0000 15.0129 0.0000 6.6241
# 5 30.4208 15.0573 17.8880 0.0000 15.9752 0.0000
# 6 0.0000 0.0000 0.0000 6.6241 0.0000 33.1382
#
#
#
# Elastic Compliance Matrix: (Units=1/GPa)
#
#
# Indices 1 2 3 4 5 6 
#
# 1 0.012482 -0.001577 0.006119 0.000000 -0.029135 0.000000
# 2 -0.001577 0.014061 -0.003693 0.000000 -0.006116 0.000000
# 3 0.006119 -0.003693 0.033324 0.000000 -0.045486 0.000000
# 4 0.000000 0.000000 0.000000 0.073053 0.000000 -0.014603
# 5 -0.029135 -0.006116 -0.045486 0.000000 0.174775 0.000000
# 6 0.000000 0.000000 0.000000 -0.014603 0.000000 0.033096
#
#
# Mechanical properties :
#
#
# Convention : Reuss Voigt Hill
#
# Bulk Modulus (GPa) = 16.24246 49.08413 32.66330
# Shear Modulus (GPa) = 13.90385 26.89465 20.39925
#
# Velocity S-wave (km/s) = 2.57172 3.57676 3.11504
# Velocity P-wave (km/s) = 4.06750 6.35656 5.33622
#
# Compressibility (1/GPa) = 0.06156703
#
# Stress axis : x y z
#
# Youngs Moduli (GPa) = 80.11392 71.11893 30.00848
#
# Poissons Ratio (x) = 0.11214 -0.18364
# Poissons Ratio (y) = 0.12632 0.11081
# Poissons Ratio (z) = -0.49026 0.26263
#
# Static dielectric constant tensor:
#      x y z
#    x 4.363370 0.000000 0.129570 
#    y 0.000000 3.773270 0.000000 
#    z 0.129570 0.000000 3.319560 
# 
# 
# High freq. dielectric constant tensor:
#      x y z
#    x 1.861060 0.000000 0.010970 
#    y 0.000000 1.830940 0.000000 
#    z 0.010970 0.000000 1.755520 
# 
# From -- ./inp_files/292513.got.cif
#   From: 2010.06.25/outbox.cif.g09.slc.cpg/sg12_147_cif.got.tgz:292513.got - 2010.06.28 00:19:55.
