data_PCOD8087328
_publ_section_title
;
Structure prediction by ZEFSAII (Michael W. Deem and Ramdas Pophale) SiO2 
 PCOD8087328
Probable space group: C 2/M
;
_chemical_formula_sum "Si O2"
_cell_formula_units_Z 64
_cell_length_a 29.973579
_cell_length_b 8.857894
_cell_length_c 15.169471
_cell_angle_alpha 90.000000
_cell_angle_beta 78.990259
_cell_angle_gamma 90.000000
_cell_volume 3953.408901
_symmetry_space_group_name_H-M "C 2/M"
_symmetry_group_IT_number 12
_symmetry_cell_setting 'monoclinic'
loop_
_space_group_symop_operation_xyz
x,y,z
-x,y,-z
-x,-y,-z
x,-y,z
1/2+x,1/2+y,z
1/2-x,1/2+y,-z
1/2-x,1/2-y,-z
1/2+x,1/2-y,z
loop_
_atom_site_type_symbol
_atom_site_label
_atom_site_fract_x
_atom_site_fract_y
_atom_site_fract_z
Si Si1 0.962984 0.178214 0.696056
Si Si2 0.936006 0.820949 0.083498
Si Si3 0.532785 0.321122 0.109825
Si Si4 0.790824 0.676250 0.370467
Si Si5 0.875751 0.178750 0.261427
Si Si6 0.058359 0.322261 0.620619
Si Si7 0.700088 0.825246 0.431403
Si Si8 0.099621 0.674800 0.416962
O O1 0.950958 0.233184 0.800087
O O2 0.920324 0.221472 0.652299
O O3 0.007114 0.264711 0.645007
O O4 0.972229 0.000000 0.688409
O O5 0.893137 0.767257 0.157994
O O6 0.982060 0.758237 0.111362
O O7 0.938103 0.000000 0.083566
O O8 0.933842 0.763455 0.982104
O O9 0.531546 0.500000 0.108258
O O10 0.794953 0.500000 0.352277
O O11 0.825159 0.758297 0.291334
O O12 0.739583 0.729545 0.369339
O O13 0.804601 0.721868 0.464601
O O14 0.909966 0.240878 0.321264
O O15 0.875027 0.000000 0.270241
O O16 0.060729 0.500000 0.637096
O O17 0.076360 0.280934 0.517311
O O18 0.653145 0.789749 0.400455
O O19 0.713477 0.000000 0.420174
O O20 0.090652 0.500000 0.398381
#
# Coordination Sequence:
#
# PCOD8087328 Si02
#       8
#     8   8   8   8   8   8   8   8
#     4  11  21  32  48  72  95 123 166 205 235 270
#     4   8  14  26  46  68  93 123 155 191 236 283
#     4   8  14  27  45  67  94 122 154 196 237 277
#     4  10  19  32  49  71  97 124 153 192 244 285
#     4  11  19  29  49  75  97 124 161 196 233 281
#     4  11  21  34  47  64  96 135 166 193 232 278
#     4   9  18  34  50  67  91 125 164 194 227 281
#     4  10  21  36  49  64  93 133 166 192 233 281
#
# _framework density 16.188561
#
# number of rings (size 3 to 8) (size 9 to 14) (size 15 to 20)
#    0.000    2.250    2.500    2.625    0.000    3.500 
#    0.000    0.000    0.000    3.750    0.000    0.875 
#    0.000    0.000    0.000    0.000    0.000    0.000 
#
# Total GULP energy -396699.372334 kJ/mol
# GULP energy per Si atom -12396.855385 kJ/mol
# Density = 1.615172 g / cm^3
# Si number density = 16.188561 Si / 1000 Ang^3
#
#
#
# Elastic Constant Matrix: (Units=GPa)
#
#
# Indices 1 2 3 4 5 6 
#
# 1 88.6474 30.6537 61.2543 0.0000 -13.3975 0.0000
# 2 30.6537 47.9162 38.8316 0.0000 -8.6788 0.0000
# 3 61.2543 38.8316 116.4609 0.0000 -14.7437 0.0000
# 4 0.0000 0.0000 0.0000 10.2092 0.0000 -2.8298
# 5 -13.3975 -8.6788 -14.7437 0.0000 20.2533 0.0000
# 6 0.0000 0.0000 0.0000 -2.8298 0.0000 27.8433
#
#
#
# Elastic Compliance Matrix: (Units=1/GPa)
#
#
# Indices 1 2 3 4 5 6 
#
# 1 0.019124 -0.005075 -0.007755 0.000000 0.004831 0.000000
# 2 -0.005075 0.030588 -0.006934 0.000000 0.004702 0.000000
# 3 -0.007755 -0.006934 0.015368 0.000000 0.003086 0.000000
# 4 0.000000 0.000000 0.000000 0.100790 0.000000 0.010244
# 5 0.004831 0.004702 0.003086 0.000000 0.056832 0.000000
# 6 0.000000 0.000000 0.000000 0.010244 0.000000 0.036956
#
#
# Mechanical properties :
#
#
# Convention : Reuss Voigt Hill
#
# Bulk Modulus (GPa) = 39.13626 57.16705 48.15166
# Shear Modulus (GPa) = 16.24940 19.81349 18.03145
#
# Velocity S-wave (km/s) = 3.17165 3.50225 3.34104
# Velocity P-wave (km/s) = 6.13516 7.19335 6.68523
#
# Compressibility (1/GPa) = 0.02555175
#
# Stress axis : x y z
#
# Youngs Moduli (GPa) = 52.29001 32.69293 65.06914
#
# Poissons Ratio (x) = 0.16591 0.50461
# Poissons Ratio (y) = 0.26536 0.45122
# Poissons Ratio (z) = 0.40551 0.22671
#
# Static dielectric constant tensor:
#      x y z
#    x 3.001890 0.000000 -0.175290 
#    y 0.000000 2.927720 0.000000 
#    z -0.175290 0.000000 3.383990 
# 
# 
# High freq. dielectric constant tensor:
#      x y z
#    x 1.605090 0.000000 -0.013260 
#    y 0.000000 1.611760 0.000000 
#    z -0.013260 0.000000 1.615330 
# 
# From -- ./inp_files/243940.got.cif
#   From: 2010.06.25/outbox.cif.g09.slc.cpg/sg12_122_cif.got.tgz:243940.got - 2010.06.28 00:19:55.
