data_PCOD8087951
_publ_section_title
;
Structure prediction by ZEFSAII (Michael W. Deem and Ramdas Pophale) SiO2 
 PCOD8087951
Probable space group: C 2/M
;
_chemical_formula_sum "Si O2"
_cell_formula_units_Z 52
_cell_length_a 5.142862
_cell_length_b 18.081620
_cell_length_c 33.266754
_cell_angle_alpha 90.000000
_cell_angle_beta 112.398650
_cell_angle_gamma 90.000000
_cell_volume 2860.127494
_symmetry_space_group_name_H-M "C 2/M"
_symmetry_group_IT_number 12
_symmetry_cell_setting 'monoclinic'
loop_
_space_group_symop_operation_xyz
x,y,z
-x,y,-z
-x,-y,-z
x,-y,z
1/2+x,1/2+y,z
1/2-x,1/2+y,-z
1/2-x,1/2-y,-z
1/2+x,1/2-y,z
loop_
_atom_site_type_symbol
_atom_site_label
_atom_site_fract_x
_atom_site_fract_y
_atom_site_fract_z
Si Si1 0.500000 0.700419 0.500000
Si Si2 0.717212 0.698825 0.594221
Si Si3 0.770487 0.702862 0.798921
Si Si4 0.609415 0.085864 0.328853
Si Si5 0.529598 0.414452 0.726388
Si Si6 0.496156 0.202188 0.100808
Si Si7 0.182051 0.586254 0.972439
O O1 0.250000 0.750000 0.500000
O O2 0.612269 0.657733 0.546447
O O3 0.464979 0.742859 0.600580
O O4 0.825262 0.632997 0.628098
O O5 0.520634 0.762085 0.787662
O O6 0.664919 0.629606 0.770956
O O7 0.877092 0.678221 0.848946
O O8 0.298410 0.104467 0.295125
O O9 0.827495 0.108517 0.307092
O O10 0.637249 0.000000 0.342300
O O11 0.585221 0.500000 0.738982
O O12 0.714585 0.250763 0.088713
O O13 0.431104 0.127364 0.073426
O O14 0.154394 0.500000 0.961257
O O15 0.500000 0.609714 0.000000
O O16 0.000000 0.609752 0.000000
#
# Coordination Sequence:
#
# PCOD8087951 Si02
#       7
#     4   8   8   8   8   8   8
#     4   8  16  30  47  70  99 126 160 206 246 288
#     4  10  19  32  52  75  98 130 169 205 246 297
#     4  10  21  36  54  77 104 131 167 213 250 291
#     4  10  21  35  50  74 105 131 163 209 252 295
#     4  10  21  36  53  73 101 136 168 202 251 302
#     4  10  21  36  54  78 105 134 168 207 253 299
#     4  10  21  36  54  78 106 135 170 210 248 292
#
# _framework density 18.181007999999999
#
# number of rings (size 3 to 8) (size 9 to 14) (size 15 to 20)
#    0.000    2.154    0.000    2.769    0.000    6.154 
#    0.000    0.385    0.000   11.077    0.000    9.692 
#    0.000    0.000    0.000    0.000    0.000    0.000 
#
# Total GULP energy -322379.576667 kJ/mol
# GULP energy per Si atom -12399.214487 kJ/mol
# Density = 1.813963 g / cm^3
# Si number density = 18.181008 Si / 1000 Ang^3
#
#
#
# Elastic Constant Matrix: (Units=GPa)
#
#
# Indices 1 2 3 4 5 6 
#
# 1 99.4102 17.9160 19.0433 0.0000 2.4514 0.0000
# 2 17.9160 70.2005 72.4950 0.0000 1.9522 0.0000
# 3 19.0433 72.4950 116.5725 0.0000 2.2035 0.0000
# 4 0.0000 0.0000 0.0000 20.3145 0.0000 -5.4872
# 5 2.4514 1.9522 2.2035 0.0000 24.5493 0.0000
# 6 0.0000 0.0000 0.0000 -5.4872 0.0000 -15.3910
#
#
#
# Elastic Compliance Matrix: (Units=1/GPa)
#
#
# Indices 1 2 3 4 5 6 
#
# 1 0.010562 -0.002534 -0.000133 0.000000 -0.000841 0.000000
# 2 -0.002534 0.040444 -0.024724 0.000000 -0.000744 0.000000
# 3 -0.000133 -0.024724 0.023979 0.000000 -0.000173 0.000000
# 4 0.000000 0.000000 0.000000 0.044902 0.000000 -0.016008
# 5 -0.000841 -0.000744 -0.000173 0.000000 0.040893 0.000000
# 6 0.000000 0.000000 0.000000 -0.016008 0.000000 -0.059266
#
#
# Mechanical properties :
#
#
# Convention : Reuss Voigt Hill
#
# Bulk Modulus (GPa) = 49.49944 56.12131 52.81037
# Shear Modulus (GPa) = 30.66896 17.67648 24.17272
#
# Velocity S-wave (km/s) = 4.11161 3.12147 3.65027
# Velocity P-wave (km/s) = 7.05871 6.62771 6.84660
#
# Compressibility (1/GPa) = 0.02020225
#
# Stress axis : x y z
#
# Youngs Moduli (GPa) = 94.67543 24.72552 41.70374
#
# Poissons Ratio (x) = 0.06267 0.00556
# Poissons Ratio (y) = 0.23995 1.03106
# Poissons Ratio (z) = 0.01263 0.61130
#
# Static dielectric constant tensor:
#      x y z
#    x 3.718160 0.000000 0.007210 
#    y 0.000000 3.080910 0.000000 
#    z 0.007210 0.000000 3.516350 
# 
# 
# High freq. dielectric constant tensor:
#      x y z
#    x 1.732570 0.000000 0.001190 
#    y 0.000000 1.681110 0.000000 
#    z 0.001190 0.000000 1.713430 
# 
# From -- ./inp_files/354877.got.cif
#   From: 2010.06.25/outbox.cif.g09.slc.cpg/sg12_178_cif.got.tgz:354877.got - 2010.06.28 00:19:55.
