data_PCOD8087126
_publ_section_title
;
Structure prediction by ZEFSAII (Michael W. Deem and Ramdas Pophale) SiO2 
 PCOD8087126
Probable space group: C 2/M
;
_chemical_formula_sum "Si O2"
_cell_formula_units_Z 56
_cell_length_a 28.140267
_cell_length_b 12.974493
_cell_length_c 16.810315
_cell_angle_alpha 90.000000
_cell_angle_beta 29.262917
_cell_angle_gamma 90.000000
_cell_volume 3000.140457
_symmetry_space_group_name_H-M "C 2/M"
_symmetry_group_IT_number 12
_symmetry_cell_setting 'monoclinic'
loop_
_space_group_symop_operation_xyz
x,y,z
-x,y,-z
-x,-y,-z
x,-y,z
1/2+x,1/2+y,z
1/2-x,1/2+y,-z
1/2-x,1/2-y,-z
1/2+x,1/2-y,z
loop_
_atom_site_type_symbol
_atom_site_label
_atom_site_fract_x
_atom_site_fract_y
_atom_site_fract_z
Si Si1 0.640736 0.614652 0.770503
Si Si2 0.923906 0.674392 0.169806
Si Si3 0.488870 0.878442 0.645209
Si Si4 0.150044 0.620864 0.287723
Si Si5 0.709624 0.384146 0.501958
Si Si6 0.973029 0.253394 0.254480
Si Si7 0.651855 0.381032 0.935755
O O1 0.593138 0.500000 0.833330
O O2 0.562151 0.702055 0.864989
O O3 0.720979 0.627104 0.582052
O O4 0.682879 0.631826 0.797376
O O5 0.814025 0.641225 0.310672
O O6 0.953270 0.655781 0.218502
O O7 0.000000 0.616575 0.000000
O O8 0.388192 0.854481 0.745214
O O9 0.576105 0.837644 0.462419
O O10 0.489485 0.809163 0.722173
O O11 0.497120 0.000000 0.653589
O O12 0.153430 0.500000 0.296349
O O13 0.258074 0.665198 0.144612
O O14 0.681072 0.500000 0.520032
O O15 0.626536 0.310722 0.586637
O O16 0.056189 0.179455 0.099303
O O17 0.632116 0.500000 0.984757
#
# Coordination Sequence:
#
# PCOD8087126 Si02
#       7
#     8   8   8   8   8   8   8
#     4   9  18  33  53  77 105 137 175 222 268 302
#     4  11  22  36  50  76 110 142 179 219 258 316
#     4   9  19  35  55  81 109 138 171 219 273 319
#     4   8  17  34  55  81 109 132 170 225 274 314
#     4  10  23  38  52  73 105 145 182 220 263 310
#     4  11  21  33  55  80 106 139 183 220 258 319
#     4  10  19  31  54  82 108 139 175 223 269 305
#
# _framework density 18.665793000000001
#
# number of rings (size 3 to 8) (size 9 to 14) (size 15 to 20)
#    0.000    2.286    1.429    3.000    4.000    2.286 
#    0.000    0.000    0.000    0.000    0.000    8.000 
#    0.000    0.000    0.000    0.000    0.000    0.000 
#
# Total GULP energy -346877.632079 kJ/mol
# GULP energy per Si atom -12388.486860 kJ/mol
# Density = 1.862331 g / cm^3
# Si number density = 18.665793 Si / 1000 Ang^3
#
#
#
# Elastic Constant Matrix: (Units=GPa)
#
#
# Indices 1 2 3 4 5 6 
#
# 1 115.9452 31.6970 40.2544 0.0000 -1.6248 0.0000
# 2 31.6970 47.9164 18.1088 0.0000 8.4373 0.0000
# 3 40.2544 18.1088 103.0430 0.0000 -11.1566 0.0000
# 4 0.0000 0.0000 0.0000 13.9009 0.0000 5.9472
# 5 -1.6248 8.4373 -11.1566 0.0000 29.5157 0.0000
# 6 0.0000 0.0000 0.0000 5.9472 0.0000 25.6243
#
#
#
# Elastic Compliance Matrix: (Units=1/GPa)
#
#
# Indices 1 2 3 4 5 6 
#
# 1 0.011585 -0.006687 -0.003206 0.000000 0.001338 0.000000
# 2 -0.006687 0.028302 -0.003417 0.000000 -0.009750 0.000000
# 3 -0.003206 -0.003417 0.012141 0.000000 0.005389 0.000000
# 4 0.000000 0.000000 0.000000 0.079869 0.000000 -0.018537
# 5 0.001338 -0.009750 0.005389 0.000000 0.038778 0.000000
# 6 0.000000 0.000000 0.000000 -0.018537 0.000000 0.043328
#
#
# Mechanical properties :
#
#
# Convention : Reuss Voigt Hill
#
# Bulk Modulus (GPa) = 39.35844 49.66946 44.51395
# Shear Modulus (GPa) = 20.07302 25.59779 22.83540
#
# Velocity S-wave (km/s) = 3.28287 3.70722 3.50148
# Velocity P-wave (km/s) = 5.95830 6.70763 6.34404
#
# Compressibility (1/GPa) = 0.02540751
#
# Stress axis : x y z
#
# Youngs Moduli (GPa) = 86.32139 35.33370 82.36580
#
# Poissons Ratio (x) = 0.23629 0.26403
# Poissons Ratio (y) = 0.57727 0.28144
# Poissons Ratio (z) = 0.27670 0.12073
#
# Static dielectric constant tensor:
#      x y z
#    x 3.564130 0.000000 -0.063240 
#    y 0.000000 3.270410 0.000000 
#    z -0.063240 0.000000 3.435580 
# 
# 
# High freq. dielectric constant tensor:
#      x y z
#    x 1.715160 0.000000 -0.005440 
#    y 0.000000 1.699250 0.000000 
#    z -0.005440 0.000000 1.725120 
# 
# From -- ./inp_files/246545.got.cif
#   From: 2010.06.25/outbox.cif.g09.slc.cpg/sg12_124_cif.got.tgz:246545.got - 2010.06.28 00:19:55.
