data_PCOD8087890
_publ_section_title
;
Structure prediction by ZEFSAII (Michael W. Deem and Ramdas Pophale) SiO2 
 PCOD8087890
Probable space group: C 2/M
;
_chemical_formula_sum "Si O2"
_cell_formula_units_Z 56
_cell_length_a 19.098107
_cell_length_b 9.273298
_cell_length_c 32.575271
_cell_angle_alpha 90.000000
_cell_angle_beta 146.173367
_cell_angle_gamma 90.000000
_cell_volume 3211.586458
_symmetry_space_group_name_H-M "C 2/M"
_symmetry_group_IT_number 12
_symmetry_cell_setting 'monoclinic'
loop_
_space_group_symop_operation_xyz
x,y,z
-x,y,-z
-x,-y,-z
x,-y,z
1/2+x,1/2+y,z
1/2-x,1/2+y,-z
1/2-x,1/2-y,-z
1/2+x,1/2-y,z
loop_
_atom_site_type_symbol
_atom_site_label
_atom_site_fract_x
_atom_site_fract_y
_atom_site_fract_z
Si Si1 0.444469 0.830442 0.015836
Si Si2 0.798685 0.835365 0.061721
Si Si3 0.360522 0.669845 0.418269
Si Si4 0.452958 0.332159 0.855018
Si Si5 0.807588 0.334611 0.310616
Si Si6 0.428873 0.837973 0.596283
Si Si7 0.754325 0.166660 0.565984
O O1 0.513213 0.755636 0.087617
O O2 0.472385 0.000000 0.032561
O O3 0.500000 0.769380 0.000000
O O4 0.291761 0.797480 0.943237
O O5 0.949235 0.804019 0.135936
O O6 0.775376 0.000000 0.039492
O O7 0.750000 0.750000 0.000000
O O8 0.500000 0.713458 0.500000
O O9 0.339342 0.500000 0.409000
O O10 0.333716 0.727336 0.360222
O O11 0.261778 0.744814 0.400323
O O12 0.452295 0.500000 0.866813
O O13 0.317172 0.281984 0.773304
O O14 0.795337 0.500000 0.320395
O O15 0.921740 0.321014 0.334118
O O16 0.366148 0.805718 0.521589
O O17 0.380603 0.723506 0.605811
O O18 0.391348 0.000000 0.591832
O O19 0.772499 0.000000 0.585746
#
# Coordination Sequence:
#
# PCOD8087890 Si02
#       7
#     8   8   8   8   8   8   8
#     4   9  17  30  50  75 102 133 166 203 245 288
#     4   8  14  27  47  70  96 127 163 199 234 282
#     4  11  22  34  51  75 101 130 170 218 257 299
#     4   9  18  32  51  74 100 131 166 204 246 297
#     4  10  20  35  53  73 101 136 170 210 263 312
#     4   9  18  32  50  71  97 129 164 207 256 308
#     4  10  19  32  52  73  95 126 166 211 258 306
#
# _framework density 17.436865999999998
#
# number of rings (size 3 to 8) (size 9 to 14) (size 15 to 20)
#    0.000    2.571    1.429    0.857    0.000    2.571 
#    0.000    1.429    0.000    1.714    0.000    0.000 
#    0.000    0.000    0.000    0.000    0.000    0.000 
#
# Total GULP energy -346981.475558 kJ/mol
# GULP energy per Si atom -12392.195556 kJ/mol
# Density = 1.739718 g / cm^3
# Si number density = 17.436866 Si / 1000 Ang^3
#
#
#
# Elastic Constant Matrix: (Units=GPa)
#
#
# Indices 1 2 3 4 5 6 
#
# 1 132.4402 47.0820 55.8361 0.0000 10.2495 0.0000
# 2 47.0820 62.2572 33.6796 -0.0001 -1.7081 0.0000
# 3 55.8361 33.6796 85.9247 0.0000 15.2942 0.0000
# 4 0.0000 -0.0001 0.0000 19.8682 0.0001 -2.6131
# 5 10.2495 -1.7081 15.2942 0.0001 27.1553 0.0000
# 6 0.0000 0.0000 0.0000 -2.6131 0.0000 28.6160
#
#
#
# Elastic Compliance Matrix: (Units=1/GPa)
#
#
# Indices 1 2 3 4 5 6 
#
# 1 0.012131 -0.006581 -0.004907 0.000000 -0.002229 0.000000
# 2 -0.006581 0.025017 -0.006948 0.000000 0.007971 0.000000
# 3 -0.004907 -0.006948 0.019226 0.000000 -0.009413 0.000000
# 4 0.000000 0.000000 0.000000 0.050944 0.000000 0.004652
# 5 -0.002229 0.007971 -0.009413 0.000000 0.043470 0.000000
# 6 0.000000 0.000000 0.000000 0.004652 0.000000 0.035370
#
#
# Mechanical properties :
#
#
# Convention : Reuss Voigt Hill
#
# Bulk Modulus (GPa) = 51.27725 61.53529 56.40627
# Shear Modulus (GPa) = 21.78370 24.72951 23.25661
#
# Velocity S-wave (km/s) = 3.53836 3.77003 3.65603
# Velocity P-wave (km/s) = 6.79445 7.37006 7.08810
#
# Compressibility (1/GPa) = 0.01950183
#
# Stress axis : x y z
#
# Youngs Moduli (GPa) = 82.43116 39.97350 52.01390
#
# Poissons Ratio (x) = 0.26306 0.25523
# Poissons Ratio (y) = 0.54247 0.36139
# Poissons Ratio (z) = 0.40449 0.27773
#
# Static dielectric constant tensor:
#      x y z
#    x 3.702270 0.000000 0.417490 
#    y 0.000000 3.309550 0.000000 
#    z 0.417490 0.000000 3.036230 
# 
# 
# High freq. dielectric constant tensor:
#      x y z
#    x 1.686200 0.000000 0.018000 
#    y 0.000000 1.677830 0.000000 
#    z 0.018000 0.000000 1.635780 
# 
# From -- ./inp_files/313786.got.cif
#   From: 2010.06.25/outbox.cif.g09.slc.cpg/sg12_157_cif.got.tgz:313786.got - 2010.06.28 00:19:55.
