data_PCOD8087461
_publ_section_title
;
Structure prediction by ZEFSAII (Michael W. Deem and Ramdas Pophale) SiO2 
 PCOD8087461
Probable space group: C 2/M
;
_chemical_formula_sum "Si O2"
_cell_formula_units_Z 56
_cell_length_a 14.454794
_cell_length_b 30.312395
_cell_length_c 7.918910
_cell_angle_alpha 90.000000
_cell_angle_beta 118.314272
_cell_angle_gamma 90.000000
_cell_volume 3054.622099
_symmetry_space_group_name_H-M "C 2/M"
_symmetry_group_IT_number 12
_symmetry_cell_setting 'monoclinic'
loop_
_space_group_symop_operation_xyz
x,y,z
-x,y,-z
-x,-y,-z
x,-y,z
1/2+x,1/2+y,z
1/2-x,1/2+y,-z
1/2-x,1/2-y,-z
1/2+x,1/2-y,z
loop_
_atom_site_type_symbol
_atom_site_label
_atom_site_fract_x
_atom_site_fract_y
_atom_site_fract_z
Si Si1 0.167011 0.319462 0.142126
Si Si2 0.822650 0.300597 0.232302
Si Si3 0.875180 0.606034 0.394865
Si Si4 0.117708 0.449122 0.908389
Si Si5 0.385273 0.912371 0.764224
Si Si6 0.390982 0.273408 0.826402
Si Si7 0.385525 0.290833 0.438441
O O1 0.110137 0.362639 0.161725
O O2 0.114863 0.279320 0.199234
O O3 0.293537 0.320658 0.277854
O O4 0.139245 0.312185 0.921951
O O5 0.844120 0.342925 0.366667
O O6 0.698714 0.289856 0.122710
O O7 0.884440 0.258646 0.360445
O O8 0.827035 0.578511 0.195130
O O9 0.829116 0.586328 0.531975
O O10 0.000000 0.600787 0.500000
O O11 0.119416 0.500000 0.857968
O O12 0.001138 0.431272 0.836226
O O13 0.174310 0.441073 0.140749
O O14 0.368622 0.292834 0.623818
O O15 0.500000 0.289698 0.000000
O O16 0.500000 0.311530 0.500000
#
# Coordination Sequence:
#
# PCOD8087461 Si02
#       7
#     8   8   8   8   8   8   8
#     4  11  21  33  51  72 100 137 179 212 256 301
#     4  11  20  35  49  72 100 136 178 217 254 300
#     4  10  20  32  51  74 101 138 174 210 253 306
#     4  10  21  35  51  76 106 136 170 212 261 317
#     4  10  19  32  50  72  99 138 168 207 251 302
#     4  11  22  33  50  71  99 138 176 218 256 296
#     4  11  21  35  49  71 100 136 177 219 256 296
#
# _framework density 18.332871999999998
#
# number of rings (size 3 to 8) (size 9 to 14) (size 15 to 20)
#    0.000    1.429    1.429    8.143    2.000    4.286 
#    0.000    0.000    0.000    0.000    0.000    0.000 
#    0.000    2.857    1.714    0.000    0.000    0.000 
#
# Total GULP energy -347050.064927 kJ/mol
# GULP energy per Si atom -12394.645176 kJ/mol
# Density = 1.829115 g / cm^3
# Si number density = 18.332872 Si / 1000 Ang^3
#
#
#
# Elastic Constant Matrix: (Units=GPa)
#
#
# Indices 1 2 3 4 5 6 
#
# 1 30.2611 -3.2177 7.6129 0.0000 -0.5691 0.0000
# 2 -3.2177 69.6734 0.4400 0.0000 -6.9299 0.0000
# 3 7.6129 0.4400 79.9614 0.0000 -14.5860 0.0000
# 4 0.0000 0.0000 0.0000 36.0575 0.0000 -10.9477
# 5 -0.5691 -6.9299 -14.5860 0.0000 32.8600 0.0000
# 6 0.0000 0.0000 0.0000 -10.9477 0.0000 23.3546
#
#
#
# Elastic Compliance Matrix: (Units=1/GPa)
#
#
# Indices 1 2 3 4 5 6 
#
# 1 0.034042 0.001536 -0.003354 0.000000 -0.000575 0.000000
# 2 0.001536 0.014750 0.000375 0.000000 0.003304 0.000000
# 3 -0.003354 0.000375 0.013957 0.000000 0.006216 0.000000
# 4 0.000000 0.000000 0.000000 0.032336 0.000000 0.015158
# 5 -0.000575 0.003304 0.006216 0.000000 0.033878 0.000000
# 6 0.000000 0.000000 0.000000 0.015158 0.000000 0.049924
#
#
# Mechanical properties :
#
#
# Convention : Reuss Voigt Hill
#
# Bulk Modulus (GPa) = 16.70479 21.06291 18.88385
# Shear Modulus (GPa) = 24.78593 30.12513 27.45553
#
# Velocity S-wave (km/s) = 3.68094 4.05808 3.87410
# Velocity P-wave (km/s) = 5.21512 5.78545 5.50767
#
# Compressibility (1/GPa) = 0.05986308
#
# Stress axis : x y z
#
# Youngs Moduli (GPa) = 29.37540 67.79725 71.64715
#
# Poissons Ratio (x) = -0.10415 0.24034
# Poissons Ratio (y) = -0.04512 -0.02689
# Poissons Ratio (z) = 0.09854 -0.02544
#
# Static dielectric constant tensor:
#      x y z
#    x 3.302520 0.000000 -0.452590 
#    y 0.000000 3.213100 0.000000 
#    z -0.452590 0.000000 4.018190 
# 
# 
# High freq. dielectric constant tensor:
#      x y z
#    x 1.682340 0.000000 -0.037820 
#    y 0.000000 1.679590 0.000000 
#    z -0.037820 0.000000 1.724730 
# 
# From -- ./inp_files/67918.got.cif
#   From: 2010.06.25/outbox.cif.g09.slc.cpg/sg12_34_cif.got.tgz:67918.got - 2010.06.28 00:19:55.
