data_PCOD8087718
_publ_section_title
;
Structure prediction by ZEFSAII (Michael W. Deem and Ramdas Pophale) SiO2 
 PCOD8087718
Probable space group: C 2/M
;
_chemical_formula_sum "Si O2"
_cell_formula_units_Z 56
_cell_length_a 19.748848
_cell_length_b 8.980847
_cell_length_c 23.042849
_cell_angle_alpha 90.000000
_cell_angle_beta 129.150858
_cell_angle_gamma 90.000000
_cell_volume 3169.343871
_symmetry_space_group_name_H-M "C 2/M"
_symmetry_group_IT_number 12
_symmetry_cell_setting 'monoclinic'
loop_
_space_group_symop_operation_xyz
x,y,z
-x,y,-z
-x,-y,-z
x,-y,z
1/2+x,1/2+y,z
1/2-x,1/2+y,-z
1/2-x,1/2-y,-z
1/2+x,1/2-y,z
loop_
_atom_site_type_symbol
_atom_site_label
_atom_site_fract_x
_atom_site_fract_y
_atom_site_fract_z
Si Si1 0.860436 0.323537 0.226343
Si Si2 0.783686 0.676369 0.779009
Si Si3 0.753380 0.830261 0.941253
Si Si4 0.183732 0.330027 0.504701
Si Si5 0.597526 0.671999 0.065397
Si Si6 0.198141 0.824510 0.333475
Si Si7 0.559697 0.825715 0.342472
O O1 0.848669 0.500000 0.228003
O O2 0.807993 0.245393 0.249861
O O3 0.820447 0.270238 0.143151
O O4 0.960355 0.272191 0.282928
O O5 0.776864 0.500000 0.776250
O O6 0.863237 0.727584 0.862626
O O7 0.804972 0.731461 0.726467
O O8 0.848244 0.806595 0.964345
O O9 0.733760 0.000000 0.944314
O O10 0.750000 0.750000 0.000000
O O11 0.207849 0.500000 0.510494
O O12 0.250000 0.250000 0.500000
O O13 0.207302 0.287632 0.584188
O O14 0.087243 0.298523 0.425727
O O15 0.600269 0.500000 0.087131
O O16 0.500000 0.726777 0.000000
O O17 0.118320 0.771506 0.330911
O O18 0.187788 0.000000 0.314910
O O19 0.569113 0.000000 0.331263
#
# Coordination Sequence:
#
# PCOD8087718 Si02
#       7
#     8   8   8   8   8   8   8
#     4   9  19  36  54  72 100 135 167 206 257 305
#     4  11  22  35  52  74 102 136 173 211 249 294
#     4   9  18  32  50  72  97 126 158 194 240 291
#     4   8  15  28  48  73  99 129 164 205 254 302
#     4   9  19  37  57  75  98 130 166 205 252 301
#     4  10  19  32  51  75 104 136 169 206 252 306
#     4   9  17  32  54  78 101 127 167 216 258 300
#
# _framework density 17.669271999999999
#
# number of rings (size 3 to 8) (size 9 to 14) (size 15 to 20)
#    0.000    2.714    0.000    2.571    0.000    4.857 
#    0.000    3.571    0.000    4.286    0.000    0.000 
#    0.000    0.000    0.000    0.000    0.000    0.000 
#
# Total GULP energy -346965.672724 kJ/mol
# GULP energy per Si atom -12391.631169 kJ/mol
# Density = 1.762906 g / cm^3
# Si number density = 17.669272 Si / 1000 Ang^3
#
#
#
# Elastic Constant Matrix: (Units=GPa)
#
#
# Indices 1 2 3 4 5 6 
#
# 1 86.0872 34.1826 70.5302 0.0000 10.4946 0.0000
# 2 34.1826 63.4928 40.1938 0.0000 -3.0410 0.0000
# 3 70.5302 40.1938 112.2497 0.0000 10.3524 0.0000
# 4 0.0000 0.0000 0.0000 24.0471 0.0000 -5.2216
# 5 10.4946 -3.0410 10.3524 0.0000 31.6935 0.0000
# 6 0.0000 0.0000 0.0000 -5.2216 0.0000 27.6197
#
#
#
# Elastic Compliance Matrix: (Units=1/GPa)
#
#
# Indices 1 2 3 4 5 6 
#
# 1 0.025488 -0.005247 -0.013725 0.000000 -0.004460 0.000000
# 2 -0.005247 0.022080 -0.005119 0.000000 0.005528 0.000000
# 3 -0.013725 -0.005119 0.019581 0.000000 -0.002343 0.000000
# 4 0.000000 0.000000 0.000000 0.043365 0.000000 0.008198
# 5 -0.004460 0.005528 -0.002343 0.000000 0.034325 0.000000
# 6 0.000000 0.000000 0.000000 0.008198 0.000000 0.037756
#
#
# Mechanical properties :
#
#
# Convention : Reuss Voigt Hill
#
# Bulk Modulus (GPa) = 52.72197 61.29365 57.00781
# Shear Modulus (GPa) = 21.08816 24.46693 22.77755
#
# Velocity S-wave (km/s) = 3.45845 3.72521 3.59431
# Velocity P-wave (km/s) = 6.77132 7.29847 7.03983
#
# Compressibility (1/GPa) = 0.01896742
#
# Stress axis : x y z
#
# Youngs Moduli (GPa) = 39.23466 45.28938 51.06876
#
# Poissons Ratio (x) = 0.23764 0.70089
# Poissons Ratio (y) = 0.20587 0.26144
# Poissons Ratio (z) = 0.53848 0.23185
#
# Static dielectric constant tensor:
#      x y z
#    x 3.120580 0.000000 0.197800 
#    y 0.000000 3.230950 0.000000 
#    z 0.197800 0.000000 3.857830 
# 
# 
# High freq. dielectric constant tensor:
#      x y z
#    x 1.660280 0.000000 0.004460 
#    y 0.000000 1.681220 0.000000 
#    z 0.004460 0.000000 1.699410 
# 
# From -- ./inp_files/320227.got.cif
#   From: 2010.06.25/outbox.cif.g09.slc.cpg/sg12_161_cif.got.tgz:320227.got - 2010.06.28 00:19:55.
