data_PCOD8087790
_publ_section_title
;
Structure prediction by ZEFSAII (Michael W. Deem and Ramdas Pophale) SiO2 
 PCOD8087790
Probable space group: C 2/M
;
_chemical_formula_sum "Si O2"
_cell_formula_units_Z 60
_cell_length_a 26.228172
_cell_length_b 14.171632
_cell_length_c 11.787087
_cell_angle_alpha 90.000000
_cell_angle_beta 126.568562
_cell_angle_gamma 90.000000
_cell_volume 3518.747215
_symmetry_space_group_name_H-M "C 2/M"
_symmetry_group_IT_number 12
_symmetry_cell_setting 'monoclinic'
loop_
_space_group_symop_operation_xyz
x,y,z
-x,y,-z
-x,-y,-z
x,-y,z
1/2+x,1/2+y,z
1/2-x,1/2+y,-z
1/2-x,1/2-y,-z
1/2+x,1/2-y,z
loop_
_atom_site_type_symbol
_atom_site_label
_atom_site_fract_x
_atom_site_fract_y
_atom_site_fract_z
Si Si1 0.574277 0.197480 0.709480
Si Si2 0.797297 0.607174 0.710093
Si Si3 0.605452 0.896463 0.973166
Si Si4 0.500000 0.174346 0.000000
Si Si5 0.348646 0.607436 0.497976
Si Si6 0.107798 0.278425 0.308456
Si Si7 0.934833 0.613130 0.532445
Si Si8 0.073306 0.897225 0.623786
O O1 0.609880 0.171773 0.871861
O O2 0.501870 0.165576 0.623680
O O3 0.601628 0.147618 0.630934
O O4 0.583519 0.310588 0.722308
O O5 0.806571 0.500000 0.676906
O O6 0.723956 0.634307 0.623468
O O7 0.831076 0.681594 0.674015
O O8 0.828097 0.616610 0.874973
O O9 0.598545 0.000000 0.911835
O O10 0.546011 0.886055 0.980329
O O11 0.454163 0.232892 0.854542
O O12 0.355236 0.500000 0.548888
O O13 0.377161 0.672670 0.633695
O O14 0.388230 0.626088 0.438022
O O15 0.100597 0.351377 0.402884
O O16 0.942019 0.500000 0.543088
O O17 0.000000 0.903133 0.500000
O O18 0.095163 0.000000 0.702902
#
# Coordination Sequence:
#
# PCOD8087790 Si02
#       8
#     8   8   8   4   8   8   8   8
#     4  11  18  31  48  78 107 137 171 208 263 312
#     4   9  20  35  54  80 105 140 182 213 255 314
#     4  10  19  32  51  76 112 145 170 206 257 321
#     4  10  21  30  49  76 112 140 173 206 259 320
#     4  10  20  37  57  76 101 137 184 229 260 298
#     4  11  19  34  53  79 108 139 173 213 264 316
#     4  11  20  29  48  78 113 139 162 207 268 324
#     4  10  19  33  53  77 100 130 178 228 263 299
#
# _framework density 17.051523
#
# number of rings (size 3 to 8) (size 9 to 14) (size 15 to 20)
#    0.000    1.733    4.000    2.600    0.000    1.067 
#    0.000    1.000    0.000    3.200    0.000    0.000 
#    0.000    0.000    0.000    0.000    0.000    0.000 
#
# Total GULP energy -371786.086961 kJ/mol
# GULP energy per Si atom -12392.869565 kJ/mol
# Density = 1.701271 g / cm^3
# Si number density = 17.051523 Si / 1000 Ang^3
#
#
#
# Elastic Constant Matrix: (Units=GPa)
#
#
# Indices 1 2 3 4 5 6 
#
# 1 84.5345 41.7930 46.0761 0.0000 2.5881 0.0000
# 2 41.7930 145.0296 60.4498 0.0000 -10.0989 0.0000
# 3 46.0761 60.4498 94.7195 0.0000 -6.4401 0.0000
# 4 0.0000 0.0000 0.0000 25.3460 0.0000 -4.7090
# 5 2.5881 -10.0989 -6.4401 0.0000 26.5766 0.0000
# 6 0.0000 0.0000 0.0000 -4.7090 0.0000 26.4273
#
#
#
# Elastic Compliance Matrix: (Units=1/GPa)
#
#
# Indices 1 2 3 4 5 6 
#
# 1 0.016925 -0.002206 -0.007111 0.000000 -0.004210 0.000000
# 2 -0.002206 0.009804 -0.004998 0.000000 0.002729 0.000000
# 3 -0.007111 -0.004998 0.017411 0.000000 0.003012 0.000000
# 4 0.000000 0.000000 0.000000 0.040805 0.000000 0.007271
# 5 -0.004210 0.002729 0.003012 0.000000 0.039804 0.000000
# 6 0.000000 0.000000 0.000000 0.007271 0.000000 0.039135
#
#
# Mechanical properties :
#
#
# Convention : Reuss Voigt Hill
#
# Bulk Modulus (GPa) = 64.47839 68.99125 66.73482
# Shear Modulus (GPa) = 25.29250 27.40096 26.34673
#
# Velocity S-wave (km/s) = 3.85554 4.01303 3.93507
# Velocity P-wave (km/s) = 7.59712 7.87533 7.73747
#
# Compressibility (1/GPa) = 0.01550907
#
# Stress axis : x y z
#
# Youngs Moduli (GPa) = 59.08311 101.99581 57.43335
#
# Poissons Ratio (x) = 0.22504 0.40843
# Poissons Ratio (y) = 0.13036 0.28707
# Poissons Ratio (z) = 0.42016 0.50980
#
# Static dielectric constant tensor:
#      x y z
#    x 3.241430 0.000000 -0.154390 
#    y 0.000000 3.425520 0.000000 
#    z -0.154390 0.000000 3.246950 
# 
# 
# High freq. dielectric constant tensor:
#      x y z
#    x 1.656450 0.000000 -0.008280 
#    y 0.000000 1.661760 0.000000 
#    z -0.008280 0.000000 1.639630 
# 
# From -- ./inp_files/183246.got.cif
#   From: 2010.06.25/outbox.cif.g09.slc.cpg/sg12_92_cif.got.tgz:183246.got - 2010.06.28 00:19:55.
