data_PCOD8087117
_publ_section_title
;
Structure prediction by ZEFSAII (Michael W. Deem and Ramdas Pophale) SiO2 
 PCOD8087117
Probable space group: C 2/M
;
_chemical_formula_sum "Si O2"
_cell_formula_units_Z 40
_cell_length_a 7.955184
_cell_length_b 13.440937
_cell_length_c 22.187732
_cell_angle_alpha 90.000000
_cell_angle_beta 39.783730
_cell_angle_gamma 90.000000
_cell_volume 1518.095290
_symmetry_space_group_name_H-M "C 2/M"
_symmetry_group_IT_number 12
_symmetry_cell_setting 'monoclinic'
loop_
_space_group_symop_operation_xyz
x,y,z
-x,y,-z
-x,-y,-z
x,-y,z
1/2+x,1/2+y,z
1/2-x,1/2+y,-z
1/2-x,1/2-y,-z
1/2+x,1/2-y,z
loop_
_atom_site_type_symbol
_atom_site_label
_atom_site_fract_x
_atom_site_fract_y
_atom_site_fract_z
Si Si1 0.966883 0.615710 0.285109
Si Si2 0.172567 0.392385 0.894949
Si Si3 0.931857 0.618015 0.612205
Si Si4 0.909893 0.118064 0.398985
Si Si5 0.201773 0.688986 0.105833
O O1 0.919564 0.500000 0.309829
O O2 0.690391 0.665881 0.339930
O O3 0.063445 0.664249 0.321648
O O4 0.183019 0.628291 0.173184
O O5 0.309183 0.500000 0.840304
O O6 0.374348 0.304485 0.857472
O O7 0.994637 0.355707 0.888596
O O8 0.000000 0.414719 0.000000
O O9 0.935682 0.500000 0.613071
O O10 0.671212 0.652179 0.646833
O O11 0.192353 0.655620 0.506138
O O12 0.930553 0.000000 0.395039
O O13 0.500000 0.682922 0.000000
#
# Coordination Sequence:
#
# PCOD8087117 Si02
#       5
#     8   8   8   8   8
#     4  10  19  31  53  91 135 181 229 281 345 413
#     4  10  22  44  72  98 130 179 233 289 353 407
#     4   8  14  27  49  81 126 177 226 285 350 408
#     4   8  14  27  48  81 127 175 228 286 346 411
#     4  11  23  43  66  98 139 180 230 283 339 417
#
# _framework density 26.348807000000001
#
# number of rings (size 3 to 8) (size 9 to 14) (size 15 to 20)
#    0.000    2.600    0.000    4.800    0.000    4.000 
#    7.200    2.000    0.000    0.600    0.000    5.600 
#    0.000    3.200    0.000    2.400    0.000    0.400 
#
# Total GULP energy -247844.009152 kJ/mol
# GULP energy per Si atom -12392.200458 kJ/mol
# Density = 2.628884 g / cm^3
# Si number density = 26.348807 Si / 1000 Ang^3
#
#
#
# Elastic Constant Matrix: (Units=GPa)
#
#
# Indices 1 2 3 4 5 6 
#
# 1 167.5348 58.9380 89.5311 -4.0549 49.9513 -0.1688
# 2 58.9380 80.1132 -0.2418 -1.3777 13.2573 -0.0638
# 3 89.5311 -0.2418 122.0800 43.2574 34.2093 1.7644
# 4 -4.0549 -1.3777 43.257473937.0260 -10.7846 3023.8076
# 5 49.9513 13.2573 34.2093 -10.7846 51.7515 -0.4380
# 6 -0.1688 -0.0638 1.7644 3023.8076 -0.4380 172.6249
#
#
#
# Elastic Compliance Matrix: (Units=1/GPa)
#
#
# Indices 1 2 3 4 5 6 
#
# 1 0.019015 -0.012842 -0.011970 0.000007 -0.007151 -0.000002
# 2 -0.012842 0.021848 0.009277 -0.000006 0.000665 0.000003
# 3 -0.011970 0.009277 0.017700 -0.000011 -0.002526 0.000003
# 4 0.000007 -0.000006 -0.000011 0.000048 0.000005 -0.000835
# 5 -0.007151 0.000665 -0.002526 0.000005 0.027725 -0.000002
# 6 -0.000002 0.000003 0.000003 -0.000835 -0.000002 0.020425
#
#
# Mechanical properties :
#
#
# Convention : Reuss Voigt Hill
#
# Bulk Modulus (GPa) = 36.37192 74.02029 55.19611
# Shear Modulus (GPa) = 34.01480 14847.04718 7440.53099
#
# Velocity S-wave (km/s) = 3.59687 75.14679 53.19764
# Velocity P-wave (km/s) = 5.57529 86.93412 61.59799
#
# Compressibility (1/GPa) = 0.02749373
#
# Stress axis : x y z
#
# Youngs Moduli (GPa) = 52.58875 45.77085 56.49800
#
# Poissons Ratio (x) = 0.58780 0.67626
# Poissons Ratio (y) = 0.67535 -0.52414
# Poissons Ratio (z) = 0.62947 -0.42462
#
# Static dielectric constant tensor:
#      x y z
#    x 5.272550 -0.000010 0.370060 
#    y -0.000010 4.915060 -0.000010 
#    z 0.370060 -0.000010 4.712610 
# 
# 
# High freq. dielectric constant tensor:
#      x y z
#    x 2.063750 0.000000 0.023460 
#    y 0.000000 2.066830 0.000000 
#    z 0.023460 0.000000 2.042590 
# 
# From -- ./inp_files/300581.got.cif
#   From: 2010.06.25/outbox.cif.g09.slc.cpg/sg12_151_cif.got.tgz:300581.got - 2010.06.28 00:19:55.
