data_PCOD8087754
_publ_section_title
;
Structure prediction by ZEFSAII (Michael W. Deem and Ramdas Pophale) SiO2 
 PCOD8087754
Probable space group: C 2/M
;
_chemical_formula_sum "Si O2"
_cell_formula_units_Z 48
_cell_length_a 29.637185
_cell_length_b 8.974787
_cell_length_c 9.924388
_cell_angle_alpha 90.000000
_cell_angle_beta 80.437476
_cell_angle_gamma 90.000000
_cell_volume 2603.082640
_symmetry_space_group_name_H-M "C 2/M"
_symmetry_group_IT_number 12
_symmetry_cell_setting 'monoclinic'
loop_
_space_group_symop_operation_xyz
x,y,z
-x,y,-z
-x,-y,-z
x,-y,z
1/2+x,1/2+y,z
1/2-x,1/2+y,-z
1/2-x,1/2-y,-z
1/2+x,1/2-y,z
loop_
_atom_site_type_symbol
_atom_site_label
_atom_site_fract_x
_atom_site_fract_y
_atom_site_fract_z
Si Si1 0.716548 0.327544 0.618936
Si Si2 0.230345 0.326067 0.141045
Si Si3 0.119529 0.823353 0.573454
Si Si4 0.955885 0.822524 0.189580
Si Si5 0.056939 0.823101 0.103700
Si Si6 0.364821 0.677346 0.737106
O O1 0.717712 0.500000 0.580782
O O2 0.750000 0.250000 0.500000
O O3 0.731708 0.297979 0.763712
O O4 0.665485 0.263850 0.623072
O O5 0.222253 0.500000 0.119069
O O6 0.183157 0.252270 0.207929
O O7 0.250000 0.250000 0.000000
O O8 0.076078 0.756007 0.676031
O O9 0.118270 0.771820 0.419027
O O10 0.117475 0.000000 0.583341
O O11 0.007892 0.764852 0.183825
O O12 0.955586 0.000000 0.192955
O O13 0.936530 0.769375 0.053745
O O14 0.097890 0.760557 0.175385
O O15 0.057464 0.000000 0.110685
O O16 0.358653 0.500000 0.749043
#
# Coordination Sequence:
#
# PCOD8087754 Si02
#       6
#     8   8   8   8   8   8
#     4  10  20  35  54  76 103 138 171 211 260 309
#     4  11  24  38  54  77 106 139 175 216 261 310
#     4   9  17  28  46  72 102 132 165 208 256 303
#     4   8  14  26  43  69 103 134 168 209 257 305
#     4   8  15  26  44  71 103 136 167 208 256 302
#     4  10  19  32  51  76 105 135 170 212 258 308
#
# _framework density 18.439675999999999
#
# number of rings (size 3 to 8) (size 9 to 14) (size 15 to 20)
#    0.000    2.667    1.667    1.500    2.333    1.333 
#    0.000    3.333    0.000    0.000    0.000    5.833 
#    0.000    0.000    0.000    0.000    0.000    0.000 
#
# Total GULP energy -297503.982645 kJ/mol
# GULP energy per Si atom -12395.999277 kJ/mol
# Density = 1.839771 g / cm^3
# Si number density = 18.439676 Si / 1000 Ang^3
#
#
#
# Elastic Constant Matrix: (Units=GPa)
#
#
# Indices 1 2 3 4 5 6 
#
# 1 98.3585 17.9016 54.5077 0.0000 -1.1470 0.0000
# 2 17.9016 29.0563 30.0244 0.0000 -0.1725 0.0000
# 3 54.5077 30.0244 126.4043 0.0000 -12.0054 0.0000
# 4 0.0000 0.0000 0.0000 16.0007 0.0000 -0.4763
# 5 -1.1470 -0.1725 -12.0054 0.0000 43.8902 0.0000
# 6 0.0000 0.0000 0.0000 -0.4763 0.0000 18.7575
#
#
#
# Elastic Compliance Matrix: (Units=1/GPa)
#
#
# Indices 1 2 3 4 5 6 
#
# 1 0.013613 -0.002942 -0.005276 0.000000 -0.001099 0.000000
# 2 -0.002942 0.046598 -0.010051 0.000000 -0.002643 0.000000
# 3 -0.005276 -0.010051 0.012892 0.000000 0.003349 0.000000
# 4 0.000000 0.000000 0.000000 0.062545 0.000000 0.001588
# 5 -0.001099 -0.002643 0.003349 0.000000 0.023661 0.000000
# 6 0.000000 0.000000 0.000000 0.001588 0.000000 0.053352
#
#
# Mechanical properties :
#
#
# Convention : Reuss Voigt Hill
#
# Bulk Modulus (GPa) = 27.34780 50.96516 39.15648
# Shear Modulus (GPa) = 19.12874 25.82205 22.47539
#
# Velocity S-wave (km/s) = 3.22431 3.74619 3.49501
# Velocity P-wave (km/s) = 5.35955 6.81254 6.12925
#
# Compressibility (1/GPa) = 0.03656601
#
# Stress axis : x y z
#
# Youngs Moduli (GPa) = 73.45778 21.45997 77.57034
#
# Poissons Ratio (x) = 0.06314 0.40925
# Poissons Ratio (y) = 0.21612 0.77964
# Poissons Ratio (z) = 0.38755 0.21569
#
# Static dielectric constant tensor:
#      x y z
#    x 3.949280 0.000000 -0.112250 
#    y 0.000000 2.907760 0.000000 
#    z -0.112250 0.000000 4.107890 
# 
# 
# High freq. dielectric constant tensor:
#      x y z
#    x 1.728860 0.000000 0.000390 
#    y 0.000000 1.655480 0.000000 
#    z 0.000390 0.000000 1.727380 
# 
# From -- ./inp_files/108583.got.cif
#   From: 2010.06.25/outbox.cif.g09.slc.cpg/sg12_55_cif.got.tgz:108583.got - 2010.06.28 00:19:55.
