data_PCOD8087416
_publ_section_title
;
Structure prediction by ZEFSAII (Michael W. Deem and Ramdas Pophale) SiO2 
 PCOD8087416
Probable space group: C 2/M
;
_chemical_formula_sum "Si O2"
_cell_formula_units_Z 40
_cell_length_a 20.648417
_cell_length_b 9.436286
_cell_length_c 21.285965
_cell_angle_alpha 90.000000
_cell_angle_beta 145.392814
_cell_angle_gamma 90.000000
_cell_volume 2355.531922
_symmetry_space_group_name_H-M "C 2/M"
_symmetry_group_IT_number 12
_symmetry_cell_setting 'monoclinic'
loop_
_space_group_symop_operation_xyz
x,y,z
-x,y,-z
-x,-y,-z
x,-y,z
1/2+x,1/2+y,z
1/2-x,1/2+y,-z
1/2-x,1/2-y,-z
1/2+x,1/2-y,z
loop_
_atom_site_type_symbol
_atom_site_label
_atom_site_fract_x
_atom_site_fract_y
_atom_site_fract_z
Si Si1 0.745861 0.836163 0.060233
Si Si2 0.679333 0.836186 0.494327
Si Si3 0.886714 0.160696 0.738893
Si Si4 0.013782 0.333301 0.939989
Si Si5 0.993902 0.163174 0.295797
O O1 0.859075 0.808150 0.191750
O O2 0.736981 0.000000 0.034175
O O3 0.750000 0.750000 0.000000
O O4 0.638840 0.787449 0.016331
O O5 0.750000 0.750000 0.500000
O O6 0.750754 0.824762 0.616216
O O7 0.554730 0.761944 0.397282
O O8 0.666360 0.000000 0.463775
O O9 0.916467 0.261210 0.820440
O O10 0.961116 0.205287 0.737559
O O11 0.917125 0.000000 0.781747
O O12 0.994574 0.500000 0.919749
O O13 0.000000 0.279568 0.000000
O O14 0.024539 0.000000 0.334571
#
# Coordination Sequence:
#
# PCOD8087416 Si02
#       5
#     8   8   8   8   8
#     4  10  19  32  50  72 100 129 161 205 247 288
#     4   9  17  28  44  69  99 126 157 198 243 289
#     4   9  17  30  47  69  97 126 160 200 241 288
#     4  10  21  34  49  72 100 131 165 200 242 293
#     4   9  17  29  46  71  99 124 158 201 244 288
#
# _framework density 16.981301999999999
#
# number of rings (size 3 to 8) (size 9 to 14) (size 15 to 20)
#    0.000    2.600    2.000    1.800    0.000    5.200 
#    0.000    0.000    0.000    1.200    0.000    8.400 
#    0.000    0.000    0.000    0.000    0.000    0.000 
#
# Total GULP energy -247927.941002 kJ/mol
# GULP energy per Si atom -12396.397050 kJ/mol
# Density = 1.694265 g / cm^3
# Si number density = 16.981302 Si / 1000 Ang^3
#
#
#
# Elastic Constant Matrix: (Units=GPa)
#
#
# Indices 1 2 3 4 5 6 
#
# 1 77.8473 35.3090 49.2761 0.0000 -1.7296 0.0000
# 2 35.3090 76.3115 64.4848 0.0000 -2.6706 0.0000
# 3 49.2761 64.4848 130.8468 0.0000 -0.6423 0.0000
# 4 0.0000 0.0000 0.0000 38.3570 0.0000 -3.3274
# 5 -1.7296 -2.6706 -0.6423 0.0000 17.4866 0.0000
# 6 0.0000 0.0000 0.0000 -3.3274 0.0000 15.6768
#
#
#
# Elastic Compliance Matrix: (Units=1/GPa)
#
#
# Indices 1 2 3 4 5 6 
#
# 1 0.017695 -0.004332 -0.004524 0.000000 0.000922 0.000000
# 2 -0.004332 0.023677 -0.010024 0.000000 0.002819 0.000000
# 3 -0.004524 -0.010024 0.014279 0.000000 -0.001454 0.000000
# 4 0.000000 0.000000 0.000000 0.026560 0.000000 0.005637
# 5 0.000922 0.002819 -0.001454 0.000000 0.057655 0.000000
# 6 0.000000 0.000000 0.000000 0.005637 0.000000 0.064985
#
#
# Mechanical properties :
#
#
# Convention : Reuss Voigt Hill
#
# Bulk Modulus (GPa) = 55.89218 64.79395 60.34306
# Shear Modulus (GPa) = 20.11468 23.36646 21.74057
#
# Velocity S-wave (km/s) = 3.44542 3.71349 3.58196
# Velocity P-wave (km/s) = 6.98665 7.52499 7.26081
#
# Compressibility (1/GPa) = 0.01789159
#
# Stress axis : x y z
#
# Youngs Moduli (GPa) = 56.51379 42.23446 70.03211
#
# Poissons Ratio (x) = 0.18295 0.31685
# Poissons Ratio (y) = 0.24481 0.70198
# Poissons Ratio (z) = 0.25569 0.42334
#
# Static dielectric constant tensor:
#      x y z
#    x 2.857820 0.000000 0.219750 
#    y 0.000000 3.276960 0.000000 
#    z 0.219750 0.000000 3.695110 
# 
# 
# High freq. dielectric constant tensor:
#      x y z
#    x 1.598780 0.000000 0.011480 
#    y 0.000000 1.659630 0.000000 
#    z 0.011480 0.000000 1.671490 
# 
# From -- ./inp_files/162356.got.cif
#   From: 2010.06.25/outbox.cif.g09.slc.cpg/sg12_82_cif.got.tgz:162356.got - 2010.06.28 00:19:55.
