data_PCOD8087481
_publ_section_title
;
Structure prediction by ZEFSAII (Michael W. Deem and Ramdas Pophale) SiO2 
 PCOD8087481
Probable space group: C 2/M
;
_chemical_formula_sum "Si O2"
_cell_formula_units_Z 40
_cell_length_a 29.314068
_cell_length_b 18.314199
_cell_length_c 12.634564
_cell_angle_alpha 90.000000
_cell_angle_beta 18.175558
_cell_angle_gamma 90.000000
_cell_volume 2115.830733
_symmetry_space_group_name_H-M "C 2/M"
_symmetry_group_IT_number 12
_symmetry_cell_setting 'monoclinic'
loop_
_space_group_symop_operation_xyz
x,y,z
-x,y,-z
-x,-y,-z
x,-y,z
1/2+x,1/2+y,z
1/2-x,1/2+y,-z
1/2-x,1/2-y,-z
1/2+x,1/2-y,z
loop_
_atom_site_type_symbol
_atom_site_label
_atom_site_fract_x
_atom_site_fract_y
_atom_site_fract_z
Si Si1 0.225327 0.797213 0.788602
Si Si2 0.338727 0.419550 0.615303
Si Si3 0.336463 0.198129 0.891314
Si Si4 0.969617 0.803373 0.189528
Si Si5 0.399558 0.420217 0.815343
O O1 0.388464 0.774054 0.393013
O O2 0.151770 0.734260 0.019918
O O3 0.231480 0.867683 0.854945
O O4 0.123620 0.807930 0.910501
O O5 0.272560 0.500000 0.732898
O O6 0.358826 0.368802 0.467187
O O7 0.500164 0.430689 0.303872
O O8 0.244562 0.379634 0.915006
O O9 0.500000 0.180131 0.500000
O O10 0.250000 0.250000 0.000000
O O11 0.000000 0.811297 0.000000
O O12 0.500000 0.385284 0.500000
O O13 0.338051 0.500000 0.914541
#
# Coordination Sequence:
#
# PCOD8087481 Si02
#       5
#     8   8   8   8   8
#     4  10  19  32  50  74 100 125 165 208 247 296
#     4   9  19  32  47  72 101 128 165 207 246 294
#     4  11  20  32  52  77 106 136 164 198 246 301
#     4  10  20  34  53  72  94 129 170 214 256 292
#     4   9  16  28  48  72  99 130 161 195 241 300
#
# _framework density 18.905103
#
# number of rings (size 3 to 8) (size 9 to 14) (size 15 to 20)
#    0.000    2.200    0.000    6.000    0.000    0.800 
#    0.000    0.000    0.000   10.200    0.000    0.000 
#    0.000    0.000    0.000    0.000    0.000    0.000 
#
# Total GULP energy -247772.868672 kJ/mol
# GULP energy per Si atom -12388.643434 kJ/mol
# Density = 1.886207 g / cm^3
# Si number density = 18.905103 Si / 1000 Ang^3
#
#
#
# Elastic Constant Matrix: (Units=GPa)
#
#
# Indices 1 2 3 4 5 6 
#
# 1 65.7272 19.5967 19.8604 0.0001 20.7087 0.0000
# 2 19.5967 119.0709 47.4687 -0.0004 12.0790 -0.0003
# 3 19.8604 47.4687 87.2039 -0.0028 17.3934 -0.0001
# 4 0.0001 -0.0004 -0.0028 24.1004 0.0003 1.9833
# 5 20.7087 12.0790 17.3934 0.0003 30.8173 0.0001
# 6 0.0000 -0.0003 -0.0001 1.9833 0.0001 18.1860
#
#
#
# Elastic Compliance Matrix: (Units=1/GPa)
#
#
# Indices 1 2 3 4 5 6 
#
# 1 0.019844 -0.001534 -0.001290 0.000000 -0.012006 0.000000
# 2 -0.001534 0.010873 -0.005550 0.000000 -0.000099 0.000000
# 3 -0.001290 -0.005550 0.015974 0.000002 -0.005974 0.000000
# 4 0.000000 0.000000 0.000002 0.041869 -0.000001 -0.004566
# 5 -0.012006 -0.000099 -0.005974 -0.000001 0.043927 0.000000
# 6 0.000000 0.000000 0.000000 -0.004566 0.000000 0.055485
#
#
# Mechanical properties :
#
#
# Convention : Reuss Voigt Hill
#
# Bulk Modulus (GPa) = 33.39558 49.53929 41.46743
# Shear Modulus (GPa) = 23.28826 26.95916 25.12371
#
# Velocity S-wave (km/s) = 3.51358 3.78037 3.64941
# Velocity P-wave (km/s) = 5.84496 6.73172 6.30395
#
# Compressibility (1/GPa) = 0.02994408
#
# Stress axis : x y z
#
# Youngs Moduli (GPa) = 50.39273 91.96860 62.60341
#
# Poissons Ratio (x) = 0.14106 0.08075
# Poissons Ratio (y) = 0.07729 0.34743
# Poissons Ratio (z) = 0.06500 0.51040
#
# Static dielectric constant tensor:
#      x y z
#    x 3.343690 0.000000 0.078510 
#    y 0.000000 4.067170 0.000000 
#    z 0.078510 0.000000 3.332060 
# 
# 
# High freq. dielectric constant tensor:
#      x y z
#    x 1.721230 0.000000 0.013090 
#    y 0.000000 1.734770 0.000000 
#    z 0.013090 0.000000 1.709620 
# 
# From -- ./inp_files/118941.got.cif
#   From: 2010.06.25/outbox.cif.g09.slc.cpg/sg12_60_cif.got.tgz:118941.got - 2010.06.28 00:19:55.
