data_PCOD8087462
_publ_section_title
;
Structure prediction by ZEFSAII (Michael W. Deem and Ramdas Pophale) SiO2 
 PCOD8087462
Probable space group: C 2/M
;
_chemical_formula_sum "Si O2"
_cell_formula_units_Z 64
_cell_length_a 24.390726
_cell_length_b 9.447113
_cell_length_c 25.902527
_cell_angle_alpha 90.000000
_cell_angle_beta 36.086130
_cell_angle_gamma 90.000000
_cell_volume 3515.457211
_symmetry_space_group_name_H-M "C 2/M"
_symmetry_group_IT_number 12
_symmetry_cell_setting 'monoclinic'
loop_
_space_group_symop_operation_xyz
x,y,z
-x,y,-z
-x,-y,-z
x,-y,z
1/2+x,1/2+y,z
1/2-x,1/2+y,-z
1/2-x,1/2-y,-z
1/2+x,1/2-y,z
loop_
_atom_site_type_symbol
_atom_site_label
_atom_site_fract_x
_atom_site_fract_y
_atom_site_fract_z
Si Si1 0.291206 0.667807 0.348071
Si Si2 0.747255 0.668175 0.738712
Si Si3 0.108875 0.668079 0.546844
Si Si4 0.955086 0.331153 0.587026
Si Si5 0.127086 0.339037 0.121213
Si Si6 0.674094 0.334270 0.989701
Si Si7 0.926767 0.336557 0.312072
Si Si8 0.103667 0.168667 0.932665
O O1 0.303376 0.500000 0.343436
O O2 0.281828 0.717201 0.296220
O O3 0.201607 0.722300 0.448018
O O4 0.381754 0.743501 0.301524
O O5 0.748777 0.500000 0.740172
O O6 0.850217 0.727539 0.673289
O O7 0.673562 0.729699 0.835965
O O8 0.105579 0.500000 0.548268
O O9 0.107253 0.723080 0.606767
O O10 0.017939 0.726334 0.586257
O O11 0.953553 0.500000 0.586823
O O12 0.000000 0.273640 0.500000
O O13 0.135970 0.500000 0.094966
O O14 0.216477 0.298113 0.087843
O O15 0.037789 0.317999 0.225248
O O16 0.117184 0.242075 0.078283
O O17 0.653940 0.500000 0.009960
O O18 0.638098 0.276359 0.962160
O O19 0.897955 0.500000 0.326574
O O20 0.104920 0.000000 0.930356
O O21 0.000000 0.226120 0.000000
#
# Coordination Sequence:
#
# PCOD8087462 Si02
#       8
#     8   8   8   8   8   8   8   8
#     4  10  19  32  50  73 100 129 162 198 239 289
#     4   9  17  27  44  72 100 125 156 199 246 289
#     4   9  17  29  46  70 100 129 160 199 241 286
#     4   9  14  24  43  69  99 126 154 196 247 289
#     4   9  19  34  50  71  96 127 165 202 240 283
#     4   9  18  33  53  73  96 126 160 199 245 291
#     4  10  21  33  48  70  99 132 165 201 238 281
#     4   9  18  29  44  70 101 126 153 195 246 293
#
# _framework density 18.205313
#
# number of rings (size 3 to 8) (size 9 to 14) (size 15 to 20)
#    0.000    2.750    1.250    0.375    3.500    0.500 
#    0.000    0.000    0.000    1.125    0.000    2.625 
#    0.000    0.000    0.000    0.000    0.000    0.000 
#
# Total GULP energy -396764.419112 kJ/mol
# GULP energy per Si atom -12398.888097 kJ/mol
# Density = 1.816388 g / cm^3
# Si number density = 18.205313 Si / 1000 Ang^3
#
#
#
# Elastic Constant Matrix: (Units=GPa)
#
#
# Indices 1 2 3 4 5 6 
#
# 1 136.0505 24.4461 55.0294 -0.0001 3.2441 0.0007
# 2 24.4461 19.4447 17.1815 -0.0005 2.2773 0.0026
# 3 55.0294 17.1815 122.5047 0.0004 2.9528 0.0001
# 4 -0.0001 -0.0005 0.0004 15.3298 -0.0001 0.8840
# 5 3.2441 2.2773 2.9528 -0.0001 32.5285 -0.0005
# 6 0.0007 0.0026 0.0001 0.8840 -0.0005 19.6280
#
#
#
# Elastic Compliance Matrix: (Units=1/GPa)
#
#
# Indices 1 2 3 4 5 6 
#
# 1 0.010537 -0.010344 -0.003282 0.000000 -0.000029 0.000001
# 2 -0.010344 0.069228 -0.004982 0.000003 -0.003363 -0.000009
# 3 -0.003282 -0.004982 0.010342 0.000000 -0.000263 0.000001
# 4 0.000000 0.000003 0.000000 0.065402 0.000000 -0.002945
# 5 -0.000029 -0.003363 -0.000263 0.000000 0.031004 0.000001
# 6 0.000001 -0.000009 0.000001 -0.002945 0.000001 0.051080
#
#
# Mechanical properties :
#
#
# Convention : Reuss Voigt Hill
#
# Bulk Modulus (GPa) = 18.90633 52.36821 35.63727
# Shear Modulus (GPa) = 17.09750 25.58677 21.34214
#
# Velocity S-wave (km/s) = 3.06788 3.75301 3.42761
# Velocity P-wave (km/s) = 4.79132 6.89985 5.93989
#
# Compressibility (1/GPa) = 0.05289234
#
# Stress axis : x y z
#
# Youngs Moduli (GPa) = 94.90402 14.44495 96.69164
#
# Poissons Ratio (x) = 0.14942 0.31732
# Poissons Ratio (y) = 0.98169 0.48169
# Poissons Ratio (z) = 0.31145 0.07196
#
# Static dielectric constant tensor:
#      x y z
#    x 3.513360 0.000000 -0.006110 
#    y 0.000000 2.774890 0.000000 
#    z -0.006110 0.000000 3.546620 
# 
# 
# High freq. dielectric constant tensor:
#      x y z
#    x 1.717690 0.000000 -0.002600 
#    y 0.000000 1.637410 0.000000 
#    z -0.002600 0.000000 1.716410 
# 
# From -- ./inp_files/346812.got.cif
#   From: 2010.06.25/outbox.cif.g09.slc.cpg/sg12_174_cif.got.tgz:346812.got - 2010.06.28 00:19:55.
