data_PCOD8087634
_publ_section_title
;
Structure prediction by ZEFSAII (Michael W. Deem and Ramdas Pophale) SiO2 
 PCOD8087634
Probable space group: C 2/M
;
_chemical_formula_sum "Si O2"
_cell_formula_units_Z 64
_cell_length_a 18.867514
_cell_length_b 9.059626
_cell_length_c 25.032463
_cell_angle_alpha 90.000000
_cell_angle_beta 55.442617
_cell_angle_gamma 90.000000
_cell_volume 3523.895255
_symmetry_space_group_name_H-M "C 2/M"
_symmetry_group_IT_number 12
_symmetry_cell_setting 'monoclinic'
loop_
_space_group_symop_operation_xyz
x,y,z
-x,y,-z
-x,-y,-z
x,-y,z
1/2+x,1/2+y,z
1/2-x,1/2+y,-z
1/2-x,1/2-y,-z
1/2+x,1/2-y,z
loop_
_atom_site_type_symbol
_atom_site_label
_atom_site_fract_x
_atom_site_fract_y
_atom_site_fract_z
Si Si1 0.712504 0.170059 0.938935
Si Si2 0.215172 0.328392 0.816181
Si Si3 0.253026 0.826782 0.442022
Si Si4 0.147713 0.167300 0.687248
Si Si5 0.883930 0.170134 0.930048
Si Si6 0.550759 0.173018 0.816063
Si Si7 0.909574 0.171801 0.561332
Si Si8 0.814934 0.665592 0.688958
O O1 0.710081 0.225534 0.879199
O O2 0.808588 0.191184 0.919386
O O3 0.682969 0.000000 0.956614
O O4 0.646010 0.271251 0.999575
O O5 0.237065 0.500000 0.803201
O O6 0.124699 0.290973 0.827296
O O7 0.293987 0.245118 0.753745
O O8 0.250000 0.750000 0.500000
O O9 0.332361 0.756991 0.375234
O O10 0.163287 0.793320 0.451032
O O11 0.269552 0.000000 0.441485
O O12 0.069916 0.246232 0.751744
O O13 0.230925 0.170456 0.688582
O O14 0.120896 0.000000 0.684354
O O15 0.962722 0.267431 0.877134
O O16 0.911611 0.000000 0.923682
O O17 0.543468 0.000000 0.807924
O O18 0.891766 0.253399 0.624865
O O19 0.000000 0.230350 0.500000
O O20 0.913727 0.000000 0.573069
O O21 0.844640 0.500000 0.688717
#
# Coordination Sequence:
#
# PCOD8087634 Si02
#       8
#     8   8   8   8   8   8   8   8
#     4   9  19  36  54  71  95 131 169 200 237 288
#     4   9  18  33  53  74  96 126 164 202 239 286
#     4  10  19  32  51  74 100 130 165 203 244 290
#     4   9  17  31  50  72  99 129 162 200 244 292
#     4  10  20  34  52  73  99 131 164 200 243 290
#     4  10  19  32  52  76 100 126 160 202 244 289
#     4   9  18  33  52  72  96 130 168 201 237 287
#     4   9  17  29  48  74 101 127 156 198 249 292
#
# _framework density 18.161719999999999
#
# number of rings (size 3 to 8) (size 9 to 14) (size 15 to 20)
#    0.000    2.625    0.000    1.875    0.000    5.750 
#    0.000    3.750    0.000    3.000    0.000    0.000 
#    0.000    0.000    0.000    0.000    0.000    0.000 
#
# Total GULP energy -396858.955214 kJ/mol
# GULP energy per Si atom -12401.842350 kJ/mol
# Density = 1.812038 g / cm^3
# Si number density = 18.161720 Si / 1000 Ang^3
#
#
#
# Elastic Constant Matrix: (Units=GPa)
#
#
# Indices 1 2 3 4 5 6 
#
# 1 37.6773 36.0522 54.2773 0.0002 0.7451 0.0010
# 2 36.0522 106.9523 78.5154 0.0001 1.2761 0.0011
# 3 54.2773 78.5154 170.9999 -0.0001 3.6000 0.0000
# 4 0.0002 0.0001 -0.0001 41.4146 0.0000 -0.8695
# 5 0.7451 1.2761 3.6000 0.0000 31.1244 0.0003
# 6 0.0010 0.0011 0.0000 -0.8695 0.0003 21.5181
#
#
#
# Elastic Compliance Matrix: (Units=1/GPa)
#
#
# Indices 1 2 3 4 5 6 
#
# 1 0.053482 -0.008393 -0.013134 0.000000 0.000583 -0.000002
# 2 -0.008393 0.015422 -0.004419 0.000000 0.000080 0.000000
# 3 -0.013134 -0.004419 0.012065 0.000000 -0.000900 0.000001
# 4 0.000000 0.000000 0.000000 0.024167 0.000000 0.000977
# 5 0.000583 0.000080 -0.000900 0.000000 0.032216 0.000000
# 6 -0.000002 0.000000 0.000001 0.000977 0.000000 0.046512
#
#
# Mechanical properties :
#
#
# Convention : Reuss Voigt Hill
#
# Bulk Modulus (GPa) = 34.39193 72.59104 53.49148
# Shear Modulus (GPa) = 20.37098 28.59706 24.48402
#
# Velocity S-wave (km/s) = 3.35273 3.97240 3.67565
# Velocity P-wave (km/s) = 5.82798 7.81639 6.89425
#
# Compressibility (1/GPa) = 0.02907659
#
# Stress axis : x y z
#
# Youngs Moduli (GPa) = 18.69800 64.84226 82.88559
#
# Poissons Ratio (x) = 0.54421 1.08865
# Poissons Ratio (y) = 0.15693 0.36626
# Poissons Ratio (z) = 0.24559 0.28653
#
# Static dielectric constant tensor:
#      x y z
#    x 3.074240 0.000000 0.014580 
#    y 0.000000 3.470140 0.000000 
#    z 0.014580 0.000000 3.566710 
# 
# 
# High freq. dielectric constant tensor:
#      x y z
#    x 1.667370 0.000000 -0.000160 
#    y 0.000000 1.713210 0.000000 
#    z -0.000160 0.000000 1.718950 
# 
# From -- ./inp_files/346038.got.cif
#   From: 2010.06.25/outbox.cif.g09.slc.cpg/sg12_174_cif.got.tgz:346038.got - 2010.06.28 00:19:55.
