data_PCOD8087452
_publ_section_title
;
Structure prediction by ZEFSAII (Michael W. Deem and Ramdas Pophale) SiO2 
 PCOD8087452
Probable space group: C 2/M
;
_chemical_formula_sum "Si O2"
_cell_formula_units_Z 64
_cell_length_a 21.363261
_cell_length_b 17.089830
_cell_length_c 29.905827
_cell_angle_alpha 90.000000
_cell_angle_beta 160.881109
_cell_angle_gamma 90.000000
_cell_volume 3576.114775
_symmetry_space_group_name_H-M "C 2/M"
_symmetry_group_IT_number 12
_symmetry_cell_setting 'monoclinic'
loop_
_space_group_symop_operation_xyz
x,y,z
-x,y,-z
-x,-y,-z
x,-y,z
1/2+x,1/2+y,z
1/2-x,1/2+y,-z
1/2-x,1/2-y,-z
1/2+x,1/2-y,z
loop_
_atom_site_type_symbol
_atom_site_label
_atom_site_fract_x
_atom_site_fract_y
_atom_site_fract_z
Si Si1 0.417893 0.411066 0.095046
Si Si2 0.791929 0.681192 0.346091
Si Si3 0.103555 0.270497 0.677080
Si Si4 0.813857 0.326086 0.134192
Si Si5 0.800120 0.683054 0.885924
Si Si6 0.937872 0.911968 0.210448
Si Si7 0.185111 0.232080 0.366907
Si Si8 0.221800 0.088889 0.153914
O O1 0.391653 0.500000 0.060298
O O2 0.640226 0.388892 0.237110
O O3 0.355012 0.403310 0.104274
O O4 0.282034 0.351026 0.976979
O O5 0.809509 0.736024 0.314130
O O6 0.719384 0.737056 0.336924
O O7 0.000000 0.645165 0.500000
O O8 0.171271 0.203094 0.756036
O O9 0.166030 0.356679 0.735580
O O10 0.877268 0.256258 0.524302
O O11 0.688588 0.257370 0.072947
O O12 0.815792 0.400516 0.168436
O O13 0.030827 0.298308 0.274155
O O14 0.722730 0.608988 0.861357
O O15 0.000000 0.658964 0.000000
O O16 0.114720 0.853480 0.334838
O O17 0.010149 0.000000 0.267792
O O18 0.243497 0.000000 0.184912
O O19 0.000000 0.113511 0.000000
#
# Coordination Sequence:
#
# PCOD8087452 Si02
#       8
#     8   8   8   8   8   8   8   8
#     4  10  19  32  51  73 100 131 160 197 244 290
#     4   9  18  32  50  73  99 127 163 202 240 288
#     4  10  19  33  50  72 100 132 164 195 243 291
#     4  10  19  32  50  72  98 127 166 205 240 283
#     4  10  20  32  51  74  97 126 161 203 241 285
#     4   9  20  35  49  71  99 125 160 202 242 287
#     4   9  20  34  51  72  97 128 164 207 242 282
#     4  10  20  32  48  74 105 133 163 199 239 291
#
# _framework density 17.896516999999999
#
# number of rings (size 3 to 8) (size 9 to 14) (size 15 to 20)
#    0.000    2.375    0.000    3.375    0.000   12.500 
#    0.000    2.500    0.000    0.750    0.000    0.000 
#    0.000    9.500    0.000    0.000    0.000    0.000 
#
# Total GULP energy -396682.097679 kJ/mol
# GULP energy per Si atom -12396.315552 kJ/mol
# Density = 1.785578 g / cm^3
# Si number density = 17.896517 Si / 1000 Ang^3
#
#
#
# Elastic Constant Matrix: (Units=GPa)
#
#
# Indices 1 2 3 4 5 6 
#
# 1 121.0162 40.1677 59.0984 -0.0248 11.5433 -0.0101
# 2 40.1677 62.6043 49.0912 -0.0632 2.6751 0.0292
# 3 59.0984 49.0912 126.4799 -0.3217 6.4606 -0.0007
# 4 -0.0248 -0.0632 -0.3217 10.6630 0.0352 -3.4646
# 5 11.5433 2.6751 6.4606 0.0352 27.9020 0.0374
# 6 -0.0101 0.0292 -0.0007 -3.4646 0.0374 19.2843
#
#
#
# Elastic Compliance Matrix: (Units=1/GPa)
#
#
# Indices 1 2 3 4 5 6 
#
# 1 0.011906 -0.004696 -0.003554 -0.000094 -0.003652 0.000003
# 2 -0.004696 0.024815 -0.007504 -0.000115 0.001302 -0.000064
# 3 -0.003554 -0.007504 0.012517 0.000351 -0.000709 0.000074
# 4 -0.000094 -0.000115 0.000351 0.099607 -0.000181 0.017896
# 5 -0.003652 0.001302 -0.000709 -0.000181 0.037390 -0.000109
# 6 0.000003 -0.000064 0.000074 0.017896 -0.000109 0.055071
#
#
# Mechanical properties :
#
#
# Convention : Reuss Voigt Hill
#
# Bulk Modulus (GPa) = 56.40390 67.42387 61.91389
# Shear Modulus (GPa) = 17.93884 22.35275 20.14579
#
# Velocity S-wave (km/s) = 3.16945 3.53795 3.35876
# Velocity P-wave (km/s) = 6.70664 7.37872 7.05069
#
# Compressibility (1/GPa) = 0.01772927
#
# Stress axis : x y z
#
# Youngs Moduli (GPa) = 83.99020 40.29809 79.89287
#
# Poissons Ratio (x) = 0.18925 0.28395
# Poissons Ratio (y) = 0.39443 0.59952
# Poissons Ratio (z) = 0.29851 0.30240
#
# Static dielectric constant tensor:
#      x y z
#    x 3.591990 -0.000030 0.024380 
#    y -0.000030 3.055250 -0.000280 
#    z 0.024380 -0.000280 3.250720 
# 
# 
# High freq. dielectric constant tensor:
#      x y z
#    x 1.712010 0.000000 -0.001720 
#    y 0.000000 1.660100 -0.000030 
#    z -0.001720 -0.000030 1.685450 
# 
# From -- ./inp_files/381609.got.cif
#   From: 2010.06.25/outbox.cif.g09.slc.cpg/sg12_191_cif.got.tgz:381609.got - 2010.06.28 00:19:55.
