data_PCOD8087617
_publ_section_title
;
Structure prediction by ZEFSAII (Michael W. Deem and Ramdas Pophale) SiO2 
 PCOD8087617
Probable space group: C 2/M
;
_chemical_formula_sum "Si O2"
_cell_formula_units_Z 40
_cell_length_a 18.971819
_cell_length_b 8.892589
_cell_length_c 16.175636
_cell_angle_alpha 90.000000
_cell_angle_beta 127.059288
_cell_angle_gamma 90.000000
_cell_volume 2177.750723
_symmetry_space_group_name_H-M "C 2/M"
_symmetry_group_IT_number 12
_symmetry_cell_setting 'monoclinic'
loop_
_space_group_symop_operation_xyz
x,y,z
-x,y,-z
-x,-y,-z
x,-y,z
1/2+x,1/2+y,z
1/2-x,1/2+y,-z
1/2-x,1/2-y,-z
1/2+x,1/2-y,z
loop_
_atom_site_type_symbol
_atom_site_label
_atom_site_fract_x
_atom_site_fract_y
_atom_site_fract_z
Si Si1 0.884390 0.675653 0.085088
Si Si2 0.757348 0.174215 0.875162
Si Si3 0.749914 0.178204 0.304356
Si Si4 0.426155 0.176072 0.730390
Si Si5 0.671556 0.823644 0.494616
O O1 0.886721 0.500000 0.063753
O O2 0.824854 0.704079 0.123146
O O3 0.981272 0.744311 0.172804
O O4 0.846943 0.765475 0.980281
O O5 0.737314 0.266508 0.779003
O O6 0.769326 0.000000 0.862160
O O7 0.656238 0.239405 0.274361
O O8 0.830637 0.246011 0.416709
O O9 0.755679 0.000000 0.312338
O O10 0.414932 0.207796 0.623567
O O11 0.430049 0.000000 0.748438
O O12 0.750000 0.750000 0.500000
O O13 0.687831 0.000000 0.517170
#
# Coordination Sequence:
#
# PCOD8087617 Si02
#       5
#     8   8   8   8   8
#     4   9  18  35  54  69  92 127 164 198 235 285
#     4  10  20  33  50  72  97 126 159 198 244 287
#     4  10  19  32  51  73  98 128 162 198 236 282
#     4   8  16  31  52  74  93 123 164 198 231 278
#     4   9  16  29  49  73 100 127 158 195 238 285
#
# _framework density 18.367574999999999
#
# number of rings (size 3 to 8) (size 9 to 14) (size 15 to 20)
#    0.000    2.800    0.000    3.000    0.000    1.600 
#    0.000   11.000    0.000    6.000    0.000    0.000 
#    0.000    0.000    0.000    0.000    0.000    0.000 
#
# Total GULP energy -247877.887077 kJ/mol
# GULP energy per Si atom -12393.894354 kJ/mol
# Density = 1.832577 g / cm^3
# Si number density = 18.367575 Si / 1000 Ang^3
#
#
#
# Elastic Constant Matrix: (Units=GPa)
#
#
# Indices 1 2 3 4 5 6 
#
# 1 18.1190 10.0286 3.3853 0.0000 -7.5792 0.0000
# 2 10.0286 70.8734 27.8005 0.0000 -12.0066 0.0000
# 3 3.3853 27.8005 74.8231 0.0000 -23.4935 0.0000
# 4 0.0000 0.0000 0.0000 37.0789 0.0000 -5.9585
# 5 -7.5792 -12.0066 -23.4935 0.0000 25.5415 0.0000
# 6 0.0000 0.0000 0.0000 -5.9585 0.0000 20.5214
#
#
#
# Elastic Compliance Matrix: (Units=1/GPa)
#
#
# Indices 1 2 3 4 5 6 
#
# 1 0.068184 -0.008638 0.007315 0.000000 0.022901 0.000000
# 2 -0.008638 0.017774 -0.006179 0.000000 0.000108 0.000000
# 3 0.007315 -0.006179 0.021231 0.000000 0.018795 0.000000
# 4 0.000000 0.000000 0.000000 0.028289 0.000000 0.008214
# 5 0.022901 0.000108 0.018795 0.000000 0.063286 0.000000
# 6 0.000000 0.000000 0.000000 0.008214 0.000000 0.051115
#
#
# Mechanical properties :
#
#
# Convention : Reuss Voigt Hill
#
# Bulk Modulus (GPa) = 10.84766 27.36049 19.10407
# Shear Modulus (GPa) = 16.91406 24.80177 20.85791
#
# Velocity S-wave (km/s) = 3.03787 3.67863 3.37350
# Velocity P-wave (km/s) = 4.26891 5.74208 5.05940
#
# Compressibility (1/GPa) = 0.09218578
#
# Stress axis : x y z
#
# Youngs Moduli (GPa) = 14.66609 56.26174 47.10107
#
# Poissons Ratio (x) = 0.48598 -0.34455
# Poissons Ratio (y) = 0.12668 0.29104
# Poissons Ratio (z) = -0.10728 0.34765
#
# Static dielectric constant tensor:
#      x y z
#    x 3.210130 0.000000 0.134400 
#    y 0.000000 3.373010 0.000000 
#    z 0.134400 0.000000 3.960050 
# 
# 
# High freq. dielectric constant tensor:
#      x y z
#    x 1.676260 0.000000 -0.003560 
#    y 0.000000 1.703470 0.000000 
#    z -0.003560 0.000000 1.732970 
# 
# From -- ./inp_files/220587.got.cif
#   From: 2010.06.25/outbox.cif.g09.slc.cpg/sg12_111_cif.got.tgz:220587.got - 2010.06.28 00:19:55.
