data_PCOD8087615
_publ_section_title
;
Structure prediction by ZEFSAII (Michael W. Deem and Ramdas Pophale) SiO2 
 PCOD8087615
Probable space group: C 2/M
;
_chemical_formula_sum "Si O2"
_cell_formula_units_Z 48
_cell_length_a 16.088342
_cell_length_b 9.431426
_cell_length_c 19.906966
_cell_angle_alpha 90.000000
_cell_angle_beta 123.671219
_cell_angle_gamma 90.000000
_cell_volume 2513.845120
_symmetry_space_group_name_H-M "C 2/M"
_symmetry_group_IT_number 12
_symmetry_cell_setting 'monoclinic'
loop_
_space_group_symop_operation_xyz
x,y,z
-x,y,-z
-x,-y,-z
x,-y,z
1/2+x,1/2+y,z
1/2-x,1/2+y,-z
1/2-x,1/2-y,-z
1/2+x,1/2-y,z
loop_
_atom_site_type_symbol
_atom_site_label
_atom_site_fract_x
_atom_site_fract_y
_atom_site_fract_z
Si Si1 0.605006 0.335239 0.402289
Si Si2 0.195929 0.343489 0.160293
Si Si3 0.336957 0.157437 0.011693
Si Si4 0.617074 0.335185 0.674462
Si Si5 0.771666 0.164459 0.408515
Si Si6 0.482531 0.657767 0.912910
O O1 0.604462 0.500000 0.380602
O O2 0.492126 0.270782 0.357269
O O3 0.668520 0.249931 0.374832
O O4 0.653493 0.313004 0.496545
O O5 0.171341 0.500000 0.180047
O O6 0.176324 0.351434 0.073203
O O7 0.310066 0.304485 0.229537
O O8 0.124049 0.221572 0.157028
O O9 0.335728 0.000000 0.042558
O O10 0.250000 0.250000 0.000000
O O11 0.437085 0.234379 0.081117
O O12 0.598395 0.500000 0.652846
O O13 0.671099 0.274068 0.631664
O O14 0.742934 0.000000 0.386063
O O15 0.492583 0.500000 0.886219
O O16 0.500000 0.648978 0.000000
#
# Coordination Sequence:
#
# PCOD8087615 Si02
#       6
#     8   8   8   8   8   8
#     4   9  17  31  52  76 102 135 173 211 248 297
#     4   9  18  33  51  71  97 129 164 203 250 304
#     4  10  19  32  51  73  97 128 167 207 249 298
#     4   9  17  32  53  74 102 137 172 206 252 309
#     4   9  17  31  52  76 101 133 174 212 249 297
#     4   9  17  31  51  71  93 122 159 201 243 292
#
# _framework density 19.094255
#
# number of rings (size 3 to 8) (size 9 to 14) (size 15 to 20)
#    0.000    2.833    0.000    1.500    0.000    4.667 
#    3.000    2.500    0.000    4.000    0.000    0.000 
#    0.000    0.000    0.000    0.000    0.000    0.000 
#
# Total GULP energy -297427.439729 kJ/mol
# GULP energy per Si atom -12392.809989 kJ/mol
# Density = 1.905080 g / cm^3
# Si number density = 19.094255 Si / 1000 Ang^3
#
#
#
# Elastic Constant Matrix: (Units=GPa)
#
#
# Indices 1 2 3 4 5 6 
#
# 1 128.4436 58.9614 33.5186 0.0000 41.3640 0.0000
# 2 58.9614 121.3325 27.9530 0.0000 26.0730 0.0000
# 3 33.5186 27.9530 59.2241 0.0000 31.3414 0.0000
# 4 0.0000 0.0000 0.0000 16.7804 0.0000 7.5814
# 5 41.3640 26.0730 31.3414 0.0000 30.7185 0.0000
# 6 0.0000 0.0000 0.0000 7.5814 0.0000 35.5672
#
#
#
# Elastic Compliance Matrix: (Units=1/GPa)
#
#
# Indices 1 2 3 4 5 6 
#
# 1 0.015618 -0.003826 0.005167 0.000000 -0.023055 0.000000
# 2 -0.003826 0.011024 -0.001766 0.000000 -0.002404 0.000000
# 3 0.005167 -0.001766 0.038436 0.000000 -0.044674 0.000000
# 4 0.000000 0.000000 0.000000 0.065944 0.000000 -0.014057
# 5 -0.023055 -0.002404 -0.044674 0.000000 0.111220 0.000000
# 6 0.000000 0.000000 0.000000 -0.014057 0.000000 0.031112
#
#
# Mechanical properties :
#
#
# Convention : Reuss Voigt Hill
#
# Bulk Modulus (GPa) = 15.56918 61.09624 38.33271
# Shear Modulus (GPa) = 16.91405 29.18437 23.04921
#
# Velocity S-wave (km/s) = 2.97950 3.91376 3.47814
# Velocity P-wave (km/s) = 4.47304 7.24500 6.02072
#
# Compressibility (1/GPa) = 0.06422947
#
# Stress axis : x y z
#
# Youngs Moduli (GPa) = 64.02885 90.70862 26.01750
#
# Poissons Ratio (x) = 0.34702 -0.13444
# Poissons Ratio (y) = 0.24495 0.04595
# Poissons Ratio (z) = -0.33087 0.16019
#
# Static dielectric constant tensor:
#      x y z
#    x 2.841490 0.000000 0.425000 
#    y 0.000000 3.580870 0.000000 
#    z 0.425000 0.000000 3.267160 
# 
# 
# High freq. dielectric constant tensor:
#      x y z
#    x 1.737270 0.000000 0.020140 
#    y 0.000000 1.727260 0.000000 
#    z 0.020140 0.000000 1.727930 
# 
# From -- ./inp_files/273693.got.cif
#   From: 2010.06.25/outbox.cif.g09.slc.cpg/sg12_137_cif.got.tgz:273693.got - 2010.06.28 00:19:55.
