data_PCOD8087750
_publ_section_title
;
Structure prediction by ZEFSAII (Michael W. Deem and Ramdas Pophale) SiO2 
 PCOD8087750
Probable space group: C 2/M
;
_chemical_formula_sum "Si O2"
_cell_formula_units_Z 64
_cell_length_a 30.341719
_cell_length_b 9.534982
_cell_length_c 22.649710
_cell_angle_alpha 90.000000
_cell_angle_beta 31.289066
_cell_angle_gamma 90.000000
_cell_volume 3403.203303
_symmetry_space_group_name_H-M "C 2/M"
_symmetry_group_IT_number 12
_symmetry_cell_setting 'monoclinic'
loop_
_space_group_symop_operation_xyz
x,y,z
-x,y,-z
-x,-y,-z
x,-y,z
1/2+x,1/2+y,z
1/2-x,1/2+y,-z
1/2-x,1/2-y,-z
1/2+x,1/2-y,z
loop_
_atom_site_type_symbol
_atom_site_label
_atom_site_fract_x
_atom_site_fract_y
_atom_site_fract_z
Si Si1 0.182383 0.659060 0.544078
Si Si2 0.125297 0.666541 0.083604
Si Si3 0.377966 0.835565 0.513751
Si Si4 0.744199 0.337174 0.269775
Si Si5 0.573498 0.834461 0.272063
Si Si6 0.467404 0.161047 0.197563
Si Si7 0.417732 0.166953 0.128928
Si Si8 0.788649 0.838039 0.827427
O O1 0.213822 0.500000 0.512185
O O2 0.250000 0.750000 0.500000
O O3 0.172251 0.706311 0.488197
O O4 0.092134 0.678067 0.677990
O O5 0.114487 0.500000 0.096287
O O6 0.105232 0.722842 0.172121
O O7 0.056963 0.729075 0.114845
O O8 0.218398 0.711709 0.955620
O O9 0.336703 0.748053 0.613805
O O10 0.476064 0.793712 0.394332
O O11 0.369392 0.000000 0.537004
O O12 0.731236 0.500000 0.300864
O O13 0.831020 0.275891 0.198826
O O14 0.749660 0.314955 0.193544
O O15 0.628179 0.756366 0.259393
O O16 0.587761 0.000000 0.261646
O O17 0.426550 0.229183 0.185439
O O18 0.482810 0.000000 0.163096
O O19 0.413390 0.000000 0.131753
O O20 0.500000 0.222599 0.000000
O O21 0.813109 0.000000 0.809306
#
# Coordination Sequence:
#
# PCOD8087750 Si02
#       8
#     8   8   8   8   8   8   8   8
#     4  10  19  32  51  76 104 136 173 212 258 308
#     4   9  16  31  54  79 107 136 170 219 271 320
#     4  10  21  37  55  76 106 144 183 220 259 313
#     4  10  21  36  53  79 111 141 177 222 270 316
#     4  10  20  36  57  79 104 138 182 222 263 318
#     4   9  15  26  48  74 100 132 167 205 254 306
#     4   9  16  27  47  77 108 136 170 211 256 311
#     4  10  21  35  54  80 108 137 173 223 279 322
#
# _framework density 18.805812
#
# number of rings (size 3 to 8) (size 9 to 14) (size 15 to 20)
#    0.000    2.375    1.250    1.875    0.000    6.000 
#    0.000    2.500    0.000    1.125    0.000    0.000 
#    0.000    0.000    0.000    0.000    0.000    0.000 
#
# Total GULP energy -396752.590145 kJ/mol
# GULP energy per Si atom -12398.518442 kJ/mol
# Density = 1.876301 g / cm^3
# Si number density = 18.805812 Si / 1000 Ang^3
#
#
#
# Elastic Constant Matrix: (Units=GPa)
#
#
# Indices 1 2 3 4 5 6 
#
# 1 92.4059 28.9071 40.2426 0.0016 -14.0726 -0.0001
# 2 28.9071 32.5578 33.7980 0.0253 -8.6033 -0.0045
# 3 40.2426 33.7980 98.8020 0.0089 -6.7650 -0.0014
# 4 0.0016 0.0253 0.0089 22.3933 -0.0018 -0.9894
# 5 -14.0726 -8.6033 -6.7650 -0.0018 37.2475 -0.0004
# 6 -0.0001 -0.0045 -0.0014 -0.9894 -0.0004 26.3278
#
#
#
# Elastic Compliance Matrix: (Units=1/GPa)
#
#
# Indices 1 2 3 4 5 6 
#
# 1 0.015679 -0.010394 -0.002622 0.000012 0.003047 -0.000001
# 2 -0.010394 0.057089 -0.014846 -0.000057 0.006563 0.000007
# 3 -0.002622 -0.014846 0.016166 0.000010 -0.001484 -0.000001
# 4 0.000012 -0.000057 0.000010 0.044730 -0.000005 0.001681
# 5 0.003047 0.006563 -0.001484 -0.000005 0.029245 0.000001
# 6 -0.000001 0.000007 -0.000001 0.001681 0.000001 0.038046
#
#
# Mechanical properties :
#
#
# Convention : Reuss Voigt Hill
#
# Bulk Modulus (GPa) = 30.11126 47.74012 38.92569
# Shear Modulus (GPa) = 18.67412 25.24825 21.96119
#
# Velocity S-wave (km/s) = 3.15460 3.66809 3.42100
# Velocity P-wave (km/s) = 5.41435 6.58641 6.02893
#
# Compressibility (1/GPa) = 0.03321017
#
# Stress axis : x y z
#
# Youngs Moduli (GPa) = 63.77842 17.51649 61.85771
#
# Poissons Ratio (x) = 0.18207 0.16219
# Poissons Ratio (y) = 0.66292 0.91834
# Poissons Ratio (z) = 0.16723 0.26005
#
# Static dielectric constant tensor:
#      x y z
#    x 3.565020 0.000000 0.020900 
#    y 0.000000 3.021220 0.000000 
#    z 0.020900 0.000000 3.401770 
# 
# 
# High freq. dielectric constant tensor:
#      x y z
#    x 1.745420 0.000000 -0.001930 
#    y 0.000000 1.675990 0.000000 
#    z -0.001930 0.000000 1.738350 
# 
# From -- ./inp_files/232524.got.cif
#   From: 2010.06.25/outbox.cif.g09.slc.cpg/sg12_117_cif.got.tgz:232524.got - 2010.06.28 00:19:55.
