data_PCOD8087471
_publ_section_title
;
Structure prediction by ZEFSAII (Michael W. Deem and Ramdas Pophale) SiO2 
 PCOD8087471
Probable space group: C 2/M
;
_chemical_formula_sum "Si O2"
_cell_formula_units_Z 56
_cell_length_a 19.055931
_cell_length_b 8.829184
_cell_length_c 17.875897
_cell_angle_alpha 90.000000
_cell_angle_beta 95.262049
_cell_angle_gamma 90.000000
_cell_volume 2994.914663
_symmetry_space_group_name_H-M "C 2/M"
_symmetry_group_IT_number 12
_symmetry_cell_setting 'monoclinic'
loop_
_space_group_symop_operation_xyz
x,y,z
-x,y,-z
-x,-y,-z
x,-y,z
1/2+x,1/2+y,z
1/2-x,1/2+y,-z
1/2-x,1/2-y,-z
1/2+x,1/2-y,z
loop_
_atom_site_type_symbol
_atom_site_label
_atom_site_fract_x
_atom_site_fract_y
_atom_site_fract_z
Si Si1 0.673192 0.681636 0.487571
Si Si2 0.816799 0.167315 0.669545
Si Si3 0.397246 0.174649 0.937531
Si Si4 0.550338 0.175419 0.895346
Si Si5 0.140441 0.177860 0.782889
Si Si6 0.150157 0.669252 0.631228
Si Si7 0.288159 0.680134 0.824159
O O1 0.676192 0.500000 0.492908
O O2 0.750000 0.750000 0.500000
O O3 0.644926 0.735072 0.401438
O O4 0.626661 0.748110 0.551226
O O5 0.733873 0.164197 0.644775
O O6 0.825815 0.248098 0.751528
O O7 0.847444 0.000000 0.682243
O O8 0.468965 0.214820 0.901456
O O9 0.334065 0.276531 0.900166
O O10 0.377858 0.000000 0.923335
O O11 0.405032 0.211181 0.025729
O O12 0.576232 0.282209 0.831380
O O13 0.559593 0.000000 0.874185
O O14 0.119882 0.239596 0.698958
O O15 0.210451 0.252168 0.824333
O O16 0.151449 0.000000 0.778668
O O17 0.118495 0.500000 0.628288
O O18 0.279834 0.500000 0.817339
#
# Coordination Sequence:
#
# PCOD8087471 Si02
#       7
#     8   8   8   8   8   8   8
#     4   9  14  22  37  58  87 124 163 198 235 283
#     4   7  13  24  38  59  89 124 157 190 232 280
#     4   9  19  36  56  75  95 125 164 202 243 294
#     4   9  19  37  56  72  96 128 161 201 248 294
#     4  11  21  32  49  74 101 129 165 204 243 293
#     4   9  16  27  41  61  92 126 159 197 244 290
#     4  10  19  32  50  73 103 134 162 199 247 291
#
# _framework density 18.698361999999999
#
# number of rings (size 3 to 8) (size 9 to 14) (size 15 to 20)
#    0.000    2.857    0.000    5.143    0.000    1.714 
#    0.000    3.571    0.000    0.000    0.000    1.000 
#    0.000    8.000    0.000    0.000    0.000    0.000 
#
# Total GULP energy -346867.821449 kJ/mol
# GULP energy per Si atom -12388.136480 kJ/mol
# Density = 1.865580 g / cm^3
# Si number density = 18.698362 Si / 1000 Ang^3
#
#
#
# Elastic Constant Matrix: (Units=GPa)
#
#
# Indices 1 2 3 4 5 6 
#
# 1 21.9055 13.1899 12.9298 0.0000 -13.7024 0.0000
# 2 13.1899 91.2710 28.6316 0.0000 -15.0631 0.0000
# 3 12.9298 28.6316 80.2064 0.0000 -31.3056 0.0000
# 4 0.0000 0.0000 0.0000 32.9603 0.0000 -4.0728
# 5 -13.7024 -15.0631 -31.3056 0.0000 19.6952 0.0000
# 6 0.0000 0.0000 0.0000 -4.0728 0.0000 18.7962
#
#
#
# Elastic Compliance Matrix: (Units=1/GPa)
#
#
# Indices 1 2 3 4 5 6 
#
# 1 0.104276 -0.005374 0.031139 0.000000 0.117931 0.000000
# 2 -0.005374 0.012931 -0.003554 0.000000 0.000502 0.000000
# 3 0.031139 -0.003554 0.042443 0.000000 0.086410 0.000000
# 4 0.000000 0.000000 0.000000 0.031174 0.000000 0.006755
# 5 0.117931 0.000502 0.086410 0.000000 0.270553 0.000000
# 6 0.000000 0.000000 0.000000 0.006755 0.000000 0.054666
#
#
# Mechanical properties :
#
#
# Convention : Reuss Voigt Hill
#
# Bulk Modulus (GPa) = 4.90026 33.65396 19.27711
# Shear Modulus (GPa) = 9.26535 23.53245 16.39890
#
# Velocity S-wave (km/s) = 2.22844 3.55143 2.96467
# Velocity P-wave (km/s) = 3.04099 5.90375 4.69584
#
# Compressibility (1/GPa) = 0.20407098
#
# Stress axis : x y z
#
# Youngs Moduli (GPa) = 9.58996 77.33552 23.56079
#
# Poissons Ratio (x) = 0.41563 -0.73365
# Poissons Ratio (y) = 0.05154 0.08373
# Poissons Ratio (z) = -0.29862 0.27482
#
# Static dielectric constant tensor:
#      x y z
#    x 2.842460 0.000000 -0.167900 
#    y 0.000000 3.369780 0.000000 
#    z -0.167900 0.000000 3.790030 
# 
# 
# High freq. dielectric constant tensor:
#      x y z
#    x 1.662730 0.000000 -0.015240 
#    y 0.000000 1.716730 0.000000 
#    z -0.015240 0.000000 1.750320 
# 
# From -- ./inp_files/280301.got.cif
#   From: 2010.06.25/outbox.cif.g09.slc.cpg/sg12_141_cif.got.tgz:280301.got - 2010.06.28 00:19:55.
