data_PCOD8087227
_publ_section_title
;
Structure prediction by ZEFSAII (Michael W. Deem and Ramdas Pophale) SiO2 
 PCOD8087227
Probable space group: C 2/M
;
_chemical_formula_sum "Si O2"
_cell_formula_units_Z 64
_cell_length_a 27.441501
_cell_length_b 9.082792
_cell_length_c 16.235726
_cell_angle_alpha 90.000000
_cell_angle_beta 86.285637
_cell_angle_gamma 90.000000
_cell_volume 4038.180346
_symmetry_space_group_name_H-M "C 2/M"
_symmetry_group_IT_number 12
_symmetry_cell_setting 'monoclinic'
loop_
_space_group_symop_operation_xyz
x,y,z
-x,y,-z
-x,-y,-z
x,-y,z
1/2+x,1/2+y,z
1/2-x,1/2+y,-z
1/2-x,1/2-y,-z
1/2+x,1/2-y,z
loop_
_atom_site_type_symbol
_atom_site_label
_atom_site_fract_x
_atom_site_fract_y
_atom_site_fract_z
Si Si1 0.819589 0.333975 0.445456
Si Si2 0.846232 0.827559 0.286354
Si Si3 0.208471 0.834052 0.399420
Si Si4 0.710527 0.825817 0.061583
Si Si5 0.073111 0.829923 0.852212
Si Si6 0.610372 0.328506 0.030813
Si Si7 0.760790 0.328783 0.757300
Si Si8 0.018389 0.334191 0.090796
O O1 0.838253 0.500000 0.454460
O O2 0.852286 0.255500 0.372393
O O3 0.825874 0.250707 0.531703
O O4 0.763688 0.329025 0.424367
O O5 0.890085 0.777255 0.222659
O O6 0.795798 0.784082 0.246995
O O7 0.847820 0.000000 0.304456
O O8 0.205032 0.757905 0.310701
O O9 0.189153 0.000000 0.393922
O O10 0.722911 0.784245 0.153703
O O11 0.711838 0.000000 0.046734
O O12 0.750000 0.750000 0.000000
O O13 0.657927 0.763514 0.046324
O O14 0.099226 0.803265 0.936306
O O15 0.023852 0.735404 0.847815
O O16 0.058767 0.000000 0.844210
O O17 0.618066 0.500000 0.050335
O O18 0.566729 0.265453 0.092130
O O19 0.768343 0.500000 0.738415
O O20 0.029765 0.500000 0.119638
O O21 0.000000 0.334190 0.000000
#
# Coordination Sequence:
#
# PCOD8087227 Si02
#       8
#     8   8   8   8   8   8   8   8
#     4   9  16  25  38  58  83 110 139 172 213 257
#     4   9  16  27  42  60  85 115 146 177 212 257
#     4   9  16  26  41  59  79 107 143 179 213 252
#     4  11  22  34  47  64  88 118 152 187 222 257
#     4   9  17  29  45  64  87 116 146 178 220 266
#     4  10  19  32  48  64  85 115 150 185 222 261
#     4   9  18  31  44  59  83 116 150 183 217 253
#     4   9  17  29  45  65  86 109 141 181 222 263
#
# _framework density 15.848723
#
# number of rings (size 3 to 8) (size 9 to 14) (size 15 to 20)
#    0.000    2.625    0.000    2.625    0.000    8.500 
#    0.000    2.500    0.000    0.000    0.000    0.000 
#    0.000    1.000    0.000   10.500    0.000    5.000 
#
# Total GULP energy -396805.384164 kJ/mol
# GULP energy per Si atom -12400.168255 kJ/mol
# Density = 1.581265 g / cm^3
# Si number density = 15.848723 Si / 1000 Ang^3
#
#
#
# Elastic Constant Matrix: (Units=GPa)
#
#
# Indices 1 2 3 4 5 6 
#
# 1 77.5629 42.1793 47.5345 0.0000 -19.2536 0.0000
# 2 42.1793 97.7552 64.3252 0.0000 -14.3637 0.0000
# 3 47.5345 64.3252 108.4317 0.0000 -24.4543 0.0000
# 4 0.0000 0.0000 0.0000 27.6698 0.0000 -5.0231
# 5 -19.2536 -14.3637 -24.4543 0.0000 21.8695 0.0000
# 6 0.0000 0.0000 0.0000 -5.0231 0.0000 25.5969
#
#
#
# Elastic Compliance Matrix: (Units=1/GPa)
#
#
# Indices 1 2 3 4 5 6 
#
# 1 0.020426 -0.004817 -0.003683 0.000000 0.010700 0.000000
# 2 -0.004817 0.017916 -0.009119 0.000000 -0.002671 0.000000
# 3 -0.003683 -0.009119 0.018941 0.000000 0.011948 0.000000
# 4 0.000000 0.000000 0.000000 0.037476 0.000000 0.007354
# 5 0.010700 -0.002671 0.011948 0.000000 0.066752 0.000000
# 6 0.000000 0.000000 0.000000 0.007354 0.000000 0.040510
#
#
# Mechanical properties :
#
#
# Convention : Reuss Voigt Hill
#
# Bulk Modulus (GPa) = 45.36356 65.75864 55.56110
# Shear Modulus (GPa) = 20.44074 23.67461 22.05768
#
# Velocity S-wave (km/s) = 3.59519 3.86915 3.73468
# Velocity P-wave (km/s) = 6.77635 7.84487 7.33010
#
# Compressibility (1/GPa) = 0.02204413
#
# Stress axis : x y z
#
# Youngs Moduli (GPa) = 48.95735 55.81492 52.79428
#
# Poissons Ratio (x) = 0.26888 0.19446
# Poissons Ratio (y) = 0.23585 0.48143
# Poissons Ratio (z) = 0.18033 0.50898
#
# Static dielectric constant tensor:
#      x y z
#    x 2.887510 0.000000 -0.217500 
#    y 0.000000 3.226740 0.000000 
#    z -0.217500 0.000000 2.986200 
# 
# 
# High freq. dielectric constant tensor:
#      x y z
#    x 1.572710 0.000000 -0.025050 
#    y 0.000000 1.622560 0.000000 
#    z -0.025050 0.000000 1.594580 
# 
# From -- ./inp_files/238808.got.cif
#   From: 2010.06.25/outbox.cif.g09.slc.cpg/sg12_120_cif.got.tgz:238808.got - 2010.06.28 00:19:55.
