data_PCOD8087753
_publ_section_title
;
Structure prediction by ZEFSAII (Michael W. Deem and Ramdas Pophale) SiO2 
 PCOD8087753
Probable space group: C 2/M
;
_chemical_formula_sum "Si O2"
_cell_formula_units_Z 40
_cell_length_a 20.066856
_cell_length_b 12.603134
_cell_length_c 9.631967
_cell_angle_alpha 90.000000
_cell_angle_beta 103.284111
_cell_angle_gamma 90.000000
_cell_volume 2370.794977
_symmetry_space_group_name_H-M "C 2/M"
_symmetry_group_IT_number 12
_symmetry_cell_setting 'monoclinic'
loop_
_space_group_symop_operation_xyz
x,y,z
-x,y,-z
-x,-y,-z
x,-y,z
1/2+x,1/2+y,z
1/2-x,1/2+y,-z
1/2-x,1/2-y,-z
1/2+x,1/2-y,z
loop_
_atom_site_type_symbol
_atom_site_label
_atom_site_fract_x
_atom_site_fract_y
_atom_site_fract_z
Si Si1 0.338267 0.163217 0.452528
Si Si2 0.711247 0.616047 0.886942
Si Si3 0.158413 0.337544 0.869109
Si Si4 0.291048 0.384109 0.427994
Si Si5 0.545254 0.000000 0.887734
Si Si6 0.445153 0.000000 0.590876
O O1 0.337039 0.130931 0.290380
O O2 0.346517 0.290479 0.477717
O O3 0.268111 0.124354 0.487006
O O4 0.400258 0.106374 0.559471
O O5 0.675840 0.500000 0.887497
O O6 0.655719 0.709362 0.889468
O O7 0.739686 0.628889 0.742738
O O8 0.774281 0.620434 0.022332
O O9 0.091651 0.393893 0.900711
O O10 0.326421 0.500000 0.461088
O O11 0.485012 0.000000 0.750368
O O12 0.500000 0.000000 0.000000
O O13 0.500000 0.000000 0.500000
#
# Coordination Sequence:
#
# PCOD8087753 Si02
#       6
#     8   8   8   8   4   4
#     4  10  19  32  51  76 105 134 172 206 261 303
#     4   9  18  31  54  76 104 132 165 218 259 304
#     4  10  19  34  49  76 104 134 174 209 260 301
#     4   9  18  31  52  78 105 132 163 219 256 303
#     4  12  26  36  54  74 106 142 178 214 246 311
#     4  12  22  36  54  74 104 146 172 212 250 308
#
# _framework density 16.871979
#
# number of rings (size 3 to 8) (size 9 to 14) (size 15 to 20)
#    0.000    2.000    4.000    0.000    2.800    0.000 
#    0.000    0.000    0.000    2.400    0.000    0.000 
#    0.000    0.000    0.000    0.000    0.000    0.000 
#
# Total GULP energy -247816.391291 kJ/mol
# GULP energy per Si atom -12390.819565 kJ/mol
# Density = 1.683358 g / cm^3
# Si number density = 16.871979 Si / 1000 Ang^3
#
#
#
# Elastic Constant Matrix: (Units=GPa)
#
#
# Indices 1 2 3 4 5 6 
#
# 1 89.9939 64.0057 49.1726 0.0000 -1.5033 0.0000
# 2 64.0057 179.2958 44.0859 0.0000 2.2333 0.0000
# 3 49.1726 44.0859 90.2873 0.0000 -1.4661 0.0000
# 4 0.0000 0.0000 0.0000 16.2448 0.0000 -0.5310
# 5 -1.5033 2.2333 -1.4661 0.0000 32.3918 0.0000
# 6 0.0000 0.0000 0.0000 -0.5310 0.0000 32.2795
#
#
#
# Elastic Compliance Matrix: (Units=1/GPa)
#
#
# Indices 1 2 3 4 5 6 
#
# 1 0.018865 -0.004798 -0.007918 0.000000 0.000848 0.000000
# 2 -0.004798 0.007570 -0.001096 0.000000 -0.000794 0.000000
# 3 -0.007918 -0.001096 0.015930 0.000000 0.000429 0.000000
# 4 0.000000 0.000000 0.000000 0.061591 0.000000 0.001013
# 5 0.000848 -0.000794 0.000429 0.000000 0.030986 0.000000
# 6 0.000000 0.000000 0.000000 0.001013 0.000000 0.030996
#
#
# Mechanical properties :
#
#
# Convention : Reuss Voigt Hill
#
# Bulk Modulus (GPa) = 67.83732 74.90060 71.36896
# Shear Modulus (GPa) = 25.19226 29.67075 27.43150
#
# Velocity S-wave (km/s) = 3.86831 4.19809 4.03657
# Velocity P-wave (km/s) = 7.76184 8.24551 8.00733
#
# Compressibility (1/GPa) = 0.01474115
#
# Stress axis : x y z
#
# Youngs Moduli (GPa) = 53.00895 132.10777 62.77516
#
# Poissons Ratio (x) = 0.63388 0.49702
# Poissons Ratio (y) = 0.25435 0.06879
# Poissons Ratio (z) = 0.41970 0.14477
#
# Static dielectric constant tensor:
#      x y z
#    x 2.853030 0.000000 -0.051680 
#    y 0.000000 3.529900 0.000000 
#    z -0.051680 0.000000 3.281850 
# 
# 
# High freq. dielectric constant tensor:
#      x y z
#    x 1.598840 0.000000 -0.005750 
#    y 0.000000 1.674840 0.000000 
#    z -0.005750 0.000000 1.664690 
# 
# From -- ./inp_files/84657.got.cif
#   From: 2010.06.25/outbox.cif.g09.slc.cpg/sg12_43_cif.got.tgz:84657.got - 2010.06.28 00:19:55.
