data_PCOD8087842
_publ_section_title
;
Structure prediction by ZEFSAII (Michael W. Deem and Ramdas Pophale) SiO2 
 PCOD8087842
Probable space group: C 2/M
;
_chemical_formula_sum "Si O2"
_cell_formula_units_Z 64
_cell_length_a 20.088733
_cell_length_b 16.774006
_cell_length_c 12.153256
_cell_angle_alpha 90.000000
_cell_angle_beta 57.133295
_cell_angle_gamma 90.000000
_cell_volume 3439.757722
_symmetry_space_group_name_H-M "C 2/M"
_symmetry_group_IT_number 12
_symmetry_cell_setting 'monoclinic'
loop_
_space_group_symop_operation_xyz
x,y,z
-x,y,-z
-x,-y,-z
x,-y,z
1/2+x,1/2+y,z
1/2-x,1/2+y,-z
1/2-x,1/2-y,-z
1/2+x,1/2-y,z
loop_
_atom_site_type_symbol
_atom_site_label
_atom_site_fract_x
_atom_site_fract_y
_atom_site_fract_z
Si Si1 0.191547 0.328504 0.308619
Si Si2 0.274255 0.593873 0.791273
Si Si3 0.404337 0.318720 0.309620
Si Si4 0.693644 0.193795 0.703639
Si Si5 0.410308 0.694974 0.559873
Si Si6 0.216971 0.906805 0.962721
Si Si7 0.038132 0.090602 0.084515
Si Si8 0.750545 0.909600 0.449855
O O1 0.244431 0.261453 0.319861
O O2 0.106843 0.283360 0.372108
O O3 0.220368 0.355685 0.162959
O O4 0.194016 0.402185 0.392185
O O5 0.274119 0.500000 0.775089
O O6 0.194952 0.630847 0.804172
O O7 0.353795 0.627598 0.663366
O O8 0.272575 0.617989 0.920262
O O9 0.389294 0.238307 0.249323
O O10 0.394721 0.297750 0.444850
O O11 0.492178 0.351552 0.208926
O O12 0.340590 0.387124 0.334631
O O13 0.721498 0.148934 0.569942
O O14 0.500000 0.669003 0.500000
O O15 0.233708 0.000000 0.929697
O O16 0.129513 0.883181 0.999258
O O17 0.032025 0.000000 0.133495
O O18 0.000000 0.100232 0.000000
O O19 0.747594 0.000000 0.494865
#
# Coordination Sequence:
#
# PCOD8087842 Si02
#       8
#     8   8   8   8   8   8   8   8
#     4  10  19  36  54  77 110 140 185 229 269 315
#     4  10  21  36  53  81 115 146 183 224 269 327
#     4  11  19  34  51  79 115 143 177 222 272 326
#     4  10  19  32  51  78 109 142 177 225 263 320
#     4  11  22  35  53  79 114 146 176 222 274 332
#     4  10  21  37  56  81 111 145 186 225 267 327
#     4  10  20  33  51  80 114 148 182 219 264 326
#     4  11  18  30  54  80 103 139 180 225 273 314
#
# _framework density 18.605961000000001
#
# number of rings (size 3 to 8) (size 9 to 14) (size 15 to 20)
#    0.000    1.625    3.750    4.125    0.000    3.750 
#    0.000    1.250    0.000    1.500    0.000    0.000 
#    0.000   19.000    0.000    0.000    0.000    0.000 
#
# Total GULP energy -396618.104574 kJ/mol
# GULP energy per Si atom -12394.315768 kJ/mol
# Density = 1.856361 g / cm^3
# Si number density = 18.605961 Si / 1000 Ang^3
#
#
#
# Elastic Constant Matrix: (Units=GPa)
#
#
# Indices 1 2 3 4 5 6 
#
# 1 59.3507 35.7891 32.3876 0.0000 19.4520 0.0000
# 2 35.7891 87.6951 48.8500 0.0000 4.3840 0.0000
# 3 32.3876 48.8500 98.9020 0.0000 17.1208 0.0000
# 4 0.0000 0.0000 0.0000 23.6595 0.0000 0.4848
# 5 19.4520 4.3840 17.1208 0.0000 26.9327 0.0000
# 6 0.0000 0.0000 0.0000 0.4848 0.0000 25.4769
#
#
#
# Elastic Compliance Matrix: (Units=1/GPa)
#
#
# Indices 1 2 3 4 5 6 
#
# 1 0.030351 -0.010690 -0.001310 0.000000 -0.019348 0.000000
# 2 -0.010690 0.019669 -0.007862 0.000000 0.009517 0.000000
# 3 -0.001310 -0.007862 0.015774 0.000000 -0.007801 0.000000
# 4 0.000000 0.000000 0.000000 0.042283 0.000000 -0.000805
# 5 -0.019348 0.009517 -0.007801 0.000000 0.054514 0.000000
# 6 0.000000 0.000000 0.000000 -0.000805 0.000000 0.039266
#
#
# Mechanical properties :
#
#
# Convention : Reuss Voigt Hill
#
# Bulk Modulus (GPa) = 38.35677 53.33347 45.84512
# Shear Modulus (GPa) = 19.97838 23.80857 21.89348
#
# Velocity S-wave (km/s) = 3.28039 3.58106 3.43402
# Velocity P-wave (km/s) = 5.91675 6.76946 6.35742
#
# Compressibility (1/GPa) = 0.02607102
#
# Stress axis : x y z
#
# Youngs Moduli (GPa) = 32.94786 50.84042 63.39667
#
# Poissons Ratio (x) = 0.54346 0.08305
# Poissons Ratio (y) = 0.35220 0.49843
# Poissons Ratio (z) = 0.04316 0.39971
#
# Static dielectric constant tensor:
#      x y z
#    x 3.612960 0.000000 0.176020 
#    y 0.000000 3.619130 0.000000 
#    z 0.176020 0.000000 3.312980 
# 
# 
# High freq. dielectric constant tensor:
#      x y z
#    x 1.705500 0.000000 0.028600 
#    y 0.000000 1.721180 0.000000 
#    z 0.028600 0.000000 1.711210 
# 
# From -- ./inp_files/168759.got.cif
#   From: 2010.06.25/outbox.cif.g09.slc.cpg/sg12_85_cif.got.tgz:168759.got - 2010.06.28 00:19:55.
