data_PCOD8087006
_publ_section_title
;
Structure prediction by ZEFSAII (Michael W. Deem and Ramdas Pophale) SiO2 
 PCOD8087006
Probable space group: C 2/M
;
_chemical_formula_sum "Si O2"
_cell_formula_units_Z 64
_cell_length_a 20.830513
_cell_length_b 8.892751
_cell_length_c 20.191194
_cell_angle_alpha 90.000000
_cell_angle_beta 113.321558
_cell_angle_gamma 90.000000
_cell_volume 3434.642156
_symmetry_space_group_name_H-M "C 2/M"
_symmetry_group_IT_number 12
_symmetry_cell_setting 'monoclinic'
loop_
_space_group_symop_operation_xyz
x,y,z
-x,y,-z
-x,-y,-z
x,-y,z
1/2+x,1/2+y,z
1/2-x,1/2+y,-z
1/2-x,1/2-y,-z
1/2+x,1/2-y,z
loop_
_atom_site_type_symbol
_atom_site_label
_atom_site_fract_x
_atom_site_fract_y
_atom_site_fract_z
Si Si1 0.341236 0.673054 0.080655
Si Si2 0.388975 0.321490 0.710377
Si Si3 0.207056 0.173819 0.080417
Si Si4 0.676121 0.322282 0.454975
Si Si5 0.421385 0.321029 0.466793
Si Si6 0.356639 0.320821 0.304307
Si Si7 0.700566 0.822228 0.212187
Si Si8 0.545465 0.675742 0.771520
O O1 0.319594 0.500000 0.086194
O O2 0.285243 0.778193 0.093487
O O3 0.417020 0.708568 0.142776
O O4 0.343899 0.704083 0.003130
O O5 0.388486 0.500000 0.718618
O O6 0.349618 0.271116 0.627655
O O7 0.352149 0.248177 0.757545
O O8 0.467838 0.255571 0.740186
O O9 0.177972 0.269744 0.129744
O O10 0.207589 0.000000 0.100792
O O11 0.684046 0.500000 0.463160
O O12 0.750000 0.250000 0.500000
O O13 0.619844 0.263426 0.485508
O O14 0.500000 0.255775 0.500000
O O15 0.423947 0.500000 0.466664
O O16 0.382006 0.259757 0.385642
O O17 0.356839 0.500000 0.302277
O O18 0.278502 0.261540 0.259199
O O19 0.408284 0.254725 0.269162
O O20 0.696129 0.000000 0.215174
O O21 0.538310 0.500000 0.755035
#
# Coordination Sequence:
#
# PCOD8087006 Si02
#       8
#     8   8   8   8   8   8   8   8
#     4   9  17  32  54  80 108 139 174 214 261 311
#     4  10  21  35  53  76 105 139 177 223 267 309
#     4  10  19  31  52  81 110 137 172 217 261 309
#     4  10  20  34  52  76 105 139 175 215 262 311
#     4   9  16  27  46  75 103 125 162 215 261 300
#     4   9  16  27  49  75  97 128 171 214 254 303
#     4  11  21  35  54  76 105 139 176 219 263 316
#     4   9  16  31  53  77 104 136 176 219 263 308
#
# _framework density 18.633673000000002
#
# number of rings (size 3 to 8) (size 9 to 14) (size 15 to 20)
#    0.000    2.375    1.250    2.250    0.000    5.000 
#    0.000    1.250    0.000    4.125    0.000    0.000 
#    0.000    0.000    0.000    0.000    0.000    0.000 
#
# Total GULP energy -396794.350250 kJ/mol
# GULP energy per Si atom -12399.823445 kJ/mol
# Density = 1.859126 g / cm^3
# Si number density = 18.633673 Si / 1000 Ang^3
#
#
#
# Elastic Constant Matrix: (Units=GPa)
#
#
# Indices 1 2 3 4 5 6 
#
# 1 134.4218 17.5917 58.2476 0.0000 -7.4657 0.0000
# 2 17.5917 19.5269 21.8538 0.0000 -0.9912 0.0000
# 3 58.2476 21.8538 132.1129 0.0000 -10.7692 0.0000
# 4 0.0000 0.0000 0.0000 20.2382 0.0000 -0.4151
# 5 -7.4657 -0.9912 -10.7692 0.0000 33.7242 0.0000
# 6 0.0000 0.0000 0.0000 -0.4151 0.0000 23.8105
#
#
#
# Elastic Compliance Matrix: (Units=1/GPa)
#
#
# Indices 1 2 3 4 5 6 
#
# 1 0.009572 -0.004832 -0.003347 0.000000 0.000908 0.000000
# 2 -0.004832 0.065360 -0.008842 0.000000 -0.001972 0.000000
# 3 -0.003347 -0.008842 0.010705 0.000000 0.002417 0.000000
# 4 0.000000 0.000000 0.000000 0.049429 0.000000 0.000862
# 5 0.000908 -0.001972 0.002417 0.000000 0.030567 0.000000
# 6 0.000000 0.000000 0.000000 0.000862 0.000000 0.042013
#
#
# Mechanical properties :
#
#
# Convention : Reuss Voigt Hill
#
# Bulk Modulus (GPa) = 19.38162 53.49417 36.43790
# Shear Modulus (GPa) = 19.31341 28.11249 23.71295
#
# Velocity S-wave (km/s) = 3.22293 3.88840 3.57120
# Velocity P-wave (km/s) = 4.92683 6.99501 6.04996
#
# Compressibility (1/GPa) = 0.05159526
#
# Stress axis : x y z
#
# Youngs Moduli (GPa) = 104.46694 15.29984 93.41673
#
# Poissons Ratio (x) = 0.07392 0.31268
# Poissons Ratio (y) = 0.50475 0.82601
# Poissons Ratio (z) = 0.34966 0.13528
#
# Static dielectric constant tensor:
#      x y z
#    x 3.477310 0.000000 -0.014630 
#    y 0.000000 3.041560 0.000000 
#    z -0.014630 0.000000 3.750990 
# 
# 
# High freq. dielectric constant tensor:
#      x y z
#    x 1.717710 0.000000 -0.004180 
#    y 0.000000 1.680830 0.000000 
#    z -0.004180 0.000000 1.741950 
# 
# From -- ./inp_files/320008.got.cif
#   From: 2010.06.25/outbox.cif.g09.slc.cpg/sg12_161_cif.got.tgz:320008.got - 2010.06.28 00:19:55.
