data_PCOD8087797
_publ_section_title
;
Structure prediction by ZEFSAII (Michael W. Deem and Ramdas Pophale) SiO2 
 PCOD8087797
Probable space group: C 2/M
;
_chemical_formula_sum "Si O2"
_cell_formula_units_Z 64
_cell_length_a 21.012009
_cell_length_b 9.416306
_cell_length_c 17.943656
_cell_angle_alpha 90.000000
_cell_angle_beta 89.043228
_cell_angle_gamma 90.000000
_cell_volume 3549.756161
_symmetry_space_group_name_H-M "C 2/M"
_symmetry_group_IT_number 12
_symmetry_cell_setting 'monoclinic'
loop_
_space_group_symop_operation_xyz
x,y,z
-x,y,-z
-x,-y,-z
x,-y,z
1/2+x,1/2+y,z
1/2-x,1/2+y,-z
1/2-x,1/2-y,-z
1/2+x,1/2-y,z
loop_
_atom_site_type_symbol
_atom_site_label
_atom_site_fract_x
_atom_site_fract_y
_atom_site_fract_z
Si Si1 0.054272 0.169052 0.397112
Si Si2 0.164468 0.668458 0.312668
Si Si3 0.863114 0.838693 0.822765
Si Si4 0.590037 0.843446 0.953520
Si Si5 0.810271 0.841990 0.989152
Si Si6 0.774044 0.832861 0.427705
Si Si7 0.083524 0.833328 0.564086
Si Si8 0.033667 0.656698 0.119086
O O1 0.099184 0.257830 0.341307
O O2 0.077808 0.213839 0.478611
O O3 0.979668 0.219366 0.389277
O O4 0.062239 0.000000 0.382700
O O5 0.154183 0.500000 0.305927
O O6 0.178187 0.740797 0.232257
O O7 0.226246 0.703680 0.361376
O O8 0.934252 0.773649 0.828472
O O9 0.867925 0.000000 0.793096
O O10 0.831751 0.832053 0.903815
O O11 0.640611 0.717915 0.951045
O O12 0.541340 0.811199 0.887050
O O13 0.620696 0.000000 0.940469
O O14 0.558774 0.840300 0.034957
O O15 0.794990 0.000000 0.014121
O O16 0.750000 0.750000 0.000000
O O17 0.750000 0.750000 0.500000
O O18 0.846995 0.783129 0.406083
O O19 0.773294 0.000000 0.446252
O O20 0.079287 0.000000 0.567733
O O21 0.045597 0.500000 0.153478
#
# Coordination Sequence:
#
# PCOD8087797 Si02
#       8
#     8   8   8   8   8   8   8   8
#     4   9  16  30  53  75  98 134 172 211 259 314
#     4  11  22  33  50  77 107 138 174 220 272 322
#     4  10  21  35  52  74 101 136 175 213 255 309
#     4   8  14  26  47  74 100 125 151 189 244 297
#     4  10  20  33  52  77 102 133 175 218 258 307
#     4  10  19  32  51  77 105 135 176 222 265 315
#     4   8  15  29  51  76 100 130 171 214 260 309
#     4   8  14  27  48  73  99 124 153 192 242 296
#
# _framework density 18.029406999999999
#
# number of rings (size 3 to 8) (size 9 to 14) (size 15 to 20)
#    0.000    2.750    1.250    2.625    0.000    2.500 
#    0.000    4.375    2.750    0.000    0.000    0.000 
#    0.000    0.000    0.000    0.000    0.000    0.000 
#
# Total GULP energy -396420.121552 kJ/mol
# GULP energy per Si atom -12388.128798 kJ/mol
# Density = 1.798837 g / cm^3
# Si number density = 18.029407 Si / 1000 Ang^3
#
#
#
# Elastic Constant Matrix: (Units=GPa)
#
#
# Indices 1 2 3 4 5 6 
#
# 1 125.8714 61.7248 29.0415 0.0000 18.5026 0.0000
# 2 61.7248 117.4242 35.8964 0.0000 16.7909 0.0000
# 3 29.0415 35.8964 36.6818 0.0000 22.3462 0.0000
# 4 0.0000 0.0000 0.0000 25.7152 0.0000 1.2714
# 5 18.5026 16.7909 22.3462 0.0000 24.0046 0.0000
# 6 0.0000 0.0000 0.0000 1.2714 0.0000 28.3191
#
#
#
# Elastic Compliance Matrix: (Units=1/GPa)
#
#
# Indices 1 2 3 4 5 6 
#
# 1 0.011289 -0.004766 -0.002318 0.000000 -0.003209 0.000000
# 2 -0.004766 0.014541 -0.015011 0.000000 0.007476 0.000000
# 3 -0.002318 -0.015011 0.083856 0.000000 -0.065776 0.000000
# 4 0.000000 0.000000 0.000000 0.038974 0.000000 -0.001750
# 5 -0.003209 0.007476 -0.065776 0.000000 0.100135 0.000000
# 6 0.000000 0.000000 0.000000 -0.001750 0.000000 0.035390
#
#
# Mechanical properties :
#
#
# Convention : Reuss Voigt Hill
#
# Bulk Modulus (GPa) = 15.26812 59.25588 37.26200
# Shear Modulus (GPa) = 14.27729 25.82875 20.05302
#
# Velocity S-wave (km/s) = 2.81710 3.78906 3.33864
# Velocity P-wave (km/s) = 4.36672 7.21667 5.96442
#
# Compressibility (1/GPa) = 0.06549596
#
# Stress axis : x y z
#
# Youngs Moduli (GPa) = 88.58570 68.76949 11.92525
#
# Poissons Ratio (x) = 0.32778 0.02764
# Poissons Ratio (y) = 0.42224 0.17901
# Poissons Ratio (z) = 0.20532 1.03227
#
# Static dielectric constant tensor:
#      x y z
#    x 4.028080 0.000000 0.691360 
#    y 0.000000 3.355440 0.000000 
#    z 0.691360 0.000000 3.269630 
# 
# 
# High freq. dielectric constant tensor:
#      x y z
#    x 1.702800 0.000000 0.017880 
#    y 0.000000 1.692370 0.000000 
#    z 0.017880 0.000000 1.664790 
# 
# From -- ./inp_files/281247.got.cif
#   From: 2010.06.25/outbox.cif.g09.slc.cpg/sg12_141_cif.got.tgz:281247.got - 2010.06.28 00:19:55.
