data_PCOD8087022
_publ_section_title
;
Structure prediction by ZEFSAII (Michael W. Deem and Ramdas Pophale) SiO2 
 PCOD8087022
Probable space group: C 2/M
;
_chemical_formula_sum "Si O2"
_cell_formula_units_Z 56
_cell_length_a 20.018163
_cell_length_b 8.962739
_cell_length_c 30.933602
_cell_angle_alpha 90.000000
_cell_angle_beta 31.940448
_cell_angle_gamma 90.000000
_cell_volume 2936.175096
_symmetry_space_group_name_H-M "C 2/M"
_symmetry_group_IT_number 12
_symmetry_cell_setting 'monoclinic'
loop_
_space_group_symop_operation_xyz
x,y,z
-x,y,-z
-x,-y,-z
x,-y,z
1/2+x,1/2+y,z
1/2-x,1/2+y,-z
1/2-x,1/2-y,-z
1/2+x,1/2-y,z
loop_
_atom_site_type_symbol
_atom_site_label
_atom_site_fract_x
_atom_site_fract_y
_atom_site_fract_z
Si Si1 0.984890 0.325963 0.928154
Si Si2 0.760476 0.827507 0.096832
Si Si3 0.099503 0.324438 0.350826
Si Si4 0.469939 0.828267 0.837841
Si Si5 0.267710 0.675304 0.799381
Si Si6 0.095794 0.168408 0.486955
Si Si7 0.714735 0.325204 0.673908
O O1 0.957342 0.500000 0.950798
O O2 0.957546 0.276794 0.894149
O O3 0.127334 0.283227 0.861343
O O4 0.896781 0.233328 0.008533
O O5 0.665139 0.802555 0.109620
O O6 0.707354 0.737471 0.166695
O O7 0.773103 0.000000 0.102505
O O8 0.085299 0.500000 0.353335
O O9 0.132425 0.252257 0.287030
O O10 0.208773 0.281498 0.324905
O O11 0.965226 0.258539 0.439800
O O12 0.571800 0.728581 0.757164
O O13 0.514327 0.000000 0.811048
O O14 0.291530 0.500000 0.785575
O O15 0.225542 0.246049 0.400888
O O16 0.000000 0.172348 0.500000
O O17 0.124640 0.000000 0.485959
O O18 0.718654 0.500000 0.663296
#
# Coordination Sequence:
#
# PCOD8087022 Si02
#       7
#     8   8   8   8   8   8   8
#     4  10  21  38  59  80 105 141 187 231 274 326
#     4  11  24  38  55  80 111 145 183 229 278 325
#     4  10  19  32  52  81 113 141 179 228 274 318
#     4  10  21  38  57  79 110 147 184 225 273 329
#     4  11  22  37  58  80 109 147 185 225 273 330
#     4   9  17  29  49  77 111 147 180 218 267 323
#     4  10  19  31  52  82 112 142 179 227 274 317
#
# _framework density 19.072431999999999
#
# number of rings (size 3 to 8) (size 9 to 14) (size 15 to 20)
#    0.000    1.857    1.429    3.000    0.000    7.429 
#    0.000    0.000    0.000    0.857    0.000    0.000 
#    0.000    0.000    0.000    0.000    0.000    0.000 
#
# Total GULP energy -347354.853217 kJ/mol
# GULP energy per Si atom -12405.530472 kJ/mol
# Density = 1.902902 g / cm^3
# Si number density = 19.072432 Si / 1000 Ang^3
#
#
#
# Elastic Constant Matrix: (Units=GPa)
#
#
# Indices 1 2 3 4 5 6 
#
# 1 49.7697 19.0544 11.8987 -0.0093 17.6987 0.0541
# 2 19.0544 89.2655 48.5532 -0.0449 11.2045 0.0088
# 3 11.8987 48.5532 119.2446 0.0025 26.0699 -0.0002
# 4 -0.0093 -0.0449 0.0025 38.0862 -0.0006 5.3407
# 5 17.6987 11.2045 26.0699 -0.0006 22.4663 0.0038
# 6 0.0541 0.0088 -0.0002 5.3407 0.0038 24.0255
#
#
#
# Elastic Compliance Matrix: (Units=1/GPa)
#
#
# Indices 1 2 3 4 5 6 
#
# 1 0.030965 -0.006097 0.005441 0.000009 -0.027667 -0.000065
# 2 -0.006097 0.015594 -0.006821 0.000017 0.004941 0.000003
# 3 0.005441 -0.006821 0.014490 -0.000007 -0.017699 -0.000005
# 4 0.000009 0.000017 -0.000007 0.027101 -0.000005 -0.006024
# 5 -0.027667 0.004941 -0.017699 -0.000005 0.084381 0.000048
# 6 -0.000065 0.000003 -0.000005 -0.006024 0.000048 0.042962
#
#
# Mechanical properties :
#
#
# Convention : Reuss Voigt Hill
#
# Bulk Modulus (GPa) = 21.69406 46.36583 34.02994
# Shear Modulus (GPa) = 20.34086 28.83381 24.58734
#
# Velocity S-wave (km/s) = 3.26928 3.89241 3.59438
# Velocity P-wave (km/s) = 5.06460 6.67565 5.92514
#
# Compressibility (1/GPa) = 0.04609557
#
# Stress axis : x y z
#
# Youngs Moduli (GPa) = 32.29493 64.12743 69.01256
#
# Poissons Ratio (x) = 0.39095 -0.37552
# Poissons Ratio (y) = 0.19689 0.47076
# Poissons Ratio (z) = -0.17573 0.43744
#
# Static dielectric constant tensor:
#      x y z
#    x 3.216540 -0.000040 0.119350 
#    y -0.000040 3.527040 -0.000010 
#    z 0.119350 -0.000010 3.527950 
# 
# 
# High freq. dielectric constant tensor:
#      x y z
#    x 1.707920 0.000000 0.010530 
#    y 0.000000 1.751290 0.000000 
#    z 0.010530 0.000000 1.752740 
# 
# From -- ./inp_files/281742.got.cif
#   From: 2010.06.25/outbox.cif.g09.slc.cpg/sg12_141_cif.got.tgz:281742.got - 2010.06.28 00:19:55.
