data_PCOD8087493
_publ_section_title
;
Structure prediction by ZEFSAII (Michael W. Deem and Ramdas Pophale) SiO2 
 PCOD8087493
Probable space group: C 2/M
;
_chemical_formula_sum "Si O2"
_cell_formula_units_Z 64
_cell_length_a 30.783412
_cell_length_b 8.689962
_cell_length_c 25.756592
_cell_angle_alpha 90.000000
_cell_angle_beta 29.960068
_cell_angle_gamma 90.000000
_cell_volume 3440.870730
_symmetry_space_group_name_H-M "C 2/M"
_symmetry_group_IT_number 12
_symmetry_cell_setting 'monoclinic'
loop_
_space_group_symop_operation_xyz
x,y,z
-x,y,-z
-x,-y,-z
x,-y,z
1/2+x,1/2+y,z
1/2-x,1/2+y,-z
1/2-x,1/2-y,-z
1/2+x,1/2-y,z
loop_
_atom_site_type_symbol
_atom_site_label
_atom_site_fract_x
_atom_site_fract_y
_atom_site_fract_z
Si Si1 0.065403 0.179012 0.145756
Si Si2 0.384907 0.178533 0.799532
Si Si3 0.707912 0.320512 0.468675
Si Si4 0.524306 0.679137 0.386795
Si Si5 0.785947 0.822879 0.084601
Si Si6 0.198028 0.178716 0.268075
Si Si7 0.115728 0.320992 0.657692
Si Si8 0.657434 0.820572 0.414022
O O1 0.106135 0.276500 0.150144
O O2 0.966666 0.226418 0.236448
O O3 0.071881 0.000000 0.153314
O O4 0.120788 0.216249 0.036774
O O5 0.454480 0.276085 0.694386
O O6 0.287496 0.217612 0.881973
O O7 0.407243 0.000000 0.769054
O O8 0.688039 0.500000 0.496175
O O9 0.805452 0.280101 0.385512
O O10 0.638963 0.227805 0.574958
O O11 0.698095 0.272538 0.419565
O O12 0.500815 0.500000 0.414092
O O13 0.605259 0.722630 0.339231
O O14 0.442577 0.775081 0.491665
O O15 0.773832 0.721835 0.148935
O O16 0.778807 0.000000 0.108609
O O17 0.211157 0.275227 0.306990
O O18 0.203779 0.000000 0.275620
O O19 0.092461 0.500000 0.681820
O O20 0.666718 0.000000 0.415491
#
# Coordination Sequence:
#
# PCOD8087493 Si02
#       8
#     8   8   8   8   8   8   8   8
#     4  11  21  33  52  77 106 139 174 212 257 308
#     4  10  19  32  50  74 106 140 177 216 253 300
#     4  10  21  38  58  79 106 136 168 209 256 308
#     4  10  20  34  51  74 106 140 175 213 255 304
#     4   9  20  36  52  73 103 140 178 216 257 300
#     4  10  21  36  54  75 102 138 177 217 258 300
#     4  10  21  37  57  81 107 135 168 208 257 309
#     4  12  23  34  53  78 105 137 173 212 256 308
#
# _framework density 18.599943
#
# number of rings (size 3 to 8) (size 9 to 14) (size 15 to 20)
#    0.000    1.750    0.000    4.875    0.000    6.000 
#    0.000    0.000    0.000    0.750    0.000    5.250 
#    0.000    0.000    0.000    0.000    0.000    0.000 
#
# Total GULP energy -396980.719129 kJ/mol
# GULP energy per Si atom -12405.647473 kJ/mol
# Density = 1.855761 g / cm^3
# Si number density = 18.599943 Si / 1000 Ang^3
#
#
#
# Elastic Constant Matrix: (Units=GPa)
#
#
# Indices 1 2 3 4 5 6 
#
# 1 73.9794 16.4441 39.7998 -0.0012 11.9044 -0.0029
# 2 16.4441 46.4116 23.1317 -0.0485 0.6938 0.0096
# 3 39.7998 23.1317 108.6083 -0.0066 4.7135 -0.0026
# 4 -0.0012 -0.0485 -0.0066 31.9978 0.0019 2.4003
# 5 11.9044 0.6938 4.7135 0.0019 22.8499 0.0067
# 6 -0.0029 0.0096 -0.0026 2.4003 0.0067 28.1803
#
#
#
# Elastic Compliance Matrix: (Units=1/GPa)
#
#
# Indices 1 2 3 4 5 6 
#
# 1 0.018784 -0.003671 -0.005733 -0.000006 -0.008492 0.000005
# 2 -0.003671 0.024825 -0.004028 0.000038 0.001990 -0.000013
# 3 -0.005733 -0.004028 0.012140 -0.000004 0.000605 0.000002
# 4 -0.000006 0.000038 -0.000004 0.031453 0.000001 -0.002679
# 5 -0.008492 0.001990 0.000605 0.000001 0.048003 -0.000013
# 6 0.000005 -0.000013 0.000002 -0.002679 -0.000013 0.035714
#
#
# Mechanical properties :
#
#
# Convention : Reuss Voigt Hill
#
# Bulk Modulus (GPa) = 34.62106 43.08340 38.85223
# Shear Modulus (GPa) = 24.10657 26.58052 25.34354
#
# Velocity S-wave (km/s) = 3.60398 3.78440 3.69529
# Velocity P-wave (km/s) = 5.99768 6.50454 6.25625
#
# Compressibility (1/GPa) = 0.02888415
#
# Stress axis : x y z
#
# Youngs Moduli (GPa) = 53.23654 40.28182 82.37221
#
# Poissons Ratio (x) = 0.14788 0.47224
# Poissons Ratio (y) = 0.19544 0.33183
# Poissons Ratio (z) = 0.30521 0.16227
#
# Static dielectric constant tensor:
#      x y z
#    x 3.252130 -0.000040 0.040870 
#    y -0.000040 3.469880 0.000060 
#    z 0.040870 0.000060 3.437230 
# 
# 
# High freq. dielectric constant tensor:
#      x y z
#    x 1.703220 0.000000 0.009740 
#    y 0.000000 1.734210 0.000010 
#    z 0.009740 0.000010 1.716340 
# 
# From -- ./inp_files/353381.got.cif
#   From: 2010.06.25/outbox.cif.g09.slc.cpg/sg12_177_cif.got.tgz:353381.got - 2010.06.28 00:19:55.
