data_PCOD8087417
_publ_section_title
;
Structure prediction by ZEFSAII (Michael W. Deem and Ramdas Pophale) SiO2 
 PCOD8087417
Probable space group: C 2/M
;
_chemical_formula_sum "Si O2"
_cell_formula_units_Z 56
_cell_length_a 34.485457
_cell_length_b 9.626531
_cell_length_c 26.096593
_cell_angle_alpha 90.000000
_cell_angle_beta 21.877203
_cell_angle_gamma 90.000000
_cell_volume 3228.153086
_symmetry_space_group_name_H-M "C 2/M"
_symmetry_group_IT_number 12
_symmetry_cell_setting 'monoclinic'
loop_
_space_group_symop_operation_xyz
x,y,z
-x,y,-z
-x,-y,-z
x,-y,z
1/2+x,1/2+y,z
1/2-x,1/2+y,-z
1/2-x,1/2-y,-z
1/2+x,1/2-y,z
loop_
_atom_site_type_symbol
_atom_site_label
_atom_site_fract_x
_atom_site_fract_y
_atom_site_fract_z
Si Si1 0.896009 0.164558 0.393905
Si Si2 0.669096 0.838541 0.698362
Si Si3 0.483042 0.660817 0.179723
Si Si4 0.921298 0.337659 0.641849
Si Si5 0.535526 0.661617 0.581329
Si Si6 0.702125 0.659311 0.866095
Si Si7 0.730985 0.842535 0.736461
O O1 0.776748 0.217462 0.541366
O O2 0.952328 0.217735 0.273605
O O3 0.959796 0.215772 0.365576
O O4 0.891595 0.000000 0.403288
O O5 0.575083 0.748589 0.792040
O O6 0.671878 0.815112 0.755798
O O7 0.650713 0.000000 0.707680
O O8 0.450740 0.500000 0.213420
O O9 0.606247 0.680950 0.022285
O O10 0.926913 0.500000 0.648310
O O11 0.949370 0.251972 0.658126
O O12 0.805906 0.290036 0.767457
O O13 0.000000 0.298325 0.500000
O O14 0.504409 0.500000 0.616250
O O15 0.646969 0.688147 0.418789
O O16 0.714451 0.500000 0.834251
O O17 0.681369 0.744199 0.839912
O O18 0.713210 0.000000 0.776098
#
# Coordination Sequence:
#
# PCOD8087417 Si02
#       7
#     8   8   8   8   8   8   8
#     4   8  16  33  54  74  98 127 161 201 242 284
#     4   9  18  33  53  75  98 125 162 204 244 284
#     4  10  20  34  51  71  98 133 166 197 238 288
#     4  10  19  32  50  72 100 130 159 198 246 287
#     4   9  17  31  53  77  96 121 162 205 241 284
#     4  10  21  34  48  70 101 133 163 196 240 294
#     4   9  18  32  50  73  99 127 159 200 246 288
#
# _framework density 17.347380999999999
#
# number of rings (size 3 to 8) (size 9 to 14) (size 15 to 20)
#    0.000    2.714    1.429    2.143    0.000    2.571 
#    0.000    6.429    0.000    0.000    0.000    0.000 
#    0.000    0.000    0.000    0.000    0.000    0.000 
#
# Total GULP energy -347207.450166 kJ/mol
# GULP energy per Si atom -12400.266077 kJ/mol
# Density = 1.730790 g / cm^3
# Si number density = 17.347381 Si / 1000 Ang^3
#
#
#
# Elastic Constant Matrix: (Units=GPa)
#
#
# Indices 1 2 3 4 5 6 
#
# 1 100.8731 46.4750 48.1655 -0.0058 -12.3361 -0.0011
# 2 46.4750 51.0894 31.6139 0.0103 -5.9154 0.0020
# 3 48.1655 31.6139 86.2061 -0.0039 -9.6819 -0.0010
# 4 -0.0058 0.0103 -0.0039 21.6843 -0.0048 -5.4160
# 5 -12.3361 -5.9154 -9.6819 -0.0048 23.4422 -0.0003
# 6 -0.0011 0.0020 -0.0010 -5.4160 -0.0003 31.3714
#
#
#
# Elastic Compliance Matrix: (Units=1/GPa)
#
#
# Indices 1 2 3 4 5 6 
#
# 1 0.019333 -0.013832 -0.005221 0.000013 0.004527 0.000004
# 2 -0.013832 0.035377 -0.005306 -0.000023 -0.000543 -0.000007
# 3 -0.005221 -0.005306 0.016783 0.000005 0.002845 0.000002
# 4 0.000013 -0.000023 0.000005 0.048195 0.000013 0.008320
# 5 0.004527 -0.000543 0.002845 0.000013 0.046078 0.000003
# 6 0.000004 -0.000007 0.000002 0.008320 0.000003 0.033313
#
#
# Mechanical properties :
#
#
# Convention : Reuss Voigt Hill
#
# Bulk Modulus (GPa) = 43.90953 54.51969 49.21461
# Shear Modulus (GPa) = 19.57822 22.76053 21.16937
#
# Velocity S-wave (km/s) = 3.36311 3.62614 3.49710
# Velocity P-wave (km/s) = 6.35983 7.00202 6.68864
#
# Compressibility (1/GPa) = 0.02277410
#
# Stress axis : x y z
#
# Youngs Moduli (GPa) = 51.72637 28.26733 59.58569
#
# Poissons Ratio (x) = 0.39098 0.31108
# Poissons Ratio (y) = 0.71546 0.31618
# Poissons Ratio (z) = 0.27005 0.15000
#
# Static dielectric constant tensor:
#      x y z
#    x 3.281160 0.000000 0.039050 
#    y 0.000000 3.039340 0.000020 
#    z 0.039050 0.000020 3.161800 
# 
# 
# High freq. dielectric constant tensor:
#      x y z
#    x 1.672480 0.000000 -0.001880 
#    y 0.000000 1.653770 0.000000 
#    z -0.001880 0.000000 1.659110 
# 
# From -- ./inp_files/164974.got.cif
#   From: 2010.06.25/outbox.cif.g09.slc.cpg/sg12_83_cif.got.tgz:164974.got - 2010.06.28 00:19:55.
