data_PCOD8087857
_publ_section_title
;
Structure prediction by ZEFSAII (Michael W. Deem and Ramdas Pophale) SiO2 
 PCOD8087857
Probable space group: C 2/M
;
_chemical_formula_sum "Si O2"
_cell_formula_units_Z 64
_cell_length_a 24.412201
_cell_length_b 9.005611
_cell_length_c 19.958009
_cell_angle_alpha 90.000000
_cell_angle_beta 125.539796
_cell_angle_gamma 90.000000
_cell_volume 3570.327427
_symmetry_space_group_name_H-M "C 2/M"
_symmetry_group_IT_number 12
_symmetry_cell_setting 'monoclinic'
loop_
_space_group_symop_operation_xyz
x,y,z
-x,y,-z
-x,-y,-z
x,-y,z
1/2+x,1/2+y,z
1/2-x,1/2+y,-z
1/2-x,1/2-y,-z
1/2+x,1/2-y,z
loop_
_atom_site_type_symbol
_atom_site_label
_atom_site_fract_x
_atom_site_fract_y
_atom_site_fract_z
Si Si1 0.072881 0.826134 0.033385
Si Si2 0.591250 0.175273 0.258933
Si Si3 0.416278 0.671316 0.248007
Si Si4 0.178748 0.176506 0.215785
Si Si5 0.950289 0.670674 0.626875
Si Si6 0.545525 0.327049 0.868766
Si Si7 0.922736 0.670817 0.460480
Si Si8 0.319272 0.673347 0.292804
O O1 0.131345 0.759927 0.122135
O O2 0.070556 0.000000 0.046028
O O3 0.088645 0.791461 0.966319
O O4 0.000000 0.756945 0.000000
O O5 0.653905 0.256037 0.268467
O O6 0.592271 0.222168 0.338300
O O7 0.522167 0.231130 0.176650
O O8 0.598026 0.000000 0.253474
O O9 0.433280 0.500000 0.267040
O O10 0.477980 0.751103 0.327627
O O11 0.409994 0.715830 0.164861
O O12 0.347665 0.709401 0.238474
O O13 0.253602 0.229261 0.255121
O O14 0.177999 0.000000 0.220027
O O15 0.969011 0.500000 0.648478
O O16 0.908445 0.699388 0.529359
O O17 0.524216 0.500000 0.852702
O O18 0.906971 0.500000 0.429858
O O19 0.874705 0.781422 0.386728
O O20 0.000000 0.708980 0.500000
O O21 0.302562 0.500000 0.289727
#
# Coordination Sequence:
#
# PCOD8087857 Si02
#       8
#     8   8   8   8   8   8   8   8
#     4   9  16  30  54  81 103 130 178 227 257 298
#     4  10  19  32  51  79 111 138 167 213 269 312
#     4   9  18  31  51  77 106 140 173 211 261 312
#     4  11  22  37  56  76 103 143 183 217 260 317
#     4   9  18  32  53  80 108 135 170 217 260 305
#     4   9  16  31  54  78 104 136 177 217 255 307
#     4  10  19  34  57  82 106 137 179 219 255 307
#     4  11  23  37  52  77 112 143 174 217 268 316
#
# _framework density 17.925526000000001
#
# number of rings (size 3 to 8) (size 9 to 14) (size 15 to 20)
#    0.000    2.250    2.500    1.125    0.000    1.750 
#    0.000    3.125    0.000    0.000    0.000    0.000 
#    0.000    0.000    0.000    0.000    0.000    0.000 
#
# Total GULP energy -396709.599325 kJ/mol
# GULP energy per Si atom -12397.174979 kJ/mol
# Density = 1.788473 g / cm^3
# Si number density = 17.925526 Si / 1000 Ang^3
#
#
#
# Elastic Constant Matrix: (Units=GPa)
#
#
# Indices 1 2 3 4 5 6 
#
# 1 117.2307 39.8197 49.7204 0.0000 -7.4702 0.0000
# 2 39.8197 53.4214 23.1831 0.0000 -1.4638 0.0000
# 3 49.7204 23.1831 83.1824 0.0000 -8.2568 0.0000
# 4 0.0000 0.0000 0.0000 20.8298 0.0000 0.3131
# 5 -7.4702 -1.4638 -8.2568 0.0000 26.0258 0.0000
# 6 0.0000 0.0000 0.0000 0.3131 0.0000 26.3555
#
#
#
# Elastic Compliance Matrix: (Units=1/GPa)
#
#
# Indices 1 2 3 4 5 6 
#
# 1 0.013736 -0.007623 -0.005924 0.000000 0.001635 0.000000
# 2 -0.007623 0.025538 -0.002721 0.000000 -0.001615 0.000000
# 3 -0.005924 -0.002721 0.016662 0.000000 0.003433 0.000000
# 4 0.000000 0.000000 0.000000 0.048017 0.000000 -0.000570
# 5 0.001635 -0.001615 0.003433 0.000000 0.039891 0.000000
# 6 0.000000 0.000000 0.000000 -0.000570 0.000000 0.037949
#
#
# Mechanical properties :
#
#
# Convention : Reuss Voigt Hill
#
# Bulk Modulus (GPa) = 42.73564 53.25343 47.99454
# Shear Modulus (GPa) = 22.50946 24.04962 23.27954
#
# Velocity S-wave (km/s) = 3.54746 3.66682 3.60763
# Velocity P-wave (km/s) = 6.37744 6.90652 6.64725
#
# Compressibility (1/GPa) = 0.02339967
#
# Stress axis : x y z
#
# Youngs Moduli (GPa) = 72.80099 39.15721 60.01840
#
# Poissons Ratio (x) = 0.29851 0.35552
# Poissons Ratio (y) = 0.55498 0.16332
# Poissons Ratio (z) = 0.43124 0.10655
#
# Static dielectric constant tensor:
#      x y z
#    x 3.522420 0.000000 -0.393790 
#    y 0.000000 3.221180 0.000000 
#    z -0.393790 0.000000 3.393610 
# 
# 
# High freq. dielectric constant tensor:
#      x y z
#    x 1.692840 0.000000 -0.027930 
#    y 0.000000 1.685040 0.000000 
#    z -0.027930 0.000000 1.681320 
# 
# From -- ./inp_files/324348.got.cif
#   From: 2010.06.25/outbox.cif.g09.slc.cpg/sg12_163_cif.got.tgz:324348.got - 2010.06.28 00:19:55.
