data_PCOD8087721
_publ_section_title
;
Structure prediction by ZEFSAII (Michael W. Deem and Ramdas Pophale) SiO2 
 PCOD8087721
Probable space group: C 2/M
;
_chemical_formula_sum "Si O2"
_cell_formula_units_Z 56
_cell_length_a 18.672735
_cell_length_b 8.888541
_cell_length_c 29.713244
_cell_angle_alpha 90.000000
_cell_angle_beta 37.696913
_cell_angle_gamma 90.000000
_cell_volume 3015.600953
_symmetry_space_group_name_H-M "C 2/M"
_symmetry_group_IT_number 12
_symmetry_cell_setting 'monoclinic'
loop_
_space_group_symop_operation_xyz
x,y,z
-x,y,-z
-x,-y,-z
x,-y,z
1/2+x,1/2+y,z
1/2-x,1/2+y,-z
1/2-x,1/2-y,-z
1/2+x,1/2-y,z
loop_
_atom_site_type_symbol
_atom_site_label
_atom_site_fract_x
_atom_site_fract_y
_atom_site_fract_z
Si Si1 0.441475 0.331099 0.214719
Si Si2 0.542131 0.824277 0.931739
Si Si3 0.411759 0.176737 0.627703
Si Si4 0.274281 0.665742 0.212526
Si Si5 0.875401 0.677347 0.932595
Si Si6 0.816239 0.322387 0.508519
Si Si7 0.751800 0.821100 0.634092
O O1 0.468772 0.500000 0.218460
O O2 0.362548 0.337483 0.210053
O O3 0.562272 0.246765 0.142471
O O4 0.373910 0.237602 0.286404
O O5 0.672054 0.766646 0.853898
O O6 0.447751 0.779748 0.941187
O O7 0.555482 0.000000 0.930479
O O8 0.500000 0.752455 0.000000
O O9 0.348907 0.226951 0.705938
O O10 0.547117 0.214693 0.564894
O O11 0.358691 0.266772 0.612133
O O12 0.387605 0.000000 0.630966
O O13 0.256744 0.500000 0.200831
O O14 0.864635 0.500000 0.931486
O O15 0.750000 0.750000 0.000000
O O16 0.793430 0.500000 0.522011
O O17 0.750000 0.250000 0.500000
O O18 0.768402 0.244433 0.576617
O O19 0.750515 0.000000 0.633474
#
# Coordination Sequence:
#
# PCOD8087721 Si02
#       7
#     8   8   8   8   8   8   8
#     4   9  17  32  53  76 103 134 171 216 264 309
#     4   9  18  32  49  71 100 133 168 207 251 299
#     4   9  19  36  57  79 104 136 174 218 265 312
#     4   8  15  29  50  75  99 126 164 209 256 302
#     4  10  19  32  51  75 104 137 173 214 260 311
#     4  11  23  39  56  76 108 145 177 213 264 319
#     4  11  21  34  56  84 108 133 174 221 262 313
#
# _framework density 18.570094999999998
#
# number of rings (size 3 to 8) (size 9 to 14) (size 15 to 20)
#    0.000    2.429    0.000    3.857    0.000    7.143 
#    0.000    1.429    0.000    3.429    0.000    0.000 
#    0.000    0.000    0.000    0.000    0.000    0.000 
#
# Total GULP energy -347142.832610 kJ/mol
# GULP energy per Si atom -12397.958307 kJ/mol
# Density = 1.852783 g / cm^3
# Si number density = 18.570095 Si / 1000 Ang^3
#
#
#
# Elastic Constant Matrix: (Units=GPa)
#
#
# Indices 1 2 3 4 5 6 
#
# 1 71.0990 55.0194 75.1251 0.0001 2.1877 -0.0006
# 2 55.0194 108.6039 81.2262 0.0000 -0.8039 -0.0010
# 3 75.1251 81.2262 197.5343 0.0000 1.7264 0.0001
# 4 0.0001 0.0000 0.0000 36.9589 0.0001 2.2105
# 5 2.1877 -0.8039 1.7264 0.0001 28.7801 0.0000
# 6 -0.0006 -0.0010 0.0001 2.2105 0.0000 20.6572
#
#
#
# Elastic Compliance Matrix: (Units=1/GPa)
#
#
# Indices 1 2 3 4 5 6 
#
# 1 0.028864 -0.009301 -0.007135 0.000000 -0.002026 0.000000
# 2 -0.009301 0.016309 -0.003181 0.000000 0.001353 0.000001
# 3 -0.007135 -0.003181 0.009085 0.000000 -0.000091 0.000000
# 4 0.000000 0.000000 0.000000 0.027231 0.000000 -0.002914
# 5 -0.002026 0.001353 -0.000091 0.000000 0.034944 0.000000
# 6 0.000000 0.000001 0.000000 -0.002914 0.000000 0.048721
#
#
# Mechanical properties :
#
#
# Convention : Reuss Voigt Hill
#
# Bulk Modulus (GPa) = 66.56210 88.88650 77.72430
# Shear Modulus (GPa) = 23.87833 28.33700 26.10766
#
# Velocity S-wave (km/s) = 3.58976 3.91058 3.75360
# Velocity P-wave (km/s) = 7.28721 8.26798 7.79304
#
# Compressibility (1/GPa) = 0.01502356
#
# Stress axis : x y z
#
# Youngs Moduli (GPa) = 34.64522 61.31706 110.07675
#
# Poissons Ratio (x) = 0.57033 0.78539
# Poissons Ratio (y) = 0.32225 0.35010
# Poissons Ratio (z) = 0.24719 0.19502
#
# Static dielectric constant tensor:
#      x y z
#    x 3.130360 0.000010 0.065400 
#    y 0.000010 3.516310 0.000010 
#    z 0.065400 0.000010 4.096280 
# 
# 
# High freq. dielectric constant tensor:
#      x y z
#    x 1.678900 0.000000 -0.002200 
#    y 0.000000 1.725480 0.000000 
#    z -0.002200 0.000000 1.744870 
# 
# From -- ./inp_files/362929.got.cif
#   From: 2010.06.25/outbox.cif.g09.slc.cpg/sg12_182_cif.got.tgz:362929.got - 2010.06.28 00:19:55.
