data_PCOD8087751
_publ_section_title
;
Structure prediction by ZEFSAII (Michael W. Deem and Ramdas Pophale) SiO2 
 PCOD8087751
Probable space group: C 2/M
;
_chemical_formula_sum "Si O2"
_cell_formula_units_Z 56
_cell_length_a 10.198785
_cell_length_b 18.072272
_cell_length_c 19.020527
_cell_angle_alpha 90.000000
_cell_angle_beta 53.117765
_cell_angle_gamma 90.000000
_cell_volume 2804.165044
_symmetry_space_group_name_H-M "C 2/M"
_symmetry_group_IT_number 12
_symmetry_cell_setting 'monoclinic'
loop_
_space_group_symop_operation_xyz
x,y,z
-x,y,-z
-x,-y,-z
x,-y,z
1/2+x,1/2+y,z
1/2-x,1/2+y,-z
1/2-x,1/2-y,-z
1/2+x,1/2-y,z
loop_
_atom_site_type_symbol
_atom_site_label
_atom_site_fract_x
_atom_site_fract_y
_atom_site_fract_z
Si Si1 0.783598 0.080530 0.829101
Si Si2 0.826249 0.083425 0.974661
Si Si3 0.060135 0.233883 0.054399
Si Si4 0.843206 0.678485 0.337674
Si Si5 0.150926 0.082168 0.503087
Si Si6 0.487586 0.868331 0.846519
Si Si7 0.963799 0.818419 0.666307
O O1 0.608303 0.076606 0.847804
O O2 0.894973 0.144139 0.759403
O O3 0.867632 0.000000 0.791053
O O4 0.748536 0.093545 0.922666
O O5 0.695121 0.103920 0.077474
O O6 0.893883 0.000000 0.965348
O O7 0.972982 0.144752 0.930440
O O8 0.973058 0.282990 0.142098
O O9 0.250000 0.250000 0.000000
O O10 0.000000 0.265595 0.000000
O O11 0.795344 0.626232 0.417815
O O12 0.974076 0.631978 0.248804
O O13 0.683651 0.700522 0.341319
O O14 0.935081 0.747397 0.342515
O O15 0.000000 0.073961 0.500000
O O16 0.094594 0.125829 0.590311
O O17 0.213303 0.000000 0.504290
#
# Coordination Sequence:
#
# PCOD8087751 Si02
#       7
#     8   8   8   8   8   8   8
#     4  10  19  32  53  79 104 135 178 220 258 304
#     4  10  20  32  48  73 106 139 172 215 264 311
#     4  10  20  34  52  72  99 136 177 215 256 305
#     4  10  21  33  55  80 106 137 173 212 258 313
#     4   9  18  34  56  81 106 133 171 219 262 302
#     4  10  19  32  51  76 104 137 174 218 258 301
#     4  10  20  36  55  80 107 138 172 215 261 308
#
# _framework density 19.970293000000002
#
# number of rings (size 3 to 8) (size 9 to 14) (size 15 to 20)
#    0.000    2.143    0.000    4.286    0.000    8.857 
#    0.000    0.000    0.000    2.571    0.000    0.000 
#    0.000    0.000    0.000    0.000    0.000    0.000 
#
# Total GULP energy -346969.213952 kJ/mol
# GULP energy per Si atom -12391.757641 kJ/mol
# Density = 1.992484 g / cm^3
# Si number density = 19.970293 Si / 1000 Ang^3
#
#
#
# Elastic Constant Matrix: (Units=GPa)
#
#
# Indices 1 2 3 4 5 6 
#
# 1 54.8191 22.1986 16.9671 0.0001 4.5684 0.0000
# 2 22.1986 117.0631 29.9981 0.0000 -8.6968 0.0000
# 3 16.9671 29.9981 100.8362 0.0000 -6.8933 0.0000
# 4 0.0001 0.0000 0.0000 27.7287 -0.0001 -3.9637
# 5 4.5684 -8.6968 -6.8933 -0.0001 14.3332 0.0000
# 6 0.0000 0.0000 0.0000 -3.9637 0.0000 25.9415
#
#
#
# Elastic Compliance Matrix: (Units=1/GPa)
#
#
# Indices 1 2 3 4 5 6 
#
# 1 0.021822 -0.004137 -0.003193 0.000000 -0.011001 0.000000
# 2 -0.004137 0.010312 -0.001917 0.000000 0.006654 0.000000
# 3 -0.003193 -0.001917 0.011389 0.000000 0.005332 0.000000
# 4 0.000000 0.000000 0.000000 0.036869 0.000000 0.005633
# 5 -0.011001 0.006654 0.005332 0.000000 0.079877 0.000000
# 6 0.000000 0.000000 0.000000 0.005633 0.000000 0.039409
#
#
# Mechanical properties :
#
#
# Convention : Reuss Voigt Hill
#
# Bulk Modulus (GPa) = 39.95303 45.67178 42.81240
# Shear Modulus (GPa) = 22.07350 27.17099 24.62225
#
# Velocity S-wave (km/s) = 3.32824 3.69259 3.51514
# Velocity P-wave (km/s) = 5.90078 6.41091 6.16113
#
# Compressibility (1/GPa) = 0.02502939
#
# Stress axis : x y z
#
# Youngs Moduli (GPa) = 45.82473 96.96993 87.80292
#
# Poissons Ratio (x) = 0.40118 0.28037
# Poissons Ratio (y) = 0.18959 0.16831
# Poissons Ratio (z) = 0.14633 0.18588
#
# Static dielectric constant tensor:
#      x y z
#    x 3.298620 0.000000 0.027990 
#    y 0.000000 4.252720 0.000000 
#    z 0.027990 0.000000 3.786210 
# 
# 
# High freq. dielectric constant tensor:
#      x y z
#    x 1.738880 0.000000 0.007950 
#    y 0.000000 1.792900 0.000000 
#    z 0.007950 0.000000 1.781380 
# 
# From -- ./inp_files/264187.got.cif
#   From: 2010.06.25/outbox.cif.g09.slc.cpg/sg12_133_cif.got.tgz:264187.got - 2010.06.28 00:19:55.
