data_PCOD8087256
_publ_section_title
;
Structure prediction by ZEFSAII (Michael W. Deem and Ramdas Pophale) SiO2 
 PCOD8087256
Probable space group: C 2/M
;
_chemical_formula_sum "Si O2"
_cell_formula_units_Z 48
_cell_length_a 23.535263
_cell_length_b 8.984053
_cell_length_c 13.286219
_cell_angle_alpha 90.000000
_cell_angle_beta 75.613531
_cell_angle_gamma 90.000000
_cell_volume 2721.172061
_symmetry_space_group_name_H-M "C 2/M"
_symmetry_group_IT_number 12
_symmetry_cell_setting 'monoclinic'
loop_
_space_group_symop_operation_xyz
x,y,z
-x,y,-z
-x,-y,-z
x,-y,z
1/2+x,1/2+y,z
1/2-x,1/2+y,-z
1/2-x,1/2-y,-z
1/2+x,1/2-y,z
loop_
_atom_site_type_symbol
_atom_site_label
_atom_site_fract_x
_atom_site_fract_y
_atom_site_fract_z
Si Si1 0.288494 0.670825 0.782068
Si Si2 0.606218 0.326633 0.137898
Si Si3 0.192774 0.834538 0.930953
Si Si4 0.725572 0.177224 0.610512
Si Si5 0.007007 0.324009 0.880743
Si Si6 0.377064 0.668040 0.243711
O O1 0.271199 0.500000 0.794173
O O2 0.358058 0.695568 0.772519
O O3 0.252607 0.742555 0.891074
O O4 0.269441 0.731247 0.681066
O O5 0.589674 0.500000 0.128106
O O6 0.548353 0.227047 0.161576
O O7 0.648478 0.264999 0.031326
O O8 0.159879 0.835763 0.840444
O O9 0.210148 0.000000 0.958288
O O10 0.750000 0.250000 0.500000
O O11 0.659966 0.239144 0.657737
O O12 0.723428 0.000000 0.600479
O O13 0.014184 0.500000 0.872029
O O14 0.061996 0.248877 0.803532
O O15 0.000000 0.270878 0.000000
O O16 0.388609 0.500000 0.278100
#
# Coordination Sequence:
#
# PCOD8087256 Si02
#       6
#     8   8   8   8   8   8
#     4   9  19  32  49  73 102 132 168 212 258 305
#     4  10  19  32  48  70 102 141 175 207 249 300
#     4   9  17  28  46  71 101 135 171 205 246 301
#     4  10  20  36  57  81 105 131 168 216 266 313
#     4  11  22  33  48  73 106 144 181 214 247 293
#     4  10  19  33  53  77 104 137 175 215 256 301
#
# _framework density 17.639457
#
# number of rings (size 3 to 8) (size 9 to 14) (size 15 to 20)
#    0.000    2.167    1.667    2.000    0.000    3.333 
#    0.000    0.000    0.000    1.000    0.000    7.000 
#    0.000    0.000    0.000    0.000    0.000    0.000 
#
# Total GULP energy -297529.679810 kJ/mol
# GULP energy per Si atom -12397.069992 kJ/mol
# Density = 1.759931 g / cm^3
# Si number density = 17.639457 Si / 1000 Ang^3
#
#
#
# Elastic Constant Matrix: (Units=GPa)
#
#
# Indices 1 2 3 4 5 6 
#
# 1 102.2360 46.9585 41.8889 0.0000 -20.8683 0.0000
# 2 46.9585 80.1512 40.2177 0.0000 -11.5908 0.0000
# 3 41.8889 40.2177 98.3254 0.0000 -17.1832 0.0000
# 4 0.0000 0.0000 0.0000 25.7707 0.0000 -6.9692
# 5 -20.8683 -11.5908 -17.1832 0.0000 19.4983 0.0000
# 6 0.0000 0.0000 0.0000 -6.9692 0.0000 31.3322
#
#
#
# Elastic Compliance Matrix: (Units=1/GPa)
#
#
# Indices 1 2 3 4 5 6 
#
# 1 0.016033 -0.006696 -0.002114 0.000000 0.011316 0.000000
# 2 -0.006696 0.018812 -0.004894 0.000000 -0.000296 0.000000
# 3 -0.002114 -0.004894 0.014384 0.000000 0.007505 0.000000
# 4 0.000000 0.000000 0.000000 0.041287 0.000000 0.009184
# 5 0.011316 -0.000296 0.007505 0.000000 0.069835 0.000000
# 6 0.000000 0.000000 0.000000 0.009184 0.000000 0.033959
#
#
# Mechanical properties :
#
#
# Convention : Reuss Voigt Hill
#
# Bulk Modulus (GPa) = 45.82636 59.87143 52.84889
# Shear Modulus (GPa) = 21.83486 25.43008 23.63247
#
# Velocity S-wave (km/s) = 3.52211 3.80104 3.66423
# Velocity P-wave (km/s) = 6.52505 7.29927 6.92299
#
# Compressibility (1/GPa) = 0.02182150
#
# Stress axis : x y z
#
# Youngs Moduli (GPa) = 62.37207 53.15697 69.52119
#
# Poissons Ratio (x) = 0.35594 0.14696
# Poissons Ratio (y) = 0.41765 0.34022
# Poissons Ratio (z) = 0.13185 0.26014
#
# Static dielectric constant tensor:
#      x y z
#    x 3.390610 0.000000 0.031910 
#    y 0.000000 3.424180 0.000000 
#    z 0.031910 0.000000 3.122990 
# 
# 
# High freq. dielectric constant tensor:
#      x y z
#    x 1.683060 0.000000 -0.001100 
#    y 0.000000 1.686310 0.000000 
#    z -0.001100 0.000000 1.652230 
# 
# From -- ./inp_files/229851.got.cif
#   From: 2010.06.25/outbox.cif.g09.slc.cpg/sg12_115_cif.got.tgz:229851.got - 2010.06.28 00:19:55.
