data_PCOD8087096
_publ_section_title
;
Structure prediction by ZEFSAII (Michael W. Deem and Ramdas Pophale) SiO2 
 PCOD8087096
Probable space group: C 2/M
;
_chemical_formula_sum "Si O2"
_cell_formula_units_Z 64
_cell_length_a 19.997335
_cell_length_b 9.286284
_cell_length_c 18.734733
_cell_angle_alpha 90.000000
_cell_angle_beta 92.710762
_cell_angle_gamma 90.000000
_cell_volume 3475.164347
_symmetry_space_group_name_H-M "C 2/M"
_symmetry_group_IT_number 12
_symmetry_cell_setting 'monoclinic'
loop_
_space_group_symop_operation_xyz
x,y,z
-x,y,-z
-x,-y,-z
x,-y,z
1/2+x,1/2+y,z
1/2-x,1/2+y,-z
1/2-x,1/2-y,-z
1/2+x,1/2-y,z
loop_
_atom_site_type_symbol
_atom_site_label
_atom_site_fract_x
_atom_site_fract_y
_atom_site_fract_z
Si Si1 0.821811 0.334846 0.432889
Si Si2 0.200813 0.830038 0.944352
Si Si3 0.547920 0.669653 0.941147
Si Si4 0.226621 0.334855 0.802828
Si Si5 0.858660 0.166349 0.724923
Si Si6 0.312245 0.167043 0.592798
Si Si7 0.997224 0.832256 0.213481
Si Si8 0.399724 0.162578 0.302619
O O1 0.797658 0.500000 0.420892
O O2 0.761598 0.232550 0.406730
O O3 0.843472 0.307133 0.515709
O O4 0.885362 0.302779 0.385255
O O5 0.124678 0.793219 0.963152
O O6 0.213565 0.774266 0.865933
O O7 0.214172 0.000000 0.947869
O O8 0.250000 0.750000 0.000000
O O9 0.536004 0.500000 0.937048
O O10 0.527415 0.735470 0.863060
O O11 0.500000 0.736765 0.000000
O O12 0.229106 0.500000 0.830728
O O13 0.296399 0.289575 0.770824
O O14 0.169284 0.312070 0.742200
O O15 0.860543 0.257816 0.652360
O O16 0.924516 0.200562 0.774096
O O17 0.854739 0.000000 0.702562
O O18 0.306949 0.000000 0.611373
O O19 0.957765 0.764670 0.277564
O O20 0.981166 0.000000 0.214603
O O21 0.425076 0.000000 0.294012
#
# Coordination Sequence:
#
# PCOD8087096 Si02
#       8
#     8   8   8   8   8   8   8   8
#     4   9  18  34  54  79 110 149 187 222 279 339
#     4  11  23  38  59  85 114 142 178 231 275 323
#     4   9  19  36  58  80 104 140 183 220 260 319
#     4  10  20  36  59  82 108 146 186 223 271 328
#     4  10  21  37  57  80 113 152 186 225 275 336
#     4  10  19  31  53  83 113 142 184 238 277 320
#     4  10  21  37  58  82 108 142 187 229 269 325
#     4  10  19  35  58  80 109 146 182 225 276 333
#
# _framework density 18.416395000000001
#
# number of rings (size 3 to 8) (size 9 to 14) (size 15 to 20)
#    0.000    2.125    2.500    0.750    1.750    2.000 
#    0.000    0.625    0.000    5.625    0.000    0.000 
#    0.000    0.000    0.000    0.000    0.000    0.000 
#
# Total GULP energy -396847.007203 kJ/mol
# GULP energy per Si atom -12401.468975 kJ/mol
# Density = 1.837448 g / cm^3
# Si number density = 18.416395 Si / 1000 Ang^3
#
#
#
# Elastic Constant Matrix: (Units=GPa)
#
#
# Indices 1 2 3 4 5 6 
#
# 1 100.7939 44.3758 46.9322 0.0000 -14.9072 0.0000
# 2 44.3758 68.2924 49.0414 0.0000 -2.9574 0.0000
# 3 46.9322 49.0414 107.7818 0.0000 -16.8818 0.0000
# 4 0.0000 0.0000 0.0000 32.7962 0.0000 0.9755
# 5 -14.9072 -2.9574 -16.8818 0.0000 28.3793 0.0000
# 6 0.0000 0.0000 0.0000 0.9755 0.0000 27.1682
#
#
#
# Elastic Compliance Matrix: (Units=1/GPa)
#
#
# Indices 1 2 3 4 5 6 
#
# 1 0.015401 -0.008333 -0.001967 0.000000 0.006051 0.000000
# 2 -0.008333 0.026676 -0.009660 0.000000 -0.007343 0.000000
# 3 -0.001967 -0.009660 0.015670 0.000000 0.007282 0.000000
# 4 0.000000 0.000000 0.000000 0.030524 0.000000 -0.001096
# 5 0.006051 -0.007343 0.007282 0.000000 0.041982 0.000000
# 6 0.000000 0.000000 0.000000 -0.001096 0.000000 0.036847
#
#
# Mechanical properties :
#
#
# Convention : Reuss Voigt Hill
#
# Bulk Modulus (GPa) = 56.08935 61.95187 59.02061
# Shear Modulus (GPa) = 23.47847 26.76999 25.12423
#
# Velocity S-wave (km/s) = 3.57440 3.81674 3.69756
# Velocity P-wave (km/s) = 6.89619 7.28944 7.09554
#
# Compressibility (1/GPa) = 0.01782870
#
# Stress axis : x y z
#
# Youngs Moduli (GPa) = 64.93257 37.48663 63.81583
#
# Poissons Ratio (x) = 0.31237 0.12550
# Poissons Ratio (y) = 0.54107 0.61643
# Poissons Ratio (z) = 0.12770 0.36211
#
# Static dielectric constant tensor:
#      x y z
#    x 3.334100 0.000000 -0.140750 
#    y 0.000000 3.319740 0.000000 
#    z -0.140750 0.000000 3.982080 
# 
# 
# High freq. dielectric constant tensor:
#      x y z
#    x 1.704650 0.000000 -0.005420 
#    y 0.000000 1.700960 0.000000 
#    z -0.005420 0.000000 1.724550 
# 
# From -- ./inp_files/281389.got.cif
#   From: 2010.06.25/outbox.cif.g09.slc.cpg/sg12_141_cif.got.tgz:281389.got - 2010.06.28 00:19:55.
