data_PCOD8087425
_publ_section_title
;
Structure prediction by ZEFSAII (Michael W. Deem and Ramdas Pophale) SiO2 
 PCOD8087425
Probable space group: C 2/M
;
_chemical_formula_sum "Si O2"
_cell_formula_units_Z 64
_cell_length_a 27.727479
_cell_length_b 8.794869
_cell_length_c 20.515880
_cell_angle_alpha 90.000000
_cell_angle_beta 133.597606
_cell_angle_gamma 90.000000
_cell_volume 3623.171034
_symmetry_space_group_name_H-M "C 2/M"
_symmetry_group_IT_number 12
_symmetry_cell_setting 'monoclinic'
loop_
_space_group_symop_operation_xyz
x,y,z
-x,y,-z
-x,-y,-z
x,-y,z
1/2+x,1/2+y,z
1/2-x,1/2+y,-z
1/2-x,1/2-y,-z
1/2+x,1/2-y,z
loop_
_atom_site_type_symbol
_atom_site_label
_atom_site_fract_x
_atom_site_fract_y
_atom_site_fract_z
Si Si1 0.578215 0.671073 0.626163
Si Si2 0.105324 0.677933 0.523832
Si Si3 0.303451 0.322251 0.598802
Si Si4 0.787702 0.677408 0.094878
Si Si5 0.748201 0.320539 0.669356
Si Si6 0.765985 0.831709 0.202891
Si Si7 0.437699 0.179006 0.256237
Si Si8 0.564767 0.323984 0.355341
O O1 0.549889 0.500000 0.606408
O O2 0.561381 0.738072 0.538816
O O3 0.657589 0.671459 0.705101
O O4 0.548709 0.776931 0.655505
O O5 0.103991 0.500000 0.537216
O O6 0.180525 0.734515 0.590771
O O7 0.074743 0.714622 0.425868
O O8 0.287279 0.500000 0.589625
O O9 0.250000 0.250000 0.500000
O O10 0.301755 0.242288 0.667806
O O11 0.378576 0.293325 0.644920
O O12 0.784303 0.500000 0.083204
O O13 0.751426 0.719735 0.129215
O O14 0.864132 0.734910 0.166586
O O15 0.750000 0.750000 0.000000
O O16 0.736809 0.500000 0.648854
O O17 0.773235 0.285794 0.766993
O O18 0.744795 0.000000 0.160064
O O19 0.491640 0.269517 0.261587
O O20 0.445560 0.000000 0.254424
O O21 0.564110 0.500000 0.375469
#
# Coordination Sequence:
#
# PCOD8087425 Si02
#       8
#     8   8   8   8   8   8   8   8
#     4   9  17  31  49  68  96 132 168 207 251 299
#     4  11  20  30  47  69  95 131 174 217 256 296
#     4  11  22  34  51  72  98 134 180 227 266 303
#     4  10  20  34  56  83 109 134 162 199 244 305
#     4  10  19  32  50  72 101 135 174 218 263 305
#     4   8  16  30  49  74 103 133 164 203 249 300
#     4  10  21  36  52  74 101 130 167 208 250 301
#     4  11  23  36  49  68  97 134 175 216 260 305
#
# _framework density 17.664086000000001
#
# number of rings (size 3 to 8) (size 9 to 14) (size 15 to 20)
#    0.000    2.000    1.250    4.125    0.000    7.000 
#    0.000    2.500    0.000    0.000    0.000    0.875 
#    0.000    7.000    0.000    0.000    0.000    0.000 
#
# Total GULP energy -396729.009047 kJ/mol
# GULP energy per Si atom -12397.781533 kJ/mol
# Density = 1.762388 g / cm^3
# Si number density = 17.664086 Si / 1000 Ang^3
#
#
#
# Elastic Constant Matrix: (Units=GPa)
#
#
# Indices 1 2 3 4 5 6 
#
# 1 115.5779 47.1730 39.6084 0.0000 -9.1958 0.0000
# 2 47.1730 91.5473 26.9608 0.0000 -4.9445 0.0000
# 3 39.6084 26.9608 59.7671 0.0000 -13.3129 0.0000
# 4 0.0000 0.0000 0.0000 24.5463 0.0000 -4.0011
# 5 -9.1958 -4.9445 -13.3129 0.0000 19.0077 0.0000
# 6 0.0000 0.0000 0.0000 -4.0011 0.0000 32.7095
#
#
#
# Elastic Compliance Matrix: (Units=1/GPa)
#
#
# Indices 1 2 3 4 5 6 
#
# 1 0.012743 -0.004712 -0.006184 0.000000 0.000608 0.000000
# 2 -0.004712 0.014351 -0.003586 0.000000 -0.001059 0.000000
# 3 -0.006184 -0.003586 0.025561 0.000000 0.013978 0.000000
# 4 0.000000 0.000000 0.000000 0.041568 0.000000 0.005085
# 5 0.000608 -0.001059 0.013978 0.000000 0.062419 0.000000
# 6 0.000000 0.000000 0.000000 0.005085 0.000000 0.031194
#
#
# Mechanical properties :
#
#
# Convention : Reuss Voigt Hill
#
# Bulk Modulus (GPa) = 42.21256 54.93076 48.57166
# Shear Modulus (GPa) = 22.25212 25.46273 23.85742
#
# Velocity S-wave (km/s) = 3.55313 3.80082 3.67906
# Velocity P-wave (km/s) = 6.38610 7.10117 6.75311
#
# Compressibility (1/GPa) = 0.02368963
#
# Stress axis : x y z
#
# Youngs Moduli (GPa) = 78.47400 69.68380 39.12197
#
# Poissons Ratio (x) = 0.32837 0.24192
# Poissons Ratio (y) = 0.36980 0.14031
# Poissons Ratio (z) = 0.48527 0.24991
#
# Static dielectric constant tensor:
#      x y z
#    x 3.605620 0.000000 -0.041260 
#    y 0.000000 3.379650 0.000000 
#    z -0.041260 0.000000 3.092870 
# 
# 
# High freq. dielectric constant tensor:
#      x y z
#    x 1.684080 0.000000 -0.007230 
#    y 0.000000 1.697140 0.000000 
#    z -0.007230 0.000000 1.639050 
# 
# From -- ./inp_files/326976.got.cif
#   From: 2010.06.25/outbox.cif.g09.slc.cpg/sg12_164_cif.got.tgz:326976.got - 2010.06.28 00:19:55.
