data_PCOD8087289
_publ_section_title
;
Structure prediction by ZEFSAII (Michael W. Deem and Ramdas Pophale) SiO2 
 PCOD8087289
Probable space group: C 2/M
;
_chemical_formula_sum "Si O2"
_cell_formula_units_Z 40
_cell_length_a 27.620890
_cell_length_b 8.905755
_cell_length_c 10.332689
_cell_angle_alpha 90.000000
_cell_angle_beta 92.402057
_cell_angle_gamma 90.000000
_cell_volume 2539.451943
_symmetry_space_group_name_H-M "C 2/M"
_symmetry_group_IT_number 12
_symmetry_cell_setting 'monoclinic'
loop_
_space_group_symop_operation_xyz
x,y,z
-x,y,-z
-x,-y,-z
x,-y,z
1/2+x,1/2+y,z
1/2-x,1/2+y,-z
1/2-x,1/2-y,-z
1/2+x,1/2-y,z
loop_
_atom_site_type_symbol
_atom_site_label
_atom_site_fract_x
_atom_site_fract_y
_atom_site_fract_z
Si Si1 0.701303 0.331287 0.032785
Si Si2 0.451206 0.320836 0.352754
Si Si3 0.604220 0.669192 0.905227
Si Si4 0.879429 0.675244 0.846901
Si Si5 0.446216 0.822086 0.618075
O O1 0.714352 0.500000 0.074974
O O2 0.673971 0.252185 0.151659
O O3 0.750000 0.250000 0.000000
O O4 0.663374 0.327281 0.907217
O O5 0.451716 0.500000 0.370897
O O6 0.417521 0.267342 0.230207
O O7 0.504994 0.260861 0.332030
O O8 0.429317 0.242482 0.477990
O O9 0.585253 0.500000 0.924796
O O10 0.587406 0.766939 0.028283
O O11 0.872195 0.500000 0.860125
O O12 0.904552 0.718879 0.715403
O O13 0.455562 0.000000 0.610682
#
# Coordination Sequence:
#
# PCOD8087289 Si02
#       5
#     8   8   8   8   8
#     4   9  17  31  50  72  96 119 152 194 237 282
#     4  10  19  32  49  68  93 130 164 191 231 279
#     4   8  18  32  47  70  95 121 156 197 234 274
#     4   9  18  31  48  70  95 125 157 191 235 277
#     4  10  20  32  46  69  98 128 160 195 231 273
#
# _framework density 15.751429
#
# number of rings (size 3 to 8) (size 9 to 14) (size 15 to 20)
#    1.200    1.600    0.000    3.000    0.000    5.600 
#    0.000    4.000    0.000    1.200    0.000    0.000 
#    0.000    0.000    0.000    0.000    0.000    0.000 
#
# Total GULP energy -247776.481783 kJ/mol
# GULP energy per Si atom -12388.824089 kJ/mol
# Density = 1.571558 g / cm^3
# Si number density = 15.751429 Si / 1000 Ang^3
#
#
#
# Elastic Constant Matrix: (Units=GPa)
#
#
# Indices 1 2 3 4 5 6 
#
# 1 61.7505 38.7411 48.9461 0.0000 -24.8861 0.0000
# 2 38.7411 93.0741 53.1149 0.0000 -16.1674 0.0000
# 3 48.9461 53.1149 99.5410 0.0000 -25.4489 0.0000
# 4 0.0000 0.0000 0.0000 25.8203 0.0000 -3.6130
# 5 -24.8861 -16.1674 -25.4489 0.0000 22.3422 0.0000
# 6 0.0000 0.0000 0.0000 -3.6130 0.0000 20.1803
#
#
#
# Elastic Compliance Matrix: (Units=1/GPa)
#
#
# Indices 1 2 3 4 5 6 
#
# 1 0.038068 -0.006276 -0.008028 0.000000 0.028717 0.000000
# 2 -0.006276 0.016584 -0.006324 0.000000 -0.002193 0.000000
# 3 -0.008028 -0.006324 0.019628 0.000000 0.008839 0.000000
# 4 0.000000 0.000000 0.000000 0.039724 0.000000 0.007112
# 5 0.028717 -0.002193 0.008839 0.000000 0.085226 0.000000
# 6 0.000000 0.000000 0.000000 0.007112 0.000000 0.050827
#
#
# Mechanical properties :
#
#
# Convention : Reuss Voigt Hill
#
# Bulk Modulus (GPa) = 30.28071 59.55219 44.91645
# Shear Modulus (GPa) = 16.53865 21.23945 18.88905
#
# Velocity S-wave (km/s) = 3.24385 3.67606 3.46670
# Velocity P-wave (km/s) = 5.77026 7.47713 6.67845
#
# Compressibility (1/GPa) = 0.03302432
#
# Stress axis : x y z
#
# Youngs Moduli (GPa) = 26.26861 60.29737 50.94742
#
# Poissons Ratio (x) = 0.37841 0.40902
# Poissons Ratio (y) = 0.16485 0.32220
# Poissons Ratio (z) = 0.21089 0.38133
#
# Static dielectric constant tensor:
#      x y z
#    x 2.795440 0.000000 0.013930 
#    y 0.000000 3.109940 0.000000 
#    z 0.013930 0.000000 2.974060 
# 
# 
# High freq. dielectric constant tensor:
#      x y z
#    x 1.581490 0.000000 -0.004840 
#    y 0.000000 1.622530 0.000000 
#    z -0.004840 0.000000 1.590790 
# 
# From -- ./inp_files/101034.got.cif
#   From: 2010.06.25/outbox.cif.g09.slc.cpg/sg12_51_cif.got.tgz:101034.got - 2010.06.28 00:19:55.
