data_PCOD8087073
_publ_section_title
;
Structure prediction by ZEFSAII (Michael W. Deem and Ramdas Pophale) SiO2 
 PCOD8087073
Probable space group: C 2/M
;
_chemical_formula_sum "Si O2"
_cell_formula_units_Z 56
_cell_length_a 33.028548
_cell_length_b 9.116623
_cell_length_c 12.421080
_cell_angle_alpha 90.000000
_cell_angle_beta 120.073990
_cell_angle_gamma 90.000000
_cell_volume 3236.601172
_symmetry_space_group_name_H-M "C 2/M"
_symmetry_group_IT_number 12
_symmetry_cell_setting 'monoclinic'
loop_
_space_group_symop_operation_xyz
x,y,z
-x,y,-z
-x,-y,-z
x,-y,z
1/2+x,1/2+y,z
1/2-x,1/2+y,-z
1/2-x,1/2-y,-z
1/2+x,1/2-y,z
loop_
_atom_site_type_symbol
_atom_site_label
_atom_site_fract_x
_atom_site_fract_y
_atom_site_fract_z
Si Si1 0.044388 0.828088 0.852275
Si Si2 0.111244 0.673498 0.524562
Si Si3 0.804554 0.830634 0.457186
Si Si4 0.699307 0.832893 0.328916
Si Si5 0.550874 0.828871 0.239147
Si Si6 0.449724 0.328758 0.387924
Si Si7 0.894042 0.332069 0.903121
O O1 0.052679 0.785730 0.739844
O O2 0.997671 0.755283 0.835562
O O3 0.039120 0.000000 0.860476
O O4 0.088674 0.771261 0.978229
O O5 0.115140 0.500000 0.537176
O O6 0.163011 0.739442 0.580406
O O7 0.079187 0.724450 0.381730
O O8 0.089955 0.735753 0.605884
O O9 0.750824 0.806437 0.348676
O O10 0.811110 0.776133 0.587547
O O11 0.819164 0.000000 0.471831
O O12 0.661518 0.805218 0.184651
O O13 0.694347 0.000000 0.366340
O O14 0.581136 0.789560 0.175401
O O15 0.539666 0.000000 0.231775
O O16 0.500000 0.281297 0.500000
O O17 0.440460 0.500000 0.395884
O O18 0.905028 0.500000 0.948193
#
# Coordination Sequence:
#
# PCOD8087073 Si02
#       7
#     8   8   8   8   8   8   8
#     4  11  23  36  52  76 106 138 178 222 260 311
#     4  11  21  34  55  80 108 138 177 219 258 312
#     4  10  19  31  53  81 109 139 172 215 267 312
#     4   9  18  34  53  77 108 142 176 212 258 316
#     4  10  20  34  52  75 106 144 175 209 256 311
#     4  10  21  38  55  74 104 139 175 221 271 310
#     4  10  20  36  54  74 108 145 176 211 256 312
#
# _framework density 17.302099999999999
#
# number of rings (size 3 to 8) (size 9 to 14) (size 15 to 20)
#    0.000    1.857    2.857    1.714    0.000    5.429 
#    0.000    0.000    0.000    0.857    0.000    0.000 
#    0.000    0.000    0.000    0.000    0.000    0.000 
#
# Total GULP energy -347318.915410 kJ/mol
# GULP energy per Si atom -12404.246979 kJ/mol
# Density = 1.726272 g / cm^3
# Si number density = 17.302100 Si / 1000 Ang^3
#
#
#
# Elastic Constant Matrix: (Units=GPa)
#
#
# Indices 1 2 3 4 5 6 
#
# 1 103.8788 46.5017 46.9266 0.0000 12.4540 0.0000
# 2 46.5017 62.4195 38.7206 0.0000 3.1825 0.0000
# 3 46.9266 38.7206 102.9113 0.0000 8.2833 0.0000
# 4 0.0000 0.0000 0.0000 28.8030 0.0000 -1.0267
# 5 12.4540 3.1825 8.2833 0.0000 24.6393 0.0000
# 6 0.0000 0.0000 0.0000 -1.0267 0.0000 30.3574
#
#
#
# Elastic Compliance Matrix: (Units=1/GPa)
#
#
# Indices 1 2 3 4 5 6 
#
# 1 0.016134 -0.009718 -0.003233 0.000000 -0.005813 0.000000
# 2 -0.009718 0.026752 -0.005911 0.000000 0.003444 0.000000
# 3 -0.003233 -0.005911 0.013590 0.000000 -0.002171 0.000000
# 4 0.000000 0.000000 0.000000 0.034761 0.000000 0.001176
# 5 -0.005813 0.003444 -0.002171 0.000000 0.043809 0.000000
# 6 0.000000 0.000000 0.000000 0.001176 0.000000 0.032981
#
#
# Mechanical properties :
#
#
# Convention : Reuss Voigt Hill
#
# Bulk Modulus (GPa) = 53.32766 59.27862 56.30314
# Shear Modulus (GPa) = 23.58478 25.89730 24.74104
#
# Velocity S-wave (km/s) = 3.69605 3.87301 3.78556
# Velocity P-wave (km/s) = 7.00734 7.37127 7.19160
#
# Compressibility (1/GPa) = 0.01875199
#
# Stress axis : x y z
#
# Youngs Moduli (GPa) = 61.98011 37.38064 73.58295
#
# Poissons Ratio (x) = 0.36327 0.23787
# Poissons Ratio (y) = 0.60233 0.43497
# Poissons Ratio (z) = 0.20036 0.22097
#
# Static dielectric constant tensor:
#      x y z
#    x 3.250090 0.000000 0.146000 
#    y 0.000000 3.244330 0.000000 
#    z 0.146000 0.000000 3.186030 
# 
# 
# High freq. dielectric constant tensor:
#      x y z
#    x 1.665960 0.000000 0.011840 
#    y 0.000000 1.674070 0.000000 
#    z 0.011840 0.000000 1.651790 
# 
# From -- ./inp_files/186383.got.cif
#   From: 2010.06.25/outbox.cif.g09.slc.cpg/sg12_94_cif.got.tgz:186383.got - 2010.06.28 00:19:55.
