data_PCOD8087685
_publ_section_title
;
Structure prediction by ZEFSAII (Michael W. Deem and Ramdas Pophale) SiO2 
 PCOD8087685
Probable space group: C 2/M
;
_chemical_formula_sum "Si O2"
_cell_formula_units_Z 64
_cell_length_a 24.451131
_cell_length_b 9.522231
_cell_length_c 28.089092
_cell_angle_alpha 90.000000
_cell_angle_beta 147.448555
_cell_angle_gamma 90.000000
_cell_volume 3518.871251
_symmetry_space_group_name_H-M "C 2/M"
_symmetry_group_IT_number 12
_symmetry_cell_setting 'monoclinic'
loop_
_space_group_symop_operation_xyz
x,y,z
-x,y,-z
-x,-y,-z
x,-y,z
1/2+x,1/2+y,z
1/2-x,1/2+y,-z
1/2-x,1/2-y,-z
1/2+x,1/2-y,z
loop_
_atom_site_type_symbol
_atom_site_label
_atom_site_fract_x
_atom_site_fract_y
_atom_site_fract_z
Si Si1 0.421741 0.159676 0.402790
Si Si2 0.264674 0.161036 0.616611
Si Si3 0.017733 0.333021 0.066480
Si Si4 0.644857 0.163281 0.872848
Si Si5 0.221969 0.661323 0.264963
Si Si6 0.086713 0.659839 0.449409
Si Si7 0.439159 0.166982 0.675804
Si Si8 0.659275 0.836781 0.993480
O O1 0.500000 0.218157 0.500000
O O2 0.321553 0.251704 0.325438
O O3 0.475295 0.167225 0.390754
O O4 0.391232 0.000000 0.393725
O O5 0.306933 0.175299 0.700872
O O6 0.162558 0.249808 0.536951
O O7 0.349072 0.224200 0.643064
O O8 0.239491 0.000000 0.585628
O O9 0.018373 0.500000 0.068062
O O10 0.126747 0.278153 0.165209
O O11 0.928468 0.279098 0.035845
O O12 0.000000 0.275722 0.000000
O O13 0.546594 0.223391 0.773560
O O14 0.625000 0.188557 0.914126
O O15 0.664944 0.000000 0.876942
O O16 0.739362 0.249564 0.921634
O O17 0.244240 0.500000 0.267888
O O18 0.126625 0.500000 0.477680
O O19 0.079997 0.722927 0.391444
O O20 0.441694 0.000000 0.679677
O O21 0.682295 0.000000 0.020044
#
# Coordination Sequence:
#
# PCOD8087685 Si02
#       8
#     8   8   8   8   8   8   8   8
#     4  10  20  35  52  71 100 135 168 203 247 297
#     4  10  19  32  51  74  99 125 162 207 248 288
#     4   9  18  33  52  75 103 133 165 204 251 299
#     4   9  17  31  51  73  98 128 162 200 243 292
#     4  10  20  33  54  79  99 128 170 210 248 292
#     4  10  20  34  51  70  96 132 167 198 243 297
#     4   9  18  32  50  72  98 129 163 200 244 295
#     4   9  17  31  52  74  98 128 162 200 245 293
#
# _framework density 18.187650000000001
#
# number of rings (size 3 to 8) (size 9 to 14) (size 15 to 20)
#    0.000    2.500    1.250    1.125    0.000    4.750 
#    0.000    1.875    0.000    3.750    0.000    0.000 
#    0.000    0.000    0.000    0.000    0.000    0.000 
#
# Total GULP energy -396838.840247 kJ/mol
# GULP energy per Si atom -12401.213758 kJ/mol
# Density = 1.814625 g / cm^3
# Si number density = 18.187650 Si / 1000 Ang^3
#
#
#
# Elastic Constant Matrix: (Units=GPa)
#
#
# Indices 1 2 3 4 5 6 
#
# 1 112.1431 33.2644 64.1862 0.0000 8.1754 0.0000
# 2 33.2644 46.4299 44.4904 -0.0001 7.2016 0.0002
# 3 64.1862 44.4904 130.7942 0.0000 7.0427 0.0000
# 4 0.0000 -0.0001 0.0000 23.8297 0.0000 5.7053
# 5 8.1754 7.2016 7.0427 0.0000 30.4806 0.0000
# 6 0.0000 0.0002 0.0000 5.7053 0.0000 21.5251
#
#
#
# Elastic Compliance Matrix: (Units=1/GPa)
#
#
# Indices 1 2 3 4 5 6 
#
# 1 0.013129 -0.004592 -0.004809 0.000000 -0.001325 0.000000
# 2 -0.004592 0.034362 -0.009178 0.000000 -0.004766 0.000000
# 3 -0.004809 -0.009178 0.013105 0.000000 0.000431 0.000000
# 4 0.000000 0.000000 0.000000 0.044808 0.000000 -0.011877
# 5 -0.001325 -0.004766 0.000431 0.000000 0.034190 0.000000
# 6 0.000000 0.000000 0.000000 -0.011877 0.000000 0.049605
#
#
# Mechanical properties :
#
#
# Convention : Reuss Voigt Hill
#
# Bulk Modulus (GPa) = 42.66960 63.69436 53.18198
# Shear Modulus (GPa) = 21.35208 24.99549 23.17378
#
# Velocity S-wave (km/s) = 3.43007 3.71119 3.57340
# Velocity P-wave (km/s) = 6.26090 7.31168 6.80659
#
# Compressibility (1/GPa) = 0.02343589
#
# Stress axis : x y z
#
# Youngs Moduli (GPa) = 76.16984 29.10209 76.30852
#
# Poissons Ratio (x) = 0.13363 0.36700
# Poissons Ratio (y) = 0.34975 0.70039
# Poissons Ratio (z) = 0.36634 0.26711
#
# Static dielectric constant tensor:
#      x y z
#    x 3.493210 0.000000 -0.049360 
#    y 0.000000 3.055040 0.000000 
#    z -0.049360 0.000000 3.379070 
# 
# 
# High freq. dielectric constant tensor:
#      x y z
#    x 1.714610 0.000000 0.001030 
#    y 0.000000 1.670080 0.000000 
#    z 0.001030 0.000000 1.706140 
# 
# From -- ./inp_files/382457.got.cif
#   From: 2010.06.25/outbox.cif.g09.slc.cpg/sg12_192_cif.got.tgz:382457.got - 2010.06.28 00:19:55.
