data_PCOD8087612
_publ_section_title
;
Structure prediction by ZEFSAII (Michael W. Deem and Ramdas Pophale) SiO2 
 PCOD8087612
Probable space group: C 2/M
;
_chemical_formula_sum "Si O2"
_cell_formula_units_Z 64
_cell_length_a 20.204722
_cell_length_b 9.078602
_cell_length_c 19.600945
_cell_angle_alpha 90.000000
_cell_angle_beta 75.340235
_cell_angle_gamma 90.000000
_cell_volume 3478.367547
_symmetry_space_group_name_H-M "C 2/M"
_symmetry_group_IT_number 12
_symmetry_cell_setting 'monoclinic'
loop_
_space_group_symop_operation_xyz
x,y,z
-x,y,-z
-x,-y,-z
x,-y,z
1/2+x,1/2+y,z
1/2-x,1/2+y,-z
1/2-x,1/2-y,-z
1/2+x,1/2-y,z
loop_
_atom_site_type_symbol
_atom_site_label
_atom_site_fract_x
_atom_site_fract_y
_atom_site_fract_z
Si Si1 0.291064 0.325799 0.840953
Si Si2 0.149284 0.674692 0.939708
Si Si3 0.775865 0.174961 0.690271
Si Si4 0.554701 0.824996 0.844204
Si Si5 0.873099 0.674939 0.311468
Si Si6 0.600019 0.175045 0.098607
Si Si7 0.944532 0.174216 0.419059
Si Si8 0.907391 0.174503 0.578348
O O1 0.302275 0.500000 0.840974
O O2 0.226440 0.275926 0.903259
O O3 0.278854 0.270404 0.767282
O O4 0.357915 0.245741 0.851086
O O5 0.142975 0.500000 0.940421
O O6 0.098595 0.740439 0.895549
O O7 0.128094 0.736006 0.019146
O O8 0.705387 0.229147 0.674407
O O9 0.840204 0.242650 0.631957
O O10 0.778553 0.000000 0.688390
O O11 0.585472 0.766773 0.765106
O O12 0.477398 0.769940 0.872431
O O13 0.558957 0.000000 0.844824
O O14 0.877354 0.500000 0.315805
O O15 0.905481 0.743949 0.369718
O O16 0.605808 0.000000 0.101421
O O17 0.910006 0.225521 0.499092
O O18 0.024155 0.224161 0.399244
O O19 0.938009 0.000000 0.410340
O O20 0.904409 0.000000 0.580911
#
# Coordination Sequence:
#
# PCOD8087612 Si02
#       8
#     8   8   8   8   8   8   8   8
#     4  10  19  32  51  73  97 126 163 202 236 283
#     4   9  16  31  52  71  93 127 168 200 231 282
#     4   9  17  31  51  71  94 130 168 196 229 283
#     4   9  17  31  49  71  97 127 164 200 235 282
#     4  10  19  32  51  73  98 127 161 201 240 279
#     4  10  20  31  49  74  98 125 159 202 247 285
#     4   9  18  33  53  75  99 125 158 198 237 283
#     4   8  16  32  52  73  97 129 163 192 229 285
#
# _framework density 18.399436999999999
#
# number of rings (size 3 to 8) (size 9 to 14) (size 15 to 20)
#    0.000    2.750    1.250    1.500    1.750    2.000 
#    0.000    1.875    0.000    4.500    0.000    0.000 
#    0.000    0.000    0.000    0.000    0.000    0.000 
#
# Total GULP energy -396743.055908 kJ/mol
# GULP energy per Si atom -12398.220497 kJ/mol
# Density = 1.835756 g / cm^3
# Si number density = 18.399437 Si / 1000 Ang^3
#
#
#
# Elastic Constant Matrix: (Units=GPa)
#
#
# Indices 1 2 3 4 5 6 
#
# 1 146.3490 22.1726 77.3503 0.0000 -2.4754 0.0000
# 2 22.1726 15.8793 20.1828 0.0000 4.0416 0.0000
# 3 77.3503 20.1828 133.1359 0.0000 5.6949 0.0000
# 4 0.0000 0.0000 0.0000 23.1094 0.0000 9.4619
# 5 -2.4754 4.0416 5.6949 0.0000 43.7153 0.0000
# 6 0.0000 0.0000 0.0000 9.4619 0.0000 17.9895
#
#
#
# Elastic Compliance Matrix: (Units=1/GPa)
#
#
# Indices 1 2 3 4 5 6 
#
# 1 0.010958 -0.009463 -0.005024 0.000000 0.002150 0.000000
# 2 -0.009463 0.087617 -0.007457 0.000000 -0.007665 0.000000
# 3 -0.005024 -0.007457 0.011608 0.000000 -0.001107 0.000000
# 4 0.000000 0.000000 0.000000 0.055149 0.000000 -0.029006
# 5 0.002150 -0.007665 -0.001107 0.000000 0.023850 0.000000
# 6 0.000000 0.000000 0.000000 -0.029006 0.000000 0.070844
#
#
# Mechanical properties :
#
#
# Convention : Reuss Voigt Hill
#
# Bulk Modulus (GPa) = 15.08393 59.41952 37.25172
# Shear Modulus (GPa) = 15.33685 28.67340 22.00512
#
# Velocity S-wave (km/s) = 2.89026 3.95192 3.46203
# Velocity P-wave (km/s) = 4.39931 7.29300 6.02253
#
# Compressibility (1/GPa) = 0.06629574
#
# Stress axis : x y z
#
# Youngs Moduli (GPa) = 91.25378 11.41332 86.14862
#
# Poissons Ratio (x) = 0.10800 0.43282
# Poissons Ratio (y) = 0.86353 0.64238
# Poissons Ratio (z) = 0.45847 0.08511
#
# Static dielectric constant tensor:
#      x y z
#    x 3.715340 0.000000 -0.192720 
#    y 0.000000 2.768470 0.000000 
#    z -0.192720 0.000000 3.586130 
# 
# 
# High freq. dielectric constant tensor:
#      x y z
#    x 1.730300 0.000000 -0.001150 
#    y 0.000000 1.650730 0.000000 
#    z -0.001150 0.000000 1.725430 
# 
# From -- ./inp_files/276577.got.cif
#   From: 2010.06.25/outbox.cif.g09.slc.cpg/sg12_139_cif.got.tgz:276577.got - 2010.06.28 00:19:55.
