data_PCOD8087780
_publ_section_title
;
Structure prediction by ZEFSAII (Michael W. Deem and Ramdas Pophale) SiO2 
 PCOD8087780
Probable space group: C 2/M
;
_chemical_formula_sum "Si O2"
_cell_formula_units_Z 64
_cell_length_a 15.537794
_cell_length_b 8.924449
_cell_length_c 28.658751
_cell_angle_alpha 90.000000
_cell_angle_beta 57.180838
_cell_angle_gamma 90.000000
_cell_volume 3339.692820
_symmetry_space_group_name_H-M "C 2/M"
_symmetry_group_IT_number 12
_symmetry_cell_setting 'monoclinic'
loop_
_space_group_symop_operation_xyz
x,y,z
-x,y,-z
-x,-y,-z
x,-y,z
1/2+x,1/2+y,z
1/2-x,1/2+y,-z
1/2-x,1/2-y,-z
1/2+x,1/2-y,z
loop_
_atom_site_type_symbol
_atom_site_label
_atom_site_fract_x
_atom_site_fract_y
_atom_site_fract_z
Si Si1 0.333378 0.321416 0.941698
Si Si2 0.884075 0.322395 0.741100
Si Si3 0.333883 0.824986 0.443489
Si Si4 0.885108 0.677528 0.326551
Si Si5 0.529629 0.823128 0.441433
Si Si6 0.787479 0.678158 0.674039
Si Si7 0.970324 0.822774 0.059191
Si Si8 0.261942 0.177969 0.867993
O O1 0.321390 0.500000 0.945963
O O2 0.446805 0.271659 0.926256
O O3 0.316429 0.259441 0.895013
O O4 0.250000 0.250000 0.000000
O O5 0.888128 0.500000 0.736613
O O6 0.827703 0.259916 0.711683
O O7 0.822426 0.269206 0.804492
O O8 0.999480 0.259325 0.709275
O O9 0.250000 0.750000 0.500000
O O10 0.329790 0.773119 0.391019
O O11 0.445087 0.777441 0.428765
O O12 0.316569 0.000000 0.453328
O O13 0.884764 0.500000 0.321107
O O14 0.823796 0.751903 0.302072
O O15 0.500000 0.748983 0.500000
O O16 0.637271 0.764461 0.389502
O O17 0.536350 0.000000 0.445571
O O18 0.779536 0.500000 0.677047
O O19 0.855446 0.768122 0.104871
O O20 0.971806 0.000000 0.055556
O O21 0.000000 0.754518 0.000000
O O22 0.267780 0.000000 0.874491
#
# Coordination Sequence:
#
# PCOD8087780 Si02
#       8
#     8   8   8   8   8   8   8   8
#     4  11  21  35  57  85 117 149 184 227 275 324
#     4   9  19  37  59  79 106 147 189 222 266 335
#     4  10  19  32  51  76 108 140 176 224 277 332
#     4  10  20  36  55  79 111 144 175 225 288 329
#     4   9  16  28  49  75 102 133 175 223 266 318
#     4  10  19  35  58  81 103 140 191 227 261 327
#     4   9  17  32  54  79 109 144 178 216 266 318
#     4  10  20  37  59  81 108 147 189 226 270 327
#
# _framework density 19.163439
#
# number of rings (size 3 to 8) (size 9 to 14) (size 15 to 20)
#    0.000    2.250    2.500    1.125    0.000    2.500 
#    0.000    5.625    0.000    2.250    0.000    0.000 
#    0.000    0.000    0.000    0.000    0.000    0.000 
#
# Total GULP energy -396713.585900 kJ/mol
# GULP energy per Si atom -12397.299559 kJ/mol
# Density = 1.911982 g / cm^3
# Si number density = 19.163439 Si / 1000 Ang^3
#
#
#
# Elastic Constant Matrix: (Units=GPa)
#
#
# Indices 1 2 3 4 5 6 
#
# 1 184.7446 35.1160 92.7069 0.0000 2.5647 0.0000
# 2 35.1160 28.8801 30.4108 0.0000 0.8745 0.0000
# 3 92.7069 30.4108 150.0684 0.0000 0.4526 0.0000
# 4 0.0000 0.0000 0.0000 18.6850 0.0000 4.3789
# 5 2.5647 0.8745 0.4526 0.0000 33.3455 0.0000
# 6 0.0000 0.0000 0.0000 4.3789 0.0000 28.0257
#
#
#
# Elastic Compliance Matrix: (Units=1/GPa)
#
#
# Indices 1 2 3 4 5 6 
#
# 1 0.008647 -0.006200 -0.004084 0.000000 -0.000447 0.000000
# 2 -0.006200 0.048500 -0.005996 0.000000 -0.000714 0.000000
# 3 -0.004084 -0.005996 0.010401 0.000000 0.000330 0.000000
# 4 0.000000 0.000000 0.000000 0.055553 0.000000 -0.008680
# 5 -0.000447 -0.000714 0.000330 0.000000 0.030038 0.000000
# 6 0.000000 0.000000 0.000000 -0.008680 0.000000 0.037038
#
#
# Mechanical properties :
#
#
# Convention : Reuss Voigt Hill
#
# Bulk Modulus (GPa) = 28.58160 75.57339 52.07750
# Shear Modulus (GPa) = 21.33113 29.70852 25.51982
#
# Velocity S-wave (km/s) = 3.33996 3.94162 3.65320
# Velocity P-wave (km/s) = 5.46084 7.76125 6.71036
#
# Compressibility (1/GPa) = 0.03498754
#
# Stress axis : x y z
#
# Youngs Moduli (GPa) = 115.64711 20.61848 96.14742
#
# Poissons Ratio (x) = 0.12784 0.39267
# Poissons Ratio (y) = 0.71702 0.57651
# Poissons Ratio (z) = 0.47231 0.12363
#
# Static dielectric constant tensor:
#      x y z
#    x 3.817650 0.000000 0.013250 
#    y 0.000000 3.064580 0.000000 
#    z 0.013250 0.000000 3.689400 
# 
# 
# High freq. dielectric constant tensor:
#      x y z
#    x 1.763410 0.000000 0.000230 
#    y 0.000000 1.697080 0.000000 
#    z 0.000230 0.000000 1.749010 
# 
# From -- ./inp_files/374999.got.cif
#   From: 2010.06.25/outbox.cif.g09.slc.cpg/sg12_188_cif.got.tgz:374999.got - 2010.06.28 00:19:55.
