data_PCOD8087215
_publ_section_title
;
Structure prediction by ZEFSAII (Michael W. Deem and Ramdas Pophale) SiO2 
 PCOD8087215
Probable space group: C 2/M
;
_chemical_formula_sum "Si O2"
_cell_formula_units_Z 56
_cell_length_a 15.153154
_cell_length_b 20.909681
_cell_length_c 15.188349
_cell_angle_alpha 90.000000
_cell_angle_beta 36.117311
_cell_angle_gamma 90.000000
_cell_volume 2836.618618
_symmetry_space_group_name_H-M "C 2/M"
_symmetry_group_IT_number 12
_symmetry_cell_setting 'monoclinic'
loop_
_space_group_symop_operation_xyz
x,y,z
-x,y,-z
-x,-y,-z
x,-y,z
1/2+x,1/2+y,z
1/2-x,1/2+y,-z
1/2-x,1/2-y,-z
1/2+x,1/2-y,z
loop_
_atom_site_type_symbol
_atom_site_label
_atom_site_fract_x
_atom_site_fract_y
_atom_site_fract_z
Si Si1 0.870948 0.638001 0.038815
Si Si2 0.936584 0.215098 0.956088
Si Si3 0.084540 0.270438 0.612065
Si Si4 0.890250 0.188537 0.664333
Si Si5 0.144565 0.364748 0.140242
Si Si6 0.746505 0.807429 0.320755
Si Si7 0.642288 0.929163 0.321914
O O1 0.718551 0.630936 0.218487
O O2 0.884901 0.712044 0.000154
O O3 0.858978 0.601373 0.954119
O O4 0.000000 0.612189 0.000000
O O5 0.086729 0.207577 0.772372
O O6 0.802862 0.170706 0.028801
O O7 0.000000 0.192322 0.000000
O O8 0.250000 0.250000 0.500000
O O9 0.110023 0.310265 0.500257
O O10 0.987879 0.207505 0.670253
O O11 0.994459 0.314606 0.752069
O O12 0.790528 0.250560 0.718262
O O13 0.000000 0.162956 0.500000
O O14 0.108467 0.415922 0.245576
O O15 0.757429 0.875114 0.261744
O O16 0.500000 0.926962 0.500000
O O17 0.714921 0.000000 0.269303
#
# Coordination Sequence:
#
# PCOD8087215 Si02
#       7
#     8   8   8   8   8   8   8
#     4  11  21  34  50  76 110 149 182 220 274 328
#     4  11  18  30  52  77 113 149 174 215 279 337
#     4  11  21  29  49  74 107 148 186 216 257 330
#     4  10  19  32  47  68 111 145 177 214 264 329
#     4  12  22  35  52  79 111 144 190 232 269 331
#     4  11  18  35  50  76 112 145 183 224 269 330
#     4  11  21  38  60  80 107 148 188 235 282 326
#
# _framework density 19.741814000000002
#
# number of rings (size 3 to 8) (size 9 to 14) (size 15 to 20)
#    0.000    1.000    8.571    1.714    4.000    0.000 
#    0.000    1.429    0.000    0.429    0.000    0.000 
#    0.000    0.571    0.000    0.429    0.000    0.000 
#
# Total GULP energy -346915.691039 kJ/mol
# GULP energy per Si atom -12389.846109 kJ/mol
# Density = 1.969688 g / cm^3
# Si number density = 19.741814 Si / 1000 Ang^3
#
#
#
# Elastic Constant Matrix: (Units=GPa)
#
#
# Indices 1 2 3 4 5 6 
#
# 1 94.9578 5.0758 22.2620 -0.0036 -6.5793 0.0051
# 2 5.0758 22.2344 12.1332 -0.0047 1.1229 0.0030
# 3 22.2620 12.1332 110.5367 -0.0078 -7.5795 0.0059
# 4 -0.0036 -0.0047 -0.0078 7.7792 0.0030 -0.8341
# 5 -6.5793 1.1229 -7.5795 0.0030 39.6311 -0.0031
# 6 0.0051 0.0030 0.0059 -0.8341 -0.0031 8.3835
#
#
#
# Elastic Compliance Matrix: (Units=1/GPa)
#
#
# Indices 1 2 3 4 5 6 
#
# 1 0.011183 -0.001551 -0.001978 0.000001 0.001522 -0.000004
# 2 -0.001551 0.048281 -0.005167 0.000023 -0.002613 -0.000011
# 3 -0.001978 -0.005167 0.010133 0.000005 0.001756 -0.000003
# 4 0.000001 0.000023 0.000005 0.129933 -0.000008 0.012927
# 5 0.001522 -0.002613 0.001756 -0.000008 0.025895 0.000008
# 6 -0.000004 -0.000011 -0.000003 0.012927 0.000008 0.120568
#
#
# Mechanical properties :
#
#
# Convention : Reuss Voigt Hill
#
# Bulk Modulus (GPa) = 19.15462 34.07456 26.61459
# Shear Modulus (GPa) = 13.13080 23.70930 18.42005
#
# Velocity S-wave (km/s) = 2.58180 3.46926 3.05790
# Velocity P-wave (km/s) = 4.31407 5.77453 5.09688
#
# Compressibility (1/GPa) = 0.05220673
#
# Stress axis : x y z
#
# Youngs Moduli (GPa) = 89.42147 20.71220 98.69148
#
# Poissons Ratio (x) = 0.03212 0.19518
# Poissons Ratio (y) = 0.13866 0.50989
# Poissons Ratio (z) = 0.17685 0.10701
#
# Static dielectric constant tensor:
#      x y z
#    x 3.823380 -0.000010 0.354750 
#    y -0.000010 3.048980 0.000010 
#    z 0.354750 0.000010 4.666380 
# 
# 
# High freq. dielectric constant tensor:
#      x y z
#    x 1.774740 0.000000 0.006890 
#    y 0.000000 1.679190 0.000000 
#    z 0.006890 0.000000 1.807260 
# 
# From -- ./inp_files/218260.got.cif
#   From: 2010.06.25/outbox.cif.g09.slc.cpg/sg12_110_cif.got.tgz:218260.got - 2010.06.28 00:19:55.
