data_PCOD8087831
_publ_section_title
;
Structure prediction by ZEFSAII (Michael W. Deem and Ramdas Pophale) SiO2 
 PCOD8087831
Probable space group: C 2/M
;
_chemical_formula_sum "Si O2"
_cell_formula_units_Z 64
_cell_length_a 33.496100
_cell_length_b 9.075473
_cell_length_c 15.459695
_cell_angle_alpha 90.000000
_cell_angle_beta 134.130196
_cell_angle_gamma 90.000000
_cell_volume 3373.209752
_symmetry_space_group_name_H-M "C 2/M"
_symmetry_group_IT_number 12
_symmetry_cell_setting 'monoclinic'
loop_
_space_group_symop_operation_xyz
x,y,z
-x,y,-z
-x,-y,-z
x,-y,z
1/2+x,1/2+y,z
1/2-x,1/2+y,-z
1/2-x,1/2-y,-z
1/2+x,1/2-y,z
loop_
_atom_site_type_symbol
_atom_site_label
_atom_site_fract_x
_atom_site_fract_y
_atom_site_fract_z
Si Si1 0.865640 0.169279 0.668424
Si Si2 0.025217 0.668127 0.406479
Si Si3 0.484150 0.329729 0.784466
Si Si4 0.896200 0.334191 0.217200
Si Si5 0.880614 0.174617 0.358067
Si Si6 0.192963 0.174639 0.594351
Si Si7 0.095553 0.674316 0.964980
Si Si8 0.682763 0.174391 0.239887
O O1 0.841500 0.229409 0.540989
O O2 0.839601 0.264962 0.704323
O O3 0.932528 0.185618 0.772512
O O4 0.848022 0.000000 0.655333
O O5 0.046178 0.500000 0.430378
O O6 0.060026 0.753918 0.530999
O O7 0.034637 0.749319 0.330519
O O8 0.961274 0.671939 0.337369
O O9 0.496729 0.500000 0.782639
O O10 0.538705 0.254841 0.907886
O O11 0.873299 0.500000 0.192169
O O12 0.863445 0.231068 0.236187
O O13 0.886339 0.276960 0.104385
O O14 0.835732 0.231419 0.360720
O O15 0.885889 0.000000 0.365455
O O16 0.255630 0.237267 0.684922
O O17 0.193499 0.000000 0.596889
O O18 0.084023 0.500000 0.949646
O O19 0.143600 0.725753 0.102215
O O20 0.683497 0.000000 0.248007
#
# Coordination Sequence:
#
# PCOD8087831 Si02
#       8
#     8   8   8   8   8   8   8   8
#     4  10  20  36  56  81 113 139 170 223 279 325
#     4  10  19  32  51  77 112 146 176 215 266 319
#     4  10  19  33  55  81 112 146 175 214 271 324
#     4   9  19  34  50  73 107 142 175 218 269 317
#     4  11  20  32  52  79 109 141 179 220 265 322
#     4   9  19  37  56  78 111 142 176 222 272 320
#     4   9  20  38  56  77 109 144 182 225 266 312
#     4  10  21  38  60  79 100 143 190 225 265 317
#
# _framework density 18.973027999999999
#
# number of rings (size 3 to 8) (size 9 to 14) (size 15 to 20)
#    0.000    2.250    1.250    2.625    0.000    6.000 
#    0.000    4.375    0.000    0.000    0.000    0.000 
#    0.000    0.000    0.000    0.000    0.000    0.000 
#
# Total GULP energy -396786.525669 kJ/mol
# GULP energy per Si atom -12399.578927 kJ/mol
# Density = 1.892984 g / cm^3
# Si number density = 18.973028 Si / 1000 Ang^3
#
#
#
# Elastic Constant Matrix: (Units=GPa)
#
#
# Indices 1 2 3 4 5 6 
#
# 1 117.1429 33.3180 63.2552 0.0000 -12.0050 0.0000
# 2 33.3180 55.0694 25.8649 0.0000 3.3735 0.0000
# 3 63.2552 25.8649 105.4788 0.0000 9.1820 0.0000
# 4 0.0000 0.0000 0.0000 21.9851 0.0000 -6.1306
# 5 -12.0050 3.3735 9.1820 0.0000 12.9468 0.0000
# 6 0.0000 0.0000 0.0000 -6.1306 0.0000 31.6393
#
#
#
# Elastic Compliance Matrix: (Units=1/GPa)
#
#
# Indices 1 2 3 4 5 6 
#
# 1 0.021642 -0.008646 -0.013644 0.000000 0.031998 0.000000
# 2 -0.008646 0.024020 0.000573 0.000000 -0.014682 0.000000
# 3 -0.013644 0.000573 0.019863 0.000000 -0.026888 0.000000
# 4 0.000000 0.000000 0.000000 0.048083 0.000000 0.009317
# 5 0.031998 -0.014682 -0.026888 0.000000 0.129804 0.000000
# 6 0.000000 0.000000 0.000000 0.009317 0.000000 0.033412
#
#
# Mechanical properties :
#
#
# Convention : Reuss Voigt Hill
#
# Bulk Modulus (GPa) = 45.26658 58.06303 51.66481
# Shear Modulus (GPa) = 15.26145 23.66444 19.46294
#
# Velocity S-wave (km/s) = 2.83923 3.53550 3.20632
# Velocity P-wave (km/s) = 5.88714 6.88010 6.40290
#
# Compressibility (1/GPa) = 0.02209135
#
# Stress axis : x y z
#
# Youngs Moduli (GPa) = 46.20538 41.63165 50.34460
#
# Poissons Ratio (x) = 0.35994 0.68691
# Poissons Ratio (y) = 0.39949 -0.02884
# Poissons Ratio (z) = 0.63044 -0.02385
#
# Static dielectric constant tensor:
#      x y z
#    x 3.523080 0.000000 0.020430 
#    y 0.000000 3.355040 0.000000 
#    z 0.020430 0.000000 3.549400 
# 
# 
# High freq. dielectric constant tensor:
#      x y z
#    x 1.737590 0.000000 -0.008950 
#    y 0.000000 1.724950 0.000000 
#    z -0.008950 0.000000 1.726820 
# 
# From -- ./inp_files/250071.got.cif
#   From: 2010.06.25/outbox.cif.g09.slc.cpg/sg12_126_cif.got.tgz:250071.got - 2010.06.28 00:19:55.
