data_PCOD8087602
_publ_section_title
;
Structure prediction by ZEFSAII (Michael W. Deem and Ramdas Pophale) SiO2 
 PCOD8087602
Probable space group: C 2/M
;
_chemical_formula_sum "Si O2"
_cell_formula_units_Z 64
_cell_length_a 20.412836
_cell_length_b 9.275006
_cell_length_c 28.466096
_cell_angle_alpha 90.000000
_cell_angle_beta 43.677985
_cell_angle_gamma 90.000000
_cell_volume 3721.987447
_symmetry_space_group_name_H-M "C 2/M"
_symmetry_group_IT_number 12
_symmetry_cell_setting 'monoclinic'
loop_
_space_group_symop_operation_xyz
x,y,z
-x,y,-z
-x,-y,-z
x,-y,z
1/2+x,1/2+y,z
1/2-x,1/2+y,-z
1/2-x,1/2-y,-z
1/2+x,1/2-y,z
loop_
_atom_site_type_symbol
_atom_site_label
_atom_site_fract_x
_atom_site_fract_y
_atom_site_fract_z
Si Si1 0.672737 0.164346 0.068396
Si Si2 0.967075 0.666014 0.715585
Si Si3 0.774125 0.664825 0.851519
Si Si4 0.087111 0.670886 0.922237
Si Si5 0.878068 0.334760 0.431175
Si Si6 0.127527 0.670454 0.704117
Si Si7 0.753643 0.165882 0.423533
Si Si8 0.965155 0.671161 0.153682
O O1 0.690827 0.177482 0.113783
O O2 0.569931 0.231976 0.109892
O O3 0.677518 0.000000 0.048766
O O4 0.750000 0.250000 0.000000
O O5 0.952595 0.500000 0.736355
O O6 0.860932 0.731192 0.774874
O O7 0.010538 0.688418 0.640322
O O8 0.041473 0.726758 0.715587
O O9 0.748738 0.500000 0.851340
O O10 0.682635 0.761880 0.892315
O O11 0.097879 0.500000 0.917838
O O12 0.070362 0.728850 0.878099
O O13 0.000000 0.721364 0.000000
O O14 0.850137 0.500000 0.431003
O O15 0.820606 0.219211 0.430809
O O16 0.854010 0.313393 0.499337
O O17 0.140588 0.500000 0.693875
O O18 0.225434 0.743730 0.634735
O O19 0.107258 0.721987 0.767858
O O20 0.774513 0.000000 0.401355
O O21 0.970397 0.500000 0.151391
#
# Coordination Sequence:
#
# PCOD8087602 Si02
#       8
#     8   8   8   8   8   8   8   8
#     4  10  19  32  51  73  93 118 154 195 236 281
#     4   8  13  25  45  66  87 117 155 189 221 268
#     4  10  19  32  51  73  95 120 154 196 237 278
#     4  10  21  36  52  70  94 124 157 195 238 285
#     4   8  14  24  39  58  87 127 160 181 217 277
#     4   9  15  27  46  64  86 122 161 191 223 274
#     4   9  15  22  35  62  95 121 148 189 233 269
#     4   9  17  32  52  69  89 124 165 193 223 283
#
# _framework density 17.195115000000001
#
# number of rings (size 3 to 8) (size 9 to 14) (size 15 to 20)
#    0.000    2.875    1.250    1.875    0.000    2.250 
#    0.000    4.375    0.000    0.000    0.000    0.875 
#    0.000    7.000    0.000    0.000    0.000    0.000 
#
# Total GULP energy -396437.691987 kJ/mol
# GULP energy per Si atom -12388.677875 kJ/mol
# Density = 1.715598 g / cm^3
# Si number density = 17.195115 Si / 1000 Ang^3
#
#
#
# Elastic Constant Matrix: (Units=GPa)
#
#
# Indices 1 2 3 4 5 6 
#
# 1 38.9338 11.9848 18.1357 -0.0001 -3.7632 -0.0005
# 2 11.9848 37.3574 35.5920 -0.0002 -2.4206 -0.0004
# 3 18.1357 35.5920 158.7712 0.0001 -6.9026 -0.0001
# 4 -0.0001 -0.0002 0.0001 26.1192 0.0000 -0.4323
# 5 -3.7632 -2.4206 -6.9026 0.0000 21.3992 -0.0001
# 6 -0.0005 -0.0004 -0.0001 -0.4323 -0.0001 15.6131
#
#
#
# Elastic Compliance Matrix: (Units=1/GPa)
#
#
# Indices 1 2 3 4 5 6 
#
# 1 0.029094 -0.007730 -0.001426 0.000000 0.003782 0.000001
# 2 -0.007730 0.036134 -0.007200 0.000000 0.000406 0.000001
# 3 -0.001426 -0.007200 0.008143 0.000000 0.001562 0.000000
# 4 0.000000 0.000000 0.000000 0.038304 0.000000 0.001061
# 5 0.003782 0.000406 0.001562 0.000000 0.047945 0.000000
# 6 0.000001 0.000001 0.000000 0.001061 0.000000 0.064078
#
#
# Mechanical properties :
#
#
# Convention : Reuss Voigt Hill
#
# Bulk Modulus (GPa) = 24.59439 40.72082 32.65761
# Shear Modulus (GPa) = 18.52107 23.91630 21.21868
#
# Velocity S-wave (km/s) = 3.28550 3.73349 3.51664
# Velocity P-wave (km/s) = 5.35974 6.50525 5.96008
#
# Compressibility (1/GPa) = 0.04065968
#
# Stress axis : x y z
#
# Youngs Moduli (GPa) = 34.37138 27.67471 122.80348
#
# Poissons Ratio (x) = 0.21393 0.17511
# Poissons Ratio (y) = 0.26570 0.88414
# Poissons Ratio (z) = 0.04901 0.19925
#
# Static dielectric constant tensor:
#      x y z
#    x 2.871440 0.000000 0.007190 
#    y 0.000000 3.080820 0.000000 
#    z 0.007190 0.000000 4.019310 
# 
# 
# High freq. dielectric constant tensor:
#      x y z
#    x 1.607270 0.000000 -0.004600 
#    y 0.000000 1.636770 0.000000 
#    z -0.004600 0.000000 1.696370 
# 
# From -- ./inp_files/365201.got.cif
#   From: 2010.06.25/outbox.cif.g09.slc.cpg/sg12_183_cif.got.tgz:365201.got - 2010.06.28 00:19:55.
