data_PCOD8087775
_publ_section_title
;
Structure prediction by ZEFSAII (Michael W. Deem and Ramdas Pophale) SiO2 
 PCOD8087775
Probable space group: C 2/M
;
_chemical_formula_sum "Si O2"
_cell_formula_units_Z 56
_cell_length_a 17.719478
_cell_length_b 11.159596
_cell_length_c 19.160809
_cell_angle_alpha 90.000000
_cell_angle_beta 133.257490
_cell_angle_gamma 90.000000
_cell_volume 2759.385973
_symmetry_space_group_name_H-M "C 2/M"
_symmetry_group_IT_number 12
_symmetry_cell_setting 'monoclinic'
loop_
_space_group_symop_operation_xyz
x,y,z
-x,y,-z
-x,-y,-z
x,-y,z
1/2+x,1/2+y,z
1/2-x,1/2+y,-z
1/2-x,1/2-y,-z
1/2+x,1/2-y,z
loop_
_atom_site_type_symbol
_atom_site_label
_atom_site_fract_x
_atom_site_fract_y
_atom_site_fract_z
Si Si1 0.583375 0.257895 0.759350
Si Si2 0.888555 0.134118 0.582981
Si Si3 0.029374 0.634322 0.857555
Si Si4 0.209789 0.366482 0.071608
Si Si5 0.910825 0.777916 0.895073
Si Si6 0.799222 0.367547 0.285277
Si Si7 0.687359 0.861433 0.546042
O O1 0.500327 0.361998 0.691252
O O2 0.527959 0.159575 0.773657
O O3 0.681859 0.298636 0.866826
O O4 0.622873 0.212207 0.709879
O O5 0.801010 0.145266 0.585858
O O6 0.882547 0.253122 0.529902
O O7 0.879266 0.000000 0.541072
O O8 0.987472 0.500000 0.842868
O O9 0.955465 0.726148 0.851286
O O10 0.146972 0.646885 0.959935
O O11 0.242111 0.500000 0.108725
O O12 0.137042 0.328602 0.089644
O O13 0.819070 0.868729 0.817737
O O14 0.000000 0.840639 0.000000
O O15 0.843027 0.500000 0.306017
O O16 0.803270 0.325488 0.367457
O O17 0.643606 0.000000 0.508355
#
# Coordination Sequence:
#
# PCOD8087775 Si02
#       7
#     8   8   8   8   8   8   8
#     4  11  21  33  52  80 111 142 177 220 271 328
#     4  10  21  39  62  86 109 136 180 233 278 324
#     4  10  19  32  51  76 107 143 185 228 268 317
#     4   9  18  33  51  73 106 145 181 222 271 320
#     4   9  18  33  54  78 104 139 184 228 268 314
#     4  10  21  37  54  77 111 146 179 217 268 329
#     4   9  20  40  62  81 107 144 182 224 274 329
#
# _framework density 20.294371000000002
#
# number of rings (size 3 to 8) (size 9 to 14) (size 15 to 20)
#    0.000    2.286    0.000    2.571    0.000    3.714 
#    0.000   10.000    0.000    0.857    0.000    0.000 
#    0.000    0.000    0.000    0.000    0.000    0.000 
#
# Total GULP energy -346922.028810 kJ/mol
# GULP energy per Si atom -12390.072457 kJ/mol
# Density = 2.024818 g / cm^3
# Si number density = 20.294371 Si / 1000 Ang^3
#
#
#
# Elastic Constant Matrix: (Units=GPa)
#
#
# Indices 1 2 3 4 5 6 
#
# 1 65.7111 23.8555 38.2087 0.0000 -3.6111 0.0000
# 2 23.8555 95.3014 34.8633 0.0000 -7.9080 0.0000
# 3 38.2087 34.8633 68.4400 0.0000 -8.8259 0.0000
# 4 0.0000 0.0000 0.0000 27.0356 0.0000 -0.7486
# 5 -3.6111 -7.9080 -8.8259 0.0000 36.7020 0.0000
# 6 0.0000 0.0000 0.0000 -0.7486 0.0000 12.7552
#
#
#
# Elastic Compliance Matrix: (Units=1/GPa)
#
#
# Indices 1 2 3 4 5 6 
#
# 1 0.022693 -0.001328 -0.012117 0.000000 -0.000967 0.000000
# 2 -0.001328 0.013029 -0.005728 0.000000 0.001299 0.000000
# 3 -0.012117 -0.005728 0.024749 0.000000 0.003525 0.000000
# 4 0.000000 0.000000 0.000000 0.037048 0.000000 0.002174
# 5 -0.000967 0.001299 0.003525 0.000000 0.028279 0.000000
# 6 0.000000 0.000000 0.000000 0.002174 0.000000 0.078527
#
#
# Mechanical properties :
#
#
# Convention : Reuss Voigt Hill
#
# Bulk Modulus (GPa) = 45.20007 47.03416 46.11712
# Shear Modulus (GPa) = 19.99640 24.13356 22.06498
#
# Velocity S-wave (km/s) = 3.14238 3.45218 3.30092
# Velocity P-wave (km/s) = 5.95707 6.25431 6.10750
#
# Compressibility (1/GPa) = 0.02212386
#
# Stress axis : x y z
#
# Youngs Moduli (GPa) = 44.06687 76.75414 40.40649
#
# Poissons Ratio (x) = 0.10192 0.48961
# Poissons Ratio (y) = 0.05852 0.23144
# Poissons Ratio (z) = 0.53397 0.43964
#
# Static dielectric constant tensor:
#      x y z
#    x 3.593780 0.000000 0.059180 
#    y 0.000000 3.637300 0.000000 
#    z 0.059180 0.000000 3.670230 
# 
# 
# High freq. dielectric constant tensor:
#      x y z
#    x 1.795890 0.000000 0.002560 
#    y 0.000000 1.783370 0.000000 
#    z 0.002560 0.000000 1.785280 
# 
# From -- ./inp_files/223385.got.cif
#   From: 2010.06.25/outbox.cif.g09.slc.cpg/sg12_112_cif.got.tgz:223385.got - 2010.06.28 00:19:55.
