data_PCOD8087210
_publ_section_title
;
Structure prediction by ZEFSAII (Michael W. Deem and Ramdas Pophale) SiO2 
 PCOD8087210
Probable space group: C 2/M
;
_chemical_formula_sum "Si O2"
_cell_formula_units_Z 56
_cell_length_a 27.353569
_cell_length_b 8.928956
_cell_length_c 14.242968
_cell_angle_alpha 90.000000
_cell_angle_beta 103.435795
_cell_angle_gamma 90.000000
_cell_volume 3383.477139
_symmetry_space_group_name_H-M "C 2/M"
_symmetry_group_IT_number 12
_symmetry_cell_setting 'monoclinic'
loop_
_space_group_symop_operation_xyz
x,y,z
-x,y,-z
-x,-y,-z
x,-y,z
1/2+x,1/2+y,z
1/2-x,1/2+y,-z
1/2-x,1/2-y,-z
1/2+x,1/2-y,z
loop_
_atom_site_type_symbol
_atom_site_label
_atom_site_fract_x
_atom_site_fract_y
_atom_site_fract_z
Si Si1 0.056794 0.823345 0.040217
Si Si2 0.206285 0.830153 0.118926
Si Si3 0.681734 0.172970 0.776298
Si Si4 0.815642 0.825659 0.610865
Si Si5 0.871811 0.324232 0.788463
Si Si6 0.636188 0.329089 0.921679
Si Si7 0.212184 0.825201 0.608772
O O1 0.088995 0.775206 0.963414
O O2 0.060737 0.000000 0.058012
O O3 0.078197 0.744571 0.142885
O O4 0.000000 0.769243 0.000000
O O5 0.265028 0.796032 0.150162
O O6 0.177209 0.715249 0.172473
O O7 0.193986 0.000000 0.146884
O O8 0.187436 0.808889 0.004075
O O9 0.639073 0.228870 0.829405
O O10 0.677629 0.265982 0.678030
O O11 0.672692 0.000000 0.749281
O O12 0.863110 0.743713 0.680395
O O13 0.817879 0.793784 0.500844
O O14 0.764170 0.764593 0.632766
O O15 0.818002 0.000000 0.634994
O O16 0.878662 0.500000 0.783694
O O17 0.628898 0.500000 0.886681
O O18 0.224302 0.000000 0.626194
#
# Coordination Sequence:
#
# PCOD8087210 Si02
#       7
#     8   8   8   8   8   8   8
#     4   9  19  37  57  74  95 125 159 198 245 292
#     4   9  18  31  44  62  92 131 167 197 229 274
#     4  11  20  29  44  66  96 133 165 195 235 282
#     4  10  19  32  47  66  95 129 166 203 239 282
#     4  11  20  29  48  74  99 128 161 199 242 286
#     4   9  18  31  47  67  93 123 160 199 234 283
#     4  10  20  31  46  67  93 129 169 206 238 272
#
# _framework density 16.551020999999999
#
# number of rings (size 3 to 8) (size 9 to 14) (size 15 to 20)
#    0.000    2.143    1.429    3.857    0.000    4.857 
#    0.000    0.000    0.000    0.000    0.000    1.000 
#    0.000    8.000    0.000    0.000    0.000    0.000 
#
# Total GULP energy -347216.919503 kJ/mol
# GULP energy per Si atom -12400.604268 kJ/mol
# Density = 1.651335 g / cm^3
# Si number density = 16.551021 Si / 1000 Ang^3
#
#
#
# Elastic Constant Matrix: (Units=GPa)
#
#
# Indices 1 2 3 4 5 6 
#
# 1 66.9344 32.9980 52.2166 0.0000 1.5987 0.0000
# 2 32.9980 86.8282 55.8183 0.0000 3.1259 0.0000
# 3 52.2166 55.8183 115.0316 0.0000 -3.5145 0.0000
# 4 0.0000 0.0000 0.0000 27.4990 0.0000 -3.4312
# 5 1.5987 3.1259 -3.5145 0.0000 22.5778 0.0000
# 6 0.0000 0.0000 0.0000 -3.4312 0.0000 19.0921
#
#
#
# Elastic Compliance Matrix: (Units=1/GPa)
#
#
# Indices 1 2 3 4 5 6 
#
# 1 0.023838 -0.002832 -0.009532 0.000000 -0.002780 0.000000
# 2 -0.002832 0.017371 -0.007246 0.000000 -0.003332 0.000000
# 3 -0.009532 -0.007246 0.016666 0.000000 0.004272 0.000000
# 4 0.000000 0.000000 0.000000 0.037199 0.000000 0.006685
# 5 -0.002780 -0.003332 0.004272 0.000000 0.045614 0.000000
# 6 0.000000 0.000000 0.000000 0.006685 0.000000 0.053579
#
#
# Mechanical properties :
#
#
# Convention : Reuss Voigt Hill
#
# Bulk Modulus (GPa) = 53.59771 61.20668 57.40219
# Shear Modulus (GPa) = 20.85890 22.35121 21.60505
#
# Velocity S-wave (km/s) = 3.55389 3.67882 3.61690
# Velocity P-wave (km/s) = 7.02096 7.42333 7.22495
#
# Compressibility (1/GPa) = 0.01865751
#
# Stress axis : x y z
#
# Youngs Moduli (GPa) = 41.94922 57.56721 60.00084
#
# Poissons Ratio (x) = 0.16302 0.57192
# Poissons Ratio (y) = 0.11879 0.43474
# Poissons Ratio (z) = 0.39985 0.41711
#
# Static dielectric constant tensor:
#      x y z
#    x 2.790620 0.000000 -0.030170 
#    y 0.000000 3.102820 0.000000 
#    z -0.030170 0.000000 3.242170 
# 
# 
# High freq. dielectric constant tensor:
#      x y z
#    x 1.589240 0.000000 -0.011950 
#    y 0.000000 1.645360 0.000000 
#    z -0.011950 0.000000 1.638040 
# 
# From -- ./inp_files/243014.got.cif
#   From: 2010.06.25/outbox.cif.g09.slc.cpg/sg12_122_cif.got.tgz:243014.got - 2010.06.28 00:19:55.
