data_PCOD8087088
_publ_section_title
;
Structure prediction by ZEFSAII (Michael W. Deem and Ramdas Pophale) SiO2 
 PCOD8087088
Probable space group: C 2/M
;
_chemical_formula_sum "Si O2"
_cell_formula_units_Z 64
_cell_length_a 24.317224
_cell_length_b 8.918781
_cell_length_c 19.330324
_cell_angle_alpha 90.000000
_cell_angle_beta 129.818525
_cell_angle_gamma 90.000000
_cell_volume 3220.053732
_symmetry_space_group_name_H-M "C 2/M"
_symmetry_group_IT_number 12
_symmetry_cell_setting 'monoclinic'
loop_
_space_group_symop_operation_xyz
x,y,z
-x,y,-z
-x,-y,-z
x,-y,z
1/2+x,1/2+y,z
1/2-x,1/2+y,-z
1/2-x,1/2-y,-z
1/2+x,1/2-y,z
loop_
_atom_site_type_symbol
_atom_site_label
_atom_site_fract_x
_atom_site_fract_y
_atom_site_fract_z
Si Si1 0.463616 0.676977 0.667528
Si Si2 0.313804 0.835758 0.148677
Si Si3 0.673086 0.823409 0.630893
Si Si4 0.681152 0.821862 0.478848
Si Si5 0.057777 0.665534 0.640513
Si Si6 0.722596 0.175529 0.178965
Si Si7 0.929253 0.322240 0.140260
Si Si8 0.432107 0.822056 0.986079
O O1 0.454230 0.500000 0.662699
O O2 0.387349 0.756256 0.615660
O O3 0.497262 0.722382 0.620009
O O4 0.511794 0.731713 0.769625
O O5 0.379675 0.846834 0.253836
O O6 0.256453 0.718343 0.131632
O O7 0.348791 0.785143 0.103733
O O8 0.277500 0.000000 0.112960
O O9 0.677892 0.770609 0.556079
O O10 0.595007 0.775558 0.599330
O O11 0.738779 0.752032 0.725522
O O12 0.681745 0.000000 0.646326
O O13 0.750000 0.750000 0.500000
O O14 0.683226 0.000000 0.472630
O O15 0.022801 0.500000 0.601634
O O16 0.730396 0.000000 0.194650
O O17 0.639968 0.227906 0.111561
O O18 0.944503 0.500000 0.159695
O O19 0.932872 0.262340 0.065081
O O20 0.436176 0.000000 0.991702
O O21 0.500000 0.754049 0.000000
#
# Coordination Sequence:
#
# PCOD8087088 Si02
#       8
#     8   8   8   8   8   8   8   8
#     4  11  22  36  56  85 116 143 177 226 278 322
#     4   8  15  29  50  76 107 142 176 212 263 327
#     4   9  20  38  59  81 110 146 179 217 270 331
#     4  11  24  42  60  80 108 145 189 230 269 320
#     4   8  15  32  56  81 109 144 180 212 261 330
#     4  10  19  31  53  83 110 138 176 223 271 319
#     4   9  18  35  57  78 105 144 183 217 263 325
#     4   9  19  35  53  76 105 138 181 227 268 316
#
# _framework density 19.875443000000001
#
# number of rings (size 3 to 8) (size 9 to 14) (size 15 to 20)
#    0.000    2.625    0.000    3.375    0.000    7.500 
#    0.000    5.000    0.000    2.625    0.000    0.000 
#    0.000    0.000    0.000    0.000    0.000    0.000 
#
# Total GULP energy -396691.505400 kJ/mol
# GULP energy per Si atom -12396.609544 kJ/mol
# Density = 1.983021 g / cm^3
# Si number density = 19.875443 Si / 1000 Ang^3
#
#
#
# Elastic Constant Matrix: (Units=GPa)
#
#
# Indices 1 2 3 4 5 6 
#
# 1 87.4183 21.6393 12.1876 0.0000 2.4804 0.0000
# 2 21.6393 62.0491 23.0016 0.0000 6.0115 0.0000
# 3 12.1876 23.0016 46.5453 0.0000 2.3342 0.0000
# 4 0.0000 0.0000 0.0000 20.8178 0.0000 3.8777
# 5 2.4804 6.0115 2.3342 0.0000 36.4805 0.0000
# 6 0.0000 0.0000 0.0000 3.8777 0.0000 29.6414
#
#
#
# Elastic Compliance Matrix: (Units=1/GPa)
#
#
# Indices 1 2 3 4 5 6 
#
# 1 0.012593 -0.003868 -0.001379 0.000000 -0.000131 0.000000
# 2 -0.003868 0.021175 -0.009319 0.000000 -0.002630 0.000000
# 3 -0.001379 -0.009319 0.026454 0.000000 -0.000063 0.000000
# 4 0.000000 0.000000 0.000000 0.049236 0.000000 -0.006441
# 5 -0.000131 -0.002630 -0.000063 0.000000 0.027858 0.000000
# 6 0.000000 0.000000 0.000000 -0.006441 0.000000 0.034579
#
#
# Mechanical properties :
#
#
# Convention : Reuss Voigt Hill
#
# Bulk Modulus (GPa) = 32.16619 34.40775 33.28697
# Shear Modulus (GPa) = 23.65295 26.66690 25.15993
#
# Velocity S-wave (km/s) = 3.45347 3.66690 3.56178
# Velocity P-wave (km/s) = 5.66753 5.93948 5.80510
#
# Compressibility (1/GPa) = 0.03108855
#
# Stress axis : x y z
#
# Youngs Moduli (GPa) = 79.41130 47.22654 37.80115
#
# Poissons Ratio (x) = 0.18265 0.05215
# Poissons Ratio (y) = 0.30713 0.35228
# Poissons Ratio (z) = 0.10955 0.44012
#
# Static dielectric constant tensor:
#      x y z
#    x 4.119490 0.000000 -0.099190 
#    y 0.000000 3.405890 0.000000 
#    z -0.099190 0.000000 3.497810 
# 
# 
# High freq. dielectric constant tensor:
#      x y z
#    x 1.780680 0.000000 -0.000910 
#    y 0.000000 1.753520 0.000000 
#    z -0.000910 0.000000 1.768470 
# 
# From -- ./inp_files/324331.got.cif
#   From: 2010.06.25/outbox.cif.g09.slc.cpg/sg12_163_cif.got.tgz:324331.got - 2010.06.28 00:19:55.
