data_PCOD8087377
_publ_section_title
;
Structure prediction by ZEFSAII (Michael W. Deem and Ramdas Pophale) SiO2 
 PCOD8087377
Probable space group: C 2/M
;
_chemical_formula_sum "Si O2"
_cell_formula_units_Z 64
_cell_length_a 12.452639
_cell_length_b 14.213804
_cell_length_c 19.168621
_cell_angle_alpha 90.000000
_cell_angle_beta 88.079461
_cell_angle_gamma 90.000000
_cell_volume 3390.927973
_symmetry_space_group_name_H-M "C 2/M"
_symmetry_group_IT_number 12
_symmetry_cell_setting 'monoclinic'
loop_
_space_group_symop_operation_xyz
x,y,z
-x,y,-z
-x,-y,-z
x,-y,z
1/2+x,1/2+y,z
1/2-x,1/2+y,-z
1/2-x,1/2-y,-z
1/2+x,1/2-y,z
loop_
_atom_site_type_symbol
_atom_site_label
_atom_site_fract_x
_atom_site_fract_y
_atom_site_fract_z
Si Si1 0.261043 0.110344 0.552992
Si Si2 0.471809 0.856877 0.074471
Si Si3 0.404023 0.773022 0.449573
Si Si4 0.022167 0.149349 0.075718
Si Si5 0.254157 0.393420 0.951579
Si Si6 0.796248 0.891147 0.105162
Si Si7 0.953892 0.390484 0.653263
Si Si8 0.392415 0.896822 0.802699
O O1 0.321206 0.151296 0.483729
O O2 0.155778 0.175219 0.569608
O O3 0.340678 0.119661 0.616503
O O4 0.229439 0.000000 0.541754
O O5 0.536451 0.760121 0.071996
O O6 0.343526 0.838254 0.083569
O O7 0.514629 0.910869 0.141085
O O8 0.500000 0.908750 0.000000
O O9 0.500000 0.746861 0.500000
O O10 0.453877 0.824624 0.381175
O O11 0.137747 0.110506 0.098499
O O12 0.920579 0.122183 0.126921
O O13 0.000000 0.104052 0.000000
O O14 0.213680 0.500000 0.958263
O O15 0.277750 0.348506 0.027770
O O16 0.712657 0.844268 0.161943
O O17 0.766012 0.000000 0.101983
O O18 0.992068 0.500000 0.651201
O O19 0.936961 0.347781 0.731838
O O20 0.356546 0.000000 0.777817
#
# Coordination Sequence:
#
# PCOD8087377 Si02
#       8
#     8   8   8   8   8   8   8   8
#     4   9  17  31  54  83 112 143 176 211 252 298
#     4  11  21  31  50  71  98 126 166 220 275 319
#     4   9  17  31  54  83 113 140 173 213 252 300
#     4   9  20  31  47  67  94 118 154 206 265 320
#     4  10  19  32  50  69  91 122 160 207 265 323
#     4   9  17  31  50  68  91 121 162 209 258 314
#     4   9  18  34  52  73 104 142 181 216 254 306
#     4  10  20  33  50  73  99 132 174 218 263 313
#
# _framework density 18.873889999999999
#
# number of rings (size 3 to 8) (size 9 to 14) (size 15 to 20)
#    0.000    2.500    1.250    1.125    1.750    5.250 
#    2.250    0.000    0.000    0.000    0.000    0.000 
#    0.000    0.000    0.000    0.000    0.000    0.000 
#
# Total GULP energy -396456.441331 kJ/mol
# GULP energy per Si atom -12389.263792 kJ/mol
# Density = 1.883093 g / cm^3
# Si number density = 18.873890 Si / 1000 Ang^3
#
#
#
# Elastic Constant Matrix: (Units=GPa)
#
#
# Indices 1 2 3 4 5 6 
#
# 1 153.3628 35.9111 53.8210 0.0000 -20.8143 0.0000
# 2 35.9111 79.0755 26.0414 0.0000 -5.2114 0.0000
# 3 53.8210 26.0414 105.8566 0.0000 -17.8978 0.0000
# 4 0.0000 0.0000 0.0000 14.6014 0.0000 -1.5163
# 5 -20.8143 -5.2114 -17.8978 0.0000 21.5996 0.0000
# 6 0.0000 0.0000 0.0000 -1.5163 0.0000 29.4861
#
#
#
# Elastic Compliance Matrix: (Units=1/GPa)
#
#
# Indices 1 2 3 4 5 6 
#
# 1 0.008941 -0.002728 -0.002941 0.000000 0.005520 0.000000
# 2 -0.002728 0.014600 -0.002388 0.000000 -0.001085 0.000000
# 3 -0.002941 -0.002388 0.012738 0.000000 0.007144 0.000000
# 4 0.000000 0.000000 0.000000 0.068854 0.000000 0.003541
# 5 0.005520 -0.001085 0.007144 0.000000 0.057275 0.000000
# 6 0.000000 0.000000 0.000000 0.003541 0.000000 0.034096
#
#
# Mechanical properties :
#
#
# Convention : Reuss Voigt Hill
#
# Bulk Modulus (GPa) = 49.59460 63.31577 56.45519
# Shear Modulus (GPa) = 22.79572 27.97217 25.38395
#
# Velocity S-wave (km/s) = 3.47910 3.85393 3.67130
# Velocity P-wave (km/s) = 6.51711 7.30912 6.92445
#
# Compressibility (1/GPa) = 0.02016349
#
# Stress axis : x y z
#
# Youngs Moduli (GPa) = 111.84857 68.49345 78.50766
#
# Poissons Ratio (x) = 0.18684 0.23092
# Poissons Ratio (y) = 0.30510 0.18749
# Poissons Ratio (z) = 0.32898 0.16358
#
# Static dielectric constant tensor:
#      x y z
#    x 3.613420 0.000000 -0.158330 
#    y 0.000000 3.332750 0.000000 
#    z -0.158330 0.000000 3.251280 
# 
# 
# High freq. dielectric constant tensor:
#      x y z
#    x 1.744700 0.000000 -0.012880 
#    y 0.000000 1.726000 0.000000 
#    z -0.012880 0.000000 1.681830 
# 
# From -- ./inp_files/263360.got.cif
#   From: 2010.06.25/outbox.cif.g09.slc.cpg/sg12_132_cif.got.tgz:263360.got - 2010.06.28 00:19:55.
