data_PCOD8087472
_publ_section_title
;
Structure prediction by ZEFSAII (Michael W. Deem and Ramdas Pophale) SiO2 
 PCOD8087472
Probable space group: C 2/M
;
_chemical_formula_sum "Si O2"
_cell_formula_units_Z 48
_cell_length_a 31.555244
_cell_length_b 9.364277
_cell_length_c 9.478606
_cell_angle_alpha 90.000000
_cell_angle_beta 76.981496
_cell_angle_gamma 90.000000
_cell_volume 2728.863382
_symmetry_space_group_name_H-M "C 2/M"
_symmetry_group_IT_number 12
_symmetry_cell_setting 'monoclinic'
loop_
_space_group_symop_operation_xyz
x,y,z
-x,y,-z
-x,-y,-z
x,-y,z
1/2+x,1/2+y,z
1/2-x,1/2+y,-z
1/2-x,1/2-y,-z
1/2+x,1/2-y,z
loop_
_atom_site_type_symbol
_atom_site_label
_atom_site_fract_x
_atom_site_fract_y
_atom_site_fract_z
Si Si1 0.735708 0.666101 0.873906
Si Si2 0.861062 0.833882 0.115031
Si Si3 0.679414 0.164035 0.344185
Si Si4 0.549833 0.166302 0.459122
Si Si5 0.889492 0.662515 0.838086
Si Si6 0.118843 0.168152 0.582439
O O1 0.735403 0.500000 0.914238
O O2 0.688823 0.719753 0.856083
O O3 0.769800 0.694657 0.721299
O O4 0.750000 0.750000 0.000000
O O5 0.880230 0.797291 0.253031
O O6 0.863327 0.000000 0.080980
O O7 0.890990 0.757978 0.976446
O O8 0.653638 0.197992 0.219208
O O9 0.662375 0.266646 0.480235
O O10 0.670691 0.000000 0.395354
O O11 0.500000 0.214597 0.500000
O O12 0.568239 0.195950 0.288825
O O13 0.575647 0.259521 0.553560
O O14 0.555605 0.000000 0.494612
O O15 0.889386 0.500000 0.889181
O O16 0.118106 0.000000 0.552254
#
# Coordination Sequence:
#
# PCOD8087472 Si02
#       6
#     8   8   8   8   8   8
#     4  10  19  32  50  73 103 138 180 221 253 293
#     4  10  21  34  49  74 109 142 170 210 260 302
#     4   9  18  33  51  73 101 137 181 222 254 293
#     4   9  19  38  61  81 101 128 166 212 258 309
#     4   9  17  31  53  78 100 129 171 211 253 307
#     4  10  21  35  51  76 108 138 170 208 257 313
#
# _framework density 17.589741
#
# number of rings (size 3 to 8) (size 9 to 14) (size 15 to 20)
#    0.000    2.500    1.667    1.500    0.000    5.667 
#    0.000    0.833    0.000    5.000    0.000    0.000 
#    0.000    0.000    0.000    0.000    0.000    0.000 
#
# Total GULP energy -297623.983049 kJ/mol
# GULP energy per Si atom -12400.999294 kJ/mol
# Density = 1.754971 g / cm^3
# Si number density = 17.589741 Si / 1000 Ang^3
#
#
#
# Elastic Constant Matrix: (Units=GPa)
#
#
# Indices 1 2 3 4 5 6 
#
# 1 101.8937 41.4466 56.6807 0.0000 -12.1603 0.0000
# 2 41.4466 73.4743 68.5109 0.0000 2.7342 0.0000
# 3 56.6807 68.5109 125.5803 0.0000 -3.5446 0.0000
# 4 0.0000 0.0000 0.0000 34.6810 0.0000 -2.4576
# 5 -12.1603 2.7342 -3.5446 0.0000 20.1179 0.0000
# 6 0.0000 0.0000 0.0000 -2.4576 0.0000 21.4524
#
#
#
# Elastic Compliance Matrix: (Units=1/GPa)
#
#
# Indices 1 2 3 4 5 6 
#
# 1 0.015169 -0.005627 -0.003514 0.000000 0.009315 0.000000
# 2 -0.005627 0.030651 -0.014468 0.000000 -0.010116 0.000000
# 3 -0.003514 -0.014468 0.017525 0.000000 0.002930 0.000000
# 4 0.000000 0.000000 0.000000 0.029070 0.000000 0.003330
# 5 0.009315 -0.010116 0.002930 0.000000 0.057229 0.000000
# 6 0.000000 0.000000 0.000000 0.003330 0.000000 0.046996
#
#
# Mechanical properties :
#
#
# Convention : Reuss Voigt Hill
#
# Bulk Modulus (GPa) = 62.00430 70.46942 66.23686
# Shear Modulus (GPa) = 20.06148 24.20424 22.13286
#
# Velocity S-wave (km/s) = 3.38082 3.71353 3.55108
# Velocity P-wave (km/s) = 7.11103 7.65094 7.38592
#
# Compressibility (1/GPa) = 0.01612791
#
# Stress axis : x y z
#
# Youngs Moduli (GPa) = 65.92220 32.62513 57.06254
#
# Poissons Ratio (x) = 0.18359 0.20051
# Poissons Ratio (y) = 0.37095 0.82556
# Poissons Ratio (z) = 0.23164 0.47201
#
# Static dielectric constant tensor:
#      x y z
#    x 3.324970 0.000000 -0.153370 
#    y 0.000000 3.226140 0.000000 
#    z -0.153370 0.000000 3.141110 
# 
# 
# High freq. dielectric constant tensor:
#      x y z
#    x 1.670700 0.000000 -0.012100 
#    y 0.000000 1.679560 0.000000 
#    z -0.012100 0.000000 1.672850 
# 
# From -- ./inp_files/108764.got.cif
#   From: 2010.06.25/outbox.cif.g09.slc.cpg/sg12_55_cif.got.tgz:108764.got - 2010.06.28 00:19:55.
