data_PCOD8087946
_publ_section_title
;
Structure prediction by ZEFSAII (Michael W. Deem and Ramdas Pophale) SiO2 
 PCOD8087946
Probable space group: C 2/M
;
_chemical_formula_sum "Si O2"
_cell_formula_units_Z 48
_cell_length_a 18.265251
_cell_length_b 9.149277
_cell_length_c 16.479898
_cell_angle_alpha 90.000000
_cell_angle_beta 93.590350
_cell_angle_gamma 90.000000
_cell_volume 2748.613710
_symmetry_space_group_name_H-M "C 2/M"
_symmetry_group_IT_number 12
_symmetry_cell_setting 'monoclinic'
loop_
_space_group_symop_operation_xyz
x,y,z
-x,y,-z
-x,-y,-z
x,-y,z
1/2+x,1/2+y,z
1/2-x,1/2+y,-z
1/2-x,1/2-y,-z
1/2+x,1/2-y,z
loop_
_atom_site_type_symbol
_atom_site_label
_atom_site_fract_x
_atom_site_fract_y
_atom_site_fract_z
Si Si1 0.724241 0.665093 0.920409
Si Si2 0.330384 0.167464 0.319696
Si Si3 0.054168 0.167501 0.269616
Si Si4 0.406356 0.335601 0.188369
Si Si5 0.702524 0.828192 0.243957
Si Si6 0.975529 0.330484 0.409081
O O1 0.745685 0.500000 0.939982
O O2 0.635797 0.684416 0.900756
O O3 0.765714 0.717577 0.841665
O O4 0.750000 0.750000 0.000000
O O5 0.377301 0.209130 0.244249
O O6 0.256670 0.265346 0.318049
O O7 0.386943 0.194245 0.398178
O O8 0.305390 0.000000 0.312657
O O9 0.122891 0.260607 0.246917
O O10 0.994581 0.178090 0.191539
O O11 0.019319 0.229085 0.349668
O O12 0.077388 0.000000 0.286115
O O13 0.385327 0.500000 0.219775
O O14 0.696872 0.000000 0.255437
O O15 0.994375 0.500000 0.391970
O O16 0.000000 0.283496 0.500000
#
# Coordination Sequence:
#
# PCOD8087946 Si02
#       6
#     8   8   8   8   8   8
#     4   9  18  32  50  71  95 125 159 196 239 286
#     4   9  16  28  49  73  94 123 164 198 229 282
#     4  10  19  32  52  75  97 125 164 204 239 281
#     4   8  16  31  48  68  96 127 158 194 238 285
#     4  10  20  34  50  70  99 130 160 198 244 287
#     4   9  18  33  52  74 101 130 158 194 242 290
#
# _framework density 17.463348
#
# number of rings (size 3 to 8) (size 9 to 14) (size 15 to 20)
#    0.000    2.833    0.000    2.500    0.000    5.000 
#    0.000    1.667    0.000    5.000    0.000    0.000 
#    0.000    0.000    0.000    0.000    0.000    0.000 
#
# Total GULP energy -297361.551048 kJ/mol
# GULP energy per Si atom -12390.064627 kJ/mol
# Density = 1.742360 g / cm^3
# Si number density = 17.463348 Si / 1000 Ang^3
#
#
#
# Elastic Constant Matrix: (Units=GPa)
#
#
# Indices 1 2 3 4 5 6 
#
# 1 141.1958 64.6675 55.7504 0.0000 22.7341 0.0000
# 2 64.6675 92.3239 43.9029 0.0000 11.4030 0.0000
# 3 55.7504 43.9029 84.9436 0.0000 27.5075 0.0000
# 4 0.0000 0.0000 0.0000 24.5434 0.0000 0.5595
# 5 22.7341 11.4030 27.5075 0.0000 26.5266 0.0000
# 6 0.0000 0.0000 0.0000 0.5595 0.0000 32.0016
#
#
#
# Elastic Compliance Matrix: (Units=1/GPa)
#
#
# Indices 1 2 3 4 5 6 
#
# 1 0.011905 -0.006298 -0.003208 0.000000 -0.004168 0.000000
# 2 -0.006298 0.017786 -0.006521 0.000000 0.004514 0.000000
# 3 -0.003208 -0.006521 0.023262 0.000000 -0.018569 0.000000
# 4 0.000000 0.000000 0.000000 0.040760 0.000000 -0.000713
# 5 -0.004168 0.004514 -0.018569 0.000000 0.058586 0.000000
# 6 0.000000 0.000000 0.000000 -0.000713 0.000000 0.031261
#
#
# Mechanical properties :
#
#
# Convention : Reuss Voigt Hill
#
# Bulk Modulus (GPa) = 47.85117 71.90055 59.87586
# Shear Modulus (GPa) = 22.46365 26.89046 24.67705
#
# Velocity S-wave (km/s) = 3.59044 3.92831 3.76317
# Velocity P-wave (km/s) = 6.68197 7.86366 7.29678
#
# Compressibility (1/GPa) = 0.02089813
#
# Stress axis : x y z
#
# Youngs Moduli (GPa) = 83.99901 56.22298 42.98861
#
# Poissons Ratio (x) = 0.35410 0.13792
# Poissons Ratio (y) = 0.52904 0.28033
# Poissons Ratio (z) = 0.26950 0.36663
#
# Static dielectric constant tensor:
#      x y z
#    x 3.501160 0.000000 0.409430 
#    y 0.000000 3.345590 0.000000 
#    z 0.409430 0.000000 3.004800 
# 
# 
# High freq. dielectric constant tensor:
#      x y z
#    x 1.681330 0.000000 0.034920 
#    y 0.000000 1.686690 0.000000 
#    z 0.034920 0.000000 1.634740 
# 
# From -- ./inp_files/221530.got.cif
#   From: 2010.06.25/outbox.cif.g09.slc.cpg/sg12_111_cif.got.tgz:221530.got - 2010.06.28 00:19:55.
