data_PCOD8087776
_publ_section_title
;
Structure prediction by ZEFSAII (Michael W. Deem and Ramdas Pophale) SiO2 
 PCOD8087776
Probable space group: C 2/M
;
_chemical_formula_sum "Si O2"
_cell_formula_units_Z 64
_cell_length_a 25.269943
_cell_length_b 14.190094
_cell_length_c 18.847602
_cell_angle_alpha 90.000000
_cell_angle_beta 152.811255
_cell_angle_gamma 90.000000
_cell_volume 3088.082189
_symmetry_space_group_name_H-M "C 2/M"
_symmetry_group_IT_number 12
_symmetry_cell_setting 'monoclinic'
loop_
_space_group_symop_operation_xyz
x,y,z
-x,y,-z
-x,-y,-z
x,-y,z
1/2+x,1/2+y,z
1/2-x,1/2+y,-z
1/2-x,1/2-y,-z
1/2+x,1/2-y,z
loop_
_atom_site_type_symbol
_atom_site_label
_atom_site_fract_x
_atom_site_fract_y
_atom_site_fract_z
Si Si1 0.309844 0.196047 0.904171
Si Si2 0.828765 0.101295 0.971215
Si Si3 0.494666 0.858156 0.760991
Si Si4 0.474709 0.356007 0.692614
Si Si5 0.134624 0.389450 0.173380
Si Si6 0.928276 0.399762 0.296120
Si Si7 0.226706 0.344794 0.429352
Si Si8 0.949388 0.802438 0.365736
O O1 0.347047 0.307380 0.942701
O O2 0.294450 0.152842 0.808045
O O3 0.188868 0.185973 0.801233
O O4 0.406033 0.135564 0.060626
O O5 0.709222 0.115271 0.870328
O O6 0.828476 0.000000 0.928658
O O7 0.927028 0.089605 0.147934
O O8 0.477798 0.751544 0.718281
O O9 0.530905 0.915659 0.735699
O O10 0.373672 0.901174 0.647423
O O11 0.348931 0.399410 0.564300
O O12 0.496300 0.363503 0.633595
O O13 0.162934 0.500000 0.217951
O O14 0.174550 0.327887 0.288538
O O15 0.000000 0.371835 0.000000
O O16 0.959706 0.500000 0.372391
O O17 0.986024 0.308730 0.402047
O O18 0.250000 0.250000 0.500000
O O19 0.000000 0.840609 0.500000
#
# Coordination Sequence:
#
# PCOD8087776 Si02
#       8
#     8   8   8   8   8   8   8   8
#     4  10  19  35  58  80 111 151 183 234 285 338
#     4   9  18  34  57  83 108 144 189 232 284 341
#     4   9  17  31  52  80 103 141 189 229 280 335
#     4   9  18  32  52  78 109 141 182 232 282 339
#     4  11  23  38  58  87 118 149 190 236 285 341
#     4   9  18  31  50  77 108 139 183 239 281 328
#     4  10  20  36  58  81 111 153 193 232 282 340
#     4  10  19  32  51  76 107 145 186 225 283 346
#
# _framework density 20.724837000000001
#
# number of rings (size 3 to 8) (size 9 to 14) (size 15 to 20)
#    0.000    2.375    1.250    1.500    0.000    4.750 
#    0.000    0.625    0.000    2.625    0.000    0.000 
#    0.000    0.000    0.000    0.000    0.000    0.000 
#
# Total GULP energy -396443.273365 kJ/mol
# GULP energy per Si atom -12388.852293 kJ/mol
# Density = 2.067767 g / cm^3
# Si number density = 20.724837 Si / 1000 Ang^3
#
#
#
# Elastic Constant Matrix: (Units=GPa)
#
#
# Indices 1 2 3 4 5 6 
#
# 1 109.9876 21.1920 32.9821 0.0000 -0.6544 0.0000
# 2 21.1920 70.9752 13.7635 0.0000 -1.1125 0.0000
# 3 32.9821 13.7635 84.4842 0.0000 -1.4249 0.0000
# 4 0.0000 0.0000 0.0000 8.4694 0.0000 -6.9188
# 5 -0.6544 -1.1125 -1.4249 0.0000 39.9933 0.0000
# 6 0.0000 0.0000 0.0000 -6.9188 0.0000 10.0852
#
#
#
# Elastic Compliance Matrix: (Units=1/GPa)
#
#
# Indices 1 2 3 4 5 6 
#
# 1 0.010699 -0.002463 -0.003776 0.000000 -0.000028 0.000000
# 2 -0.002463 0.015120 -0.001496 0.000000 0.000327 0.000000
# 3 -0.003776 -0.001496 0.013561 0.000000 0.000380 0.000000
# 4 0.000000 0.000000 0.000000 0.268614 0.000000 0.184279
# 5 -0.000028 0.000327 0.000380 0.000000 0.025026 0.000000
# 6 0.000000 0.000000 0.000000 0.184279 0.000000 0.225577
#
#
# Mechanical properties :
#
#
# Convention : Reuss Voigt Hill
#
# Bulk Modulus (GPa) = 41.82416 44.59135 43.20776
# Shear Modulus (GPa) = 8.59054 24.87686 16.73370
#
# Velocity S-wave (km/s) = 2.03815 3.46835 2.84460
# Velocity P-wave (km/s) = 5.07575 6.13204 5.62873
#
# Compressibility (1/GPa) = 0.02390963
#
# Stress axis : x y z
#
# Youngs Moduli (GPa) = 93.47062 66.13745 73.74192
#
# Poissons Ratio (x) = 0.16287 0.27844
# Poissons Ratio (y) = 0.23018 0.11034
# Poissons Ratio (z) = 0.35294 0.09896
#
# Static dielectric constant tensor:
#      x y z
#    x 3.963140 0.000000 0.320410 
#    y 0.000000 3.642630 0.000000 
#    z 0.320410 0.000000 3.835900 
# 
# 
# High freq. dielectric constant tensor:
#      x y z
#    x 1.805570 0.000000 0.015490 
#    y 0.000000 1.796770 0.000000 
#    z 0.015490 0.000000 1.807250 
# 
# From -- ./inp_files/290123.got.cif
#   From: 2010.06.25/outbox.cif.g09.slc.cpg/sg12_146_cif.got.tgz:290123.got - 2010.06.28 00:19:55.
