data_PCOD8087919
_publ_section_title
;
Structure prediction by ZEFSAII (Michael W. Deem and Ramdas Pophale) SiO2 
 PCOD8087919
Probable space group: C 2/M
;
_chemical_formula_sum "Si O2"
_cell_formula_units_Z 64
_cell_length_a 20.485019
_cell_length_b 9.160864
_cell_length_c 23.369832
_cell_angle_alpha 90.000000
_cell_angle_beta 128.524585
_cell_angle_gamma 90.000000
_cell_volume 3431.029654
_symmetry_space_group_name_H-M "C 2/M"
_symmetry_group_IT_number 12
_symmetry_cell_setting 'monoclinic'
loop_
_space_group_symop_operation_xyz
x,y,z
-x,y,-z
-x,-y,-z
x,-y,z
1/2+x,1/2+y,z
1/2-x,1/2+y,-z
1/2-x,1/2-y,-z
1/2+x,1/2-y,z
loop_
_atom_site_type_symbol
_atom_site_label
_atom_site_fract_x
_atom_site_fract_y
_atom_site_fract_z
Si Si1 0.892366 0.170582 0.231480
Si Si2 0.051236 0.828405 0.949110
Si Si3 0.677309 0.671413 0.926024
Si Si4 0.082344 0.170807 0.343654
Si Si5 0.782436 0.325822 0.256601
Si Si6 0.740174 0.668277 0.358275
Si Si7 0.878246 0.826655 0.895755
Si Si8 0.328726 0.830565 0.517661
O O1 0.835702 0.222802 0.146475
O O2 0.865424 0.257640 0.273659
O O3 0.989448 0.202662 0.270014
O O4 0.879505 0.000000 0.235682
O O5 0.090695 0.786877 0.910125
O O6 0.957216 0.766904 0.901985
O O7 0.045564 0.000000 0.955331
O O8 0.110217 0.769194 0.032933
O O9 0.694926 0.500000 0.939228
O O10 0.750000 0.750000 0.000000
O O11 0.152919 0.231252 0.337402
O O12 0.090977 0.253393 0.409887
O O13 0.097594 0.000000 0.363063
O O14 0.791964 0.500000 0.261505
O O15 0.766751 0.262261 0.311987
O O16 0.706167 0.263911 0.176937
O O17 0.721584 0.500000 0.336303
O O18 0.819844 0.689215 0.444139
O O19 0.872849 0.000000 0.889384
O O20 0.250000 0.750000 0.500000
O O21 0.328329 0.000000 0.534232
#
# Coordination Sequence:
#
# PCOD8087919 Si02
#       8
#     8   8   8   8   8   8   8   8
#     4  10  22  36  50  73 107 141 169 208 263 314
#     4   8  14  25  42  69  95 117 156 206 250 289
#     4  10  20  33  51  72  99 135 172 210 256 307
#     4   9  18  34  54  76 104 136 173 215 256 305
#     4  10  19  32  52  74  99 132 169 211 257 304
#     4   8  16  30  52  79 101 126 167 214 256 294
#     4   8  14  24  43  70  96 118 152 207 253 286
#     4   9  16  30  52  79 108 135 168 212 260 309
#
# _framework density 18.653293000000001
#
# number of rings (size 3 to 8) (size 9 to 14) (size 15 to 20)
#    0.000    3.000    0.000    2.625    1.750    2.000 
#    0.000    3.750    0.000    4.500    0.000    3.500 
#    0.000    0.000    0.000    0.000    0.000    0.000 
#
# Total GULP energy -396454.452371 kJ/mol
# GULP energy per Si atom -12389.201637 kJ/mol
# Density = 1.861084 g / cm^3
# Si number density = 18.653293 Si / 1000 Ang^3
#
#
#
# Elastic Constant Matrix: (Units=GPa)
#
#
# Indices 1 2 3 4 5 6 
#
# 1 103.9995 26.9777 50.5025 0.0000 -16.9605 0.0000
# 2 26.9777 37.8001 33.8675 0.0000 -2.5146 0.0000
# 3 50.5025 33.8675 103.7189 0.0000 -7.3548 0.0000
# 4 0.0000 0.0000 0.0000 25.0695 0.0000 1.4818
# 5 -16.9605 -2.5146 -7.3548 0.0000 26.6094 0.0000
# 6 0.0000 0.0000 0.0000 1.4818 0.0000 20.8997
#
#
#
# Elastic Compliance Matrix: (Units=1/GPa)
#
#
# Indices 1 2 3 4 5 6 
#
# 1 0.014603 -0.005695 -0.004721 0.000000 0.007464 0.000000
# 2 -0.005695 0.039617 -0.010358 0.000000 -0.002749 0.000000
# 3 -0.004721 -0.010358 0.015340 0.000000 0.000252 0.000000
# 4 0.000000 0.000000 0.000000 0.040057 0.000000 -0.002840
# 5 0.007464 -0.002749 0.000252 0.000000 0.042148 0.000000
# 6 0.000000 0.000000 0.000000 -0.002840 0.000000 0.048049
#
#
# Mechanical properties :
#
#
# Convention : Reuss Voigt Hill
#
# Bulk Modulus (GPa) = 35.70017 52.02376 43.86197
# Shear Modulus (GPa) = 19.94407 23.46044 21.70226
#
# Velocity S-wave (km/s) = 3.27341 3.55027 3.41465
# Velocity P-wave (km/s) = 5.78509 6.69001 6.25394
#
# Compressibility (1/GPa) = 0.02801107
#
# Stress axis : x y z
#
# Youngs Moduli (GPa) = 68.47986 25.24157 65.18699
#
# Poissons Ratio (x) = 0.14376 0.30777
# Poissons Ratio (y) = 0.39001 0.67521
# Poissons Ratio (z) = 0.32332 0.26146
#
# Static dielectric constant tensor:
#      x y z
#    x 3.588100 0.000000 -0.203140 
#    y 0.000000 3.115650 0.000000 
#    z -0.203140 0.000000 3.710330 
# 
# 
# High freq. dielectric constant tensor:
#      x y z
#    x 1.716720 0.000000 -0.003600 
#    y 0.000000 1.676240 0.000000 
#    z -0.003600 0.000000 1.729940 
# 
# From -- ./inp_files/346134.got.cif
#   From: 2010.06.25/outbox.cif.g09.slc.cpg/sg12_174_cif.got.tgz:346134.got - 2010.06.28 00:19:55.
