data_PCOD8087095
_publ_section_title
;
Structure prediction by ZEFSAII (Michael W. Deem and Ramdas Pophale) SiO2 
 PCOD8087095
Probable space group: C 2/M
;
_chemical_formula_sum "Si O2"
_cell_formula_units_Z 48
_cell_length_a 22.212066
_cell_length_b 12.756549
_cell_length_c 16.925604
_cell_angle_alpha 90.000000
_cell_angle_beta 30.052364
_cell_angle_gamma 90.000000
_cell_volume 2401.723925
_symmetry_space_group_name_H-M "C 2/M"
_symmetry_group_IT_number 12
_symmetry_cell_setting 'monoclinic'
loop_
_space_group_symop_operation_xyz
x,y,z
-x,y,-z
-x,-y,-z
x,-y,z
1/2+x,1/2+y,z
1/2-x,1/2+y,-z
1/2-x,1/2-y,-z
1/2+x,1/2-y,z
loop_
_atom_site_type_symbol
_atom_site_label
_atom_site_fract_x
_atom_site_fract_y
_atom_site_fract_z
Si Si1 0.943757 0.231609 0.260259
Si Si2 0.341681 0.616715 0.692564
Si Si3 0.433224 0.118652 0.997822
Si Si4 0.125121 0.213028 0.180029
Si Si5 0.555892 0.185228 0.511586
Si Si6 0.775024 0.619858 0.553186
O O1 0.852440 0.307121 0.409093
O O2 0.865428 0.153014 0.294583
O O3 0.033447 0.302871 0.109010
O O4 0.032547 0.167165 0.218726
O O5 0.387688 0.500000 0.619500
O O6 0.351110 0.631396 0.776779
O O7 0.414337 0.697156 0.554602
O O8 0.204876 0.629694 0.823766
O O9 0.467388 0.000000 0.934096
O O10 0.500000 0.154907 0.000000
O O11 0.051289 0.310984 0.301953
O O12 0.250000 0.250000 0.000000
O O13 0.500000 0.121307 0.500000
O O14 0.674943 0.132110 0.413472
O O15 0.786994 0.500000 0.512734
#
# Coordination Sequence:
#
# PCOD8087095 Si02
#       6
#     8   8   8   8   8   8
#     4  10  20  36  57  81 114 151 189 243 291 339
#     4  10  20  35  58  88 119 151 190 237 289 344
#     4  10  19  31  53  83 112 147 187 232 287 342
#     4  10  19  35  55  82 117 156 187 230 286 347
#     4   9  20  36  57  84 116 154 192 237 293 337
#     4  10  21  37  58  82 110 150 197 240 291 348
#
# _framework density 19.985644000000001
#
# number of rings (size 3 to 8) (size 9 to 14) (size 15 to 20)
#    0.000    2.167    1.667    1.500    0.000    4.000 
#    0.000    8.333    0.000    5.500    0.000    0.000 
#    0.000    0.000    0.000    0.000    0.000    0.000 
#
# Total GULP energy -297341.828285 kJ/mol
# GULP energy per Si atom -12389.242845 kJ/mol
# Density = 1.994016 g / cm^3
# Si number density = 19.985644 Si / 1000 Ang^3
#
#
#
# Elastic Constant Matrix: (Units=GPa)
#
#
# Indices 1 2 3 4 5 6 
#
# 1 147.2769 20.8766 42.9184 0.0000 -33.3915 0.0000
# 2 20.8766 62.6575 16.5645 0.0000 -7.7151 0.0000
# 3 42.9184 16.5645 105.6488 0.0000 -12.8435 0.0000
# 4 0.0000 0.0000 0.0000 18.7140 0.0000 2.7812
# 5 -33.3915 -7.7151 -12.8435 0.0000 39.7866 0.0000
# 6 0.0000 0.0000 0.0000 2.7812 0.0000 17.3207
#
#
#
# Elastic Compliance Matrix: (Units=1/GPa)
#
#
# Indices 1 2 3 4 5 6 
#
# 1 0.009310 -0.001564 -0.002731 0.000000 0.006629 0.000000
# 2 -0.001564 0.017152 -0.001883 0.000000 0.001406 0.000000
# 3 -0.002731 -0.001883 0.010978 0.000000 0.000886 0.000000
# 4 0.000000 0.000000 0.000000 0.054742 0.000000 -0.008790
# 5 0.006629 0.001406 0.000886 0.000000 0.031256 0.000000
# 6 0.000000 0.000000 0.000000 -0.008790 0.000000 0.059146
#
#
# Mechanical properties :
#
#
# Convention : Reuss Voigt Hill
#
# Bulk Modulus (GPa) = 39.86618 52.92245 46.39432
# Shear Modulus (GPa) = 24.59398 30.84586 27.71992
#
# Velocity S-wave (km/s) = 3.51177 3.93288 3.72827
# Velocity P-wave (km/s) = 6.03607 6.86739 6.46511
#
# Compressibility (1/GPa) = 0.02508392
#
# Stress axis : x y z
#
# Youngs Moduli (GPa) = 107.40570 58.30321 91.09272
#
# Poissons Ratio (x) = 0.09118 0.24879
# Poissons Ratio (y) = 0.16797 0.17153
# Poissons Ratio (z) = 0.29335 0.10979
#
# Static dielectric constant tensor:
#      x y z
#    x 4.252550 0.000000 -0.353290 
#    y 0.000000 3.259730 0.000000 
#    z -0.353290 0.000000 3.649880 
# 
# 
# High freq. dielectric constant tensor:
#      x y z
#    x 1.805380 0.000000 -0.023810 
#    y 0.000000 1.737000 0.000000 
#    z -0.023810 0.000000 1.782050 
# 
# From -- ./inp_files/283989.got.cif
#   From: 2010.06.25/outbox.cif.g09.slc.cpg/sg12_142_cif.got.tgz:283989.got - 2010.06.28 00:19:55.
