data_PCOD8087086
_publ_section_title
;
Structure prediction by ZEFSAII (Michael W. Deem and Ramdas Pophale) SiO2 
 PCOD8087086
Probable space group: C 2/M
;
_chemical_formula_sum "Si O2"
_cell_formula_units_Z 64
_cell_length_a 22.490320
_cell_length_b 9.198931
_cell_length_c 21.907480
_cell_angle_alpha 90.000000
_cell_angle_beta 131.880122
_cell_angle_gamma 90.000000
_cell_volume 3374.545744
_symmetry_space_group_name_H-M "C 2/M"
_symmetry_group_IT_number 12
_symmetry_cell_setting 'monoclinic'
loop_
_space_group_symop_operation_xyz
x,y,z
-x,y,-z
-x,-y,-z
x,-y,z
1/2+x,1/2+y,z
1/2-x,1/2+y,-z
1/2-x,1/2-y,-z
1/2+x,1/2-y,z
loop_
_atom_site_type_symbol
_atom_site_label
_atom_site_fract_x
_atom_site_fract_y
_atom_site_fract_z
Si Si1 0.446939 0.663734 0.643834
Si Si2 0.084732 0.671960 0.035029
Si Si3 0.745240 0.834110 0.676189
Si Si4 0.690343 0.172832 0.505882
Si Si5 0.120101 0.829211 0.805249
Si Si6 0.749301 0.828317 0.201766
Si Si7 0.078540 0.160643 0.236934
Si Si8 0.425330 0.829867 0.109062
O O1 0.443969 0.500000 0.614716
O O2 0.400444 0.774401 0.567802
O O3 0.538334 0.716283 0.714850
O O4 0.402014 0.668438 0.677946
O O5 0.078629 0.500000 0.036588
O O6 0.159249 0.728576 0.126480
O O7 0.104300 0.714640 0.978566
O O8 0.000000 0.740322 0.000000
O O9 0.709894 0.777385 0.588192
O O10 0.713855 0.740454 0.711588
O O11 0.840207 0.814282 0.743014
O O12 0.719600 0.000000 0.668896
O O13 0.750000 0.250000 0.500000
O O14 0.697876 0.000000 0.502872
O O15 0.194687 0.779806 0.815896
O O16 0.126841 0.751646 0.875575
O O17 0.119385 0.000000 0.817693
O O18 0.751522 0.000000 0.211230
O O19 0.018063 0.285735 0.175891
O O20 0.042494 0.000000 0.197736
O O21 0.418031 0.000000 0.115996
#
# Coordination Sequence:
#
# PCOD8087086 Si02
#       8
#     8   8   8   8   8   8   8   8
#     4   9  17  33  53  75 105 140 175 221 268 311
#     4   9  18  33  53  81 116 140 168 225 279 315
#     4  10  21  36  52  76 111 142 171 221 278 316
#     4  11  21  34  53  81 113 141 172 216 270 325
#     4   9  20  38  56  75 107 145 184 228 269 312
#     4  10  21  38  58  77 101 146 192 220 263 328
#     4   9  17  32  51  74 110 146 172 213 272 323
#     4  10  19  31  53  83 108 139 183 226 266 314
#
# _framework density 18.965513999999999
#
# number of rings (size 3 to 8) (size 9 to 14) (size 15 to 20)
#    0.000    2.375    1.250    2.250    0.000    5.500 
#    0.000    1.875    0.000    7.125    0.000    0.000 
#    0.000    0.000    0.000    0.000    0.000    0.000 
#
# Total GULP energy -396729.832182 kJ/mol
# GULP energy per Si atom -12397.807256 kJ/mol
# Density = 1.892235 g / cm^3
# Si number density = 18.965514 Si / 1000 Ang^3
#
#
#
# Elastic Constant Matrix: (Units=GPa)
#
#
# Indices 1 2 3 4 5 6 
#
# 1 99.6823 34.7495 47.0492 0.0000 -9.4468 0.0000
# 2 34.7495 53.6150 43.6576 0.0000 -11.8682 0.0000
# 3 47.0492 43.6576 113.7400 0.0000 -16.9666 0.0000
# 4 0.0000 0.0000 0.0000 25.0591 0.0000 -4.8556
# 5 -9.4468 -11.8682 -16.9666 0.0000 24.3978 0.0000
# 6 0.0000 0.0000 0.0000 -4.8556 0.0000 26.1478
#
#
#
# Elastic Compliance Matrix: (Units=1/GPa)
#
#
# Indices 1 2 3 4 5 6 
#
# 1 0.013762 -0.006232 -0.003301 0.000000 0.000002 0.000000
# 2 -0.006232 0.030954 -0.008276 0.000000 0.006890 0.000000
# 3 -0.003301 -0.008276 0.013994 0.000000 0.004428 0.000000
# 4 0.000000 0.000000 0.000000 0.041395 0.000000 0.007687
# 5 0.000002 0.006890 0.004428 0.000000 0.047419 0.000000
# 6 0.000000 0.000000 0.000000 0.007687 0.000000 0.039672
#
#
# Mechanical properties :
#
#
# Convention : Reuss Voigt Hill
#
# Bulk Modulus (GPa) = 43.29998 57.54997 50.42498
# Shear Modulus (GPa) = 21.69090 24.55969 23.12529
#
# Velocity S-wave (km/s) = 3.38554 3.60247 3.49568
# Velocity P-wave (km/s) = 6.17762 6.90754 6.55275
#
# Compressibility (1/GPa) = 0.02309470
#
# Stress axis : x y z
#
# Youngs Moduli (GPa) = 72.66230 32.30556 71.45688
#
# Poissons Ratio (x) = 0.20132 0.23585
# Poissons Ratio (y) = 0.45281 0.59137
# Poissons Ratio (z) = 0.23983 0.26736
#
# Static dielectric constant tensor:
#      x y z
#    x 3.450790 0.000000 -0.004560 
#    y 0.000000 3.286870 0.000000 
#    z -0.004560 0.000000 3.515490 
# 
# 
# High freq. dielectric constant tensor:
#      x y z
#    x 1.727750 0.000000 -0.003240 
#    y 0.000000 1.719540 0.000000 
#    z -0.003240 0.000000 1.735870 
# 
# From -- ./inp_files/324335.got.cif
#   From: 2010.06.25/outbox.cif.g09.slc.cpg/sg12_163_cif.got.tgz:324335.got - 2010.06.28 00:19:55.
