data_PCOD8087537
_publ_section_title
;
Structure prediction by ZEFSAII (Michael W. Deem and Ramdas Pophale) SiO2 
 PCOD8087537
Probable space group: C 2/M
;
_chemical_formula_sum "Si O2"
_cell_formula_units_Z 56
_cell_length_a 19.010460
_cell_length_b 8.839756
_cell_length_c 21.729140
_cell_angle_alpha 90.000000
_cell_angle_beta 125.106474
_cell_angle_gamma 90.000000
_cell_volume 2987.264883
_symmetry_space_group_name_H-M "C 2/M"
_symmetry_group_IT_number 12
_symmetry_cell_setting 'monoclinic'
loop_
_space_group_symop_operation_xyz
x,y,z
-x,y,-z
-x,-y,-z
x,-y,z
1/2+x,1/2+y,z
1/2-x,1/2+y,-z
1/2-x,1/2-y,-z
1/2+x,1/2-y,z
loop_
_atom_site_type_symbol
_atom_site_label
_atom_site_fract_x
_atom_site_fract_y
_atom_site_fract_z
Si Si1 0.802403 0.324511 0.080710
Si Si2 0.164783 0.822435 0.240685
Si Si3 0.373942 0.174517 0.544309
Si Si4 0.742163 0.175698 0.398252
Si Si5 0.952187 0.675142 0.309878
Si Si6 0.219584 0.821620 0.798942
Si Si7 0.496262 0.172820 0.194539
O O1 0.778773 0.500000 0.074223
O O2 0.777290 0.246262 0.131580
O O3 0.903375 0.302814 0.116829
O O4 0.750000 0.250000 0.000000
O O5 0.219653 0.769615 0.326747
O O6 0.199211 0.740868 0.197150
O O7 0.064486 0.781155 0.196185
O O8 0.175175 0.000000 0.238095
O O9 0.327998 0.215266 0.585347
O O10 0.336281 0.275850 0.470284
O O11 0.475587 0.208541 0.602222
O O12 0.357283 0.000000 0.519648
O O13 0.742605 0.000000 0.381185
O O14 0.923871 0.500000 0.295678
O O15 0.868063 0.774740 0.280769
O O16 0.991916 0.717268 0.263901
O O17 0.225253 0.000000 0.806276
O O18 0.527903 0.000000 0.203696
#
# Coordination Sequence:
#
# PCOD8087537 Si02
#       7
#     8   8   8   8   8   8   8
#     4  10  21  40  65  91 119 147 180 221 268 324
#     4  12  23  36  55  81 113 149 190 233 279 331
#     4   9  17  31  51  77 108 144 185 232 283 331
#     4  10  19  32  50  76 110 146 185 233 284 331
#     4   9  17  34  56  79 110 145 186 233 281 332
#     4  11  23  38  58  83 114 149 186 228 278 331
#     4   9  18  35  58  84 113 147 182 224 273 325
#
# _framework density 18.746245999999999
#
# number of rings (size 3 to 8) (size 9 to 14) (size 15 to 20)
#    0.000    2.000    1.429    4.286    0.000    4.000 
#    0.000    1.429    0.000    8.571    0.000    0.000 
#    0.000    0.000    0.000    0.000    0.000    0.000 
#
# Total GULP energy -347266.599499 kJ/mol
# GULP energy per Si atom -12402.378554 kJ/mol
# Density = 1.870358 g / cm^3
# Si number density = 18.746246 Si / 1000 Ang^3
#
#
#
# Elastic Constant Matrix: (Units=GPa)
#
#
# Indices 1 2 3 4 5 6 
#
# 1 89.1350 52.0504 36.5849 0.0000 2.0850 0.0000
# 2 52.0504 126.3884 44.2025 0.0000 1.9041 0.0000
# 3 36.5849 44.2025 84.0978 0.0000 13.3723 0.0000
# 4 0.0000 0.0000 0.0000 34.8494 0.0000 2.7575
# 5 2.0850 1.9041 13.3723 0.0000 20.1843 0.0000
# 6 0.0000 0.0000 0.0000 2.7575 0.0000 31.6418
#
#
#
# Elastic Compliance Matrix: (Units=1/GPa)
#
#
# Indices 1 2 3 4 5 6 
#
# 1 0.015993 -0.004995 -0.004632 0.000000 0.001888 0.000000
# 2 -0.004995 0.011393 -0.004165 0.000000 0.002201 0.000000
# 3 -0.004632 -0.004165 0.017836 0.000000 -0.010945 0.000000
# 4 0.000000 0.000000 0.000000 0.028894 0.000000 -0.002518
# 5 0.001888 0.002201 -0.010945 0.000000 0.056392 0.000000
# 6 0.000000 0.000000 0.000000 -0.002518 0.000000 0.031823
#
#
# Mechanical properties :
#
#
# Convention : Reuss Voigt Hill
#
# Bulk Modulus (GPa) = 56.69958 62.81076 59.75517
# Shear Modulus (GPa) = 25.53711 28.45397 26.99554
#
# Velocity S-wave (km/s) = 3.69487 3.90019 3.79892
# Velocity P-wave (km/s) = 6.96522 7.33897 7.15453
#
# Compressibility (1/GPa) = 0.01763682
#
# Stress axis : x y z
#
# Youngs Moduli (GPa) = 62.52864 87.77621 56.06735
#
# Poissons Ratio (x) = 0.43841 0.25972
# Poissons Ratio (y) = 0.31231 0.23353
# Poissons Ratio (z) = 0.28965 0.36560
#
# Static dielectric constant tensor:
#      x y z
#    x 3.395720 0.000000 0.201840 
#    y 0.000000 3.441180 0.000000 
#    z 0.201840 0.000000 3.444520 
# 
# 
# High freq. dielectric constant tensor:
#      x y z
#    x 1.715140 0.000000 0.013760 
#    y 0.000000 1.732120 0.000000 
#    z 0.013760 0.000000 1.720050 
# 
# From -- ./inp_files/314445.got.cif
#   From: 2010.06.25/outbox.cif.g09.slc.cpg/sg12_158_cif.got.tgz:314445.got - 2010.06.28 00:19:55.
