data_PCOD8087313
_publ_section_title
;
Structure prediction by ZEFSAII (Michael W. Deem and Ramdas Pophale) SiO2 
 PCOD8087313
Probable space group: C 2/M
;
_chemical_formula_sum "Si O2"
_cell_formula_units_Z 40
_cell_length_a 27.772053
_cell_length_b 12.649332
_cell_length_c 16.454827
_cell_angle_alpha 90.000000
_cell_angle_beta 22.387483
_cell_angle_gamma 90.000000
_cell_volume 2201.627420
_symmetry_space_group_name_H-M "C 2/M"
_symmetry_group_IT_number 12
_symmetry_cell_setting 'monoclinic'
loop_
_space_group_symop_operation_xyz
x,y,z
-x,y,-z
-x,-y,-z
x,-y,z
1/2+x,1/2+y,z
1/2-x,1/2+y,-z
1/2-x,1/2-y,-z
1/2+x,1/2-y,z
loop_
_atom_site_type_symbol
_atom_site_label
_atom_site_fract_x
_atom_site_fract_y
_atom_site_fract_z
Si Si1 0.447272 0.741067 0.848294
Si Si2 0.067853 0.380536 0.279378
Si Si3 0.827136 0.300809 0.723406
Si Si4 0.940270 0.379620 0.008663
Si Si5 0.349770 0.619941 0.568964
O O1 0.405765 0.831780 0.849514
O O2 0.494232 0.800803 0.855841
O O3 0.556703 0.665800 0.645267
O O4 0.320119 0.672269 0.063291
O O5 0.119715 0.500000 0.200254
O O6 0.141310 0.308187 0.230334
O O7 0.917261 0.382355 0.534051
O O8 0.859486 0.183619 0.638458
O O9 0.981058 0.500000 0.924380
O O10 0.789467 0.370912 0.251093
O O11 0.000000 0.342223 0.000000
O O12 0.388009 0.500000 0.528431
#
# Coordination Sequence:
#
# PCOD8087313 Si02
#       5
#     8   8   8   8   8
#     4  10  19  32  50  73  98 124 159 199 240 279
#     4  10  19  32  49  70  97 129 164 197 231 277
#     4   9  18  32  46  67  97 128 159 193 231 276
#     4   9  18  34  54  73  94 123 158 196 240 288
#     4   9  19  33  49  71  99 127 157 195 236 282
#
# _framework density 18.168378000000001
#
# number of rings (size 3 to 8) (size 9 to 14) (size 15 to 20)
#    0.000    2.600    0.000    2.400    0.000    3.200 
#    0.000    8.000    0.000    0.600    0.000    0.000 
#    0.000    0.000    0.000    0.000    0.000    0.000 
#
# Total GULP energy -247950.841685 kJ/mol
# GULP energy per Si atom -12397.542084 kJ/mol
# Density = 1.812703 g / cm^3
# Si number density = 18.168378 Si / 1000 Ang^3
#
#
#
# Elastic Constant Matrix: (Units=GPa)
#
#
# Indices 1 2 3 4 5 6 
#
# 1 113.4995 48.5264 13.2254 0.0000 0.8361 0.0000
# 2 48.5264 102.2448 27.0517 0.0000 -0.9466 0.0000
# 3 13.2254 27.0517 58.1191 0.0000 4.1088 0.0000
# 4 0.0000 0.0000 0.0000 23.5033 0.0000 0.2725
# 5 0.8361 -0.9466 4.1088 0.0000 19.0233 0.0000
# 6 0.0000 0.0000 0.0000 0.2725 0.0000 26.3059
#
#
#
# Elastic Compliance Matrix: (Units=1/GPa)
#
#
# Indices 1 2 3 4 5 6 
#
# 1 0.011064 -0.005253 -0.000020 0.000000 -0.000743 0.000000
# 2 -0.005253 0.013702 -0.005328 0.000000 0.002064 0.000000
# 3 -0.000020 -0.005328 0.020015 0.000000 -0.004587 0.000000
# 4 0.000000 0.000000 0.000000 0.042552 0.000000 -0.000441
# 5 -0.000743 0.002064 -0.004587 0.000000 0.053693 0.000000
# 6 0.000000 0.000000 0.000000 -0.000441 0.000000 0.038019
#
#
# Mechanical properties :
#
#
# Convention : Reuss Voigt Hill
#
# Bulk Modulus (GPa) = 42.41090 50.16338 46.28714
# Shear Modulus (GPa) = 24.02595 26.10383 25.06489
#
# Velocity S-wave (km/s) = 3.64043 3.79459 3.71831
# Velocity P-wave (km/s) = 6.40814 6.84608 6.63073
#
# Compressibility (1/GPa) = 0.02357884
#
# Stress axis : x y z
#
# Youngs Moduli (GPa) = 90.38128 72.98040 49.96233
#
# Poissons Ratio (x) = 0.38334 0.00101
# Poissons Ratio (y) = 0.47475 0.26622
# Poissons Ratio (z) = 0.00184 0.38887
#
# Static dielectric constant tensor:
#      x y z
#    x 3.223310 0.000000 0.028210 
#    y 0.000000 3.316400 0.000000 
#    z 0.028210 0.000000 3.445830 
# 
# 
# High freq. dielectric constant tensor:
#      x y z
#    x 1.689110 0.000000 0.007290 
#    y 0.000000 1.691910 0.000000 
#    z 0.007290 0.000000 1.709180 
# 
# From -- ./inp_files/182717.got.cif
#   From: 2010.06.25/outbox.cif.g09.slc.cpg/sg12_92_cif.got.tgz:182717.got - 2010.06.28 00:19:55.
