data_PCOD8087661
_publ_section_title
;
Structure prediction by ZEFSAII (Michael W. Deem and Ramdas Pophale) SiO2 
 PCOD8087661
Probable space group: C 2/M
;
_chemical_formula_sum "Si O2"
_cell_formula_units_Z 56
_cell_length_a 18.795400
_cell_length_b 9.296542
_cell_length_c 18.740267
_cell_angle_alpha 90.000000
_cell_angle_beta 104.842921
_cell_angle_gamma 90.000000
_cell_volume 3165.263304
_symmetry_space_group_name_H-M "C 2/M"
_symmetry_group_IT_number 12
_symmetry_cell_setting 'monoclinic'
loop_
_space_group_symop_operation_xyz
x,y,z
-x,y,-z
-x,-y,-z
x,-y,z
1/2+x,1/2+y,z
1/2-x,1/2+y,-z
1/2-x,1/2-y,-z
1/2+x,1/2-y,z
loop_
_atom_site_type_symbol
_atom_site_label
_atom_site_fract_x
_atom_site_fract_y
_atom_site_fract_z
Si Si1 0.864954 0.167906 0.635542
Si Si2 0.107623 0.335222 0.225007
Si Si3 0.082282 0.170278 0.504383
Si Si4 0.714001 0.335389 0.054331
Si Si5 0.256342 0.338914 0.784849
Si Si6 0.196191 0.662299 0.625473
Si Si7 0.428551 0.834278 0.937327
O O1 0.913399 0.243447 0.710262
O O2 0.893412 0.226879 0.567096
O O3 0.778649 0.205487 0.621710
O O4 0.879798 0.000000 0.646159
O O5 0.110752 0.500000 0.249762
O O6 0.186946 0.286836 0.217307
O O7 0.053661 0.312344 0.142905
O O8 0.137110 0.231881 0.577280
O O9 0.000000 0.224191 0.500000
O O10 0.088016 0.000000 0.510420
O O11 0.703922 0.500000 0.028098
O O12 0.767292 0.324114 0.138243
O O13 0.634897 0.271224 0.052663
O O14 0.750000 0.250000 0.000000
O O15 0.291575 0.500000 0.782370
O O16 0.189985 0.323565 0.710569
O O17 0.178722 0.500000 0.596092
O O18 0.405023 0.000000 0.945151
O O19 0.500000 0.791936 0.000000
#
# Coordination Sequence:
#
# PCOD8087661 Si02
#       7
#     8   8   8   8   8   8   8
#     4   9  18  33  51  70  95 125 157 196 240 284
#     4   9  16  27  48  75  96 120 160 203 239 281
#     4  10  21  35  49  68  97 130 157 187 236 288
#     4  10  19  32  51  74 102 134 167 203 244 293
#     4   8  16  31  49  70  97 127 157 196 246 287
#     4   9  17  31  52  74  92 117 157 199 238 280
#     4   9  18  33  51  72 101 133 164 204 252 295
#
# _framework density 17.692049999999998
#
# number of rings (size 3 to 8) (size 9 to 14) (size 15 to 20)
#    0.000    2.857    0.000    2.143    0.000    4.571 
#    0.000    1.429    0.000    5.143    0.000    0.000 
#    0.000    0.000    0.000    0.000    0.000    0.000 
#
# Total GULP energy -346975.129685 kJ/mol
# GULP energy per Si atom -12391.968917 kJ/mol
# Density = 1.765178 g / cm^3
# Si number density = 17.692050 Si / 1000 Ang^3
#
#
#
# Elastic Constant Matrix: (Units=GPa)
#
#
# Indices 1 2 3 4 5 6 
#
# 1 64.1422 34.7632 61.6402 0.0000 0.7238 0.0000
# 2 34.7632 69.7637 59.3937 0.0000 2.4416 0.0000
# 3 61.6402 59.3937 165.4117 0.0000 3.3085 0.0000
# 4 0.0000 0.0000 0.0000 33.7175 0.0000 0.0287
# 5 0.7238 2.4416 3.3085 0.0000 24.0492 0.0000
# 6 0.0000 0.0000 0.0000 0.0287 0.0000 19.4396
#
#
#
# Elastic Compliance Matrix: (Units=1/GPa)
#
#
# Indices 1 2 3 4 5 6 
#
# 1 0.026420 -0.006913 -0.007382 0.000000 0.000922 0.000000
# 2 -0.006913 0.022482 -0.005470 0.000000 -0.001322 0.000000
# 3 -0.007382 -0.005470 0.010774 0.000000 -0.000705 0.000000
# 4 0.000000 0.000000 0.000000 0.029658 0.000000 -0.000044
# 5 0.000922 -0.001322 -0.000705 0.000000 0.041785 0.000000
# 6 0.000000 0.000000 0.000000 -0.000044 0.000000 0.051441
#
#
# Mechanical properties :
#
#
# Convention : Reuss Voigt Hill
#
# Bulk Modulus (GPa) = 49.63414 67.87908 58.75661
# Shear Modulus (GPa) = 21.85253 25.00930 23.43092
#
# Velocity S-wave (km/s) = 3.51830 3.76385 3.64314
# Velocity P-wave (km/s) = 6.67982 7.57226 7.13999
#
# Compressibility (1/GPa) = 0.02014742
#
# Stress axis : x y z
#
# Youngs Moduli (GPa) = 37.84957 44.48006 92.81230
#
# Poissons Ratio (x) = 0.30750 0.68511
# Poissons Ratio (y) = 0.26166 0.50768
# Poissons Ratio (z) = 0.27939 0.24330
#
# Static dielectric constant tensor:
#      x y z
#    x 2.897320 0.000000 -0.055150 
#    y 0.000000 3.297140 0.000000 
#    z -0.055150 0.000000 3.792250 
# 
# 
# High freq. dielectric constant tensor:
#      x y z
#    x 1.629730 0.000000 0.000170 
#    y 0.000000 1.688850 0.000000 
#    z 0.000170 0.000000 1.708740 
# 
# From -- ./inp_files/280188.got.cif
#   From: 2010.06.25/outbox.cif.g09.slc.cpg/sg12_141_cif.got.tgz:280188.got - 2010.06.28 00:19:55.
