data_PCOD8087932
_publ_section_title
;
Structure prediction by ZEFSAII (Michael W. Deem and Ramdas Pophale) SiO2 
 PCOD8087932
Probable space group: C 2/M
;
_chemical_formula_sum "Si O2"
_cell_formula_units_Z 52
_cell_length_a 25.806966
_cell_length_b 18.078143
_cell_length_c 7.936739
_cell_angle_alpha 90.000000
_cell_angle_beta 124.775479
_cell_angle_gamma 90.000000
_cell_volume 3041.473704
_symmetry_space_group_name_H-M "C 2/M"
_symmetry_group_IT_number 12
_symmetry_cell_setting 'monoclinic'
loop_
_space_group_symop_operation_xyz
x,y,z
-x,y,-z
-x,-y,-z
x,-y,z
1/2+x,1/2+y,z
1/2-x,1/2+y,-z
1/2-x,1/2-y,-z
1/2+x,1/2-y,z
loop_
_atom_site_type_symbol
_atom_site_label
_atom_site_fract_x
_atom_site_fract_y
_atom_site_fract_z
Si Si1 0.675073 0.339677 0.350054
Si Si2 0.800657 0.500000 0.919431
Si Si3 0.369109 0.154471 0.416532
Si Si4 0.195523 0.500000 0.689525
Si Si5 0.750732 0.750712 0.750019
Si Si6 0.291293 0.500000 0.559768
Si Si7 0.072893 0.275355 0.161171
Si Si8 0.859349 0.345030 0.035134
O O1 0.730721 0.308453 0.571132
O O2 0.702246 0.317160 0.218304
O O3 0.665154 0.427236 0.351493
O O4 0.607190 0.302742 0.256803
O O5 0.775239 0.500000 0.066422
O O6 0.844078 0.429484 0.963731
O O7 0.743169 0.500000 0.683293
O O8 0.311852 0.212600 0.295065
O O9 0.418019 0.175237 0.654281
O O10 0.399648 0.157708 0.284935
O O11 0.346903 0.072058 0.417028
O O12 0.247602 0.500000 0.642233
O O13 0.793868 0.700133 0.952185
O O14 0.101870 0.314022 0.050352
O O15 0.000000 0.259669 0.000000
#
# Coordination Sequence:
#
# PCOD8087932 Si02
#       8
#     8   4   8   4   8   4   8   8
#     4   9  18  28  52  76  99 134 168 200 242 304
#     4  10  20  30  48  81 110 129 154 193 250 316
#     4  10  19  32  52  75 102 132 163 203 251 300
#     4  10  20  30  48  81 110 129 154 193 250 316
#     4   9  15  30  46  79 105 126 161 199 250 303
#     4  12  16  32  51  72 111 138 152 188 262 308
#     4  10  22  39  51  68  98 134 180 218 240 274
#     4  10  19  32  52  75 102 132 163 203 251 300
#
# _framework density 17.096976000000002
#
# number of rings (size 3 to 8) (size 9 to 14) (size 15 to 20)
#    0.000    2.154    3.077    2.308    0.000    0.615 
#    0.000    1.923    0.000    2.769    0.000    0.000 
#    0.000    6.769    0.000    0.000    0.000    0.000 
#
# Total GULP energy -322098.339311 kJ/mol
# GULP energy per Si atom -12388.397666 kJ/mol
# Density = 1.705806 g / cm^3
# Si number density = 17.096976 Si / 1000 Ang^3
#
#
#
# Elastic Constant Matrix: (Units=GPa)
#
#
# Indices 1 2 3 4 5 6 
#
# 1 37.8988 25.8302 50.2139 0.0000 2.7407 0.0000
# 2 25.8302 134.4674 42.1528 0.0000 0.1194 0.0000
# 3 50.2139 42.1528 101.2904 0.0000 -9.0826 0.0000
# 4 0.0000 0.0000 0.0000 25.6960 0.0000 -6.9815
# 5 2.7407 0.1194 -9.0826 0.0000 26.3969 0.0000
# 6 0.0000 0.0000 0.0000 -6.9815 0.0000 13.7602
#
#
#
# Elastic Compliance Matrix: (Units=1/GPa)
#
#
# Indices 1 2 3 4 5 6 
#
# 1 0.092346 -0.003040 -0.046818 0.000000 -0.025683 0.000000
# 2 -0.003040 0.008696 -0.002154 0.000000 -0.000465 0.000000
# 3 -0.046818 -0.002154 0.035511 0.000000 0.017089 0.000000
# 4 0.000000 0.000000 0.000000 0.045139 0.000000 0.022902
# 5 -0.025683 -0.000465 0.017089 0.000000 0.046432 0.000000
# 6 0.000000 0.000000 0.000000 0.022902 0.000000 0.084293
#
#
# Mechanical properties :
#
#
# Convention : Reuss Voigt Hill
#
# Bulk Modulus (GPa) = 30.74038 56.67226 43.70632
# Shear Modulus (GPa) = 11.70186 23.53460 17.61823
#
# Velocity S-wave (km/s) = 2.61902 3.71419 3.21360
# Velocity P-wave (km/s) = 5.21198 7.18423 6.27606
#
# Compressibility (1/GPa) = 0.03253050
#
# Stress axis : x y z
#
# Youngs Moduli (GPa) = 10.82886 114.99232 28.16053
#
# Poissons Ratio (x) = 0.34955 1.31841
# Poissons Ratio (y) = 0.03292 0.06065
# Poissons Ratio (z) = 0.50698 0.24766
#
# Static dielectric constant tensor:
#      x y z
#    x 2.887040 0.000000 -0.279080 
#    y 0.000000 3.419970 0.000000 
#    z -0.279080 0.000000 3.268920 
# 
# 
# High freq. dielectric constant tensor:
#      x y z
#    x 1.624550 0.000000 -0.031150 
#    y 0.000000 1.668420 0.000000 
#    z -0.031150 0.000000 1.657770 
# 
# From -- ./inp_files/112370.got.cif
#   From: 2010.06.25/outbox.cif.g09.slc.cpg/sg12_57_cif.got.tgz:112370.got - 2010.06.28 00:19:55.
