data_PCOD8087402
_publ_section_title
;
Structure prediction by ZEFSAII (Michael W. Deem and Ramdas Pophale) SiO2 
 PCOD8087402
Probable space group: C 2/M
;
_chemical_formula_sum "Si O2"
_cell_formula_units_Z 64
_cell_length_a 28.220618
_cell_length_b 8.918494
_cell_length_c 15.532312
_cell_angle_alpha 90.000000
_cell_angle_beta 90.397275
_cell_angle_gamma 90.000000
_cell_volume 3909.162378
_symmetry_space_group_name_H-M "C 2/M"
_symmetry_group_IT_number 12
_symmetry_cell_setting 'monoclinic'
loop_
_space_group_symop_operation_xyz
x,y,z
-x,y,-z
-x,-y,-z
x,-y,z
1/2+x,1/2+y,z
1/2-x,1/2+y,-z
1/2-x,1/2-y,-z
1/2+x,1/2-y,z
loop_
_atom_site_type_symbol
_atom_site_label
_atom_site_fract_x
_atom_site_fract_y
_atom_site_fract_z
Si Si1 0.442908 0.175515 0.326139
Si Si2 0.555685 0.172279 0.990827
Si Si3 0.056249 0.168518 0.500711
Si Si4 0.946714 0.675945 0.671954
Si Si5 0.605826 0.322686 0.834651
Si Si6 0.198050 0.326400 0.900188
Si Si7 0.706104 0.172930 0.099442
Si Si8 0.605703 0.823568 0.160952
O O1 0.425556 0.232933 0.419095
O O2 0.498174 0.211847 0.311939
O O3 0.412588 0.262525 0.255928
O O4 0.432693 0.000000 0.318703
O O5 0.579840 0.242582 0.076261
O O6 0.571785 0.000000 0.976685
O O7 0.500000 0.185061 0.000000
O O8 0.571455 0.265936 0.909034
O O9 0.074110 0.242168 0.412282
O O10 0.000000 0.168094 0.500000
O O11 0.076411 0.000000 0.508404
O O12 0.938570 0.500000 0.658834
O O13 0.917590 0.742175 0.752768
O O14 0.605356 0.500000 0.833398
O O15 0.659274 0.266624 0.847959
O O16 0.191795 0.500000 0.878066
O O17 0.250080 0.274489 0.870564
O O18 0.191160 0.293602 0.001138
O O19 0.661510 0.214969 0.159079
O O20 0.720839 0.000000 0.109615
O O21 0.596698 0.000000 0.159663
#
# Coordination Sequence:
#
# PCOD8087402 Si02
#       8
#     8   8   8   8   8   8   8   8
#     4  10  19  32  50  71  96 129 170 206 238 284
#     4  10  19  33  50  67  94 134 173 202 233 279
#     4   9  17  30  47  69  98 128 158 200 250 287
#     4   9  17  30  50  73  96 128 167 201 235 283
#     4  12  23  33  47  70 100 130 163 202 249 294
#     4  10  19  33  51  69  92 123 164 205 247 293
#     4   9  17  31  50  70  94 122 159 206 252 287
#     4   9  16  29  48  71  96 126 163 201 238 282
#
# _framework density 16.371794000000001
#
# number of rings (size 3 to 8) (size 9 to 14) (size 15 to 20)
#    0.000    2.250    1.250    3.000    0.000    4.750 
#    0.000    1.250    0.000    0.000    0.000    0.875 
#    0.000    0.000    0.000    0.000    0.000    0.000 
#
# Total GULP energy -396842.034097 kJ/mol
# GULP energy per Si atom -12401.313566 kJ/mol
# Density = 1.633453 g / cm^3
# Si number density = 16.371794 Si / 1000 Ang^3
#
#
#
# Elastic Constant Matrix: (Units=GPa)
#
#
# Indices 1 2 3 4 5 6 
#
# 1 72.7376 40.2768 49.1202 0.0000 4.0882 0.0000
# 2 40.2768 91.0159 50.4256 0.0000 9.8928 0.0000
# 3 49.1202 50.4256 117.0529 0.0000 3.6888 0.0000
# 4 0.0000 0.0000 0.0000 23.3975 0.0000 3.1519
# 5 4.0882 9.8928 3.6888 0.0000 12.4265 0.0000
# 6 0.0000 0.0000 0.0000 3.1519 0.0000 16.3352
#
#
#
# Elastic Compliance Matrix: (Units=1/GPa)
#
#
# Indices 1 2 3 4 5 6 
#
# 1 0.021347 -0.005833 -0.006430 0.000000 -0.000471 0.000000
# 2 -0.005833 0.017294 -0.004673 0.000000 -0.010462 0.000000
# 3 -0.006430 -0.004673 0.013194 0.000000 0.001919 0.000000
# 4 0.000000 0.000000 0.000000 0.043880 0.000000 -0.008467
# 5 -0.000471 -0.010462 0.001919 0.000000 0.088387 0.000000
# 6 0.000000 0.000000 0.000000 -0.008467 0.000000 0.062851
#
#
# Mechanical properties :
#
#
# Convention : Reuss Voigt Hill
#
# Bulk Modulus (GPa) = 55.66957 62.27243 58.97100
# Shear Modulus (GPa) = 17.43290 19.83074 18.63182
#
# Velocity S-wave (km/s) = 3.26669 3.48411 3.37715
# Velocity P-wave (km/s) = 6.95022 7.36915 7.16275
#
# Compressibility (1/GPa) = 0.01796313
#
# Stress axis : x y z
#
# Youngs Moduli (GPa) = 46.84559 57.82263 75.79070
#
# Poissons Ratio (x) = 0.33726 0.48737
# Poissons Ratio (y) = 0.27323 0.35417
# Poissons Ratio (z) = 0.30124 0.27020
#
# Static dielectric constant tensor:
#      x y z
#    x 2.977270 0.000000 -0.053900 
#    y 0.000000 3.063500 0.000000 
#    z -0.053900 0.000000 3.145430 
# 
# 
# High freq. dielectric constant tensor:
#      x y z
#    x 1.611100 0.000000 -0.000400 
#    y 0.000000 1.625660 0.000000 
#    z -0.000400 0.000000 1.621800 
# 
# From -- ./inp_files/244032.got.cif
#   From: 2010.06.25/outbox.cif.g09.slc.cpg/sg12_123_cif.got.tgz:244032.got - 2010.06.28 00:19:55.
