data_PCOD8087411
_publ_section_title
;
Structure prediction by ZEFSAII (Michael W. Deem and Ramdas Pophale) SiO2 
 PCOD8087411
Probable space group: C 2/M
;
_chemical_formula_sum "Si O2"
_cell_formula_units_Z 56
_cell_length_a 19.455867
_cell_length_b 9.162781
_cell_length_c 20.386153
_cell_angle_alpha 90.000000
_cell_angle_beta 123.860691
_cell_angle_gamma 90.000000
_cell_volume 3017.850806
_symmetry_space_group_name_H-M "C 2/M"
_symmetry_group_IT_number 12
_symmetry_cell_setting 'monoclinic'
loop_
_space_group_symop_operation_xyz
x,y,z
-x,y,-z
-x,-y,-z
x,-y,z
1/2+x,1/2+y,z
1/2-x,1/2+y,-z
1/2-x,1/2-y,-z
1/2+x,1/2-y,z
loop_
_atom_site_type_symbol
_atom_site_label
_atom_site_fract_x
_atom_site_fract_y
_atom_site_fract_z
Si Si1 0.491521 0.673881 0.068522
Si Si2 0.746010 0.672340 0.697340
Si Si3 0.288017 0.834146 0.189574
Si Si4 0.950415 0.827438 0.271270
Si Si5 0.094251 0.172164 0.247174
Si Si6 0.312362 0.337478 0.990921
Si Si7 0.439234 0.671205 0.413792
O O1 0.491148 0.500000 0.063539
O O2 0.560423 0.723942 0.157760
O O3 0.500000 0.741171 0.000000
O O4 0.403329 0.730363 0.047983
O O5 0.760276 0.500000 0.709730
O O6 0.748019 0.740985 0.770205
O O7 0.819385 0.744333 0.693266
O O8 0.655977 0.709040 0.618311
O O9 0.369698 0.758095 0.201949
O O10 0.213605 0.835245 0.098612
O O11 0.309128 0.000000 0.222645
O O12 0.029835 0.784121 0.270116
O O13 0.963537 0.774925 0.353609
O O14 0.932580 0.000000 0.257298
O O15 0.110970 0.000000 0.256964
O O16 0.312255 0.500000 0.019044
O O17 0.250000 0.250000 0.000000
O O18 0.500000 0.745331 0.500000
O O19 0.452863 0.500000 0.422223
#
# Coordination Sequence:
#
# PCOD8087411 Si02
#       7
#     8   8   8   8   8   8   8
#     4   9  17  30  47  65  89 126 167 201 237 283
#     4  10  20  33  52  75  98 128 164 202 245 295
#     4  10  19  32  51  73  98 130 168 210 254 298
#     4   9  18  32  52  76 100 132 168 202 246 296
#     4  10  19  32  50  71  99 132 166 205 245 293
#     4  10  20  32  48  70  95 126 165 209 253 294
#     4   8  15  31  54  76  97 125 163 201 240 294
#
# _framework density 18.556253000000002
#
# number of rings (size 3 to 8) (size 9 to 14) (size 15 to 20)
#    0.000    2.571    0.000    3.429    0.000    5.143 
#    0.000    1.429    0.000   12.429    0.000    0.000 
#    0.000    0.000    0.000    0.000    0.000    0.000 
#
# Total GULP energy -347055.286363 kJ/mol
# GULP energy per Si atom -12394.831656 kJ/mol
# Density = 1.851402 g / cm^3
# Si number density = 18.556253 Si / 1000 Ang^3
#
#
#
# Elastic Constant Matrix: (Units=GPa)
#
#
# Indices 1 2 3 4 5 6 
#
# 1 127.2973 38.3465 30.8701 0.0000 14.6221 0.0000
# 2 38.3465 53.8822 18.1118 0.0000 9.6617 0.0000
# 3 30.8701 18.1118 76.0368 0.0000 11.4872 0.0000
# 4 0.0000 0.0000 0.0000 16.0623 0.0000 3.4658
# 5 14.6221 9.6617 11.4872 0.0000 24.3048 0.0000
# 6 0.0000 0.0000 0.0000 3.4658 0.0000 33.8546
#
#
#
# Elastic Compliance Matrix: (Units=1/GPa)
#
#
# Indices 1 2 3 4 5 6 
#
# 1 0.010647 -0.006270 -0.002410 0.000000 -0.002774 0.000000
# 2 -0.006270 0.024770 -0.002624 0.000000 -0.004834 0.000000
# 3 -0.002410 -0.002624 0.015484 0.000000 -0.004825 0.000000
# 4 0.000000 0.000000 0.000000 0.063664 0.000000 -0.006517
# 5 -0.002774 -0.004834 -0.004825 0.000000 0.047015 0.000000
# 6 0.000000 0.000000 0.000000 -0.006517 0.000000 0.030205
#
#
# Mechanical properties :
#
#
# Convention : Reuss Voigt Hill
#
# Bulk Modulus (GPa) = 35.34473 47.98591 41.66532
# Shear Modulus (GPa) = 22.33880 26.17020 24.25450
#
# Velocity S-wave (km/s) = 3.47341 3.75949 3.61928
# Velocity P-wave (km/s) = 5.93083 6.69036 6.32201
#
# Compressibility (1/GPa) = 0.02829276
#
# Stress axis : x y z
#
# Youngs Moduli (GPa) = 93.91892 40.37116 64.58250
#
# Poissons Ratio (x) = 0.25313 0.15565
# Poissons Ratio (y) = 0.58887 0.16949
# Poissons Ratio (z) = 0.22636 0.10595
#
# Static dielectric constant tensor:
#      x y z
#    x 3.539430 0.000000 0.081390 
#    y 0.000000 3.209930 0.000000 
#    z 0.081390 0.000000 3.445410 
# 
# 
# High freq. dielectric constant tensor:
#      x y z
#    x 1.729390 0.000000 0.008570 
#    y 0.000000 1.689290 0.000000 
#    z 0.008570 0.000000 1.707810 
# 
# From -- ./inp_files/314419.got.cif
#   From: 2010.06.25/outbox.cif.g09.slc.cpg/sg12_158_cif.got.tgz:314419.got - 2010.06.28 00:19:55.
