data_PCOD8087996
_publ_section_title
;
Structure prediction by ZEFSAII (Michael W. Deem and Ramdas Pophale) SiO2 
 PCOD8087996
Probable space group: C 2/M
;
_chemical_formula_sum "Si O2"
_cell_formula_units_Z 56
_cell_length_a 25.282324
_cell_length_b 9.147949
_cell_length_c 17.324977
_cell_angle_alpha 90.000000
_cell_angle_beta 45.515930
_cell_angle_gamma 90.000000
_cell_volume 2858.736146
_symmetry_space_group_name_H-M "C 2/M"
_symmetry_group_IT_number 12
_symmetry_cell_setting 'monoclinic'
loop_
_space_group_symop_operation_xyz
x,y,z
-x,y,-z
-x,-y,-z
x,-y,z
1/2+x,1/2+y,z
1/2-x,1/2+y,-z
1/2-x,1/2-y,-z
1/2+x,1/2-y,z
loop_
_atom_site_type_symbol
_atom_site_label
_atom_site_fract_x
_atom_site_fract_y
_atom_site_fract_z
Si Si1 0.328106 0.328529 0.330512
Si Si2 0.963675 0.330067 0.119948
Si Si3 0.176627 0.169725 0.487050
Si Si4 0.474385 0.668961 0.439865
Si Si5 0.757495 0.825611 0.910447
Si Si6 0.103544 0.662313 0.239439
Si Si7 0.898764 0.661486 0.939467
O O1 0.325989 0.500000 0.317170
O O2 0.388511 0.258439 0.211492
O O3 0.247790 0.264055 0.390649
O O4 0.347824 0.292978 0.399919
O O5 0.945180 0.500000 0.154990
O O6 0.026431 0.255983 0.112236
O O7 0.000000 0.304506 0.000000
O O8 0.110655 0.208497 0.494025
O O9 0.198292 0.000000 0.458618
O O10 0.500000 0.708754 0.500000
O O11 0.489277 0.500000 0.406641
O O12 0.524761 0.765051 0.333217
O O13 0.829026 0.758633 0.793197
O O14 0.767084 0.000000 0.909470
O O15 0.750000 0.750000 0.000000
O O16 0.680561 0.784835 0.943815
O O17 0.106265 0.500000 0.272749
O O18 0.113047 0.656466 0.138925
O O19 0.911963 0.500000 0.960311
#
# Coordination Sequence:
#
# PCOD8087996 Si02
#       7
#     8   8   8   8   8   8   8
#     4  10  20  35  58  85 111 140 179 229 277 319
#     4  10  20  35  54  77 107 143 182 219 265 324
#     4   9  19  37  60  84 108 140 184 227 272 326
#     4  10  21  37  55  78 107 139 177 220 269 322
#     4   9  16  29  49  73 102 131 169 215 258 305
#     4  10  19  32  52  76 104 137 176 218 263 314
#     4   8  16  31  51  75 100 133 176 219 257 301
#
# _framework density 19.589075000000001
#
# number of rings (size 3 to 8) (size 9 to 14) (size 15 to 20)
#    0.000    2.571    0.000    3.000    0.000    1.714 
#    2.571    3.571    0.000    0.000    0.000    0.000 
#    0.000    0.000    0.000    0.000    0.000    0.000 
#
# Total GULP energy -346874.363349 kJ/mol
# GULP energy per Si atom -12388.370120 kJ/mol
# Density = 1.954449 g / cm^3
# Si number density = 19.589075 Si / 1000 Ang^3
#
#
#
# Elastic Constant Matrix: (Units=GPa)
#
#
# Indices 1 2 3 4 5 6 
#
# 1 114.2215 50.8362 56.3548 0.0010 -32.2372 -0.0004
# 2 50.8362 90.5852 58.2031 -0.0117 -25.4437 0.0120
# 3 56.3548 58.2031 103.4828 -0.0037 -36.2198 0.0002
# 4 0.0010 -0.0117 -0.0037 24.7888 0.0021 -7.7568
# 5 -32.2372 -25.4437 -36.2198 0.0021 31.8131 -0.0012
# 6 -0.0004 0.0120 0.0002 -7.7568 -0.0012 19.6982
#
#
#
# Elastic Compliance Matrix: (Units=1/GPa)
#
#
# Indices 1 2 3 4 5 6 
#
# 1 0.014101 -0.003949 -0.002597 -0.000003 0.008173 0.000002
# 2 -0.003949 0.018803 -0.007585 0.000005 0.002402 -0.000009
# 3 -0.002597 -0.007585 0.020448 0.000000 0.014582 0.000005
# 4 -0.000003 0.000005 0.000000 0.046010 -0.000001 0.018118
# 5 0.008173 0.002402 0.014582 -0.000001 0.058239 0.000001
# 6 0.000002 -0.000009 0.000005 0.018118 0.000001 0.057901
#
#
# Mechanical properties :
#
#
# Convention : Reuss Voigt Hill
#
# Bulk Modulus (GPa) = 39.85595 71.00865 55.43230
# Shear Modulus (GPa) = 19.83133 24.78637 22.30885
#
# Velocity S-wave (km/s) = 3.18522 3.56099 3.37833
# Velocity P-wave (km/s) = 5.82389 7.29625 6.60125
#
# Compressibility (1/GPa) = 0.02509036
#
# Stress axis : x y z
#
# Youngs Moduli (GPa) = 70.91900 53.18205 48.90547
#
# Poissons Ratio (x) = 0.21000 0.12702
# Poissons Ratio (y) = 0.28003 0.37093
# Poissons Ratio (z) = 0.18419 0.40337
#
# Static dielectric constant tensor:
#      x y z
#    x 3.838760 -0.000010 -0.480540 
#    y -0.000010 3.607280 0.000010 
#    z -0.480540 0.000010 3.780000 
# 
# 
# High freq. dielectric constant tensor:
#      x y z
#    x 1.762730 0.000000 -0.030990 
#    y 0.000000 1.750600 0.000000 
#    z -0.030990 0.000000 1.754870 
# 
# From -- ./inp_files/291862.got.cif
#   From: 2010.06.25/outbox.cif.g09.slc.cpg/sg12_146_cif.got.tgz:291862.got - 2010.06.28 00:19:55.
