data_PCOD8087305
_publ_section_title
;
Structure prediction by ZEFSAII (Michael W. Deem and Ramdas Pophale) SiO2 
 PCOD8087305
Probable space group: C 2/M
;
_chemical_formula_sum "Si O2"
_cell_formula_units_Z 56
_cell_length_a 14.231211
_cell_length_b 14.625308
_cell_length_c 15.079680
_cell_angle_alpha 90.000000
_cell_angle_beta 56.878507
_cell_angle_gamma 90.000000
_cell_volume 2628.639182
_symmetry_space_group_name_H-M "C 2/M"
_symmetry_group_IT_number 12
_symmetry_cell_setting 'monoclinic'
loop_
_space_group_symop_operation_xyz
x,y,z
-x,y,-z
-x,-y,-z
x,-y,z
1/2+x,1/2+y,z
1/2-x,1/2+y,-z
1/2-x,1/2-y,-z
1/2+x,1/2-y,z
loop_
_atom_site_type_symbol
_atom_site_label
_atom_site_fract_x
_atom_site_fract_y
_atom_site_fract_z
Si Si1 0.833533 0.293655 0.560641
Si Si2 0.372204 0.401515 0.749173
Si Si3 0.385354 0.602986 0.317560
Si Si4 0.828467 0.704130 0.775143
Si Si5 0.455982 0.104369 0.350809
Si Si6 0.282755 0.598156 0.599456
Si Si7 0.896311 0.107281 0.110820
O O1 0.713562 0.334835 0.590937
O O2 0.840737 0.302640 0.662379
O O3 0.930787 0.346848 0.458473
O O4 0.842940 0.186821 0.527104
O O5 0.347701 0.500000 0.812225
O O6 0.506708 0.388451 0.674514
O O7 0.322212 0.308331 0.816830
O O8 0.317821 0.410950 0.682017
O O9 0.338327 0.500000 0.337047
O O10 0.419757 0.634035 0.200645
O O11 0.716997 0.654579 0.866265
O O12 0.939990 0.653183 0.752905
O O13 0.351293 0.112404 0.337777
O O14 0.488235 0.000000 0.354809
O O15 0.315204 0.500000 0.534947
O O16 0.881433 0.000000 0.104112
O O17 0.000000 0.145071 0.000000
#
# Coordination Sequence:
#
# PCOD8087305 Si02
#       7
#     8   8   8   8   8   8   8
#     4  10  19  32  49  70 100 134 169 206 244 291
#     4   9  18  34  53  72  98 133 172 209 243 284
#     4   9  17  31  53  76  99 131 167 204 246 289
#     4  10  20  33  52  76 100 130 163 200 250 300
#     4  11  21  32  48  72 103 135 166 203 248 296
#     4   9  19  33  48  69  99 136 175 210 242 282
#     4   9  18  34  56  81 104 124 155 202 252 301
#
# _framework density 21.303799000000001
#
# number of rings (size 3 to 8) (size 9 to 14) (size 15 to 20)
#    0.000    2.429    0.000    2.571    0.000    2.286 
#    0.000    5.000    0.000   10.714    0.000    0.000 
#    0.000    0.000    0.000    0.000    0.000    0.000 
#
# Total GULP energy -346911.273804 kJ/mol
# GULP energy per Si atom -12389.688350 kJ/mol
# Density = 2.125531 g / cm^3
# Si number density = 21.303799 Si / 1000 Ang^3
#
#
#
# Elastic Constant Matrix: (Units=GPa)
#
#
# Indices 1 2 3 4 5 6 
#
# 1 77.9393 23.4832 18.7466 0.0000 -21.5519 0.0000
# 2 23.4832 164.2227 34.0199 0.0000 -21.4772 0.0000
# 3 18.7466 34.0199 83.7054 0.0000 -27.4629 0.0000
# 4 0.0000 0.0000 0.0000 34.2031 0.0000 7.3773
# 5 -21.5519 -21.4772 -27.4629 0.0000 25.1726 0.0000
# 6 0.0000 0.0000 0.0000 7.3773 0.0000 35.2188
#
#
#
# Elastic Compliance Matrix: (Units=1/GPa)
#
#
# Indices 1 2 3 4 5 6 
#
# 1 0.017003 -0.000713 0.001648 0.000000 0.015748 0.000000
# 2 -0.000713 0.006983 -0.001439 0.000000 0.003777 0.000000
# 3 0.001648 -0.001439 0.019037 0.000000 0.020952 0.000000
# 4 0.000000 0.000000 0.000000 0.030621 0.000000 -0.006414
# 5 0.015748 0.003777 0.020952 0.000000 0.079289 0.000000
# 6 0.000000 0.000000 0.000000 -0.006414 0.000000 0.029737
#
#
# Mechanical properties :
#
#
# Convention : Reuss Voigt Hill
#
# Bulk Modulus (GPa) = 23.80090 53.15187 38.47638
# Shear Modulus (GPa) = 25.29286 35.56008 30.42647
#
# Velocity S-wave (km/s) = 3.44938 4.09000 3.78328
# Velocity P-wave (km/s) = 5.20199 6.87807 6.09789
#
# Compressibility (1/GPa) = 0.04201523
#
# Stress axis : x y z
#
# Youngs Moduli (GPa) = 58.81150 143.19576 52.53059
#
# Poissons Ratio (x) = 0.10216 -0.08660
# Poissons Ratio (y) = 0.04196 0.07560
# Poissons Ratio (z) = -0.09695 0.20608
#
# Static dielectric constant tensor:
#      x y z
#    x 4.019900 0.000000 -0.146140 
#    y 0.000000 4.611280 0.000000 
#    z -0.146140 0.000000 3.290750 
# 
# 
# High freq. dielectric constant tensor:
#      x y z
#    x 1.852730 0.000000 -0.012470 
#    y 0.000000 1.860310 0.000000 
#    z -0.012470 0.000000 1.764730 
# 
# From -- ./inp_files/270194.got.cif
#   From: 2010.06.25/outbox.cif.g09.slc.cpg/sg12_136_cif.got.tgz:270194.got - 2010.06.28 00:19:55.
