data_PCOD8087931
_publ_section_title
;
Structure prediction by ZEFSAII (Michael W. Deem and Ramdas Pophale) SiO2 
 PCOD8087931
Probable space group: C 2/M
;
_chemical_formula_sum "Si O2"
_cell_formula_units_Z 40
_cell_length_a 25.527599
_cell_length_b 9.138649
_cell_length_c 9.264555
_cell_angle_alpha 90.000000
_cell_angle_beta 91.287665
_cell_angle_gamma 90.000000
_cell_volume 2160.761555
_symmetry_space_group_name_H-M "C 2/M"
_symmetry_group_IT_number 12
_symmetry_cell_setting 'monoclinic'
loop_
_space_group_symop_operation_xyz
x,y,z
-x,y,-z
-x,-y,-z
x,-y,z
1/2+x,1/2+y,z
1/2-x,1/2+y,-z
1/2-x,1/2-y,-z
1/2+x,1/2-y,z
loop_
_atom_site_type_symbol
_atom_site_label
_atom_site_fract_x
_atom_site_fract_y
_atom_site_fract_z
Si Si1 0.702208 0.837294 0.172458
Si Si2 0.501085 0.666853 0.666400
Si Si3 0.799925 0.338328 0.170752
Si Si4 0.099518 0.168763 0.153755
Si Si5 0.585055 0.173244 0.857740
O O1 0.756360 0.768441 0.236595
O O2 0.652772 0.740405 0.217559
O O3 0.696257 0.000000 0.237038
O O4 0.705093 0.843176 0.001265
O O5 0.500000 0.711541 0.500000
O O6 0.520598 0.500000 0.689140
O O7 0.442880 0.686301 0.723575
O O8 0.540024 0.776642 0.747895
O O9 0.790186 0.500000 0.234056
O O10 0.858821 0.284149 0.210284
O O11 0.110546 0.000000 0.116131
O O12 0.077544 0.247996 0.010373
O O13 0.582005 0.000000 0.884940
#
# Coordination Sequence:
#
# PCOD8087931 Si02
#       5
#     8   8   8   8   8
#     4   9  16  26  44  72 102 129 160 201 245 289
#     4  10  22  38  53  71  98 133 171 208 249 298
#     4   8  15  27  43  68 101 131 158 193 243 296
#     4  10  19  32  52  75 101 134 167 203 248 295
#     4  10  20  33  52  78 104 130 164 207 249 292
#
# _framework density 18.511991999999999
#
# number of rings (size 3 to 8) (size 9 to 14) (size 15 to 20)
#    0.000    2.600    0.000    3.600    0.000   10.000 
#    0.000    0.000    0.000    1.200    0.000    0.000 
#    0.000    0.000    0.000    0.000    0.000    0.000 
#
# Total GULP energy -247977.110544 kJ/mol
# GULP energy per Si atom -12398.855527 kJ/mol
# Density = 1.846986 g / cm^3
# Si number density = 18.511992 Si / 1000 Ang^3
#
#
#
# Elastic Constant Matrix: (Units=GPa)
#
#
# Indices 1 2 3 4 5 6 
#
# 1 120.1570 67.8306 37.7918 0.0000 -13.7380 0.0000
# 2 67.8306 125.8925 38.5636 0.0000 -9.9188 0.0000
# 3 37.7918 38.5636 58.1289 0.0000 -12.7444 0.0000
# 4 0.0000 0.0000 0.0000 10.5220 0.0000 4.0136
# 5 -13.7380 -9.9188 -12.7444 0.0000 4.3745 0.0000
# 6 0.0000 0.0000 0.0000 4.0136 0.0000 38.3848
#
#
#
# Elastic Compliance Matrix: (Units=1/GPa)
#
#
# Indices 1 2 3 4 5 6 
#
# 1 0.016024 -0.006106 0.004514 0.000000 0.049627 0.000000
# 2 -0.006106 0.012433 -0.006372 0.000000 -0.009550 0.000000
# 3 0.004514 -0.006372 0.051031 0.000000 0.148399 0.000000
# 4 0.000000 0.000000 0.000000 0.098987 0.000000 -0.010350
# 5 0.049627 -0.009550 0.148399 0.000000 0.795127 0.000000
# 6 0.000000 0.000000 0.000000 -0.010350 0.000000 0.027134
#
#
# Mechanical properties :
#
#
# Convention : Reuss Voigt Hill
#
# Bulk Modulus (GPa) = 15.73346 65.83892 40.78619
# Shear Modulus (GPa) = 4.81764 21.32241 13.07003
#
# Velocity S-wave (km/s) = 1.61496 3.39752 2.66001
# Velocity P-wave (km/s) = 3.46338 7.14378 5.61376
#
# Compressibility (1/GPa) = 0.06355881
#
# Stress axis : x y z
#
# Youngs Moduli (GPa) = 62.40656 80.43245 19.59575
#
# Poissons Ratio (x) = 0.49115 -0.08845
# Poissons Ratio (y) = 0.38107 0.12486
# Poissons Ratio (z) = -0.28168 0.51252
#
# Static dielectric constant tensor:
#      x y z
#    x 3.672030 0.000000 -0.041330 
#    y 0.000000 3.626900 0.000000 
#    z -0.041330 0.000000 2.857700 
# 
# 
# High freq. dielectric constant tensor:
#      x y z
#    x 1.735210 0.000000 -0.003910 
#    y 0.000000 1.730290 0.000000 
#    z -0.003910 0.000000 1.657660 
# 
# From -- ./inp_files/92928.got.cif
#   From: 2010.06.25/outbox.cif.g09.slc.cpg/sg12_47_cif.got.tgz:92928.got - 2010.06.28 00:19:55.
