data_PCOD8087121
_publ_section_title
;
Structure prediction by ZEFSAII (Michael W. Deem and Ramdas Pophale) SiO2 
 PCOD8087121
Probable space group: C 2/M
;
_chemical_formula_sum "Si O2"
_cell_formula_units_Z 64
_cell_length_a 20.934234
_cell_length_b 16.809828
_cell_length_c 9.919823
_cell_angle_alpha 90.000000
_cell_angle_beta 87.822219
_cell_angle_gamma 90.000000
_cell_volume 3488.273069
_symmetry_space_group_name_H-M "C 2/M"
_symmetry_group_IT_number 12
_symmetry_cell_setting 'monoclinic'
loop_
_space_group_symop_operation_xyz
x,y,z
-x,y,-z
-x,-y,-z
x,-y,z
1/2+x,1/2+y,z
1/2-x,1/2+y,-z
1/2-x,1/2-y,-z
1/2+x,1/2-y,z
loop_
_atom_site_type_symbol
_atom_site_label
_atom_site_fract_x
_atom_site_fract_y
_atom_site_fract_z
Si Si1 0.591805 0.285075 0.186851
Si Si2 0.450203 0.289938 0.238185
Si Si3 0.753388 0.407737 0.900757
Si Si4 0.681285 0.911822 0.843553
Si Si5 0.834249 0.285420 0.382024
Si Si6 0.392238 0.407479 0.053141
Si Si7 0.798843 0.291185 0.677058
Si Si8 0.932048 0.344314 0.017849
O O1 0.524956 0.291719 0.277971
O O2 0.655700 0.281574 0.274331
O O3 0.596248 0.359929 0.086315
O O4 0.591231 0.198971 0.115606
O O5 0.399804 0.266396 0.360273
O O6 0.436436 0.375848 0.171307
O O7 0.438527 0.226086 0.124072
O O8 0.773061 0.500000 0.889021
O O9 0.678820 0.393861 0.884760
O O10 0.794998 0.361768 0.786065
O O11 0.767324 0.376705 0.053198
O O12 0.670518 0.861503 0.712083
O O13 0.615744 0.913121 0.933879
O O14 0.700435 0.000000 0.795794
O O15 0.831150 0.318866 0.534321
O O16 0.773407 0.232947 0.348483
O O17 0.407106 0.500000 0.024049
O O18 0.000000 0.387745 0.000000
#
# Coordination Sequence:
#
# PCOD8087121 Si02
#       8
#     8   8   8   8   8   8   8   8
#     4  10  19  31  54  80 107 141 178 224 271 317
#     4   9  18  33  51  78 109 138 180 224 266 322
#     4  10  20  33  55  85 112 141 181 227 276 323
#     4  10  19  32  51  77 107 137 172 223 274 317
#     4  10  22  36  54  77 106 143 189 222 271 327
#     4  10  19  32  54  84 115 143 177 225 280 332
#     4  11  21  36  56  77 105 148 184 225 271 319
#     4   8  15  28  47  74 100 132 171 209 258 313
#
# _framework density 18.347187999999999
#
# number of rings (size 3 to 8) (size 9 to 14) (size 15 to 20)
#    0.000    2.250    2.500    1.875    0.000    3.250 
#    0.000    0.000    0.000    1.500    0.000    5.250 
#    0.000    0.000    0.000    0.000    0.000    0.000 
#
# Total GULP energy -396458.449993 kJ/mol
# GULP energy per Si atom -12389.326562 kJ/mol
# Density = 1.830543 g / cm^3
# Si number density = 18.347188 Si / 1000 Ang^3
#
#
#
# Elastic Constant Matrix: (Units=GPa)
#
#
# Indices 1 2 3 4 5 6 
#
# 1 92.8725 22.6755 29.8010 0.0000 -17.5136 0.0000
# 2 22.6755 62.9438 39.6315 0.0000 -7.1523 0.0000
# 3 29.8010 39.6315 78.9298 0.0000 -15.0907 0.0000
# 4 0.0000 0.0000 0.0000 17.2470 0.0000 2.0486
# 5 -17.5136 -7.1523 -15.0907 0.0000 21.9914 0.0000
# 6 0.0000 0.0000 0.0000 2.0486 0.0000 21.8155
#
#
#
# Elastic Compliance Matrix: (Units=1/GPa)
#
#
# Indices 1 2 3 4 5 6 
#
# 1 0.013730 -0.002544 -0.002272 0.000000 0.008547 0.000000
# 2 -0.002544 0.023708 -0.011345 0.000000 -0.002101 0.000000
# 3 -0.002272 -0.011345 0.020917 0.000000 0.008854 0.000000
# 4 0.000000 0.000000 0.000000 0.058635 0.000000 -0.005506
# 5 0.008547 -0.002101 0.008854 0.000000 0.057672 0.000000
# 6 0.000000 0.000000 0.000000 -0.005506 0.000000 0.046356
#
#
# Mechanical properties :
#
#
# Convention : Reuss Voigt Hill
#
# Bulk Modulus (GPa) = 38.41503 46.55135 42.48319
# Shear Modulus (GPa) = 19.08267 21.71998 20.40132
#
# Velocity S-wave (km/s) = 3.22854 3.44442 3.33822
# Velocity P-wave (km/s) = 5.90603 6.42232 6.16958
#
# Compressibility (1/GPa) = 0.02603148
#
# Stress axis : x y z
#
# Youngs Moduli (GPa) = 72.83554 42.17917 47.80862
#
# Poissons Ratio (x) = 0.10731 0.10863
# Poissons Ratio (y) = 0.18531 0.54240
# Poissons Ratio (z) = 0.16549 0.47853
#
# Static dielectric constant tensor:
#      x y z
#    x 3.866550 0.000000 -0.139160 
#    y 0.000000 3.091660 0.000000 
#    z -0.139160 0.000000 3.306950 
# 
# 
# High freq. dielectric constant tensor:
#      x y z
#    x 1.730670 0.000000 -0.004950 
#    y 0.000000 1.687730 0.000000 
#    z -0.004950 0.000000 1.686300 
# 
# From -- ./inp_files/87977.got.cif
#   From: 2010.06.25/outbox.cif.g09.slc.cpg/sg12_44_cif.got.tgz:87977.got - 2010.06.28 00:19:55.
