data_PCOD8087337
_publ_section_title
;
Structure prediction by ZEFSAII (Michael W. Deem and Ramdas Pophale) SiO2 
 PCOD8087337
Probable space group: C 2/M
;
_chemical_formula_sum "Si O2"
_cell_formula_units_Z 64
_cell_length_a 20.480914
_cell_length_b 8.867967
_cell_length_c 19.307027
_cell_angle_alpha 90.000000
_cell_angle_beta 88.732222
_cell_angle_gamma 90.000000
_cell_volume 3505.762428
_symmetry_space_group_name_H-M "C 2/M"
_symmetry_group_IT_number 12
_symmetry_cell_setting 'monoclinic'
loop_
_space_group_symop_operation_xyz
x,y,z
-x,y,-z
-x,-y,-z
x,-y,z
1/2+x,1/2+y,z
1/2-x,1/2+y,-z
1/2-x,1/2-y,-z
1/2+x,1/2-y,z
loop_
_atom_site_type_symbol
_atom_site_label
_atom_site_fract_x
_atom_site_fract_y
_atom_site_fract_z
Si Si1 0.312468 0.322647 0.787922
Si Si2 0.753070 0.825784 0.425948
Si Si3 0.374691 0.173781 0.660242
Si Si4 0.175743 0.332650 0.073881
Si Si5 0.129127 0.320932 0.656661
Si Si6 0.672022 0.679322 0.788472
Si Si7 0.169229 0.832851 0.940852
Si Si8 0.002303 0.320865 0.577686
O O1 0.299908 0.500000 0.787851
O O2 0.363754 0.276237 0.727850
O O3 0.342462 0.274330 0.861353
O O4 0.245042 0.238048 0.773751
O O5 0.750000 0.750000 0.500000
O O6 0.682688 0.807707 0.393560
O O7 0.804974 0.739308 0.378327
O O8 0.773317 0.000000 0.432410
O O9 0.440026 0.235703 0.622292
O O10 0.381844 0.000000 0.683421
O O11 0.148499 0.500000 0.088831
O O12 0.252875 0.336474 0.062149
O O13 0.143026 0.272212 0.003458
O O14 0.131623 0.500000 0.660492
O O15 0.123188 0.253670 0.734268
O O16 0.067657 0.263084 0.613842
O O17 0.674158 0.500000 0.779685
O O18 0.646081 0.725599 0.865722
O O19 0.141796 0.000000 0.955207
O O20 0.001646 0.500000 0.573602
O O21 0.000000 0.253260 0.500000
#
# Coordination Sequence:
#
# PCOD8087337 Si02
#       8
#     8   8   8   8   8   8   8   8
#     4  11  20  30  48  74 105 138 176 220 262 308
#     4  11  22  35  55  78 104 135 171 215 265 319
#     4  10  20  36  56  76 103 140 177 214 262 317
#     4   9  16  26  42  66 100 138 173 210 258 311
#     4  11  21  34  55  81 106 134 175 221 266 315
#     4  10  19  32  49  72 105 142 176 213 263 315
#     4   8  15  26  41  64  97 136 175 211 250 304
#     4   9  19  37  58  78 102 137 177 217 262 319
#
# _framework density 18.255658
#
# number of rings (size 3 to 8) (size 9 to 14) (size 15 to 20)
#    0.000    2.125    1.250    4.125    0.000    6.000 
#    0.000    1.250    0.000    2.625    0.000    0.875 
#    0.000    7.000    0.000    0.000    0.000    0.000 
#
# Total GULP energy -396782.930833 kJ/mol
# GULP energy per Si atom -12399.466589 kJ/mol
# Density = 1.821411 g / cm^3
# Si number density = 18.255658 Si / 1000 Ang^3
#
#
#
# Elastic Constant Matrix: (Units=GPa)
#
#
# Indices 1 2 3 4 5 6 
#
# 1 56.7156 21.6847 30.4485 0.0000 5.8908 0.0000
# 2 21.6847 88.9232 51.2990 0.0000 5.5684 0.0000
# 3 30.4485 51.2990 151.3475 0.0000 14.6344 0.0000
# 4 0.0000 0.0000 0.0000 37.0806 0.0000 1.0814
# 5 5.8908 5.5684 14.6344 0.0000 21.0421 0.0000
# 6 0.0000 0.0000 0.0000 1.0814 0.0000 15.1022
#
#
#
# Elastic Compliance Matrix: (Units=1/GPa)
#
#
# Indices 1 2 3 4 5 6 
#
# 1 0.020674 -0.003259 -0.002764 0.000000 -0.003003 0.000000
# 2 -0.003259 0.014496 -0.004262 0.000000 0.000040 0.000000
# 3 -0.002764 -0.004262 0.009031 0.000000 -0.004380 0.000000
# 4 0.000000 0.000000 0.000000 0.027025 0.000000 -0.001935
# 5 -0.003003 0.000040 -0.004380 0.000000 0.051400 0.000000
# 6 0.000000 0.000000 0.000000 -0.001935 0.000000 0.066354
#
#
# Mechanical properties :
#
#
# Convention : Reuss Voigt Hill
#
# Bulk Modulus (GPa) = 42.31570 55.98340 49.14955
# Shear Modulus (GPa) = 22.99621 27.54858 25.27240
#
# Velocity S-wave (km/s) = 3.55304 3.88886 3.72473
# Velocity P-wave (km/s) = 6.32945 7.13422 6.74385
#
# Compressibility (1/GPa) = 0.02363189
#
# Stress axis : x y z
#
# Youngs Moduli (GPa) = 48.37068 68.98250 110.72412
#
# Poissons Ratio (x) = 0.22479 0.30607
# Poissons Ratio (y) = 0.15763 0.47189
# Poissons Ratio (z) = 0.13371 0.29399
#
# Static dielectric constant tensor:
#      x y z
#    x 3.014030 0.000000 0.070340 
#    y 0.000000 3.403960 0.000000 
#    z 0.070340 0.000000 3.774270 
# 
# 
# High freq. dielectric constant tensor:
#      x y z
#    x 1.654480 0.000000 0.003860 
#    y 0.000000 1.704380 0.000000 
#    z 0.003860 0.000000 1.730650 
# 
# From -- ./inp_files/281354.got.cif
#   From: 2010.06.25/outbox.cif.g09.slc.cpg/sg12_141_cif.got.tgz:281354.got - 2010.06.28 00:19:55.
