data_PCOD8087947
_publ_section_title
;
Structure prediction by ZEFSAII (Michael W. Deem and Ramdas Pophale) SiO2 
 PCOD8087947
Probable space group: C 2/M
;
_chemical_formula_sum "Si O2"
_cell_formula_units_Z 64
_cell_length_a 14.667350
_cell_length_b 9.274307
_cell_length_c 27.080366
_cell_angle_alpha 90.000000
_cell_angle_beta 74.269682
_cell_angle_gamma 90.000000
_cell_volume 3545.767379
_symmetry_space_group_name_H-M "C 2/M"
_symmetry_group_IT_number 12
_symmetry_cell_setting 'monoclinic'
loop_
_space_group_symop_operation_xyz
x,y,z
-x,y,-z
-x,-y,-z
x,-y,z
1/2+x,1/2+y,z
1/2-x,1/2+y,-z
1/2-x,1/2-y,-z
1/2+x,1/2-y,z
loop_
_atom_site_type_symbol
_atom_site_label
_atom_site_fract_x
_atom_site_fract_y
_atom_site_fract_z
Si Si1 0.795093 0.668374 0.425406
Si Si2 0.968303 0.164058 0.752592
Si Si3 0.732763 0.331135 0.870661
Si Si4 0.640016 0.830638 0.690863
Si Si5 0.582064 0.329714 0.131714
Si Si6 0.035016 0.168181 0.943430
Si Si7 0.248565 0.167246 0.229621
Si Si8 0.602058 0.330942 0.505683
O O1 0.814920 0.500000 0.429894
O O2 0.810188 0.718751 0.366991
O O3 0.685986 0.705648 0.454583
O O4 0.872048 0.751204 0.447357
O O5 0.974485 0.205590 0.809631
O O6 0.863056 0.191845 0.748360
O O7 0.036559 0.262279 0.710170
O O8 0.999445 0.000000 0.739930
O O9 0.752265 0.500000 0.860280
O O10 0.819936 0.254913 0.884210
O O11 0.645619 0.302337 0.920145
O O12 0.709774 0.262559 0.820838
O O13 0.704658 0.778021 0.726719
O O14 0.626567 0.000000 0.693964
O O15 0.603732 0.500000 0.126174
O O16 0.522068 0.268396 0.094789
O O17 0.012248 0.000000 0.948037
O O18 0.000000 0.239981 0.000000
O O19 0.270878 0.000000 0.215066
O O20 0.500000 0.276785 0.500000
O O21 0.596648 0.500000 0.517882
#
# Coordination Sequence:
#
# PCOD8087947 Si02
#       8
#     8   8   8   8   8   8   8   8
#     4   9  19  34  50  74 105 130 159 202 249 289
#     4   9  18  32  50  72  97 129 167 200 235 288
#     4  10  19  32  52  75  97 125 165 207 242 285
#     4  10  20  33  50  73 103 134 160 197 246 289
#     4   9  18  34  53  71  96 130 163 198 245 295
#     4   9  18  32  50  72  98 129 163 199 245 299
#     4   9  19  35  52  71  99 134 165 195 242 296
#     4   9  18  34  56  76  95 128 171 206 237 283
#
# _framework density 18.049689000000001
#
# number of rings (size 3 to 8) (size 9 to 14) (size 15 to 20)
#    0.000    2.750    0.000    1.875    0.000    5.750 
#    0.000    3.750    0.000    2.625    0.000    0.000 
#    0.000    0.000    0.000    0.000    0.000    0.000 
#
# Total GULP energy -396785.057863 kJ/mol
# GULP energy per Si atom -12399.533058 kJ/mol
# Density = 1.800861 g / cm^3
# Si number density = 18.049689 Si / 1000 Ang^3
#
#
#
# Elastic Constant Matrix: (Units=GPa)
#
#
# Indices 1 2 3 4 5 6 
#
# 1 87.0599 27.0495 38.2308 0.0000 -4.6559 0.0000
# 2 27.0495 36.8983 28.6657 0.0000 -5.5311 0.0000
# 3 38.2308 28.6657 98.5874 0.0000 -11.4869 0.0000
# 4 0.0000 0.0000 0.0000 23.0227 0.0000 -2.5721
# 5 -4.6559 -5.5311 -11.4869 0.0000 20.9493 0.0000
# 6 0.0000 0.0000 0.0000 -2.5721 0.0000 27.7286
#
#
#
# Elastic Compliance Matrix: (Units=1/GPa)
#
#
# Indices 1 2 3 4 5 6 
#
# 1 0.015800 -0.008877 -0.003642 0.000000 -0.000830 0.000000
# 2 -0.008877 0.040300 -0.007761 0.000000 0.004412 0.000000
# 3 -0.003642 -0.007761 0.014399 0.000000 0.005037 0.000000
# 4 0.000000 0.000000 0.000000 0.043890 0.000000 0.004071
# 5 -0.000830 0.004412 0.005037 0.000000 0.051477 0.000000
# 6 0.000000 0.000000 0.000000 0.004071 0.000000 0.036442
#
#
# Mechanical properties :
#
#
# Convention : Reuss Voigt Hill
#
# Bulk Modulus (GPa) = 33.40308 45.60418 39.50363
# Shear Modulus (GPa) = 19.77473 22.91342 21.34407
#
# Velocity S-wave (km/s) = 3.31353 3.56682 3.44251
# Velocity P-wave (km/s) = 5.76070 6.50259 6.14286
#
# Compressibility (1/GPa) = 0.02993736
#
# Stress axis : x y z
#
# Youngs Moduli (GPa) = 63.29292 24.81384 69.44754
#
# Poissons Ratio (x) = 0.22027 0.25295
# Poissons Ratio (y) = 0.56185 0.53901
# Poissons Ratio (z) = 0.23054 0.19259
#
# Static dielectric constant tensor:
#      x y z
#    x 3.343550 0.000000 0.087050 
#    y 0.000000 3.168650 0.000000 
#    z 0.087050 0.000000 3.488020 
# 
# 
# High freq. dielectric constant tensor:
#      x y z
#    x 1.704270 0.000000 0.000240 
#    y 0.000000 1.681940 0.000000 
#    z 0.000240 0.000000 1.698240 
# 
# From -- ./inp_files/359695.got.cif
#   From: 2010.06.25/outbox.cif.g09.slc.cpg/sg12_180_cif.got.tgz:359695.got - 2010.06.28 00:19:55.
