data_PCOD8087015
_publ_section_title
;
Structure prediction by ZEFSAII (Michael W. Deem and Ramdas Pophale) SiO2 
 PCOD8087015
Probable space group: C 2/M
;
_chemical_formula_sum "Si O2"
_cell_formula_units_Z 64
_cell_length_a 23.064932
_cell_length_b 13.411480
_cell_length_c 12.294217
_cell_angle_alpha 90.000000
_cell_angle_beta 68.592979
_cell_angle_gamma 90.000000
_cell_volume 3540.663197
_symmetry_space_group_name_H-M "C 2/M"
_symmetry_group_IT_number 12
_symmetry_cell_setting 'monoclinic'
loop_
_space_group_symop_operation_xyz
x,y,z
-x,y,-z
-x,-y,-z
x,-y,z
1/2+x,1/2+y,z
1/2-x,1/2+y,-z
1/2-x,1/2-y,-z
1/2+x,1/2-y,z
loop_
_atom_site_type_symbol
_atom_site_label
_atom_site_fract_x
_atom_site_fract_y
_atom_site_fract_z
Si Si1 0.747506 0.614105 0.510795
Si Si2 0.734763 0.385438 0.281816
Si Si3 0.125020 0.616795 0.482362
Si Si4 0.543694 0.884555 0.735615
Si Si5 0.904766 0.617167 0.888640
Si Si6 0.802624 0.887090 0.226255
Si Si7 0.631437 0.191759 0.856725
Si Si8 0.826221 0.300821 0.756226
O O1 0.759270 0.500000 0.475251
O O2 0.724248 0.659062 0.411725
O O3 0.814607 0.659889 0.495136
O O4 0.698620 0.629543 0.641864
O O5 0.713706 0.500000 0.280939
O O6 0.807258 0.375006 0.202558
O O7 0.692315 0.316195 0.233661
O O8 0.133055 0.500000 0.451225
O O9 0.064288 0.637497 0.597197
O O10 0.120507 0.673408 0.369769
O O11 0.471788 0.855603 0.793616
O O12 0.584198 0.818881 0.789626
O O13 0.555027 0.000000 0.758000
O O14 0.891408 0.500000 0.891765
O O15 0.851969 0.675403 0.857731
O O16 0.903544 0.655085 0.012280
O O17 0.851332 0.808905 0.142973
O O18 0.733833 0.869591 0.225720
O O19 0.823455 0.000000 0.183990
#
# Coordination Sequence:
#
# PCOD8087015 Si02
#       8
#     8   8   8   8   8   8   8   8
#     4   8  14  27  48  77 110 132 155 203 260 307
#     4  10  19  31  52  82 109 134 169 210 258 311
#     4   9  16  29  52  78 104 130 165 212 260 308
#     4  10  20  34  55  79 101 130 172 222 265 300
#     4  11  23  38  52  71 105 143 177 212 253 307
#     4   9  19  33  53  81 109 136 167 208 260 312
#     4  11  21  33  56  78 104 135 176 214 256 301
#     4  10  21  33  52  76 109 142 169 202 259 313
#
# _framework density 18.075709
#
# number of rings (size 3 to 8) (size 9 to 14) (size 15 to 20)
#    0.000    2.250    1.250    3.375    1.750    5.000 
#    0.000    3.750    0.000    2.250    0.000    0.875 
#    0.000    0.000    0.000    0.000    0.000    0.000 
#
# Total GULP energy -396741.640078 kJ/mol
# GULP energy per Si atom -12398.176252 kJ/mol
# Density = 1.803457 g / cm^3
# Si number density = 18.075709 Si / 1000 Ang^3
#
#
#
# Elastic Constant Matrix: (Units=GPa)
#
#
# Indices 1 2 3 4 5 6 
#
# 1 46.9570 28.7527 9.7030 0.0000 -4.2493 0.0000
# 2 28.7527 93.4806 14.7165 0.0000 -3.9919 0.0000
# 3 9.7030 14.7165 45.3847 0.0000 -4.3001 0.0000
# 4 0.0000 0.0000 0.0000 23.6247 0.0000 2.0163
# 5 -4.2493 -3.9919 -4.3001 0.0000 16.8499 0.0000
# 6 0.0000 0.0000 0.0000 2.0163 0.0000 18.5773
#
#
#
# Elastic Compliance Matrix: (Units=1/GPa)
#
#
# Indices 1 2 3 4 5 6 
#
# 1 0.026966 -0.007659 -0.002879 0.000000 0.004251 0.000000
# 2 -0.007659 0.013501 -0.002685 0.000000 0.000582 0.000000
# 3 -0.002879 -0.002685 0.023971 0.000000 0.004755 0.000000
# 4 0.000000 0.000000 0.000000 0.042724 0.000000 -0.004637
# 5 0.004251 0.000582 0.004755 0.000000 0.061771 0.000000
# 6 0.000000 0.000000 0.000000 -0.004637 0.000000 0.054332
#
#
# Mechanical properties :
#
#
# Convention : Reuss Voigt Hill
#
# Bulk Modulus (GPa) = 26.32233 32.46298 29.39265
# Shear Modulus (GPa) = 19.05671 20.65372 19.85522
#
# Velocity S-wave (km/s) = 3.25048 3.38394 3.31788
# Velocity P-wave (km/s) = 5.35550 5.76771 5.56542
#
# Compressibility (1/GPa) = 0.03799056
#
# Stress axis : x y z
#
# Youngs Moduli (GPa) = 37.08424 74.06960 41.71792
#
# Poissons Ratio (x) = 0.56732 0.12009
# Poissons Ratio (y) = 0.28404 0.11202
# Poissons Ratio (z) = 0.10675 0.19889
#
# Static dielectric constant tensor:
#      x y z
#    x 3.016260 0.000000 0.020310 
#    y 0.000000 3.250750 0.000000 
#    z 0.020310 0.000000 3.393530 
# 
# 
# High freq. dielectric constant tensor:
#      x y z
#    x 1.663880 0.000000 0.005050 
#    y 0.000000 1.692700 0.000000 
#    z 0.005050 0.000000 1.702340 
# 
# From -- ./inp_files/167260.got.cif
#   From: 2010.06.25/outbox.cif.g09.slc.cpg/sg12_84_cif.got.tgz:167260.got - 2010.06.28 00:19:55.
