data_PCOD8087083
_publ_section_title
;
Structure prediction by ZEFSAII (Michael W. Deem and Ramdas Pophale) SiO2 
 PCOD8087083
Probable space group: C 2/M
;
_chemical_formula_sum "Si O2"
_cell_formula_units_Z 48
_cell_length_a 11.122180
_cell_length_b 19.003443
_cell_length_c 12.141092
_cell_angle_alpha 90.000000
_cell_angle_beta 91.763153
_cell_angle_gamma 90.000000
_cell_volume 2564.922801
_symmetry_space_group_name_H-M "C 2/M"
_symmetry_group_IT_number 12
_symmetry_cell_setting 'monoclinic'
loop_
_space_group_symop_operation_xyz
x,y,z
-x,y,-z
-x,-y,-z
x,-y,z
1/2+x,1/2+y,z
1/2-x,1/2+y,-z
1/2-x,1/2-y,-z
1/2+x,1/2-y,z
loop_
_atom_site_type_symbol
_atom_site_label
_atom_site_fract_x
_atom_site_fract_y
_atom_site_fract_z
Si Si1 0.696157 0.192948 0.259318
Si Si2 0.799818 0.657384 0.281110
Si Si3 0.631508 0.644322 0.902605
Si Si4 0.876473 0.917767 0.869446
Si Si5 0.470240 0.797327 0.115644
Si Si6 0.137952 0.304176 0.493267
O O1 0.781624 0.258706 0.287186
O O2 0.768016 0.134478 0.189719
O O3 0.589117 0.225098 0.184023
O O4 0.648305 0.159194 0.372833
O O5 0.684041 0.612209 0.243668
O O6 0.900025 0.645932 0.189273
O O7 0.843612 0.638606 0.407026
O O8 0.517811 0.597504 0.865328
O O9 0.602750 0.726643 0.914811
O O10 0.680025 0.618614 0.022895
O O11 0.852816 0.000000 0.875372
O O12 0.500000 0.834684 0.000000
O O13 0.250000 0.250000 0.500000
O O14 0.000000 0.272239 0.500000
#
# Coordination Sequence:
#
# PCOD8087083 Si02
#       6
#     8   8   8   8   8   8
#     4  10  19  31  53  82 114 145 171 236 287 339
#     4  10  20  32  52  80 113 144 191 216 287 339
#     4  10  19  33  52  82 113 145 185 225 290 345
#     4  11  21  37  56  77 114 153 189 233 278 342
#     4  11  17  28  51  80 116 136 170 224 284 340
#     4  10  20  34  54  84 121 154 185 229 293 350
#
# _framework density 18.714013999999999
#
# number of rings (size 3 to 8) (size 9 to 14) (size 15 to 20)
#    0.000    1.667    5.000    2.000    0.000    2.667 
#    0.000    0.000    0.000    9.000    0.000    0.000 
#    0.000    0.000    0.000    0.000    0.000    0.000 
#
# Total GULP energy -297340.546994 kJ/mol
# GULP energy per Si atom -12389.189458 kJ/mol
# Density = 1.867142 g / cm^3
# Si number density = 18.714014 Si / 1000 Ang^3
#
#
#
# Elastic Constant Matrix: (Units=GPa)
#
#
# Indices 1 2 3 4 5 6 
#
# 1 87.4190 10.4747 52.5812 0.0000 -5.4748 0.0000
# 2 10.4747 45.7409 27.2832 0.0000 -1.1440 0.0000
# 3 52.5812 27.2832 171.6316 0.0000 -6.6884 0.0000
# 4 0.0000 0.0000 0.0000 7.3980 0.0000 1.4274
# 5 -5.4748 -1.1440 -6.6884 0.0000 35.4031 0.0000
# 6 0.0000 0.0000 0.0000 1.4274 0.0000 11.7157
#
#
#
# Elastic Compliance Matrix: (Units=1/GPa)
#
#
# Indices 1 2 3 4 5 6 
#
# 1 0.014111 -0.000719 -0.004155 0.000000 0.001374 0.000000
# 2 -0.000719 0.024189 -0.003626 0.000000 -0.000014 0.000000
# 3 -0.004155 -0.003626 0.007703 0.000000 0.000696 0.000000
# 4 0.000000 0.000000 0.000000 0.138425 0.000000 -0.016866
# 5 0.001374 -0.000014 0.000696 0.000000 0.028589 0.000000
# 6 0.000000 0.000000 0.000000 -0.016866 0.000000 0.087411
#
#
# Mechanical properties :
#
#
# Convention : Reuss Voigt Hill
#
# Bulk Modulus (GPa) = 34.47818 53.94108 44.20963
# Shear Modulus (GPa) = 15.28610 25.20020 20.24315
#
# Velocity S-wave (km/s) = 2.86112 3.67358 3.29251
# Velocity P-wave (km/s) = 5.42018 6.84690 6.17489
#
# Compressibility (1/GPa) = 0.02900385
#
# Stress axis : x y z
#
# Youngs Moduli (GPa) = 70.86885 41.34108 129.82189
#
# Poissons Ratio (x) = 0.02970 0.53943
# Poissons Ratio (y) = 0.05092 0.47068
# Poissons Ratio (z) = 0.29447 0.14989
#
# Static dielectric constant tensor:
#      x y z
#    x 3.640220 0.000000 -0.215150 
#    y 0.000000 2.704880 0.000000 
#    z -0.215150 0.000000 4.268920 
# 
# 
# High freq. dielectric constant tensor:
#      x y z
#    x 1.736970 0.000000 0.001760 
#    y 0.000000 1.638020 0.000000 
#    z 0.001760 0.000000 1.753670 
# 
# From -- ./inp_files/131146.got.cif
#   From: 2010.06.25/outbox.cif.g09.slc.cpg/sg12_66_cif.got.tgz:131146.got - 2010.06.28 00:19:55.
