data_PCOD8087068
_publ_section_title
;
Structure prediction by ZEFSAII (Michael W. Deem and Ramdas Pophale) SiO2 
 PCOD8087068
Probable space group: C 2/M
;
_chemical_formula_sum "Si O2"
_cell_formula_units_Z 64
_cell_length_a 17.685446
_cell_length_b 12.986651
_cell_length_c 28.207461
_cell_angle_alpha 90.000000
_cell_angle_beta 149.751671
_cell_angle_gamma 90.000000
_cell_volume 3263.556929
_symmetry_space_group_name_H-M "C 2/M"
_symmetry_group_IT_number 12
_symmetry_cell_setting 'monoclinic'
loop_
_space_group_symop_operation_xyz
x,y,z
-x,y,-z
-x,-y,-z
x,-y,z
1/2+x,1/2+y,z
1/2-x,1/2+y,-z
1/2-x,1/2-y,-z
1/2+x,1/2-y,z
loop_
_atom_site_type_symbol
_atom_site_label
_atom_site_fract_x
_atom_site_fract_y
_atom_site_fract_z
Si Si1 0.124741 0.739960 0.313661
Si Si2 0.705591 0.379672 0.511250
Si Si3 0.825897 0.117001 0.957067
Si Si4 0.588729 0.256684 0.139367
Si Si5 0.654158 0.776054 0.783284
Si Si6 0.965209 0.617895 0.146946
Si Si7 0.763278 0.379134 0.314456
Si Si8 0.530316 0.187208 0.402521
O O1 0.217791 0.672257 0.401404
O O2 0.223968 0.831447 0.344916
O O3 0.972432 0.787412 0.255713
O O4 0.076005 0.664264 0.245747
O O5 0.666113 0.500000 0.498629
O O6 0.555352 0.311659 0.420706
O O7 0.809428 0.368838 0.519954
O O8 0.739716 0.142366 0.862091
O O9 0.710304 0.137213 0.937587
O O10 0.878199 0.000000 0.983254
O O11 0.974621 0.182971 0.043904
O O12 0.720232 0.209115 0.176790
O O13 0.498926 0.163185 0.113631
O O14 0.655111 0.331617 0.215769
O O15 0.568130 0.841630 0.696700
O O16 0.005908 0.500000 0.167437
O O17 0.734347 0.500000 0.301497
O O18 0.939312 0.355309 0.398718
#
# Coordination Sequence:
#
# PCOD8087068 Si02
#       8
#     8   8   8   8   8   8   8   8
#     4   9  19  35  54  79 106 136 177 218 257 313
#     4  10  19  36  60  81 106 137 174 221 266 309
#     4  10  19  31  53  81 104 132 173 218 261 304
#     4  10  19  32  53  79 106 136 176 219 254 308
#     4   9  19  34  50  72 108 137 164 214 264 303
#     4   9  18  33  52  75 106 142 174 210 261 310
#     4  10  20  36  55  76 109 145 173 212 268 317
#     4   9  20  36  55  83 108 134 176 218 263 322
#
# _framework density 19.610503999999999
#
# number of rings (size 3 to 8) (size 9 to 14) (size 15 to 20)
#    0.000    2.500    0.000    1.875    0.000    6.500 
#    0.000   14.375    0.000    2.250    0.000    0.000 
#    0.000    0.000    0.000    0.000    0.000    0.000 
#
# Total GULP energy -396503.909810 kJ/mol
# GULP energy per Si atom -12390.747182 kJ/mol
# Density = 1.956587 g / cm^3
# Si number density = 19.610504 Si / 1000 Ang^3
#
#
#
# Elastic Constant Matrix: (Units=GPa)
#
#
# Indices 1 2 3 4 5 6 
#
# 1 138.0538 49.7273 26.6629 0.0001 20.1519 0.0000
# 2 49.7273 92.2228 27.2920 0.0002 7.4890 0.0000
# 3 26.6629 27.2920 61.5617 0.0017 3.5643 0.0001
# 4 0.0001 0.0002 0.0017 20.1269 0.0002 1.9335
# 5 20.1519 7.4890 3.5643 0.0002 23.9297 0.0000
# 6 0.0000 0.0000 0.0001 1.9335 0.0000 19.0871
#
#
#
# Elastic Compliance Matrix: (Units=1/GPa)
#
#
# Indices 1 2 3 4 5 6 
#
# 1 0.010221 -0.004324 -0.002108 0.000000 -0.006940 0.000000
# 2 -0.004324 0.014543 -0.004561 0.000000 -0.000231 0.000000
# 3 -0.002108 -0.004561 0.019159 -0.000002 0.000349 0.000000
# 4 0.000000 0.000000 -0.000002 0.050173 0.000000 -0.005083
# 5 -0.006940 -0.000231 0.000349 0.000000 0.047654 0.000000
# 6 0.000000 0.000000 0.000000 -0.005083 0.000000 0.052906
#
#
# Mechanical properties :
#
#
# Convention : Reuss Voigt Hill
#
# Bulk Modulus (GPa) = 45.58589 55.46696 50.52643
# Shear Modulus (GPa) = 22.32580 25.17249 23.74914
#
# Velocity S-wave (km/s) = 3.37777 3.58665 3.48378
# Velocity P-wave (km/s) = 6.20553 6.74521 6.48099
#
# Compressibility (1/GPa) = 0.02193661
#
# Stress axis : x y z
#
# Youngs Moduli (GPa) = 97.83479 68.75959 52.19505
#
# Poissons Ratio (x) = 0.29731 0.11004
# Poissons Ratio (y) = 0.42303 0.23808
# Poissons Ratio (z) = 0.20625 0.31364
#
# Static dielectric constant tensor:
#      x y z
#    x 4.061250 0.000000 0.218330 
#    y 0.000000 3.260740 0.000000 
#    z 0.218330 0.000000 3.608930 
# 
# 
# High freq. dielectric constant tensor:
#      x y z
#    x 1.780580 0.000000 0.008850 
#    y 0.000000 1.724660 0.000000 
#    z 0.008850 0.000000 1.764030 
# 
# From -- ./inp_files/296471.got.cif
#   From: 2010.06.25/outbox.cif.g09.slc.cpg/sg12_149_cif.got.tgz:296471.got - 2010.06.28 00:19:55.
