data_PCOD8087107
_publ_section_title
;
Structure prediction by ZEFSAII (Michael W. Deem and Ramdas Pophale) SiO2 
 PCOD8087107
Probable space group: C 2/M
;
_chemical_formula_sum "Si O2"
_cell_formula_units_Z 56
_cell_length_a 14.568229
_cell_length_b 18.367030
_cell_length_c 9.587208
_cell_angle_alpha 90.000000
_cell_angle_beta 94.034728
_cell_angle_gamma 90.000000
_cell_volume 2558.940261
_symmetry_space_group_name_H-M "C 2/M"
_symmetry_group_IT_number 12
_symmetry_cell_setting 'monoclinic'
loop_
_space_group_symop_operation_xyz
x,y,z
-x,y,-z
-x,-y,-z
x,-y,z
1/2+x,1/2+y,z
1/2-x,1/2+y,-z
1/2-x,1/2-y,-z
1/2+x,1/2-y,z
loop_
_atom_site_type_symbol
_atom_site_label
_atom_site_fract_x
_atom_site_fract_y
_atom_site_fract_z
Si Si1 0.203559 0.619136 0.008823
Si Si2 0.467844 0.416940 0.851013
Si Si3 0.723069 0.085943 0.433397
Si Si4 0.137457 0.145158 0.764333
Si Si5 0.279479 0.419230 0.734461
Si Si6 0.936792 0.284343 0.117083
Si Si7 0.561270 0.918343 0.220004
O O1 0.216094 0.577373 0.864067
O O2 0.160322 0.696957 0.965528
O O3 0.301281 0.629136 0.092840
O O4 0.130894 0.575942 0.096471
O O5 0.440928 0.500000 0.878874
O O6 0.552592 0.411553 0.751860
O O7 0.376111 0.377651 0.779044
O O8 0.500000 0.379498 0.000000
O O9 0.801120 0.134541 0.365706
O O10 0.726100 0.113738 0.594475
O O11 0.621802 0.103906 0.362149
O O12 0.742936 0.000000 0.412465
O O13 0.087649 0.224419 0.768407
O O14 0.304892 0.500000 0.688081
O O15 0.982943 0.357303 0.189605
O O16 0.000000 0.252150 0.000000
O O17 0.518099 0.000000 0.233843
#
# Coordination Sequence:
#
# PCOD8087107 Si02
#       7
#     8   8   8   8   8   8   8
#     4  10  20  34  58  87 111 149 191 239 287 337
#     4  10  19  31  53  85 114 144 186 238 285 336
#     4   9  20  38  61  85 115 154 194 239 288 341
#     4  11  20  36  57  81 116 154 194 233 285 345
#     4  10  20  35  57  88 117 147 190 237 289 341
#     4  10  22  36  58  88 113 152 192 241 289 340
#     4   9  19  38  62  88 115 146 192 244 293 341
#
# _framework density 21.884059000000001
#
# number of rings (size 3 to 8) (size 9 to 14) (size 15 to 20)
#    0.000    2.143    1.429    1.714    0.000    4.857 
#    0.000    3.571    3.143    2.571    0.000    0.000 
#    0.000    0.000    0.000    0.000    0.000    0.000 
#
# Total GULP energy -346912.363327 kJ/mol
# GULP energy per Si atom -12389.727262 kJ/mol
# Density = 2.183425 g / cm^3
# Si number density = 21.884059 Si / 1000 Ang^3
#
#
#
# Elastic Constant Matrix: (Units=GPa)
#
#
# Indices 1 2 3 4 5 6 
#
# 1 71.3888 20.1987 28.6124 0.0000 8.8596 0.0000
# 2 20.1987 76.3098 17.3700 0.0000 0.9191 0.0000
# 3 28.6124 17.3700 134.1377 0.0000 21.4229 0.0000
# 4 0.0000 0.0000 0.0000 10.9622 0.0000 3.5310
# 5 8.8596 0.9191 21.4229 0.0000 22.5775 0.0000
# 6 0.0000 0.0000 0.0000 3.5310 0.0000 6.9208
#
#
#
# Elastic Compliance Matrix: (Units=1/GPa)
#
#
# Indices 1 2 3 4 5 6 
#
# 1 0.016541 -0.003786 -0.002388 0.000000 -0.004071 0.000000
# 2 -0.003786 0.014402 -0.001416 0.000000 0.002242 0.000000
# 3 -0.002388 -0.001416 0.009416 0.000000 -0.007940 0.000000
# 4 0.000000 0.000000 0.000000 0.109162 0.000000 -0.055695
# 5 -0.004071 0.002242 -0.007940 0.000000 0.053332 0.000000
# 6 0.000000 0.000000 0.000000 -0.055695 0.000000 0.172908
#
#
# Mechanical properties :
#
#
# Convention : Reuss Voigt Hill
#
# Bulk Modulus (GPa) = 39.71377 46.02203 42.86790
# Shear Modulus (GPa) = 12.52088 22.46909 17.49499
#
# Velocity S-wave (km/s) = 2.39455 3.20774 2.83050
# Velocity P-wave (km/s) = 5.08251 5.89874 5.50577
#
# Compressibility (1/GPa) = 0.02518018
#
# Stress axis : x y z
#
# Youngs Moduli (GPa) = 60.45490 69.43599 106.20550
#
# Poissons Ratio (x) = 0.26287 0.25361
# Poissons Ratio (y) = 0.22887 0.15034
# Poissons Ratio (z) = 0.14436 0.09829
#
# Static dielectric constant tensor:
#      x y z
#    x 4.037680 0.000000 0.299740 
#    y 0.000000 3.586330 0.000000 
#    z 0.299740 0.000000 3.949530 
# 
# 
# High freq. dielectric constant tensor:
#      x y z
#    x 1.870110 0.000000 0.012100 
#    y 0.000000 1.834180 0.000000 
#    z 0.012100 0.000000 1.840500 
# 
# From -- ./inp_files/64103.got.cif
#   From: 2010.06.25/outbox.cif.g09.slc.cpg/sg12_33_cif.got.tgz:64103.got - 2010.06.28 00:19:55.
