data_PCOD8087760
_publ_section_title
;
Structure prediction by ZEFSAII (Michael W. Deem and Ramdas Pophale) SiO2 
 PCOD8087760
Probable space group: C 2/M
;
_chemical_formula_sum "Si O2"
_cell_formula_units_Z 64
_cell_length_a 28.075238
_cell_length_b 8.834820
_cell_length_c 15.871651
_cell_angle_alpha 90.000000
_cell_angle_beta 116.229237
_cell_angle_gamma 90.000000
_cell_volume 3531.438590
_symmetry_space_group_name_H-M "C 2/M"
_symmetry_group_IT_number 12
_symmetry_cell_setting 'monoclinic'
loop_
_space_group_symop_operation_xyz
x,y,z
-x,y,-z
-x,-y,-z
x,-y,z
1/2+x,1/2+y,z
1/2-x,1/2+y,-z
1/2-x,1/2-y,-z
1/2+x,1/2-y,z
loop_
_atom_site_type_symbol
_atom_site_label
_atom_site_fract_x
_atom_site_fract_y
_atom_site_fract_z
Si Si1 0.853979 0.821142 0.392722
Si Si2 0.400442 0.323945 0.606191
Si Si3 0.633573 0.820825 0.252320
Si Si4 0.117083 0.322464 0.754886
Si Si5 0.517119 0.672932 0.752147
Si Si6 0.970091 0.175726 0.893692
Si Si7 0.260577 0.821834 0.749167
Si Si8 0.277956 0.320399 0.101812
O O1 0.879163 0.766538 0.499936
O O2 0.884861 0.737244 0.342160
O O3 0.792009 0.773696 0.343682
O O4 0.860915 0.000000 0.384002
O O5 0.388391 0.500000 0.610899
O O6 0.369402 0.235137 0.654312
O O7 0.463108 0.292225 0.659336
O O8 0.584351 0.766624 0.157825
O O9 0.687172 0.750992 0.252920
O O10 0.634516 0.000000 0.253238
O O11 0.127997 0.500000 0.764289
O O12 0.060940 0.288305 0.753903
O O13 0.162152 0.239577 0.844609
O O14 0.535269 0.500000 0.750878
O O15 0.508209 0.703902 0.844018
O O16 0.954966 0.000000 0.889280
O O17 0.000000 0.234965 0.000000
O O18 0.254818 0.767235 0.841298
O O19 0.266325 0.000000 0.752522
O O20 0.279867 0.500000 0.094967
O O21 0.250000 0.250000 0.000000
#
# Coordination Sequence:
#
# PCOD8087760 Si02
#       8
#     8   8   8   8   8   8   8   8
#     4   9  18  36  57  74 100 138 175 211 255 306
#     4   9  19  35  55  77 101 134 175 214 254 305
#     4  10  19  32  51  76 106 136 166 205 256 308
#     4  11  22  35  52  77 106 135 172 214 258 307
#     4   9  18  34  53  74 102 135 171 211 258 308
#     4   9  19  36  55  75 100 132 173 216 254 300
#     4   8  17  33  52  75 104 136 167 204 252 305
#     4  10  20  37  57  77 105 138 174 214 256 303
#
# _framework density 18.122926
#
# number of rings (size 3 to 8) (size 9 to 14) (size 15 to 20)
#    0.000    2.625    0.000    3.375    0.000    4.750 
#    0.000   11.250    0.000    0.000    0.000    0.000 
#    0.000    0.000    0.000    0.000    0.000    0.000 
#
# Total GULP energy -396824.527911 kJ/mol
# GULP energy per Si atom -12400.766497 kJ/mol
# Density = 1.808168 g / cm^3
# Si number density = 18.122926 Si / 1000 Ang^3
#
#
#
# Elastic Constant Matrix: (Units=GPa)
#
#
# Indices 1 2 3 4 5 6 
#
# 1 132.3136 42.7002 69.7006 0.0000 -2.3550 0.0000
# 2 42.7002 67.6618 44.4963 0.0000 -0.2505 0.0000
# 3 69.7006 44.4963 179.8155 0.0000 5.6089 0.0000
# 4 0.0000 0.0000 0.0000 27.7773 0.0000 -0.1745
# 5 -2.3550 -0.2505 5.6089 0.0000 12.5676 0.0000
# 6 0.0000 0.0000 0.0000 -0.1745 0.0000 25.4731
#
#
#
# Elastic Compliance Matrix: (Units=1/GPa)
#
#
# Indices 1 2 3 4 5 6 
#
# 1 0.010788 -0.004751 -0.003109 0.000000 0.003315 0.000000
# 2 -0.004751 0.019812 -0.003089 0.000000 0.000883 0.000000
# 3 -0.003109 -0.003089 0.007658 0.000000 -0.004062 0.000000
# 4 0.000000 0.000000 0.000000 0.036002 0.000000 0.000247
# 5 0.003315 0.000883 -0.004062 0.000000 0.082021 0.000000
# 6 0.000000 0.000000 0.000000 0.000247 0.000000 0.039259
#
#
# Mechanical properties :
#
#
# Convention : Reuss Voigt Hill
#
# Bulk Modulus (GPa) = 61.12600 77.06500 69.09550
# Shear Modulus (GPa) = 22.43248 28.02317 25.22782
#
# Velocity S-wave (km/s) = 3.52205 3.93655 3.73505
# Velocity P-wave (km/s) = 7.09518 7.95473 7.53721
#
# Compressibility (1/GPa) = 0.01635965
#
# Stress axis : x y z
#
# Youngs Moduli (GPa) = 92.69526 50.47429 130.59081
#
# Poissons Ratio (x) = 0.23981 0.40606
# Poissons Ratio (y) = 0.44040 0.40333
# Poissons Ratio (z) = 0.28823 0.15589
#
# Static dielectric constant tensor:
#      x y z
#    x 3.441880 0.000000 -0.002860 
#    y 0.000000 3.174720 0.000000 
#    z -0.002860 0.000000 3.534940 
# 
# 
# High freq. dielectric constant tensor:
#      x y z
#    x 1.703390 0.000000 0.000440 
#    y 0.000000 1.689520 0.000000 
#    z 0.000440 0.000000 1.707650 
# 
# From -- ./inp_files/244204.got.cif
#   From: 2010.06.25/outbox.cif.g09.slc.cpg/sg12_123_cif.got.tgz:244204.got - 2010.06.28 00:19:55.
