data_PCOD8088532
_publ_section_title
;
Structure prediction by ZEFSAII (Michael W. Deem and Ramdas Pophale) SiO2 
 PCOD8088532
Probable space group: C 2/M
;
_chemical_formula_sum "Si O2"
_cell_formula_units_Z 64
_cell_length_a 26.931597
_cell_length_b 14.243360
_cell_length_c 11.919412
_cell_angle_alpha 90.000000
_cell_angle_beta 47.743578
_cell_angle_gamma 90.000000
_cell_volume 3384.113228
_symmetry_space_group_name_H-M "C 2/M"
_symmetry_group_IT_number 12
_symmetry_cell_setting 'monoclinic'
loop_
_space_group_symop_operation_xyz
x,y,z
-x,y,-z
-x,-y,-z
x,-y,z
1/2+x,1/2+y,z
1/2-x,1/2+y,-z
1/2-x,1/2-y,-z
1/2+x,1/2-y,z
loop_
_atom_site_type_symbol
_atom_site_label
_atom_site_fract_x
_atom_site_fract_y
_atom_site_fract_z
Si Si1 0.232932 0.103736 0.772904
Si Si2 0.669986 0.396530 0.105270
Si Si3 0.793407 0.276694 0.323892
Si Si4 0.015795 0.395100 0.684091
Si Si5 0.616783 0.206815 0.142290
Si Si6 0.369700 0.107681 0.650471
Si Si7 0.428707 0.892967 0.161698
Si Si8 0.267092 0.110063 0.161810
O O1 0.191540 0.179002 0.764047
O O2 0.312274 0.127075 0.644374
O O3 0.215904 0.000000 0.750641
O O4 0.221466 0.106326 0.924021
O O5 0.636600 0.500000 0.165823
O O6 0.613960 0.319409 0.161756
O O7 0.707713 0.371401 0.163816
O O8 0.750000 0.250000 0.500000
O O9 0.866034 0.324693 0.232330
O O10 0.749083 0.347275 0.312212
O O11 0.985830 0.500000 0.714880
O O12 0.058690 0.366383 0.510718
O O13 0.064471 0.391441 0.715658
O O14 0.956222 0.322162 0.787250
O O15 0.641126 0.167126 0.222786
O O16 0.667784 0.170185 0.971074
O O17 0.367236 0.000000 0.691598
O O18 0.413291 0.000000 0.142989
O O19 0.500000 0.858690 0.000000
O O20 0.284048 0.000000 0.144024
#
# Coordination Sequence:
#
# PCOD8088532 Si02
#       8
#     8   8   8   8   8   8   8   8
#     4  10  20  37  58  82 113 148 186 233 286 344
#     4  10  21  36  56  84 113 144 186 238 292 340
#     4  12  24  37  58  88 120 160 202 242 294 355
#     4  10  21  34  52  82 116 153 188 230 291 355
#     4  12  19  32  57  84 116 149 191 232 286 351
#     4  10  19  32  53  85 121 146 175 227 297 364
#     4  10  22  41  60  82 118 158 201 250 300 352
#     4  11  21  35  57  88 119 148 188 244 299 351
#
# _framework density 18.911895999999999
#
# number of rings (size 3 to 8) (size 9 to 14) (size 15 to 20)
#    0.000    1.375    2.500    4.500    0.000    4.000 
#    0.000    0.000    0.000    2.625    0.000    0.000 
#    0.000    0.000    0.000    0.000    0.000    0.000 
#
# Total GULP energy -396619.650344 kJ/mol
# GULP energy per Si atom -12394.364073 kJ/mol
# Density = 1.886885 g / cm^3
# Si number density = 18.911896 Si / 1000 Ang^3
#
#
#
# Elastic Constant Matrix: (Units=GPa)
#
#
# Indices 1 2 3 4 5 6 
#
# 1 83.4491 57.4640 34.1419 0.0000 -1.5064 0.0000
# 2 57.4640 109.7765 32.1787 0.0000 5.2585 0.0000
# 3 34.1419 32.1787 70.6136 0.0000 10.2789 0.0000
# 4 0.0000 0.0000 0.0000 26.8787 0.0000 -0.5750
# 5 -1.5064 5.2585 10.2789 0.0000 19.7002 0.0000
# 6 0.0000 0.0000 0.0000 -0.5750 0.0000 37.1745
#
#
#
# Elastic Compliance Matrix: (Units=1/GPa)
#
#
# Indices 1 2 3 4 5 6 
#
# 1 0.021744 -0.009629 -0.007296 0.000000 0.008039 0.000000
# 2 -0.009629 0.014780 -0.001513 0.000000 -0.003892 0.000000
# 3 -0.007296 -0.001513 0.019913 0.000000 -0.010544 0.000000
# 4 0.000000 0.000000 0.000000 0.037217 0.000000 0.000576
# 5 0.008039 -0.003892 -0.010544 0.000000 0.057916 0.000000
# 6 0.000000 0.000000 0.000000 0.000576 0.000000 0.026909
#
#
# Mechanical properties :
#
#
# Convention : Reuss Voigt Hill
#
# Bulk Modulus (GPa) = 51.11939 56.82316 53.97127
# Shear Modulus (GPa) = 22.53534 26.08764 24.31149
#
# Velocity S-wave (km/s) = 3.45569 3.71810 3.58929
# Velocity P-wave (km/s) = 6.55831 6.96734 6.76591
#
# Compressibility (1/GPa) = 0.01956205
#
# Stress axis : x y z
#
# Youngs Moduli (GPa) = 45.99021 67.66073 50.21741
#
# Poissons Ratio (x) = 0.65148 0.36637
# Poissons Ratio (y) = 0.44282 0.07598
# Poissons Ratio (z) = 0.33553 0.10238
#
# Static dielectric constant tensor:
#      x y z
#    x 3.351980 0.000000 0.199220 
#    y 0.000000 3.706740 0.000000 
#    z 0.199220 0.000000 3.432650 
# 
# 
# High freq. dielectric constant tensor:
#      x y z
#    x 1.726890 0.000000 0.019900 
#    y 0.000000 1.734230 0.000000 
#    z 0.019900 0.000000 1.722550 
# 
# From -- ./inp_files/183782.got.cif
#   From: 2010.06.25/outbox.cif.g09.slc.cpg/sg12_92_cif.got.tgz:183782.got - 2010.06.28 00:19:55.
