data_PCOD8088006
_publ_section_title
;
Structure prediction by ZEFSAII (Michael W. Deem and Ramdas Pophale) SiO2 
 PCOD8088006
Probable space group: C 2/M
;
_chemical_formula_sum "Si O2"
_cell_formula_units_Z 56
_cell_length_a 25.008060
_cell_length_b 8.957487
_cell_length_c 16.663278
_cell_angle_alpha 90.000000
_cell_angle_beta 59.521714
_cell_angle_gamma 90.000000
_cell_volume 3216.947150
_symmetry_space_group_name_H-M "C 2/M"
_symmetry_group_IT_number 12
_symmetry_cell_setting 'monoclinic'
loop_
_space_group_symop_operation_xyz
x,y,z
-x,y,-z
-x,-y,-z
x,-y,z
1/2+x,1/2+y,z
1/2-x,1/2+y,-z
1/2-x,1/2-y,-z
1/2+x,1/2-y,z
loop_
_atom_site_type_symbol
_atom_site_label
_atom_site_fract_x
_atom_site_fract_y
_atom_site_fract_z
Si Si1 0.122571 0.827425 0.383297
Si Si2 0.193642 0.172927 0.586920
Si Si3 0.070409 0.826669 0.596364
Si Si4 0.250918 0.670350 0.290686
Si Si5 0.058105 0.323778 0.282561
Si Si6 0.845477 0.173337 0.892772
Si Si7 0.232539 0.828903 0.899871
O O1 0.082218 0.800896 0.493391
O O2 0.192684 0.778159 0.346931
O O3 0.092944 0.732955 0.334947
O O4 0.122127 0.000000 0.358379
O O5 0.250000 0.250000 0.500000
O O6 0.128277 0.235038 0.604322
O O7 0.198620 0.202725 0.678533
O O8 0.197661 0.000000 0.561509
O O9 0.011982 0.731250 0.667842
O O10 0.057339 0.000000 0.624383
O O11 0.226719 0.500000 0.314919
O O12 0.285022 0.698216 0.179601
O O13 0.059541 0.500000 0.281842
O O14 0.092985 0.264589 0.176476
O O15 0.789459 0.221547 0.877351
O O16 0.858782 0.000000 0.868395
O O17 0.826970 0.208236 0.999298
O O18 0.253597 0.000000 0.899273
#
# Coordination Sequence:
#
# PCOD8088006 Si02
#       7
#     8   8   8   8   8   8   8
#     4  11  21  34  53  78 108 141 174 210 261 319
#     4  10  20  35  55  78 106 140 177 217 258 303
#     4  10  22  38  53  74 106 143 181 216 256 312
#     4  10  19  32  54  81 110 138 170 215 260 306
#     4  12  24  36  52  76 106 140 180 220 264 315
#     4  10  19  32  52  76 106 139 172 212 264 319
#     4   9  18  32  51  79 108 136 171 213 262 315
#
# _framework density 17.407807999999999
#
# number of rings (size 3 to 8) (size 9 to 14) (size 15 to 20)
#    0.000    1.714    2.857    2.571    0.000    4.000 
#    0.000    0.000    0.000    0.857    0.000    6.000 
#    0.000    0.000    0.000    0.000    0.000    0.000 
#
# Total GULP energy -347247.284586 kJ/mol
# GULP energy per Si atom -12401.688735 kJ/mol
# Density = 1.736819 g / cm^3
# Si number density = 17.407808 Si / 1000 Ang^3
#
#
#
# Elastic Constant Matrix: (Units=GPa)
#
#
# Indices 1 2 3 4 5 6 
#
# 1 86.1677 42.8121 49.2221 0.0000 -8.8162 0.0000
# 2 42.8121 94.7700 57.1147 0.0000 -11.3777 0.0001
# 3 49.2221 57.1147 124.4391 0.0000 -5.6736 0.0000
# 4 0.0000 0.0000 0.0000 25.3230 0.0000 -5.3196
# 5 -8.8162 -11.3777 -5.6736 0.0000 27.7019 0.0000
# 6 0.0000 0.0001 0.0000 -5.3196 0.0000 25.2590
#
#
#
# Elastic Compliance Matrix: (Units=1/GPa)
#
#
# Indices 1 2 3 4 5 6 
#
# 1 0.016630 -0.004583 -0.004360 0.000000 0.002517 0.000000
# 2 -0.004583 0.016472 -0.005557 0.000000 0.004169 0.000000
# 3 -0.004360 -0.005557 0.012259 0.000000 -0.001159 0.000000
# 4 0.000000 0.000000 0.000000 0.041318 0.000000 0.008702
# 5 0.002517 0.004169 -0.001159 0.000000 0.038374 0.000000
# 6 0.000000 0.000000 0.000000 0.008702 0.000000 0.041422
#
#
# Mechanical properties :
#
#
# Convention : Reuss Voigt Hill
#
# Bulk Modulus (GPa) = 61.12359 67.07496 64.09928
# Shear Modulus (GPa) = 24.88435 26.07196 25.47815
#
# Velocity S-wave (km/s) = 3.78497 3.87423 3.82986
# Velocity P-wave (km/s) = 7.36819 7.65690 7.51393
#
# Compressibility (1/GPa) = 0.01636030
#
# Stress axis : x y z
#
# Youngs Moduli (GPa) = 60.13070 60.70942 81.57604
#
# Poissons Ratio (x) = 0.27823 0.35567
# Poissons Ratio (y) = 0.27557 0.45335
# Poissons Ratio (z) = 0.26217 0.33739
#
# Static dielectric constant tensor:
#      x y z
#    x 3.231190 0.000000 0.106850 
#    y 0.000000 3.340160 0.000000 
#    z 0.106850 0.000000 3.493040 
# 
# 
# High freq. dielectric constant tensor:
#      x y z
#    x 1.648690 0.000000 0.005140 
#    y 0.000000 1.677710 0.000000 
#    z 0.005140 0.000000 1.679100 
# 
# From -- ./inp_files/287348.got.cif
#   From: 2010.06.25/outbox.cif.g09.slc.cpg/sg12_144_cif.got.tgz:287348.got - 2010.06.28 00:19:55.
