data_PCOD8088161
_publ_section_title
;
Structure prediction by ZEFSAII (Michael W. Deem and Ramdas Pophale) SiO2 
 PCOD8088161
Probable space group: C 2/M
;
_chemical_formula_sum "Si O2"
_cell_formula_units_Z 48
_cell_length_a 22.940901
_cell_length_b 9.694067
_cell_length_c 12.065279
_cell_angle_alpha 90.000000
_cell_angle_beta 68.340563
_cell_angle_gamma 90.000000
_cell_volume 2493.754919
_symmetry_space_group_name_H-M "C 2/M"
_symmetry_group_IT_number 12
_symmetry_cell_setting 'monoclinic'
loop_
_space_group_symop_operation_xyz
x,y,z
-x,y,-z
-x,-y,-z
x,-y,z
1/2+x,1/2+y,z
1/2-x,1/2+y,-z
1/2-x,1/2-y,-z
1/2+x,1/2-y,z
loop_
_atom_site_type_symbol
_atom_site_label
_atom_site_fract_x
_atom_site_fract_y
_atom_site_fract_z
Si Si1 0.493594 0.343666 0.380134
Si Si2 0.150591 0.845487 0.527437
Si Si3 0.830902 0.840893 0.240551
Si Si4 0.408912 0.158478 0.807284
Si Si5 0.693395 0.840093 0.296251
Si Si6 0.572271 0.840692 0.954868
O O1 0.500000 0.285612 0.500000
O O2 0.519804 0.500000 0.356566
O O3 0.422462 0.335512 0.391470
O O4 0.532993 0.249997 0.270399
O O5 0.184697 0.809604 0.619230
O O6 0.168357 0.741615 0.419093
O O7 0.167849 0.000000 0.475168
O O8 0.766352 0.806519 0.220813
O O9 0.887328 0.747121 0.159085
O O10 0.850903 0.000000 0.210603
O O11 0.345911 0.201106 0.785480
O O12 0.426716 0.000000 0.771677
O O13 0.398247 0.183932 0.944608
O O14 0.684968 0.000000 0.331852
O O15 0.576909 0.000000 0.915868
O O16 0.500000 0.791777 0.000000
#
# Coordination Sequence:
#
# PCOD8088161 Si02
#       6
#     8   8   8   8   8   8
#     4  10  19  32  52  80 110 138 175 221 265 313
#     4  10  20  35  55  80 111 143 179 222 267 316
#     4  10  22  38  56  80 109 143 181 221 265 317
#     4  10  21  36  55  80 110 143 179 221 268 317
#     4  10  21  36  54  80 112 142 178 221 266 319
#     4  10  22  40  59  80 107 139 180 226 267 316
#
# _framework density 19.248083000000001
#
# number of rings (size 3 to 8) (size 9 to 14) (size 15 to 20)
#    0.000    2.000    1.667    1.500    0.000    4.000 
#    0.000    0.000    0.000    0.000    0.000    0.000 
#    0.000    0.000    0.000    0.000    0.000    0.000 
#
# Total GULP energy -297650.927274 kJ/mol
# GULP energy per Si atom -12402.121970 kJ/mol
# Density = 1.920427 g / cm^3
# Si number density = 19.248083 Si / 1000 Ang^3
#
#
#
# Elastic Constant Matrix: (Units=GPa)
#
#
# Indices 1 2 3 4 5 6 
#
# 1 107.6098 36.0299 38.7444 0.0000 7.9488 0.0000
# 2 36.0299 67.2539 44.9503 0.0000 -6.1631 0.0000
# 3 38.7444 44.9503 75.0258 0.0000 1.7012 0.0000
# 4 0.0000 0.0000 0.0000 25.7744 0.0000 -0.1495
# 5 7.9488 -6.1631 1.7012 0.0000 26.6997 0.0000
# 6 0.0000 0.0000 0.0000 -0.1495 0.0000 22.7126
#
#
#
# Elastic Compliance Matrix: (Units=1/GPa)
#
#
# Indices 1 2 3 4 5 6 
#
# 1 0.012487 -0.004789 -0.003475 0.000000 -0.004602 0.000000
# 2 -0.004789 0.027886 -0.014434 0.000000 0.008782 0.000000
# 3 -0.003475 -0.014434 0.023858 0.000000 -0.003817 0.000000
# 4 0.000000 0.000000 0.000000 0.038800 0.000000 0.000255
# 5 -0.004602 0.008782 -0.003817 0.000000 0.041094 0.000000
# 6 0.000000 0.000000 0.000000 0.000255 0.000000 0.044030
#
#
# Mechanical properties :
#
#
# Convention : Reuss Voigt Hill
#
# Bulk Modulus (GPa) = 53.09009 54.37098 53.73054
# Shear Modulus (GPa) = 20.84817 23.71501 22.28159
#
# Velocity S-wave (km/s) = 3.29466 3.51390 3.40604
# Velocity P-wave (km/s) = 6.48961 6.69119 6.59117
#
# Compressibility (1/GPa) = 0.01883591
#
# Stress axis : x y z
#
# Youngs Moduli (GPa) = 80.08099 35.85981 41.91535
#
# Poissons Ratio (x) = 0.17173 0.14566
# Poissons Ratio (y) = 0.38350 0.60499
# Poissons Ratio (z) = 0.27829 0.51759
#
# Static dielectric constant tensor:
#      x y z
#    x 3.780780 0.000000 0.245420 
#    y 0.000000 3.487170 0.000000 
#    z 0.245420 0.000000 3.246280 
# 
# 
# High freq. dielectric constant tensor:
#      x y z
#    x 1.766030 0.000000 0.014910 
#    y 0.000000 1.745300 0.000000 
#    z 0.014910 0.000000 1.733320 
# 
# From -- ./inp_files/172878.got.cif
#   From: 2010.06.25/outbox.cif.g09.slc.cpg/sg12_87_cif.got.tgz:172878.got - 2010.06.28 00:19:55.
