data_PCOD8088850
_publ_section_title
;
Structure prediction by ZEFSAII (Michael W. Deem and Ramdas Pophale) SiO2 
 PCOD8088850
Probable space group: C 2/M
;
_chemical_formula_sum "Si O2"
_cell_formula_units_Z 64
_cell_length_a 24.073736
_cell_length_b 9.350201
_cell_length_c 21.198109
_cell_angle_alpha 90.000000
_cell_angle_beta 133.441916
_cell_angle_gamma 90.000000
_cell_volume 3464.504617
_symmetry_space_group_name_H-M "C 2/M"
_symmetry_group_IT_number 12
_symmetry_cell_setting 'monoclinic'
loop_
_space_group_symop_operation_xyz
x,y,z
-x,y,-z
-x,-y,-z
x,-y,z
1/2+x,1/2+y,z
1/2-x,1/2+y,-z
1/2-x,1/2-y,-z
1/2+x,1/2-y,z
loop_
_atom_site_type_symbol
_atom_site_label
_atom_site_fract_x
_atom_site_fract_y
_atom_site_fract_z
Si Si1 0.897087 0.841314 0.240740
Si Si2 0.186226 0.835632 0.265585
Si Si3 0.969370 0.333621 0.707025
Si Si4 0.686078 0.667460 0.411714
Si Si5 0.039371 0.341671 0.154831
Si Si6 0.119833 0.339958 0.012802
Si Si7 0.247070 0.167092 0.788696
Si Si8 0.822547 0.155478 0.048548
O O1 0.828074 0.783412 0.231167
O O2 0.866554 0.859184 0.147289
O O3 0.966419 0.728398 0.290934
O O4 0.924343 0.000000 0.285101
O O5 0.207014 0.814617 0.354700
O O6 0.102345 0.773623 0.185267
O O7 0.250481 0.753958 0.274728
O O8 0.185569 0.000000 0.245016
O O9 0.956392 0.500000 0.679752
O O10 0.893686 0.242486 0.634324
O O11 0.992658 0.315592 0.798840
O O12 0.682166 0.500000 0.427360
O O13 0.750000 0.750000 0.500000
O O14 0.077543 0.500000 0.182565
O O15 0.972112 0.337336 0.049113
O O16 0.145654 0.500000 0.011473
O O17 0.124506 0.225652 0.961654
O O18 0.173238 0.295399 0.112960
O O19 0.242212 0.000000 0.770093
O O20 0.797064 0.000000 0.004356
O O21 0.750000 0.250000 0.000000
#
# Coordination Sequence:
#
# PCOD8088850 Si02
#       8
#     8   8   8   8   8   8   8   8
#     4  10  20  33  50  74 107 146 185 227 272 316
#     4  10  22  38  55  78 109 139 175 221 268 320
#     4  10  19  32  55  85 113 141 176 219 269 321
#     4  10  21  39  64  91 115 136 165 210 265 325
#     4   9  18  32  52  74 102 141 184 228 274 319
#     4  10  19  33  49  72 102 140 192 237 275 315
#     4  10  21  36  52  71 105 151 193 227 266 319
#     4  11  20  30  46  69 101 140 187 239 282 315
#
# _framework density 18.47306
#
# number of rings (size 3 to 8) (size 9 to 14) (size 15 to 20)
#    0.000    2.000    2.500    1.500    0.000    4.500 
#    0.000    2.500    0.000    0.750    0.000    5.250 
#    0.000    0.000    0.000    0.000    0.000    0.000 
#
# Total GULP energy -396589.342096 kJ/mol
# GULP energy per Si atom -12393.416940 kJ/mol
# Density = 1.843101 g / cm^3
# Si number density = 18.473060 Si / 1000 Ang^3
#
#
#
# Elastic Constant Matrix: (Units=GPa)
#
#
# Indices 1 2 3 4 5 6 
#
# 1 96.6680 70.6176 42.2421 0.0000 -3.8383 0.0000
# 2 70.6176 128.0110 47.6426 0.0000 5.3548 0.0000
# 3 42.2421 47.6426 71.1883 0.0000 14.8683 0.0000
# 4 0.0000 0.0000 0.0000 25.7574 0.0000 3.3734
# 5 -3.8383 5.3548 14.8683 0.0000 18.2662 0.0000
# 6 0.0000 0.0000 0.0000 3.3734 0.0000 32.8191
#
#
#
# Elastic Compliance Matrix: (Units=1/GPa)
#
#
# Indices 1 2 3 4 5 6 
#
# 1 0.022039 -0.008959 -0.010359 0.000000 0.015689 0.000000
# 2 -0.008959 0.014198 -0.003522 0.000000 -0.003178 0.000000
# 3 -0.010359 -0.003522 0.027458 0.000000 -0.023494 0.000000
# 4 0.000000 0.000000 0.000000 0.039354 0.000000 -0.004045
# 5 0.015689 -0.003178 -0.023494 0.000000 0.078098 0.000000
# 6 0.000000 0.000000 0.000000 -0.004045 0.000000 0.030886
#
#
# Mechanical properties :
#
#
# Convention : Reuss Voigt Hill
#
# Bulk Modulus (GPa) = 55.50757 68.54133 62.02445
# Shear Modulus (GPa) = 18.95977 24.39286 21.67632
#
# Velocity S-wave (km/s) = 3.20714 3.63775 3.42921
# Velocity P-wave (km/s) = 6.62023 7.40461 7.02338
#
# Compressibility (1/GPa) = 0.01801556
#
# Stress axis : x y z
#
# Youngs Moduli (GPa) = 45.37475 70.43386 36.41920
#
# Poissons Ratio (x) = 0.63100 0.37725
# Poissons Ratio (y) = 0.40650 0.12827
# Poissons Ratio (z) = 0.47002 0.24807
#
# Static dielectric constant tensor:
#      x y z
#    x 3.273320 0.000000 0.067270 
#    y 0.000000 3.567600 0.000000 
#    z 0.067270 0.000000 3.100810 
# 
# 
# High freq. dielectric constant tensor:
#      x y z
#    x 1.711930 0.000000 0.007710 
#    y 0.000000 1.728460 0.000000 
#    z 0.007710 0.000000 1.679520 
# 
# From -- ./inp_files/324357.got.cif
#   From: 2010.06.25/outbox.cif.g09.slc.cpg/sg12_163_cif.got.tgz:324357.got - 2010.06.28 00:19:55.
