data_PCOD8088587
_publ_section_title
;
Structure prediction by ZEFSAII (Michael W. Deem and Ramdas Pophale) SiO2 
 PCOD8088587
Probable space group: C 2/M
;
_chemical_formula_sum "Si O2"
_cell_formula_units_Z 64
_cell_length_a 26.637304
_cell_length_b 16.574350
_cell_length_c 18.512509
_cell_angle_alpha 90.000000
_cell_angle_beta 25.454187
_cell_angle_gamma 90.000000
_cell_volume 3512.753032
_symmetry_space_group_name_H-M "C 2/M"
_symmetry_group_IT_number 12
_symmetry_cell_setting 'monoclinic'
loop_
_space_group_symop_operation_xyz
x,y,z
-x,y,-z
-x,-y,-z
x,-y,z
1/2+x,1/2+y,z
1/2-x,1/2+y,-z
1/2-x,1/2-y,-z
1/2+x,1/2-y,z
loop_
_atom_site_type_symbol
_atom_site_label
_atom_site_fract_x
_atom_site_fract_y
_atom_site_fract_z
Si Si1 0.086790 0.090760 0.453716
Si Si2 0.747685 0.179899 0.061302
Si Si3 0.768086 0.300818 0.148124
Si Si4 0.830200 0.827524 0.381531
Si Si5 0.105007 0.591437 0.673816
Si Si6 0.882798 0.592916 0.879621
Si Si7 0.009890 0.719249 0.904102
Si Si8 0.496117 0.595317 0.730253
O O1 0.187378 0.157143 0.312783
O O2 0.020105 0.109306 0.614495
O O3 0.000000 0.100218 0.500000
O O4 0.139600 0.000000 0.387265
O O5 0.871668 0.135101 0.909295
O O6 0.750000 0.250000 0.000000
O O7 0.711022 0.220939 0.185217
O O8 0.648226 0.118138 0.162407
O O9 0.797498 0.364760 0.047469
O O10 0.882132 0.268993 0.039151
O O11 0.750000 0.750000 0.500000
O O12 0.739227 0.896414 0.473933
O O13 0.920493 0.802987 0.201026
O O14 0.902446 0.858761 0.357084
O O15 0.085031 0.500000 0.723717
O O16 0.076730 0.644565 0.780583
O O17 0.018004 0.614512 0.720875
O O18 0.855937 0.500000 0.923786
O O19 0.000000 0.699329 0.000000
O O20 0.494486 0.500000 0.751911
#
# Coordination Sequence:
#
# PCOD8088587 Si02
#       8
#     8   8   8   8   8   8   8   8
#     4  10  21  35  52  82 121 149 174 217 280 346
#     4  10  19  32  54  79 113 149 188 225 266 329
#     4  10  19  33  50  77 115 144 182 220 272 330
#     4  10  21  37  56  79 112 146 189 234 276 330
#     4   9  19  35  56  83 112 143 179 225 277 337
#     4   9  17  31  52  79 109 143 182 223 273 328
#     4  10  21  36  54  79 110 146 180 227 278 329
#     4  11  22  37  59  86 115 151 189 232 282 335
#
# _framework density 18.219328999999998
#
# number of rings (size 3 to 8) (size 9 to 14) (size 15 to 20)
#    0.000    2.125    1.250    2.625    5.250    1.750 
#    0.000    0.000    0.000    1.500    0.000    0.000 
#    0.000   21.000    0.000    0.000    0.000    0.000 
#
# Total GULP energy -396575.949583 kJ/mol
# GULP energy per Si atom -12392.998424 kJ/mol
# Density = 1.817786 g / cm^3
# Si number density = 18.219329 Si / 1000 Ang^3
#
#
#
# Elastic Constant Matrix: (Units=GPa)
#
#
# Indices 1 2 3 4 5 6 
#
# 1 97.2381 54.6752 42.3528 0.0000 -17.2107 0.0000
# 2 54.6752 80.4425 38.0864 0.0000 -1.8583 0.0000
# 3 42.3528 38.0864 76.0906 0.0000 -8.5963 0.0000
# 4 0.0000 0.0000 0.0000 19.2580 0.0000 -3.4909
# 5 -17.2107 -1.8583 -8.5963 0.0000 23.8423 0.0000
# 6 0.0000 0.0000 0.0000 -3.4909 0.0000 32.0928
#
#
#
# Elastic Compliance Matrix: (Units=1/GPa)
#
#
# Indices 1 2 3 4 5 6 
#
# 1 0.021234 -0.012092 -0.004317 0.000000 0.012829 0.000000
# 2 -0.012092 0.023248 -0.005929 0.000000 -0.009054 0.000000
# 3 -0.004317 -0.005929 0.018878 0.000000 0.003228 0.000000
# 4 0.000000 0.000000 0.000000 0.052971 0.000000 0.005762
# 5 0.012829 -0.009054 0.003228 0.000000 0.051661 0.000000
# 6 0.000000 0.000000 0.000000 0.005762 0.000000 0.031786
#
#
# Mechanical properties :
#
#
# Convention : Reuss Voigt Hill
#
# Bulk Modulus (GPa) = 53.52377 58.22224 55.87300
# Shear Modulus (GPa) = 19.94557 22.94908 21.44732
#
# Velocity S-wave (km/s) = 3.31229 3.55294 3.43472
# Velocity P-wave (km/s) = 6.63849 6.98976 6.81639
#
# Compressibility (1/GPa) = 0.01868329
#
# Stress axis : x y z
#
# Youngs Moduli (GPa) = 47.09364 43.01464 52.97295
#
# Poissons Ratio (x) = 0.52014 0.22870
# Poissons Ratio (y) = 0.56946 0.31407
# Poissons Ratio (z) = 0.20332 0.25503
#
# Static dielectric constant tensor:
#      x y z
#    x 3.077600 0.000000 -0.401890 
#    y 0.000000 3.668710 0.000000 
#    z -0.401890 0.000000 3.439540 
# 
# 
# High freq. dielectric constant tensor:
#      x y z
#    x 1.703830 0.000000 -0.031150 
#    y 0.000000 1.709120 0.000000 
#    z -0.031150 0.000000 1.684220 
# 
# From -- ./inp_files/290428.got.cif
#   From: 2010.06.25/outbox.cif.g09.slc.cpg/sg12_146_cif.got.tgz:290428.got - 2010.06.28 00:19:55.
