data_PCOD8088413
_publ_section_title
;
Structure prediction by ZEFSAII (Michael W. Deem and Ramdas Pophale) SiO2 
 PCOD8088413
Probable space group: C 2/M
;
_chemical_formula_sum "Si O2"
_cell_formula_units_Z 56
_cell_length_a 14.531255
_cell_length_b 15.005494
_cell_length_c 14.217744
_cell_angle_alpha 90.000000
_cell_angle_beta 78.460936
_cell_angle_gamma 90.000000
_cell_volume 3037.501290
_symmetry_space_group_name_H-M "C 2/M"
_symmetry_group_IT_number 12
_symmetry_cell_setting 'monoclinic'
loop_
_space_group_symop_operation_xyz
x,y,z
-x,y,-z
-x,-y,-z
x,-y,z
1/2+x,1/2+y,z
1/2-x,1/2+y,-z
1/2-x,1/2-y,-z
1/2+x,1/2-y,z
loop_
_atom_site_type_symbol
_atom_site_label
_atom_site_fract_x
_atom_site_fract_y
_atom_site_fract_z
Si Si1 0.343242 0.762905 0.696171
Si Si2 0.473977 0.102665 0.900433
Si Si3 0.466951 0.258804 0.245260
Si Si4 0.699429 0.200730 0.596198
Si Si5 0.109633 0.405088 0.467746
Si Si6 0.069674 0.897913 0.906673
Si Si7 0.278439 0.099787 0.856828
O O1 0.433129 0.719068 0.726651
O O2 0.275155 0.686538 0.665557
O O3 0.372691 0.825851 0.605832
O O4 0.283404 0.824001 0.778066
O O5 0.526464 0.165410 0.813846
O O6 0.361156 0.113589 0.915829
O O7 0.504774 0.000000 0.875315
O O8 0.500000 0.133184 0.000000
O O9 0.388269 0.255336 0.342142
O O10 0.442831 0.341315 0.184437
O O11 0.750000 0.250000 0.500000
O O12 0.657614 0.110494 0.560559
O O13 0.148958 0.500000 0.422205
O O14 0.000000 0.412899 0.500000
O O15 0.175976 0.890218 0.925344
O O16 0.044184 0.000000 0.887476
O O17 0.000000 0.859689 0.000000
O O18 0.287977 0.000000 0.810576
#
# Coordination Sequence:
#
# PCOD8088413 Si02
#       7
#     8   8   8   8   8   8   8
#     4  10  19  34  54  79 105 141 177 221 266 327
#     4   9  19  35  55  82 112 141 172 218 279 334
#     4  11  20  36  56  81 110 143 182 224 274 319
#     4  10  21  35  52  78 109 140 177 215 268 319
#     4  10  19  32  53  80 109 138 172 219 272 322
#     4  10  21  38  57  79 107 143 190 232 265 312
#     4   9  17  32  56  79 102 136 181 225 267 317
#
# _framework density 18.436207
#
# number of rings (size 3 to 8) (size 9 to 14) (size 15 to 20)
#    0.000    2.143    2.857    0.857    0.000    1.143 
#    2.571    2.857    0.000    0.000    0.000    4.000 
#    0.000    0.000    0.000    0.000    0.000    0.000 
#
# Total GULP energy -346938.564312 kJ/mol
# GULP energy per Si atom -12390.663011 kJ/mol
# Density = 1.839425 g / cm^3
# Si number density = 18.436207 Si / 1000 Ang^3
#
#
#
# Elastic Constant Matrix: (Units=GPa)
#
#
# Indices 1 2 3 4 5 6 
#
# 1 121.4937 33.0651 48.0470 0.0000 6.1196 0.0000
# 2 33.0651 55.9363 23.7069 0.0000 5.6026 0.0000
# 3 48.0470 23.7069 81.4684 0.0000 -3.7004 0.0000
# 4 0.0000 0.0000 0.0000 28.7948 0.0000 17.1657
# 5 6.1196 5.6026 -3.7004 0.0000 39.9535 0.0000
# 6 0.0000 0.0000 0.0000 17.1657 0.0000 18.7839
#
#
#
# Elastic Compliance Matrix: (Units=1/GPa)
#
#
# Indices 1 2 3 4 5 6 
#
# 1 0.011779 -0.004349 -0.005760 0.000000 -0.001728 0.000000
# 2 -0.004349 0.022475 -0.004106 0.000000 -0.002866 0.000000
# 3 -0.005760 -0.004106 0.017004 0.000000 0.003033 0.000000
# 4 0.000000 0.000000 0.000000 0.076290 0.000000 -0.069717
# 5 -0.001728 -0.002866 0.003033 0.000000 0.025977 0.000000
# 6 0.000000 0.000000 0.000000 -0.069717 0.000000 0.116948
#
#
# Mechanical properties :
#
#
# Convention : Reuss Voigt Hill
#
# Bulk Modulus (GPa) = 43.80204 52.05960 47.93082
# Shear Modulus (GPa) = 16.31259 27.77841 22.04550
#
# Velocity S-wave (km/s) = 2.97781 3.88587 3.46175
# Velocity P-wave (km/s) = 5.96937 6.95934 6.48328
#
# Compressibility (1/GPa) = 0.02282999
#
# Stress axis : x y z
#
# Youngs Moduli (GPa) = 84.89430 44.49348 58.80896
#
# Poissons Ratio (x) = 0.19349 0.33874
# Poissons Ratio (y) = 0.36918 0.24145
# Poissons Ratio (z) = 0.48899 0.18267
#
# Static dielectric constant tensor:
#      x y z
#    x 3.111950 0.000000 0.118280 
#    y 0.000000 4.813760 0.000000 
#    z 0.118280 0.000000 3.413800 
# 
# 
# High freq. dielectric constant tensor:
#      x y z
#    x 1.730980 0.000000 0.002590 
#    y 0.000000 1.694370 0.000000 
#    z 0.002590 0.000000 1.708020 
# 
# From -- ./inp_files/214196.got.cif
#   From: 2010.06.25/outbox.cif.g09.slc.cpg/sg12_108_cif.got.tgz:214196.got - 2010.06.28 00:19:55.
