data_PCOD8088834
_publ_section_title
;
Structure prediction by ZEFSAII (Michael W. Deem and Ramdas Pophale) SiO2 
 PCOD8088834
Probable space group: C 2/M
;
_chemical_formula_sum "Si O2"
_cell_formula_units_Z 64
_cell_length_a 15.241413
_cell_length_b 9.294084
_cell_length_c 32.833608
_cell_angle_alpha 90.000000
_cell_angle_beta 134.553863
_cell_angle_gamma 90.000000
_cell_volume 3314.293001
_symmetry_space_group_name_H-M "C 2/M"
_symmetry_group_IT_number 12
_symmetry_cell_setting 'monoclinic'
loop_
_space_group_symop_operation_xyz
x,y,z
-x,y,-z
-x,-y,-z
x,-y,z
1/2+x,1/2+y,z
1/2-x,1/2+y,-z
1/2-x,1/2-y,-z
1/2+x,1/2-y,z
loop_
_atom_site_type_symbol
_atom_site_label
_atom_site_fract_x
_atom_site_fract_y
_atom_site_fract_z
Si Si1 0.432146 0.664804 0.556509
Si Si2 0.178080 0.164848 0.681720
Si Si3 0.707738 0.831539 0.139796
Si Si4 0.432313 0.167835 0.069379
Si Si5 0.750705 0.332837 0.939401
Si Si6 0.123751 0.670559 0.744034
Si Si7 0.658331 0.834744 0.338318
Si Si8 0.721342 0.166401 0.552903
O O1 0.427531 0.500000 0.540608
O O2 0.566033 0.709597 0.615856
O O3 0.398853 0.762930 0.506903
O O4 0.338701 0.693783 0.562763
O O5 0.183790 0.267220 0.722542
O O6 0.303450 0.183836 0.696620
O O7 0.161883 0.000000 0.691319
O O8 0.574136 0.787298 0.112851
O O9 0.712411 0.790460 0.094020
O O10 0.808968 0.737613 0.195411
O O11 0.733959 0.000000 0.155396
O O12 0.372844 0.249490 0.088186
O O13 0.418062 0.000000 0.072929
O O14 0.364228 0.212184 0.005337
O O15 0.721152 0.500000 0.933783
O O16 0.140014 0.500000 0.749685
O O17 0.981379 0.716925 0.701078
O O18 0.750895 0.739865 0.395098
O O19 0.673511 0.000000 0.356997
O O20 0.693456 0.000000 0.551117
#
# Coordination Sequence:
#
# PCOD8088834 Si02
#       8
#     8   8   8   8   8   8   8   8
#     4   9  18  33  55  81 109 143 179 218 269 332
#     4  10  21  40  62  81 105 145 189 224 271 337
#     4  10  21  37  58  80 109 152 191 224 267 329
#     4   9  18  34  57  85 116 149 185 225 271 323
#     4   9  18  34  57  86 117 148 184 226 272 322
#     4  11  24  40  57  81 111 142 183 238 284 318
#     4  10  22  39  59  80 107 143 182 227 279 331
#     4  10  19  32  55  84 112 142 177 221 272 328
#
# _framework density 19.310302
#
# number of rings (size 3 to 8) (size 9 to 14) (size 15 to 20)
#    0.000    2.250    1.250    1.125    0.000    6.000 
#    0.000    6.250    0.000    3.750    0.000    0.000 
#    0.000    0.000    0.000    0.000    0.000    0.000 
#
# Total GULP energy -396918.420690 kJ/mol
# GULP energy per Si atom -12403.700647 kJ/mol
# Density = 1.926635 g / cm^3
# Si number density = 19.310302 Si / 1000 Ang^3
#
#
#
# Elastic Constant Matrix: (Units=GPa)
#
#
# Indices 1 2 3 4 5 6 
#
# 1 64.4827 26.2211 16.6857 0.0000 -3.3538 0.0000
# 2 26.2211 64.8491 35.2397 0.0000 -3.4788 0.0000
# 3 16.6857 35.2397 65.6805 0.0000 1.3616 0.0000
# 4 0.0000 0.0000 0.0000 36.1482 0.0000 -2.3590
# 5 -3.3538 -3.4788 1.3616 0.0000 14.3112 0.0000
# 6 0.0000 0.0000 0.0000 -2.3590 0.0000 29.6283
#
#
#
# Elastic Compliance Matrix: (Units=1/GPa)
#
#
# Indices 1 2 3 4 5 6 
#
# 1 0.018716 -0.006774 -0.001179 0.000000 0.002852 0.000000
# 2 -0.006774 0.024822 -0.011712 0.000000 0.005561 0.000000
# 3 -0.001179 -0.011712 0.021917 0.000000 -0.005209 0.000000
# 4 0.000000 0.000000 0.000000 0.027808 0.000000 0.002214
# 5 0.002852 0.005561 -0.005209 0.000000 0.072391 0.000000
# 6 0.000000 0.000000 0.000000 0.002214 0.000000 0.033928
#
#
# Mechanical properties :
#
#
# Convention : Reuss Voigt Hill
#
# Bulk Modulus (GPa) = 38.27900 39.03392 38.65646
# Shear Modulus (GPa) = 20.19211 23.80860 22.00035
#
# Velocity S-wave (km/s) = 3.23718 3.51515 3.37902
# Velocity P-wave (km/s) = 5.81710 6.06077 5.94018
#
# Compressibility (1/GPa) = 0.02612399
#
# Stress axis : x y z
#
# Youngs Moduli (GPa) = 53.43023 40.28640 45.62686
#
# Poissons Ratio (x) = 0.27289 0.05382
# Poissons Ratio (y) = 0.36192 0.53440
# Poissons Ratio (z) = 0.06302 0.47185
#
# Static dielectric constant tensor:
#      x y z
#    x 3.571820 0.000000 0.051950 
#    y 0.000000 3.452650 0.000000 
#    z 0.051950 0.000000 3.461710 
# 
# 
# High freq. dielectric constant tensor:
#      x y z
#    x 1.755410 0.000000 -0.000190 
#    y 0.000000 1.745940 0.000000 
#    z -0.000190 0.000000 1.745710 
# 
# From -- ./inp_files/359718.got.cif
#   From: 2010.06.25/outbox.cif.g09.slc.cpg/sg12_180_cif.got.tgz:359718.got - 2010.06.28 00:19:55.
