data_PCOD8088616
_publ_section_title
;
Structure prediction by ZEFSAII (Michael W. Deem and Ramdas Pophale) SiO2 
 PCOD8088616
Probable space group: C 2/M
;
_chemical_formula_sum "Si O2"
_cell_formula_units_Z 56
_cell_length_a 20.536152
_cell_length_b 8.910755
_cell_length_c 17.744578
_cell_angle_alpha 90.000000
_cell_angle_beta 63.944438
_cell_angle_gamma 90.000000
_cell_volume 2917.116493
_symmetry_space_group_name_H-M "C 2/M"
_symmetry_group_IT_number 12
_symmetry_cell_setting 'monoclinic'
loop_
_space_group_symop_operation_xyz
x,y,z
-x,y,-z
-x,-y,-z
x,-y,z
1/2+x,1/2+y,z
1/2-x,1/2+y,-z
1/2-x,1/2-y,-z
1/2+x,1/2-y,z
loop_
_atom_site_type_symbol
_atom_site_label
_atom_site_fract_x
_atom_site_fract_y
_atom_site_fract_z
Si Si1 0.654982 0.675639 0.752472
Si Si2 0.091650 0.678181 0.218557
Si Si3 0.424420 0.178461 0.506279
Si Si4 0.431565 0.178104 0.333451
Si Si5 0.582495 0.324737 0.944899
Si Si6 0.817454 0.321408 0.687480
Si Si7 0.172179 0.322196 0.028827
O O1 0.656827 0.500000 0.734814
O O2 0.628164 0.757737 0.691794
O O3 0.602522 0.713445 0.848831
O O4 0.735283 0.737601 0.729288
O O5 0.090912 0.500000 0.224196
O O6 0.142673 0.743607 0.258775
O O7 0.010566 0.740982 0.270131
O O8 0.121536 0.732863 0.123125
O O9 0.500000 0.242951 0.500000
O O10 0.412539 0.235290 0.427129
O O11 0.358731 0.237308 0.591773
O O12 0.427858 0.000000 0.506007
O O13 0.430342 0.000000 0.329487
O O14 0.593241 0.500000 0.957391
O O15 0.636172 0.231554 0.970053
O O16 0.500000 0.273293 0.000000
O O17 0.818974 0.500000 0.689487
O O18 0.180884 0.500000 0.023460
O O19 0.250000 0.250000 0.000000
#
# Coordination Sequence:
#
# PCOD8088616 Si02
#       7
#     8   8   8   8   8   8   8
#     4  10  21  35  51  74 106 142 171 204 261 321
#     4   9  17  31  52  77 101 130 171 218 259 300
#     4   9  15  27  50  80 104 126 167 216 255 293
#     4  10  19  32  54  81 104 128 169 219 256 297
#     4  10  21  38  57  76 104 144 186 224 266 319
#     4   9  16  29  50  74 103 136 170 208 252 304
#     4  11  22  35  54  80 109 140 178 223 271 319
#
# _framework density 19.197040000000001
#
# number of rings (size 3 to 8) (size 9 to 14) (size 15 to 20)
#    0.000    2.286    1.429    2.143    0.000    3.714 
#    0.000    0.714    0.000    1.286    0.000    0.000 
#    0.000    0.000    0.000    0.000    0.000    0.000 
#
# Total GULP energy -347228.778009 kJ/mol
# GULP energy per Si atom -12401.027786 kJ/mol
# Density = 1.915335 g / cm^3
# Si number density = 19.197040 Si / 1000 Ang^3
#
#
#
# Elastic Constant Matrix: (Units=GPa)
#
#
# Indices 1 2 3 4 5 6 
#
# 1 116.6273 19.5825 29.2451 0.0000 6.2319 0.0000
# 2 19.5825 26.3375 17.8828 0.0001 4.7425 0.0000
# 3 29.2451 17.8828 102.6360 0.0000 5.2487 0.0000
# 4 0.0000 0.0001 0.0000 14.9570 0.0000 5.7025
# 5 6.2319 4.7425 5.2487 0.0000 41.7947 0.0000
# 6 0.0000 0.0000 0.0000 5.7025 0.0000 28.8963
#
#
#
# Elastic Compliance Matrix: (Units=1/GPa)
#
#
# Indices 1 2 3 4 5 6 
#
# 1 0.010089 -0.006198 -0.001765 0.000000 -0.000579 0.000000
# 2 -0.006198 0.047536 -0.006328 0.000000 -0.003675 0.000000
# 3 -0.001765 -0.006328 0.011372 0.000000 -0.000447 0.000000
# 4 0.000000 0.000000 0.000000 0.072298 0.000000 -0.014267
# 5 -0.000579 -0.003675 -0.000447 0.000000 0.024486 0.000000
# 6 0.000000 0.000000 0.000000 -0.014267 0.000000 0.037422
#
#
# Mechanical properties :
#
#
# Convention : Reuss Voigt Hill
#
# Bulk Modulus (GPa) = 24.74472 42.11348 33.42910
# Shear Modulus (GPa) = 20.38682 29.05564 24.72123
#
# Velocity S-wave (km/s) = 3.26233 3.89465 3.59243
# Velocity P-wave (km/s) = 5.20656 6.49689 5.88718
#
# Compressibility (1/GPa) = 0.04041267
#
# Stress axis : x y z
#
# Youngs Moduli (GPa) = 99.12166 21.03671 87.93858
#
# Poissons Ratio (x) = 0.13039 0.15522
# Poissons Ratio (y) = 0.61439 0.55651
# Poissons Ratio (z) = 0.17495 0.13313
#
# Static dielectric constant tensor:
#      x y z
#    x 3.680750 0.000000 -0.051280 
#    y 0.000000 2.980610 0.000000 
#    z -0.051280 0.000000 3.846490 
# 
# 
# High freq. dielectric constant tensor:
#      x y z
#    x 1.757630 0.000000 -0.000170 
#    y 0.000000 1.692990 0.000000 
#    z -0.000170 0.000000 1.765220 
# 
# From -- ./inp_files/275580.got.cif
#   From: 2010.06.25/outbox.cif.g09.slc.cpg/sg12_138_cif.got.tgz:275580.got - 2010.06.28 00:19:55.
