data_PCOD8088848
_publ_section_title
;
Structure prediction by ZEFSAII (Michael W. Deem and Ramdas Pophale) SiO2 
 PCOD8088848
Probable space group: C 2/M
;
_chemical_formula_sum "Si O2"
_cell_formula_units_Z 56
_cell_length_a 12.003747
_cell_length_b 14.951357
_cell_length_c 15.415296
_cell_angle_alpha 90.000000
_cell_angle_beta 92.327391
_cell_angle_gamma 90.000000
_cell_volume 2764.336536
_symmetry_space_group_name_H-M "C 2/M"
_symmetry_group_IT_number 12
_symmetry_cell_setting 'monoclinic'
loop_
_space_group_symop_operation_xyz
x,y,z
-x,y,-z
-x,-y,-z
x,-y,z
1/2+x,1/2+y,z
1/2-x,1/2+y,-z
1/2-x,1/2-y,-z
1/2+x,1/2-y,z
loop_
_atom_site_type_symbol
_atom_site_label
_atom_site_fract_x
_atom_site_fract_y
_atom_site_fract_z
Si Si1 0.180318 0.898053 0.641401
Si Si2 0.119432 0.098756 0.458200
Si Si3 0.470003 0.708672 0.690797
Si Si4 0.463356 0.664807 0.881507
Si Si5 0.418720 0.859059 0.927963
Si Si6 0.819466 0.899017 0.027340
Si Si7 0.914631 0.598172 0.732959
O O1 0.205790 0.879265 0.539423
O O2 0.091613 0.827710 0.673895
O O3 0.288504 0.883118 0.701760
O O4 0.134868 0.000000 0.649557
O O5 0.000000 0.098271 0.500000
O O6 0.120367 0.174760 0.383462
O O7 0.144521 0.000000 0.418988
O O8 0.428514 0.666460 0.780032
O O9 0.482220 0.817134 0.696297
O O10 0.476321 0.763928 0.917390
O O11 0.584352 0.620193 0.898922
O O12 0.366869 0.614075 0.931708
O O13 0.292970 0.842869 0.959233
O O14 0.419053 0.910217 0.836798
O O15 0.500000 0.909345 0.000000
O O16 0.779523 0.000000 0.037401
O O17 0.954829 0.500000 0.698015
#
# Coordination Sequence:
#
# PCOD8088848 Si02
#       7
#     8   8   8   8   8   8   8
#     4   9  18  36  60  83 110 143 182 225 267 326
#     4   8  15  29  54  85 112 138 175 224 272 319
#     4  10  19  32  55  85 110 142 178 228 276 322
#     4  10  21  35  54  81 110 145 178 226 279 332
#     4  11  22  38  60  76 104 147 195 231 270 321
#     4  11  22  36  55  80 109 143 182 227 280 335
#     4  10  22  37  54  80 107 143 190 226 269 325
#
# _framework density 20.258023999999999
#
# number of rings (size 3 to 8) (size 9 to 14) (size 15 to 20)
#    0.000    2.143    1.429    3.857    0.000    5.143 
#    2.571    0.000    0.000    5.571    0.000    0.000 
#    0.000    0.000    0.000    0.000    0.000    0.000 
#
# Total GULP energy -346972.484090 kJ/mol
# GULP energy per Si atom -12391.874432 kJ/mol
# Density = 2.021192 g / cm^3
# Si number density = 20.258024 Si / 1000 Ang^3
#
#
#
# Elastic Constant Matrix: (Units=GPa)
#
#
# Indices 1 2 3 4 5 6 
#
# 1 62.7567 29.4034 32.3378 0.0000 7.7276 0.0000
# 2 29.4034 118.7622 57.2622 0.0000 0.9566 0.0000
# 3 32.3378 57.2622 132.5191 0.0000 23.1900 0.0000
# 4 0.0000 0.0000 0.0000 23.3749 0.0000 2.3260
# 5 7.7276 0.9566 23.1900 0.0000 28.3219 0.0000
# 6 0.0000 0.0000 0.0000 2.3260 0.0000 19.9369
#
#
#
# Elastic Compliance Matrix: (Units=1/GPa)
#
#
# Indices 1 2 3 4 5 6 
#
# 1 0.019308 -0.003452 -0.002706 0.000000 -0.002936 0.000000
# 2 -0.003452 0.011651 -0.005005 0.000000 0.004646 0.000000
# 3 -0.002706 -0.005005 0.011918 0.000000 -0.008851 0.000000
# 4 0.000000 0.000000 0.000000 0.043283 0.000000 -0.005050
# 5 -0.002936 0.004646 -0.008851 0.000000 0.043200 0.000000
# 6 0.000000 0.000000 0.000000 -0.005050 0.000000 0.050747
#
#
# Mechanical properties :
#
#
# Convention : Reuss Voigt Hill
#
# Bulk Modulus (GPa) = 48.66137 61.33829 54.99983
# Shear Modulus (GPa) = 23.89105 27.32905 25.61005
#
# Velocity S-wave (km/s) = 3.43787 3.67692 3.55941
# Velocity P-wave (km/s) = 6.31123 6.95490 6.64087
#
# Compressibility (1/GPa) = 0.02055018
#
# Stress axis : x y z
#
# Youngs Moduli (GPa) = 51.79251 85.83252 83.90589
#
# Poissons Ratio (x) = 0.29627 0.22708
# Poissons Ratio (y) = 0.17877 0.41996
# Poissons Ratio (z) = 0.14017 0.42960
#
# Static dielectric constant tensor:
#      x y z
#    x 3.291380 0.000000 0.313870 
#    y 0.000000 3.774940 0.000000 
#    z 0.313870 0.000000 4.223580 
# 
# 
# High freq. dielectric constant tensor:
#      x y z
#    x 1.754050 0.000000 0.026000 
#    y 0.000000 1.797510 0.000000 
#    z 0.026000 0.000000 1.797440 
# 
# From -- ./inp_files/204984.got.cif
#   From: 2010.06.25/outbox.cif.g09.slc.cpg/sg12_103_cif.got.tgz:204984.got - 2010.06.28 00:19:55.
