data_PCOD8088300
_publ_section_title
;
Structure prediction by ZEFSAII (Michael W. Deem and Ramdas Pophale) SiO2 
 PCOD8088300
Probable space group: C 2/M
;
_chemical_formula_sum "Si O2"
_cell_formula_units_Z 56
_cell_length_a 9.386173
_cell_length_b 18.337842
_cell_length_c 18.035475
_cell_angle_alpha 90.000000
_cell_angle_beta 72.309009
_cell_angle_gamma 90.000000
_cell_volume 2957.500039
_symmetry_space_group_name_H-M "C 2/M"
_symmetry_group_IT_number 12
_symmetry_cell_setting 'monoclinic'
loop_
_space_group_symop_operation_xyz
x,y,z
-x,y,-z
-x,-y,-z
x,-y,z
1/2+x,1/2+y,z
1/2-x,1/2+y,-z
1/2-x,1/2-y,-z
1/2+x,1/2-y,z
loop_
_atom_site_type_symbol
_atom_site_label
_atom_site_fract_x
_atom_site_fract_y
_atom_site_fract_z
Si Si1 0.770651 0.917055 0.158992
Si Si2 0.432744 0.582975 0.429828
Si Si3 0.577986 0.665595 0.273051
Si Si4 0.380293 0.578651 0.869649
Si Si5 0.175177 0.687536 0.460384
Si Si6 0.744242 0.301383 0.719410
Si Si7 0.674504 0.324947 0.989790
O O1 0.704852 0.872784 0.240951
O O2 0.741264 0.867683 0.090486
O O3 0.945984 0.925874 0.139278
O O4 0.701235 0.000000 0.165324
O O5 0.500000 0.588188 0.500000
O O6 0.428829 0.500000 0.400934
O O7 0.534139 0.632637 0.359987
O O8 0.263224 0.612315 0.461491
O O9 0.644875 0.602778 0.211024
O O10 0.434070 0.701096 0.256792
O O11 0.704434 0.726739 0.251675
O O12 0.305287 0.500000 0.889059
O O13 0.297601 0.628938 0.940975
O O14 0.250000 0.750000 0.500000
O O15 0.183565 0.702759 0.372464
O O16 0.000000 0.677972 0.500000
O O17 0.500000 0.312426 0.000000
O O18 0.750000 0.250000 0.000000
#
# Coordination Sequence:
#
# PCOD8088300 Si02
#       7
#     8   8   8   8   8   8   8
#     4   9  18  33  52  76 104 134 171 213 255 301
#     4  10  21  36  54  76 104 139 176 217 267 317
#     4  10  19  33  52  76 104 133 171 214 257 307
#     4   9  17  30  51  76 100 131 171 210 248 295
#     4  11  21  35  55  79 106 138 176 219 264 314
#     4  10  20  32  53  76 100 135 170 210 256 308
#     4  10  19  32  53  78 103 132 168 210 252 300
#
# _framework density 18.934912000000001
#
# number of rings (size 3 to 8) (size 9 to 14) (size 15 to 20)
#    0.000    2.143    0.000    4.714    0.000    5.429 
#    0.000    0.000    0.000    5.143    0.000    0.000 
#    0.000    0.000    0.000    0.000    0.000    0.000 
#
# Total GULP energy -346989.505886 kJ/mol
# GULP energy per Si atom -12392.482353 kJ/mol
# Density = 1.889182 g / cm^3
# Si number density = 18.934912 Si / 1000 Ang^3
#
#
#
# Elastic Constant Matrix: (Units=GPa)
#
#
# Indices 1 2 3 4 5 6 
#
# 1 45.3736 41.1046 24.6029 0.0000 6.7777 0.0000
# 2 41.1046 172.4822 66.2985 0.0000 10.8172 0.0000
# 3 24.6029 66.2985 125.0350 0.0000 12.5360 0.0000
# 4 0.0000 0.0000 0.0000 18.1093 0.0000 -4.2839
# 5 6.7777 10.8172 12.5360 0.0000 16.8204 0.0000
# 6 0.0000 0.0000 0.0000 -4.2839 0.0000 27.3117
#
#
#
# Elastic Compliance Matrix: (Units=1/GPa)
#
#
# Indices 1 2 3 4 5 6 
#
# 1 0.029391 -0.005805 -0.002045 0.000000 -0.006586 0.000000
# 2 -0.005805 0.008488 -0.003292 0.000000 -0.000666 0.000000
# 3 -0.002045 -0.003292 0.010646 0.000000 -0.004994 0.000000
# 4 0.000000 0.000000 0.000000 0.057348 0.000000 0.008995
# 5 -0.006586 -0.000666 -0.004994 0.000000 0.066255 0.000000
# 6 0.000000 0.000000 0.000000 0.008995 0.000000 0.038025
#
#
# Mechanical properties :
#
#
# Convention : Reuss Voigt Hill
#
# Bulk Modulus (GPa) = 38.10710 67.43364 52.77037
# Shear Modulus (GPa) = 20.73103 26.50726 23.61915
#
# Velocity S-wave (km/s) = 3.31245 3.74560 3.53567
# Velocity P-wave (km/s) = 5.89905 7.37542 6.67816
#
# Compressibility (1/GPa) = 0.02624183
#
# Stress axis : x y z
#
# Youngs Moduli (GPa) = 34.02431 117.81061 93.93071
#
# Poissons Ratio (x) = 0.68392 0.19206
# Poissons Ratio (y) = 0.19752 0.30919
# Poissons Ratio (z) = 0.06957 0.38780
#
# Static dielectric constant tensor:
#      x y z
#    x 3.345780 0.000000 0.200220 
#    y 0.000000 3.784660 0.000000 
#    z 0.200220 0.000000 3.748240 
# 
# 
# High freq. dielectric constant tensor:
#      x y z
#    x 1.699820 0.000000 0.018570 
#    y 0.000000 1.747490 0.000000 
#    z 0.018570 0.000000 1.749880 
# 
# From -- ./inp_files/257003.got.cif
#   From: 2010.06.25/outbox.cif.g09.slc.cpg/sg12_129_cif.got.tgz:257003.got - 2010.06.28 00:19:55.
