data_PCOD8088678
_publ_section_title
;
Structure prediction by ZEFSAII (Michael W. Deem and Ramdas Pophale) SiO2 
 PCOD8088678
Probable space group: C 2/M
;
_chemical_formula_sum "Si O2"
_cell_formula_units_Z 64
_cell_length_a 20.688028
_cell_length_b 8.893273
_cell_length_c 19.007237
_cell_angle_alpha 90.000000
_cell_angle_beta 89.819958
_cell_angle_gamma 90.000000
_cell_volume 3497.015565
_symmetry_space_group_name_H-M "C 2/M"
_symmetry_group_IT_number 12
_symmetry_cell_setting 'monoclinic'
loop_
_space_group_symop_operation_xyz
x,y,z
-x,y,-z
-x,-y,-z
x,-y,z
1/2+x,1/2+y,z
1/2-x,1/2+y,-z
1/2-x,1/2-y,-z
1/2+x,1/2-y,z
loop_
_atom_site_type_symbol
_atom_site_label
_atom_site_fract_x
_atom_site_fract_y
_atom_site_fract_z
Si Si1 0.625875 0.828814 0.827085
Si Si2 0.562811 0.323499 0.541446
Si Si3 0.930971 0.326443 0.027877
Si Si4 0.309590 0.677038 0.959220
Si Si5 0.191441 0.822962 0.458592
Si Si6 0.119022 0.324739 0.669590
Si Si7 0.740851 0.173884 0.170099
Si Si8 0.243482 0.324605 0.330277
O O1 0.571726 0.804900 0.887308
O O2 0.596162 0.793330 0.750160
O O3 0.685231 0.719961 0.844189
O O4 0.652256 0.000000 0.828471
O O5 0.500000 0.266390 0.500000
O O6 0.559185 0.500000 0.556021
O O7 0.624527 0.277929 0.495032
O O8 0.565321 0.240910 0.616979
O O9 0.919448 0.500000 0.007221
O O10 0.877130 0.226063 0.991526
O O11 0.000000 0.269650 0.000000
O O12 0.302550 0.500000 0.964032
O O13 0.307352 0.730090 0.878136
O O14 0.250000 0.750000 0.000000
O O15 0.250000 0.750000 0.500000
O O16 0.190810 0.756043 0.379716
O O17 0.201188 0.000000 0.455738
O O18 0.128710 0.500000 0.655086
O O19 0.186274 0.242467 0.654049
O O20 0.721587 0.205711 0.250622
O O21 0.733873 0.000000 0.150313
O O22 0.247066 0.500000 0.348066
#
# Coordination Sequence:
#
# PCOD8088678 Si02
#       8
#     8   8   8   8   8   8   8   8
#     4   9  18  33  54  81 111 144 183 228 278 335
#     4  10  22  39  56  77 109 149 187 225 275 333
#     4  10  21  38  59  83 115 154 191 230 282 340
#     4  12  23  36  57  84 114 147 188 236 284 335
#     4  11  21  34  56  82 110 143 182 228 277 328
#     4  10  19  32  54  82 109 141 184 231 278 329
#     4  10  20  34  55  83 112 146 185 231 284 334
#     4  10  20  34  54  82 114 145 183 229 281 336
#
# _framework density 18.301317999999998
#
# number of rings (size 3 to 8) (size 9 to 14) (size 15 to 20)
#    0.000    1.750    2.500    2.625    0.000    3.000 
#    0.000    1.250    0.000    4.500    0.000    0.000 
#    0.000    0.000    0.000    0.000    0.000    0.000 
#
# Total GULP energy -396872.136093 kJ/mol
# GULP energy per Si atom -12402.254253 kJ/mol
# Density = 1.825966 g / cm^3
# Si number density = 18.301318 Si / 1000 Ang^3
#
#
#
# Elastic Constant Matrix: (Units=GPa)
#
#
# Indices 1 2 3 4 5 6 
#
# 1 106.0076 52.6073 69.8539 0.0000 3.6651 0.0000
# 2 52.6073 98.6017 60.5097 0.0000 4.7164 0.0000
# 3 69.8539 60.5097 146.3955 0.0000 4.0749 0.0000
# 4 0.0000 0.0000 0.0000 31.8893 0.0000 4.3979
# 5 3.6651 4.7164 4.0749 0.0000 29.9278 0.0000
# 6 0.0000 0.0000 0.0000 4.3979 0.0000 24.4663
#
#
#
# Elastic Compliance Matrix: (Units=1/GPa)
#
#
# Indices 1 2 3 4 5 6 
#
# 1 0.015384 -0.004946 -0.005286 0.000000 -0.000385 0.000000
# 2 -0.004946 0.015236 -0.003902 0.000000 -0.001264 0.000000
# 3 -0.005286 -0.003902 0.010972 0.000000 -0.000232 0.000000
# 4 0.000000 0.000000 0.000000 0.032156 0.000000 -0.005780
# 5 -0.000385 -0.001264 -0.000232 0.000000 0.033692 0.000000
# 6 0.000000 0.000000 0.000000 -0.005780 0.000000 0.041912
#
#
# Mechanical properties :
#
#
# Convention : Reuss Voigt Hill
#
# Bulk Modulus (GPa) = 75.04920 79.66073 77.35496
# Shear Modulus (GPa) = 27.46350 28.45894 27.96122
#
# Velocity S-wave (km/s) = 3.87800 3.94765 3.91298
# Velocity P-wave (km/s) = 7.81974 8.02499 7.92303
#
# Compressibility (1/GPa) = 0.01332459
#
# Stress axis : x y z
#
# Youngs Moduli (GPa) = 65.00269 65.63497 91.13866
#
# Poissons Ratio (x) = 0.32462 0.48173
# Poissons Ratio (y) = 0.32149 0.35565
# Poissons Ratio (z) = 0.34358 0.25613
#
# Static dielectric constant tensor:
#      x y z
#    x 3.166120 0.000000 -0.030750 
#    y 0.000000 3.442150 0.000000 
#    z -0.030750 0.000000 3.382230 
# 
# 
# High freq. dielectric constant tensor:
#      x y z
#    x 1.671880 0.000000 0.000250 
#    y 0.000000 1.718270 0.000000 
#    z 0.000250 0.000000 1.729660 
# 
# From -- ./inp_files/281413.got.cif
#   From: 2010.06.25/outbox.cif.g09.slc.cpg/sg12_141_cif.got.tgz:281413.got - 2010.06.28 00:19:55.
