data_PCOD8088724
_publ_section_title
;
Structure prediction by ZEFSAII (Michael W. Deem and Ramdas Pophale) SiO2 
 PCOD8088724
Probable space group: C 2/M
;
_chemical_formula_sum "Si O2"
_cell_formula_units_Z 44
_cell_length_a 19.932570
_cell_length_b 9.200911
_cell_length_c 12.307926
_cell_angle_alpha 90.000000
_cell_angle_beta 101.298295
_cell_angle_gamma 90.000000
_cell_volume 2213.502248
_symmetry_space_group_name_H-M "C 2/M"
_symmetry_group_IT_number 12
_symmetry_cell_setting 'monoclinic'
loop_
_space_group_symop_operation_xyz
x,y,z
-x,y,-z
-x,-y,-z
x,-y,z
1/2+x,1/2+y,z
1/2-x,1/2+y,-z
1/2-x,1/2-y,-z
1/2+x,1/2-y,z
loop_
_atom_site_type_symbol
_atom_site_label
_atom_site_fract_x
_atom_site_fract_y
_atom_site_fract_z
Si Si1 0.563701 0.162440 0.236362
Si Si2 0.344049 0.168831 0.251141
Si Si3 0.689671 0.333026 0.205775
Si Si4 0.000000 0.250416 0.000000
Si Si5 0.030749 0.170193 0.626848
Si Si6 0.138877 0.160331 0.958901
O O1 0.639375 0.231919 0.259304
O O2 0.516251 0.259706 0.296730
O O3 0.569270 0.000000 0.285778
O O4 0.531746 0.151413 0.105841
O O5 0.267091 0.194277 0.269645
O O6 0.393947 0.259422 0.345037
O O7 0.364543 0.000000 0.261267
O O8 0.350794 0.219486 0.129185
O O9 0.667438 0.500000 0.216879
O O10 0.685695 0.295173 0.076375
O O11 0.059865 0.150446 0.970702
O O12 0.000000 0.203145 0.500000
O O13 0.036885 0.000000 0.652868
O O14 0.159353 0.000000 0.921754
#
# Coordination Sequence:
#
# PCOD8088724 Si02
#       6
#     8   8   8   4   8   8
#     4  11  22  37  61  91 123 156 197 247 297 353
#     4  11  22  37  59  87 120 156 198 248 297 349
#     4   9  21  38  56  85 125 162 195 237 293 356
#     4  10  20  32  54  90 126 158 192 242 296 352
#     4  11  25  44  65  87 115 155 204 253 299 353
#     4  10  19  32  54  83 121 164 200 235 287 354
#
# _framework density 19.878001000000001
#
# number of rings (size 3 to 8) (size 9 to 14) (size 15 to 20)
#    0.000    1.636    1.818    2.727    0.000    7.273 
#    0.000    0.909    0.000    0.000    0.000    0.000 
#    0.000    0.000    0.000    0.000    0.000    0.000 
#
# Total GULP energy -272831.863477 kJ/mol
# GULP energy per Si atom -12401.448340 kJ/mol
# Density = 1.983276 g / cm^3
# Si number density = 19.878001 Si / 1000 Ang^3
#
#
#
# Elastic Constant Matrix: (Units=GPa)
#
#
# Indices 1 2 3 4 5 6 
#
# 1 123.5106 57.4880 44.3693 0.0000 18.4416 0.0000
# 2 57.4880 122.2606 44.6533 0.0000 15.8399 0.0000
# 3 44.3693 44.6533 65.7589 0.0000 12.4280 0.0000
# 4 0.0000 0.0000 0.0000 12.4544 0.0000 7.3221
# 5 18.4416 15.8399 12.4280 0.0000 23.3217 0.0000
# 6 0.0000 0.0000 0.0000 7.3221 0.0000 29.0845
#
#
#
# Elastic Compliance Matrix: (Units=1/GPa)
#
#
# Indices 1 2 3 4 5 6 
#
# 1 0.012135 -0.003235 -0.005107 0.000000 -0.004677 0.000000
# 2 -0.003235 0.012057 -0.005494 0.000000 -0.002704 0.000000
# 3 -0.005107 -0.005494 0.023258 0.000000 -0.004624 0.000000
# 4 0.000000 0.000000 0.000000 0.094241 0.000000 -0.023726
# 5 -0.004677 -0.002704 -0.004624 0.000000 0.050877 0.000000
# 6 0.000000 0.000000 0.000000 -0.023726 0.000000 0.040356
#
#
# Mechanical properties :
#
#
# Convention : Reuss Voigt Hill
#
# Bulk Modulus (GPa) = 50.56140 67.17237 58.86689
# Shear Modulus (GPa) = 18.71338 23.97343 21.34340
#
# Velocity S-wave (km/s) = 3.07157 3.47656 3.28032
# Velocity P-wave (km/s) = 6.17013 7.06972 6.63519
#
# Compressibility (1/GPa) = 0.01977793
#
# Stress axis : x y z
#
# Youngs Moduli (GPa) = 82.40481 82.93939 42.99664
#
# Poissons Ratio (x) = 0.26829 0.21960
# Poissons Ratio (y) = 0.26656 0.23621
# Poissons Ratio (z) = 0.42088 0.45565
#
# Static dielectric constant tensor:
#      x y z
#    x 3.769560 0.000000 0.181330 
#    y 0.000000 3.553260 0.000000 
#    z 0.181330 0.000000 3.433330 
# 
# 
# High freq. dielectric constant tensor:
#      x y z
#    x 1.784850 0.000000 0.009800 
#    y 0.000000 1.780850 0.000000 
#    z 0.009800 0.000000 1.744280 
# 
# From -- ./inp_files/163229.got.cif
#   From: 2010.06.25/outbox.cif.g09.slc.cpg/sg12_82_cif.got.tgz:163229.got - 2010.06.28 00:19:55.
