data_PCOD8088131
_publ_section_title
;
Structure prediction by ZEFSAII (Michael W. Deem and Ramdas Pophale) SiO2 
 PCOD8088131
Probable space group: C 2/M
;
_chemical_formula_sum "Si O2"
_cell_formula_units_Z 56
_cell_length_a 16.033107
_cell_length_b 9.213803
_cell_length_c 20.835203
_cell_angle_alpha 90.000000
_cell_angle_beta 68.438982
_cell_angle_gamma 90.000000
_cell_volume 2862.528242
_symmetry_space_group_name_H-M "C 2/M"
_symmetry_group_IT_number 12
_symmetry_cell_setting 'monoclinic'
loop_
_space_group_symop_operation_xyz
x,y,z
-x,y,-z
-x,-y,-z
x,-y,z
1/2+x,1/2+y,z
1/2-x,1/2+y,-z
1/2-x,1/2-y,-z
1/2+x,1/2-y,z
loop_
_atom_site_type_symbol
_atom_site_label
_atom_site_fract_x
_atom_site_fract_y
_atom_site_fract_z
Si Si1 0.171374 0.169249 0.340134
Si Si2 0.021333 0.167494 0.643395
Si Si3 0.020551 0.831920 0.787789
Si Si4 0.207576 0.673042 0.572688
Si Si5 0.125201 0.168232 0.077524
Si Si6 0.703981 0.667974 0.781711
Si Si7 0.296339 0.665477 0.072423
O O1 0.228772 0.219485 0.385716
O O2 0.207878 0.247246 0.265859
O O3 0.064522 0.205909 0.377721
O O4 0.182632 0.000000 0.325142
O O5 0.984946 0.192147 0.726045
O O6 0.105467 0.271428 0.607189
O O7 0.051664 0.000000 0.624522
O O8 0.120884 0.767665 0.764187
O O9 0.955958 0.757540 0.859500
O O10 0.030515 0.000000 0.802916
O O11 0.206366 0.500000 0.564357
O O12 0.250000 0.750000 0.500000
O O13 0.216988 0.228263 0.078383
O O14 0.124639 0.000000 0.094786
O O15 0.121274 0.194357 0.001233
O O16 0.724007 0.500000 0.762958
O O17 0.674645 0.696691 0.863350
O O18 0.263000 0.500000 0.073727
#
# Coordination Sequence:
#
# PCOD8088131 Si02
#       7
#     8   8   8   8   8   8   8
#     4  10  22  39  61  88 117 151 191 232 280 335
#     4  10  20  38  62  86 115 152 192 233 278 333
#     4   9  17  30  52  78 104 141 186 230 277 330
#     4  11  24  42  63  90 121 151 185 228 278 334
#     4   9  17  31  49  69 100 143 188 232 281 337
#     4  10  19  32  52  79 110 144 187 238 287 333
#     4   9  18  30  46  72 104 138 182 237 287 331
#
# _framework density 19.563124999999999
#
# number of rings (size 3 to 8) (size 9 to 14) (size 15 to 20)
#    0.000    2.286    1.429    1.286    0.000    4.000 
#    0.000    7.143    0.000    0.000    0.000    5.000 
#    0.000    0.000    0.000    0.000    0.000    0.000 
#
# Total GULP energy -346976.300413 kJ/mol
# GULP energy per Si atom -12392.010729 kJ/mol
# Density = 1.951860 g / cm^3
# Si number density = 19.563125 Si / 1000 Ang^3
#
#
#
# Elastic Constant Matrix: (Units=GPa)
#
#
# Indices 1 2 3 4 5 6 
#
# 1 117.4002 36.4040 50.1933 0.0000 -7.3917 0.0000
# 2 36.4040 46.2446 41.6854 0.0000 -4.3981 0.0000
# 3 50.1933 41.6854 116.0526 0.0000 -11.7980 0.0000
# 4 0.0000 0.0000 0.0000 28.0142 0.0000 -3.3298
# 5 -7.3917 -4.3981 -11.7980 0.0000 27.4125 0.0000
# 6 0.0000 0.0000 0.0000 -3.3298 0.0000 25.4643
#
#
#
# Elastic Compliance Matrix: (Units=1/GPa)
#
#
# Indices 1 2 3 4 5 6 
#
# 1 0.011805 -0.006931 -0.002515 0.000000 0.000988 0.000000
# 2 -0.006931 0.036049 -0.009990 0.000000 -0.000385 0.000000
# 3 -0.002515 -0.009990 0.013659 0.000000 0.003597 0.000000
# 4 0.000000 0.000000 0.000000 0.036260 0.000000 0.004741
# 5 0.000988 -0.000385 0.003597 0.000000 0.038233 0.000000
# 6 0.000000 0.000000 0.000000 0.004741 0.000000 0.039891
#
#
# Mechanical properties :
#
#
# Convention : Reuss Voigt Hill
#
# Bulk Modulus (GPa) = 44.17119 59.58476 51.87798
# Shear Modulus (GPa) = 22.49054 26.27251 24.38152
#
# Velocity S-wave (km/s) = 3.39431 3.66862 3.53413
# Velocity P-wave (km/s) = 6.16357 6.96196 6.57489
#
# Compressibility (1/GPa) = 0.02263919
#
# Stress axis : x y z
#
# Youngs Moduli (GPa) = 84.71059 27.74005 73.21315
#
# Poissons Ratio (x) = 0.19228 0.18417
# Poissons Ratio (y) = 0.58716 0.73139
# Poissons Ratio (z) = 0.21309 0.27712
#
# Static dielectric constant tensor:
#      x y z
#    x 3.673000 0.000000 0.017710 
#    y 0.000000 3.356990 0.000000 
#    z 0.017710 0.000000 3.772780 
# 
# 
# High freq. dielectric constant tensor:
#      x y z
#    x 1.759820 0.000000 -0.001550 
#    y 0.000000 1.736100 0.000000 
#    z -0.001550 0.000000 1.771890 
# 
# From -- ./inp_files/337898.got.cif
#   From: 2010.06.25/outbox.cif.g09.slc.cpg/sg12_169_cif.got.tgz:337898.got - 2010.06.28 00:19:55.
