data_PCOD8088838
_publ_section_title
;
Structure prediction by ZEFSAII (Michael W. Deem and Ramdas Pophale) SiO2 
 PCOD8088838
Probable space group: C 2/M
;
_chemical_formula_sum "Si O2"
_cell_formula_units_Z 64
_cell_length_a 15.185355
_cell_length_b 9.031323
_cell_length_c 23.720587
_cell_angle_alpha 90.000000
_cell_angle_beta 88.363564
_cell_angle_gamma 90.000000
_cell_volume 3251.805759
_symmetry_space_group_name_H-M "C 2/M"
_symmetry_group_IT_number 12
_symmetry_cell_setting 'monoclinic'
loop_
_space_group_symop_operation_xyz
x,y,z
-x,y,-z
-x,-y,-z
x,-y,z
1/2+x,1/2+y,z
1/2-x,1/2+y,-z
1/2-x,1/2-y,-z
1/2+x,1/2-y,z
loop_
_atom_site_type_symbol
_atom_site_label
_atom_site_fract_x
_atom_site_fract_y
_atom_site_fract_z
Si Si1 0.397302 0.669586 0.663032
Si Si2 0.847935 0.171131 0.443177
Si Si3 0.855580 0.672478 0.553520
Si Si4 0.408905 0.330568 0.319624
Si Si5 0.233745 0.323472 0.136855
Si Si6 0.238012 0.324934 0.744739
Si Si7 0.890452 0.825090 0.055606
Si Si8 0.086564 0.175506 0.070848
O O1 0.381138 0.500000 0.646333
O O2 0.407029 0.760705 0.605447
O O3 0.487798 0.687260 0.696763
O O4 0.317291 0.727834 0.702815
O O5 0.891206 0.261389 0.493957
O O6 0.746382 0.215557 0.437120
O O7 0.897231 0.214173 0.385042
O O8 0.858422 0.000000 0.457986
O O9 0.873007 0.500000 0.552280
O O10 0.377072 0.500000 0.310388
O O11 0.354618 0.220627 0.281065
O O12 0.231681 0.500000 0.138566
O O13 0.252196 0.261735 0.197793
O O14 0.311094 0.261619 0.094641
O O15 0.140684 0.262216 0.117089
O O16 0.240263 0.500000 0.755504
O O17 0.984489 0.776649 0.079875
O O18 0.887862 0.000000 0.054857
O O19 0.880440 0.770421 0.991369
O O20 0.098948 0.000000 0.078708
#
# Coordination Sequence:
#
# PCOD8088838 Si02
#       8
#     8   8   8   8   8   8   8   8
#     4  10  22  39  60  81 107 143 184 228 279 333
#     4   9  18  33  55  81 110 143 177 217 273 334
#     4  10  19  32  55  84 113 143 177 220 271 328
#     4  10  21  40  62  82 105 142 186 229 277 330
#     4  11  22  36  56  83 114 149 186 227 275 327
#     4  11  24  41  58  80 109 145 188 235 279 322
#     4   8  17  34  58  85 115 151 185 221 272 327
#     4   9  17  35  60  85 114 148 187 227 267 321
#
# _framework density 19.681373000000001
#
# number of rings (size 3 to 8) (size 9 to 14) (size 15 to 20)
#    0.000    2.250    1.250    2.250    0.000    3.500 
#    0.000   10.625    0.000    0.000    0.000    0.000 
#    0.000    0.000    0.000    0.000    0.000    0.000 
#
# Total GULP energy -396857.301392 kJ/mol
# GULP energy per Si atom -12401.790668 kJ/mol
# Density = 1.963658 g / cm^3
# Si number density = 19.681373 Si / 1000 Ang^3
#
#
#
# Elastic Constant Matrix: (Units=GPa)
#
#
# Indices 1 2 3 4 5 6 
#
# 1 80.2602 29.0321 36.1694 0.0000 17.4955 0.0000
# 2 29.0321 63.4413 35.2601 0.0000 8.6339 0.0000
# 3 36.1694 35.2601 86.1385 0.0000 10.7907 0.0000
# 4 0.0000 0.0000 0.0000 33.3186 0.0000 3.1151
# 5 17.4955 8.6339 10.7907 0.0000 13.6998 0.0000
# 6 0.0000 0.0000 0.0000 3.1151 0.0000 22.2188
#
#
#
# Elastic Compliance Matrix: (Units=1/GPa)
#
#
# Indices 1 2 3 4 5 6 
#
# 1 0.020226 -0.004167 -0.004305 0.000000 -0.019812 0.000000
# 2 -0.004167 0.021881 -0.006819 0.000000 -0.003098 0.000000
# 3 -0.004305 -0.006819 0.016621 0.000000 -0.003296 0.000000
# 4 0.000000 0.000000 0.000000 0.030412 0.000000 -0.004264
# 5 -0.019812 -0.003098 -0.003296 0.000000 0.102844 0.000000
# 6 0.000000 0.000000 0.000000 -0.004264 0.000000 0.045605
#
#
# Mechanical properties :
#
#
# Convention : Reuss Voigt Hill
#
# Bulk Modulus (GPa) = 35.52921 47.86259 41.69590
# Shear Modulus (GPa) = 18.01466 22.47268 20.24367
#
# Velocity S-wave (km/s) = 3.02870 3.38276 3.21061
# Velocity P-wave (km/s) = 5.50655 6.29515 5.91401
#
# Compressibility (1/GPa) = 0.02814586
#
# Stress axis : x y z
#
# Youngs Moduli (GPa) = 49.44246 45.70187 60.16388
#
# Poissons Ratio (x) = 0.19042 0.25902
# Poissons Ratio (y) = 0.20600 0.41027
# Poissons Ratio (z) = 0.21286 0.31165
#
# Static dielectric constant tensor:
#      x y z
#    x 3.745850 0.000000 -0.133390 
#    y 0.000000 3.360590 0.000000 
#    z -0.133390 0.000000 3.614950 
# 
# 
# High freq. dielectric constant tensor:
#      x y z
#    x 1.771800 0.000000 0.001970 
#    y 0.000000 1.750920 0.000000 
#    z 0.001970 0.000000 1.764380 
# 
# From -- ./inp_files/338768.got.cif
#   From: 2010.06.25/outbox.cif.g09.slc.cpg/sg12_170_cif.got.tgz:338768.got - 2010.06.28 00:19:55.
