data_PCOD8088092
_publ_section_title
;
Structure prediction by ZEFSAII (Michael W. Deem and Ramdas Pophale) SiO2 
 PCOD8088092
Probable space group: C 2/M
;
_chemical_formula_sum "Si O2"
_cell_formula_units_Z 64
_cell_length_a 33.808367
_cell_length_b 9.255426
_cell_length_c 25.457843
_cell_angle_alpha 90.000000
_cell_angle_beta 154.450629
_cell_angle_gamma 90.000000
_cell_volume 3435.660744
_symmetry_space_group_name_H-M "C 2/M"
_symmetry_group_IT_number 12
_symmetry_cell_setting 'monoclinic'
loop_
_space_group_symop_operation_xyz
x,y,z
-x,y,-z
-x,-y,-z
x,-y,z
1/2+x,1/2+y,z
1/2-x,1/2+y,-z
1/2-x,1/2-y,-z
1/2+x,1/2-y,z
loop_
_atom_site_type_symbol
_atom_site_label
_atom_site_fract_x
_atom_site_fract_y
_atom_site_fract_z
Si Si1 0.806948 0.332753 0.704429
Si Si2 0.636975 0.830803 0.537471
Si Si3 0.523529 0.835277 0.155806
Si Si4 0.369705 0.837623 0.892615
Si Si5 0.945456 0.670814 0.256255
Si Si6 0.795980 0.669983 0.271434
Si Si7 0.913269 0.827705 0.110881
Si Si8 0.793895 0.670813 0.154559
O O1 0.779691 0.500000 0.670080
O O2 0.712744 0.242961 0.590879
O O3 0.866254 0.295126 0.827355
O O4 0.870731 0.293524 0.730584
O O5 0.536617 0.790742 0.397659
O O6 0.645023 0.774409 0.607840
O O7 0.655716 0.000000 0.557019
O O8 0.481709 0.726422 0.147780
O O9 0.517196 0.000000 0.169639
O O10 0.471478 0.823162 0.037575
O O11 0.306279 0.731051 0.849780
O O12 0.332062 0.000000 0.855099
O O13 0.938239 0.500000 0.236029
O O14 0.949114 0.759963 0.207534
O O15 0.860012 0.730353 0.188225
O O16 0.787567 0.500000 0.263882
O O17 0.835469 0.716948 0.261564
O O18 0.918256 0.000000 0.119528
O O19 0.809653 0.770728 0.976908
O O20 0.792407 0.500000 0.148688
#
# Coordination Sequence:
#
# PCOD8088092 Si02
#       8
#     8   8   8   8   8   8   8   8
#     4   9  18  32  52  77 107 140 173 209 254 308
#     4   9  19  34  54  78 106 139 177 214 254 304
#     4  10  19  32  52  78 106 139 174 210 256 311
#     4   9  16  28  48  76 108 139 170 204 250 310
#     4  10  21  38  56  75 101 140 182 218 255 305
#     4   9  16  30  51  78 110 138 165 208 260 308
#     4  11  22  36  54  79 107 136 172 218 266 309
#     4   9  18  33  55  80 107 134 169 214 263 313
#
# _framework density 18.628150000000002
#
# number of rings (size 3 to 8) (size 9 to 14) (size 15 to 20)
#    0.000    2.500    1.250    1.125    0.000    3.000 
#    0.000    4.375    0.000    3.750    0.000    4.375 
#    0.000    0.000    0.000    0.000    0.000    0.000 
#
# Total GULP energy -396622.220138 kJ/mol
# GULP energy per Si atom -12394.444379 kJ/mol
# Density = 1.858575 g / cm^3
# Si number density = 18.628150 Si / 1000 Ang^3
#
#
#
# Elastic Constant Matrix: (Units=GPa)
#
#
# Indices 1 2 3 4 5 6 
#
# 1 103.0802 34.2475 35.6087 0.0000 6.1123 0.0000
# 2 34.2475 35.0498 29.2770 0.0000 -2.7908 0.0000
# 3 35.6087 29.2770 62.6872 0.0000 -2.7775 0.0000
# 4 0.0000 0.0000 0.0000 23.9277 0.0000 -0.2205
# 5 6.1123 -2.7908 -2.7775 0.0000 19.1805 0.0000
# 6 0.0000 0.0000 0.0000 -0.2205 0.0000 22.3820
#
#
#
# Elastic Compliance Matrix: (Units=1/GPa)
#
#
# Indices 1 2 3 4 5 6 
#
# 1 0.015592 -0.013363 -0.002941 0.000000 -0.007339 0.000000
# 2 -0.013363 0.058490 -0.019284 0.000000 0.009976 0.000000
# 3 -0.002941 -0.019284 0.026718 0.000000 0.002000 0.000000
# 4 0.000000 0.000000 0.000000 0.041796 0.000000 0.000412
# 5 -0.007339 0.009976 0.002000 0.000000 0.056216 0.000000
# 6 0.000000 0.000000 0.000000 0.000412 0.000000 0.044683
#
#
# Mechanical properties :
#
#
# Convention : Reuss Voigt Hill
#
# Bulk Modulus (GPa) = 33.75674 44.34261 39.04968
# Shear Modulus (GPa) = 15.40614 19.87698 17.64156
#
# Velocity S-wave (km/s) = 2.87894 3.27010 3.08074
# Velocity P-wave (km/s) = 5.40479 6.17364 5.80197
#
# Compressibility (1/GPa) = 0.02962371
#
# Stress axis : x y z
#
# Youngs Moduli (GPa) = 64.13545 17.09698 37.42804
#
# Poissons Ratio (x) = 0.22846 0.11008
# Poissons Ratio (y) = 0.85702 0.72177
# Poissons Ratio (z) = 0.18864 0.32970
#
# Static dielectric constant tensor:
#      x y z
#    x 3.653040 0.000000 0.015910 
#    y 0.000000 3.250940 0.000000 
#    z 0.015910 0.000000 3.395310 
# 
# 
# High freq. dielectric constant tensor:
#      x y z
#    x 1.727510 0.000000 0.000000 
#    y 0.000000 1.702460 0.000000 
#    z 0.000000 0.000000 1.710300 
# 
# From -- ./inp_files/353443.got.cif
#   From: 2010.06.25/outbox.cif.g09.slc.cpg/sg12_177_cif.got.tgz:353443.got - 2010.06.28 00:19:55.
