data_PCOD8088102
_publ_section_title
;
Structure prediction by ZEFSAII (Michael W. Deem and Ramdas Pophale) SiO2 
 PCOD8088102
Probable space group: C 2/M
;
_chemical_formula_sum "Si O2"
_cell_formula_units_Z 56
_cell_length_a 27.568340
_cell_length_b 9.558565
_cell_length_c 22.006666
_cell_angle_alpha 90.000000
_cell_angle_beta 148.340777
_cell_angle_gamma 90.000000
_cell_volume 3043.729184
_symmetry_space_group_name_H-M "C 2/M"
_symmetry_group_IT_number 12
_symmetry_cell_setting 'monoclinic'
loop_
_space_group_symop_operation_xyz
x,y,z
-x,y,-z
-x,-y,-z
x,-y,z
1/2+x,1/2+y,z
1/2-x,1/2+y,-z
1/2-x,1/2-y,-z
1/2+x,1/2-y,z
loop_
_atom_site_type_symbol
_atom_site_label
_atom_site_fract_x
_atom_site_fract_y
_atom_site_fract_z
Si Si1 0.059219 0.663696 0.503622
Si Si2 0.840551 0.161020 0.600667
Si Si3 0.915823 0.165095 0.809454
Si Si4 0.767097 0.166621 0.745740
Si Si5 0.507778 0.339368 0.335379
Si Si6 0.164531 0.164551 0.933127
Si Si7 0.619374 0.666265 0.019792
O O1 0.060625 0.500000 0.489623
O O2 0.163415 0.722704 0.623868
O O3 0.008461 0.741979 0.394835
O O4 0.000000 0.695200 0.500000
O O5 0.750000 0.250000 0.500000
O O6 0.896909 0.207880 0.720017
O O7 0.900261 0.189901 0.604803
O O8 0.811869 0.000000 0.575630
O O9 0.837152 0.229220 0.769737
O O10 0.018598 0.222386 0.934265
O O11 0.913956 0.000000 0.816476
O O12 0.765762 0.000000 0.742377
O O13 0.803034 0.218495 0.849964
O O14 0.502905 0.500000 0.351275
O O15 0.421187 0.300548 0.201394
O O16 0.143370 0.221000 0.978268
O O17 0.187124 0.000000 0.957594
O O18 0.250000 0.250000 0.000000
O O19 0.614553 0.500000 0.012585
#
# Coordination Sequence:
#
# PCOD8088102 Si02
#       7
#     8   8   8   8   8   8   8
#     4  10  22  37  54  80 109 139 180 228 275 322
#     4  10  19  32  52  78 109 144 179 219 264 318
#     4   9  15  27  47  73 103 133 170 213 262 316
#     4   9  17  28  47  76 106 135 171 217 268 316
#     4  10  21  38  56  78 110 146 185 223 269 331
#     4  10  21  36  56  81 108 141 182 224 270 322
#     4   9  16  29  50  75 103 135 170 216 267 313
#
# _framework density 18.398484
#
# number of rings (size 3 to 8) (size 9 to 14) (size 15 to 20)
#    0.000    2.429    1.429    1.286    2.000    4.286 
#    0.000    0.000    0.000    0.000    0.000    0.000 
#    0.000    5.714    0.000    0.000    0.000    0.000 
#
# Total GULP energy -347151.858380 kJ/mol
# GULP energy per Si atom -12398.280656 kJ/mol
# Density = 1.835661 g / cm^3
# Si number density = 18.398484 Si / 1000 Ang^3
#
#
#
# Elastic Constant Matrix: (Units=GPa)
#
#
# Indices 1 2 3 4 5 6 
#
# 1 123.0244 34.7188 49.3107 0.0000 -5.5960 0.0000
# 2 34.7188 32.2941 33.9262 0.0000 -3.7350 0.0000
# 3 49.3107 33.9262 88.9486 0.0000 -4.7683 0.0000
# 4 0.0000 0.0000 0.0000 25.0363 0.0000 1.7956
# 5 -5.5960 -3.7350 -4.7683 0.0000 38.9225 0.0000
# 6 0.0000 0.0000 0.0000 1.7956 0.0000 20.8301
#
#
#
# Elastic Compliance Matrix: (Units=1/GPa)
#
#
# Indices 1 2 3 4 5 6 
#
# 1 0.012113 -0.009915 -0.002910 0.000000 0.000434 0.000000
# 2 -0.009915 0.060039 -0.017284 0.000000 0.002218 0.000000
# 3 -0.002910 -0.017284 0.019465 0.000000 0.000308 0.000000
# 4 0.000000 0.000000 0.000000 0.040190 0.000000 -0.003465
# 5 0.000434 0.002218 0.000308 0.000000 0.026005 0.000000
# 6 0.000000 0.000000 0.000000 -0.003465 0.000000 0.048306
#
#
# Mechanical properties :
#
#
# Convention : Reuss Voigt Hill
#
# Bulk Modulus (GPa) = 31.84908 53.35315 42.60111
# Shear Modulus (GPa) = 18.06344 25.37855 21.72099
#
# Velocity S-wave (km/s) = 3.13675 3.71803 3.43969
# Velocity P-wave (km/s) = 5.51971 6.89154 6.24342
#
# Compressibility (1/GPa) = 0.03139808
#
# Stress axis : x y z
#
# Youngs Moduli (GPa) = 82.55821 16.65581 51.37529
#
# Poissons Ratio (x) = 0.16514 0.14950
# Poissons Ratio (y) = 0.81856 0.88798
# Poissons Ratio (z) = 0.24025 0.28788
#
# Static dielectric constant tensor:
#      x y z
#    x 3.415270 0.000000 -0.149870 
#    y 0.000000 2.847600 0.000000 
#    z -0.149870 0.000000 3.355940 
# 
# 
# High freq. dielectric constant tensor:
#      x y z
#    x 1.728140 0.000000 0.000270 
#    y 0.000000 1.653280 0.000000 
#    z 0.000270 0.000000 1.729590 
# 
# From -- ./inp_files/327609.got.cif
#   From: 2010.06.25/outbox.cif.g09.slc.cpg/sg12_164_cif.got.tgz:327609.got - 2010.06.28 00:19:55.
