data_PCOD8088797
_publ_section_title
;
Structure prediction by ZEFSAII (Michael W. Deem and Ramdas Pophale) SiO2 
 PCOD8088797
Probable space group: C 2/M
;
_chemical_formula_sum "Si O2"
_cell_formula_units_Z 48
_cell_length_a 20.196850
_cell_length_b 9.228248
_cell_length_c 20.090661
_cell_angle_alpha 90.000000
_cell_angle_beta 43.499426
_cell_angle_gamma 90.000000
_cell_volume 2577.536012
_symmetry_space_group_name_H-M "C 2/M"
_symmetry_group_IT_number 12
_symmetry_cell_setting 'monoclinic'
loop_
_space_group_symop_operation_xyz
x,y,z
-x,y,-z
-x,-y,-z
x,-y,z
1/2+x,1/2+y,z
1/2-x,1/2+y,-z
1/2-x,1/2-y,-z
1/2+x,1/2-y,z
loop_
_atom_site_type_symbol
_atom_site_label
_atom_site_fract_x
_atom_site_fract_y
_atom_site_fract_z
Si Si1 0.244834 0.167363 0.602986
Si Si2 0.447323 0.830193 0.907774
Si Si3 0.104379 0.168341 0.584442
Si Si4 0.932145 0.331804 0.765220
Si Si5 0.367703 0.668041 0.185132
Si Si6 0.213963 0.168073 0.899452
O O1 0.162111 0.199936 0.609894
O O2 0.339130 0.261794 0.518836
O O3 0.205052 0.215437 0.703604
O O4 0.275420 0.000000 0.579382
O O5 0.458243 0.795412 0.822126
O O6 0.534972 0.759700 0.883978
O O7 0.446177 0.000000 0.923017
O O8 0.347698 0.763429 0.005205
O O9 0.000095 0.240400 0.666952
O O10 0.091236 0.000000 0.579512
O O11 0.948533 0.500000 0.737561
O O12 0.823744 0.284761 0.828820
O O13 0.396282 0.500000 0.172073
O O14 0.315225 0.701051 0.154678
O O15 0.198835 0.000000 0.928677
#
# Coordination Sequence:
#
# PCOD8088797 Si02
#       6
#     8   8   8   8   8   8
#     4   9  18  33  54  80 107 135 174 221 265 313
#     4  11  22  35  55  81 109 141 179 223 269 314
#     4  10  19  32  55  83 107 136 175 221 268 313
#     4  10  21  37  55  79 109 143 180 219 264 315
#     4  10  20  37  58  80 106 141 182 221 262 313
#     4  10  22  38  56  77 107 145 183 220 261 314
#
# _framework density 18.622436
#
# number of rings (size 3 to 8) (size 9 to 14) (size 15 to 20)
#    0.000    2.000    1.667    2.000    0.000    5.333 
#    0.000    0.833    0.000    5.000    0.000    0.000 
#    0.000    0.000    0.000    0.000    0.000    0.000 
#
# Total GULP energy -297731.748321 kJ/mol
# GULP energy per Si atom -12405.489513 kJ/mol
# Density = 1.858005 g / cm^3
# Si number density = 18.622436 Si / 1000 Ang^3
#
#
#
# Elastic Constant Matrix: (Units=GPa)
#
#
# Indices 1 2 3 4 5 6 
#
# 1 43.4472 32.9861 17.0053 0.0000 -14.3839 0.0000
# 2 32.9861 81.8817 65.0916 0.0001 -18.3205 -0.0001
# 3 17.0053 65.0916 124.0876 0.0000 -25.2170 0.0000
# 4 0.0000 0.0001 0.0000 38.6503 0.0000 -3.0523
# 5 -14.3839 -18.3205 -25.2170 0.0000 19.7593 0.0000
# 6 0.0000 -0.0001 0.0000 -3.0523 0.0000 19.8636
#
#
#
# Elastic Compliance Matrix: (Units=1/GPa)
#
#
# Indices 1 2 3 4 5 6 
#
# 1 0.041625 -0.018350 0.008940 0.000000 0.024697 0.000000
# 2 -0.018350 0.029845 -0.013815 0.000000 -0.003317 0.000000
# 3 0.008940 -0.013815 0.017282 0.000000 0.015755 0.000000
# 4 0.000000 0.000000 0.000000 0.026191 0.000000 0.004025
# 5 0.024697 -0.003317 0.015755 0.000000 0.085618 0.000000
# 6 0.000000 0.000000 0.000000 0.004025 0.000000 0.050962
#
#
# Mechanical properties :
#
#
# Convention : Reuss Voigt Hill
#
# Bulk Modulus (GPa) = 23.63899 53.28693 38.46296
# Shear Modulus (GPa) = 16.02190 24.61022 20.31606
#
# Velocity S-wave (km/s) = 2.93636 3.63924 3.30653
# Velocity P-wave (km/s) = 4.92115 6.80700 5.93940
#
# Compressibility (1/GPa) = 0.04230299
#
# Stress axis : x y z
#
# Youngs Moduli (GPa) = 24.02389 33.50651 57.86368
#
# Poissons Ratio (x) = 0.61484 -0.51731
# Poissons Ratio (y) = 0.44084 0.79938
# Poissons Ratio (z) = -0.21478 0.46289
#
# Static dielectric constant tensor:
#      x y z
#    x 3.269660 0.000000 0.000470 
#    y 0.000000 3.377610 0.000000 
#    z 0.000470 0.000000 3.514190 
# 
# 
# High freq. dielectric constant tensor:
#      x y z
#    x 1.706400 0.000000 -0.003490 
#    y 0.000000 1.722020 0.000000 
#    z -0.003490 0.000000 1.735340 
# 
# From -- ./inp_files/230427.got.cif
#   From: 2010.06.25/outbox.cif.g09.slc.cpg/sg12_116_cif.got.tgz:230427.got - 2010.06.28 00:19:55.
