data_PCOD8088031
_publ_section_title
;
Structure prediction by ZEFSAII (Michael W. Deem and Ramdas Pophale) SiO2 
 PCOD8088031
Probable space group: C 2/M
;
_chemical_formula_sum "Si O2"
_cell_formula_units_Z 40
_cell_length_a 26.921065
_cell_length_b 8.994685
_cell_length_c 11.422935
_cell_angle_alpha 90.000000
_cell_angle_beta 54.035150
_cell_angle_gamma 90.000000
_cell_volume 2238.757197
_symmetry_space_group_name_H-M "C 2/M"
_symmetry_group_IT_number 12
_symmetry_cell_setting 'monoclinic'
loop_
_space_group_symop_operation_xyz
x,y,z
-x,y,-z
-x,-y,-z
x,-y,z
1/2+x,1/2+y,z
1/2-x,1/2+y,-z
1/2-x,1/2-y,-z
1/2+x,1/2-y,z
loop_
_atom_site_type_symbol
_atom_site_label
_atom_site_fract_x
_atom_site_fract_y
_atom_site_fract_z
Si Si1 0.298839 0.174367 0.587304
Si Si2 0.176196 0.325674 0.712600
Si Si3 0.030090 0.824895 0.284548
Si Si4 0.405964 0.324446 0.569751
Si Si5 0.062049 0.171788 0.985255
O O1 0.232384 0.246140 0.700473
O O2 0.323640 0.216584 0.424518
O O3 0.344609 0.239406 0.620158
O O4 0.292745 0.000000 0.614011
O O5 0.183017 0.500000 0.722686
O O6 0.113106 0.269895 0.853265
O O7 0.079791 0.783774 0.314867
O O8 0.962598 0.764296 0.412374
O O9 0.022930 0.000000 0.285530
O O10 0.051873 0.761889 0.129648
O O11 0.396301 0.500000 0.566640
O O12 0.083092 0.000000 0.959023
O O13 0.000000 0.190812 0.000000
#
# Coordination Sequence:
#
# PCOD8088031 Si02
#       5
#     8   8   8   8   8
#     4  10  20  34  52  74  99 127 164 209 251 291
#     4  10  21  35  51  73 100 130 165 204 247 295
#     4   8  16  30  50  77 104 131 164 201 241 290
#     4   9  16  31  54  75  99 132 168 202 240 289
#     4  10  19  32  52  77 104 132 162 199 245 293
#
# _framework density 17.867056000000002
#
# number of rings (size 3 to 8) (size 9 to 14) (size 15 to 20)
#    0.000    2.600    0.000    3.600    0.000    4.400 
#    0.000    5.000    0.000    0.000    0.000    0.000 
#    0.000    0.000    0.000    0.000    0.000    0.000 
#
# Total GULP energy -248008.894453 kJ/mol
# GULP energy per Si atom -12400.444723 kJ/mol
# Density = 1.782639 g / cm^3
# Si number density = 17.867056 Si / 1000 Ang^3
#
#
#
# Elastic Constant Matrix: (Units=GPa)
#
#
# Indices 1 2 3 4 5 6 
#
# 1 115.1503 40.7112 33.7323 0.0000 -2.8133 0.0000
# 2 40.7112 57.1501 27.5124 0.0000 -3.1255 0.0000
# 3 33.7323 27.5124 85.5451 0.0000 2.5294 0.0000
# 4 0.0000 0.0000 0.0000 24.3951 0.0000 -3.1211
# 5 -2.8133 -3.1255 2.5294 0.0000 25.1293 0.0000
# 6 0.0000 0.0000 0.0000 -3.1211 0.0000 25.5512
#
#
#
# Elastic Compliance Matrix: (Units=1/GPa)
#
#
# Indices 1 2 3 4 5 6 
#
# 1 0.012003 -0.007367 -0.002384 0.000000 0.000668 0.000000
# 2 -0.007367 0.025493 -0.005379 0.000000 0.002888 0.000000
# 3 -0.002384 -0.005379 0.014430 0.000000 -0.002388 0.000000
# 4 0.000000 0.000000 0.000000 0.041643 0.000000 0.005087
# 5 0.000668 0.002888 -0.002388 0.000000 0.040468 0.000000
# 6 0.000000 0.000000 0.000000 0.005087 0.000000 0.039758
#
#
# Mechanical properties :
#
#
# Convention : Reuss Voigt Hill
#
# Bulk Modulus (GPa) = 46.15262 51.30635 48.72948
# Shear Modulus (GPa) = 23.66548 25.40778 24.53663
#
# Velocity S-wave (km/s) = 3.64336 3.77509 3.70981
# Velocity P-wave (km/s) = 6.60197 6.91229 6.75891
#
# Compressibility (1/GPa) = 0.02166724
#
# Stress axis : x y z
#
# Youngs Moduli (GPa) = 83.31007 39.22642 69.29804
#
# Poissons Ratio (x) = 0.28897 0.16519
# Poissons Ratio (y) = 0.61371 0.37279
# Poissons Ratio (z) = 0.19859 0.21102
#
# Static dielectric constant tensor:
#      x y z
#    x 3.371550 0.000000 0.159290 
#    y 0.000000 3.078680 0.000000 
#    z 0.159290 0.000000 3.505240 
# 
# 
# High freq. dielectric constant tensor:
#      x y z
#    x 1.699730 0.000000 -0.000980 
#    y 0.000000 1.672460 0.000000 
#    z -0.000980 0.000000 1.682660 
# 
# From -- ./inp_files/162364.got.cif
#   From: 2010.06.25/outbox.cif.g09.slc.cpg/sg12_82_cif.got.tgz:162364.got - 2010.06.28 00:19:55.
