data_PCOD8088118
_publ_section_title
;
Structure prediction by ZEFSAII (Michael W. Deem and Ramdas Pophale) SiO2 
 PCOD8088118
Probable space group: C 2/M
;
_chemical_formula_sum "Si O2"
_cell_formula_units_Z 56
_cell_length_a 12.823289
_cell_length_b 22.165066
_cell_length_c 21.656587
_cell_angle_alpha 90.000000
_cell_angle_beta 28.501077
_cell_angle_gamma 90.000000
_cell_volume 2937.219548
_symmetry_space_group_name_H-M "C 2/M"
_symmetry_group_IT_number 12
_symmetry_cell_setting 'monoclinic'
loop_
_space_group_symop_operation_xyz
x,y,z
-x,y,-z
-x,-y,-z
x,-y,z
1/2+x,1/2+y,z
1/2-x,1/2+y,-z
1/2-x,1/2-y,-z
1/2+x,1/2-y,z
loop_
_atom_site_type_symbol
_atom_site_label
_atom_site_fract_x
_atom_site_fract_y
_atom_site_fract_z
Si Si1 0.964837 0.069049 0.946348
Si Si2 0.705338 0.151244 0.588881
Si Si3 0.028089 0.569661 0.791867
Si Si4 0.288080 0.167466 0.735567
Si Si5 0.143801 0.745149 0.715385
Si Si6 0.322578 0.355985 0.707698
Si Si7 0.238047 0.273816 0.856205
O O1 0.132011 0.109427 0.820119
O O2 0.009379 0.000000 0.904031
O O3 0.716443 0.088598 0.061524
O O4 0.000000 0.079190 0.000000
O O5 0.612335 0.105997 0.688449
O O6 0.541103 0.150724 0.616090
O O7 0.733185 0.219376 0.602931
O O8 0.941557 0.131134 0.443787
O O9 0.035329 0.500000 0.769543
O O10 0.184740 0.582450 0.769678
O O11 0.268258 0.195773 0.676903
O O12 0.214516 0.214705 0.826167
O O13 0.173107 0.692900 0.750106
O O14 0.887401 0.760090 0.838318
O O15 0.345842 0.331585 0.765033
O O16 0.000000 0.294590 0.000000
#
# Coordination Sequence:
#
# PCOD8088118 Si02
#       7
#     8   8   8   8   8   8   8
#     4  10  19  32  52  79 109 135 172 220 267 311
#     4  10  20  35  50  80 111 135 174 216 255 312
#     4  10  20  34  55  80 106 138 171 216 269 313
#     4  10  20  32  55  76 106 143 173 212 264 311
#     4   9  20  33  51  76 102 142 171 211 253 309
#     4  10  22  35  52  77 110 140 172 215 257 310
#     4  10  22  34  51  79 107 141 173 214 257 311
#
# _framework density 19.065650999999999
#
# number of rings (size 3 to 8) (size 9 to 14) (size 15 to 20)
#    0.000    2.143    1.429    2.143    6.000    8.571 
#    0.000    0.000    0.000    1.286    0.000    0.000 
#    0.000   12.571    0.000    0.000    0.000    0.000 
#
# Total GULP energy -347023.978666 kJ/mol
# GULP energy per Si atom -12393.713524 kJ/mol
# Density = 1.902226 g / cm^3
# Si number density = 19.065651 Si / 1000 Ang^3
#
#
#
# Elastic Constant Matrix: (Units=GPa)
#
#
# Indices 1 2 3 4 5 6 
#
# 1 79.0739 35.4656 49.0624 0.0728 -30.4511 0.0753
# 2 35.4656 74.0966 39.8741 0.0567 -15.0837 -0.0648
# 3 49.0624 39.8741 77.6614 0.5200 -28.4607 -0.3404
# 4 0.0728 0.0567 0.5200 16.8080 -0.2107 -4.0065
# 5 -30.4511 -15.0837 -28.4607 -0.2107 26.3446 -0.0182
# 6 0.0753 -0.0648 -0.3404 -4.0065 -0.0182 23.0919
#
#
#
# Elastic Compliance Matrix: (Units=1/GPa)
#
#
# Indices 1 2 3 4 5 6 
#
# 1 0.027418 -0.005065 -0.006905 0.000349 0.021335 -0.000128
# 2 -0.005065 0.019590 -0.008102 0.000159 -0.003389 -0.000023
# 3 -0.006905 -0.008102 0.027772 -0.000504 0.017379 0.000335
# 4 0.000349 0.000159 -0.000504 0.062080 0.000454 0.010763
# 5 0.021335 -0.003389 0.017379 0.000454 0.079458 0.000318
# 6 -0.000128 -0.000023 0.000335 0.010763 0.000318 0.045178
#
#
# Mechanical properties :
#
#
# Convention : Reuss Voigt Hill
#
# Bulk Modulus (GPa) = 28.87072 53.29289 41.08181
# Shear Modulus (GPa) = 15.96498 20.34422 18.15460
#
# Velocity S-wave (km/s) = 2.89687 3.27013 3.08915
# Velocity P-wave (km/s) = 5.13467 6.50164 5.85816
#
# Compressibility (1/GPa) = 0.03463717
#
# Stress axis : x y z
#
# Youngs Moduli (GPa) = 36.47194 51.04688 36.00720
#
# Poissons Ratio (x) = 0.25854 0.24864
# Poissons Ratio (y) = 0.18472 0.29172
# Poissons Ratio (z) = 0.25184 0.41357
#
# Static dielectric constant tensor:
#      x y z
#    x 3.782960 0.000180 -0.321870 
#    y 0.000180 3.594080 0.000460 
#    z -0.321870 0.000460 3.269770 
# 
# 
# High freq. dielectric constant tensor:
#      x y z
#    x 1.733860 -0.000010 -0.034090 
#    y -0.000010 1.722260 0.000060 
#    z -0.034090 0.000060 1.726140 
# 
# From -- ./inp_files/135477.got.cif
#   From: 2010.06.25/outbox.cif.g09.slc.cpg/sg12_68_cif.got.tgz:135477.got - 2010.06.28 00:19:55.
