data_PCOD8088489
_publ_section_title
;
Structure prediction by ZEFSAII (Michael W. Deem and Ramdas Pophale) SiO2 
 PCOD8088489
Probable space group: C 2/M
;
_chemical_formula_sum "Si O2"
_cell_formula_units_Z 64
_cell_length_a 28.264740
_cell_length_b 8.967912
_cell_length_c 14.163652
_cell_angle_alpha 90.000000
_cell_angle_beta 86.307746
_cell_angle_gamma 90.000000
_cell_volume 3582.689683
_symmetry_space_group_name_H-M "C 2/M"
_symmetry_group_IT_number 12
_symmetry_cell_setting 'monoclinic'
loop_
_space_group_symop_operation_xyz
x,y,z
-x,y,-z
-x,-y,-z
x,-y,z
1/2+x,1/2+y,z
1/2-x,1/2+y,-z
1/2-x,1/2-y,-z
1/2+x,1/2-y,z
loop_
_atom_site_type_symbol
_atom_site_label
_atom_site_fract_x
_atom_site_fract_y
_atom_site_fract_z
Si Si1 0.551288 0.327441 0.533957
Si Si2 0.895824 0.324706 0.949982
Si Si3 0.972665 0.329396 0.793561
Si Si4 0.633396 0.674197 0.864224
Si Si5 0.425096 0.826407 0.276344
Si Si6 0.327266 0.323243 0.813461
Si Si7 0.594040 0.328185 0.335900
Si Si8 0.759251 0.825226 0.099036
O O1 0.500000 0.281785 0.500000
O O2 0.550888 0.500000 0.565841
O O3 0.565934 0.223739 0.618091
O O4 0.591058 0.298072 0.448004
O O5 0.883964 0.500000 0.949677
O O6 0.946615 0.289393 0.895204
O O7 0.854816 0.233913 0.902182
O O8 0.897866 0.265164 0.056002
O O9 0.964126 0.500000 0.769384
O O10 0.951074 0.243277 0.708179
O O11 0.028282 0.293241 0.793193
O O12 0.622679 0.500000 0.875416
O O13 0.617875 0.732507 0.763139
O O14 0.688478 0.710565 0.870705
O O15 0.411812 0.000000 0.278154
O O16 0.320534 0.500000 0.822076
O O17 0.356027 0.272917 0.715422
O O18 0.276208 0.244118 0.818325
O O19 0.588861 0.500000 0.312786
O O20 0.750122 0.000000 0.089884
O O21 0.750000 0.750000 0.000000
#
# Coordination Sequence:
#
# PCOD8088489 Si02
#       8
#     8   8   8   8   8   8   8   8
#     4  10  19  34  57  82 109 144 182 221 267 318
#     4  10  19  33  53  76 107 145 182 218 261 315
#     4   9  19  33  50  76 109 144 180 219 262 313
#     4  11  24  39  54  76 107 143 183 225 271 323
#     4  11  23  37  54  78 110 146 183 225 272 319
#     4  10  19  32  53  82 112 139 175 221 268 319
#     4   9  18  32  53  81 110 141 177 219 265 315
#     4  11  22  36  57  81 107 140 180 226 273 322
#
# _framework density 17.863674
#
# number of rings (size 3 to 8) (size 9 to 14) (size 15 to 20)
#    0.000    1.875    2.500    1.875    0.000    4.250 
#    0.000    2.500    0.000    0.750    0.000    0.000 
#    0.000    0.000    0.000    0.000    0.000    0.000 
#
# Total GULP energy -396809.854920 kJ/mol
# GULP energy per Si atom -12400.307966 kJ/mol
# Density = 1.782302 g / cm^3
# Si number density = 17.863674 Si / 1000 Ang^3
#
#
#
# Elastic Constant Matrix: (Units=GPa)
#
#
# Indices 1 2 3 4 5 6 
#
# 1 97.1252 51.9239 53.6043 0.0000 -0.4865 0.0000
# 2 51.9239 77.4206 38.4456 0.0000 3.1351 0.0000
# 3 53.6043 38.4456 86.4168 0.0000 0.9560 0.0000
# 4 0.0000 0.0000 0.0000 27.8174 0.0000 -0.8768
# 5 -0.4865 3.1351 0.9560 0.0000 23.8240 0.0000
# 6 0.0000 0.0000 0.0000 -0.8768 0.0000 26.9969
#
#
#
# Elastic Compliance Matrix: (Units=1/GPa)
#
#
# Indices 1 2 3 4 5 6 
#
# 1 0.019773 -0.009292 -0.008153 0.000000 0.001954 0.000000
# 2 -0.009292 0.021031 -0.003562 0.000000 -0.002814 0.000000
# 3 -0.008153 -0.003562 0.018218 0.000000 -0.000429 0.000000
# 4 0.000000 0.000000 0.000000 0.035986 0.000000 0.001169
# 5 0.001954 -0.002814 -0.000429 0.000000 0.042402 0.000000
# 6 0.000000 0.000000 0.000000 0.001169 0.000000 0.037079
#
#
# Mechanical properties :
#
#
# Convention : Reuss Voigt Hill
#
# Bulk Modulus (GPa) = 58.79040 60.99001 59.89021
# Shear Modulus (GPa) = 22.50523 23.52692 23.01607
#
# Velocity S-wave (km/s) = 3.55326 3.63302 3.59336
# Velocity P-wave (km/s) = 7.05806 7.19823 7.12849
#
# Compressibility (1/GPa) = 0.01700958
#
# Stress axis : x y z
#
# Youngs Moduli (GPa) = 50.57435 47.54978 54.88970
#
# Poissons Ratio (x) = 0.44181 0.44752
# Poissons Ratio (y) = 0.46992 0.19549
# Poissons Ratio (z) = 0.41233 0.16935
#
# Static dielectric constant tensor:
#      x y z
#    x 3.540020 0.000000 -0.332930 
#    y 0.000000 3.359330 0.000000 
#    z -0.332930 0.000000 3.240880 
# 
# 
# High freq. dielectric constant tensor:
#      x y z
#    x 1.684510 0.000000 -0.018480 
#    y 0.000000 1.701500 0.000000 
#    z -0.018480 0.000000 1.674900 
# 
# From -- ./inp_files/244101.got.cif
#   From: 2010.06.25/outbox.cif.g09.slc.cpg/sg12_123_cif.got.tgz:244101.got - 2010.06.28 00:19:55.
