data_PCOD8088163
_publ_section_title
;
Structure prediction by ZEFSAII (Michael W. Deem and Ramdas Pophale) SiO2 
 PCOD8088163
Probable space group: C 2/M
;
_chemical_formula_sum "Si O2"
_cell_formula_units_Z 48
_cell_length_a 30.756442
_cell_length_b 8.975088
_cell_length_c 8.866622
_cell_angle_alpha 90.000000
_cell_angle_beta 93.567326
_cell_angle_gamma 90.000000
_cell_volume 2442.815609
_symmetry_space_group_name_H-M "C 2/M"
_symmetry_group_IT_number 12
_symmetry_cell_setting 'monoclinic'
loop_
_space_group_symop_operation_xyz
x,y,z
-x,y,-z
-x,-y,-z
x,-y,z
1/2+x,1/2+y,z
1/2-x,1/2+y,-z
1/2-x,1/2-y,-z
1/2+x,1/2-y,z
loop_
_atom_site_type_symbol
_atom_site_label
_atom_site_fract_x
_atom_site_fract_y
_atom_site_fract_z
Si Si1 0.433482 0.825428 0.319271
Si Si2 0.649893 0.825660 0.888510
Si Si3 0.988218 0.824611 0.827761
Si Si4 0.833914 0.824644 0.789490
Si Si5 0.257549 0.170884 0.155975
Si Si6 0.089867 0.675096 0.345972
O O1 0.392265 0.773770 0.212184
O O2 0.475498 0.734947 0.278175
O O3 0.424791 0.783217 0.489697
O O4 0.442940 0.000000 0.302293
O O5 0.692147 0.796485 0.786428
O O6 0.647181 0.000000 0.931058
O O7 0.652726 0.730208 0.040835
O O8 0.942314 0.748904 0.781604
O O9 0.983714 0.000000 0.806489
O O10 0.000000 0.779148 0.000000
O O11 0.782620 0.784462 0.741615
O O12 0.861902 0.739533 0.670099
O O13 0.843289 0.000000 0.780837
O O14 0.251182 0.000000 0.117496
O O15 0.250000 0.250000 0.000000
O O16 0.090423 0.500000 0.319039
#
# Coordination Sequence:
#
# PCOD8088163 Si02
#       6
#     8   8   8   8   8   8
#     4  10  22  38  56  79 107 140 177 215 256 309
#     4   9  17  33  56  79 105 140 179 218 262 309
#     4  11  24  40  59  83 107 132 168 215 264 314
#     4  10  19  32  52  80 110 139 177 222 264 307
#     4   8  15  28  49  76 105 137 174 217 261 305
#     4  11  23  38  55  77 107 142 178 214 257 311
#
# _framework density 19.649457000000002
#
# number of rings (size 3 to 8) (size 9 to 14) (size 15 to 20)
#    0.000    2.167    0.000    3.000    0.000    8.667 
#    0.000    0.833    0.000    0.000    0.000    0.000 
#    0.000    0.000    0.000    0.000    0.000    0.000 
#
# Total GULP energy -297455.768139 kJ/mol
# GULP energy per Si atom -12393.990339 kJ/mol
# Density = 1.960473 g / cm^3
# Si number density = 19.649457 Si / 1000 Ang^3
#
#
#
# Elastic Constant Matrix: (Units=GPa)
#
#
# Indices 1 2 3 4 5 6 
#
# 1 96.3656 21.3331 11.1671 0.0000 -30.8904 0.0000
# 2 21.3331 51.1334 27.0722 0.0000 -18.6857 0.0000
# 3 11.1671 27.0722 58.3265 0.0000 -21.2787 0.0000
# 4 0.0000 0.0000 0.0000 25.0390 0.0000 -7.0665
# 5 -30.8904 -18.6857 -21.2787 0.0000 30.6596 0.0000
# 6 0.0000 0.0000 0.0000 -7.0665 0.0000 31.6452
#
#
#
# Elastic Compliance Matrix: (Units=1/GPa)
#
#
# Indices 1 2 3 4 5 6 
#
# 1 0.016167 -0.002681 0.004680 0.000000 0.017904 0.000000
# 2 -0.002681 0.028871 -0.009980 0.000000 0.007968 0.000000
# 3 0.004680 -0.009980 0.027293 0.000000 0.017575 0.000000
# 4 0.000000 0.000000 0.000000 0.042624 0.000000 0.009518
# 5 0.017904 0.007968 0.017575 0.000000 0.067709 0.000000
# 6 0.000000 0.000000 0.000000 0.009518 0.000000 0.033726
#
#
# Mechanical properties :
#
#
# Convention : Reuss Voigt Hill
#
# Bulk Modulus (GPa) = 17.73985 36.10781 26.92383
# Shear Modulus (GPa) = 19.90923 27.21898 23.56410
#
# Velocity S-wave (km/s) = 3.18657 3.72590 3.46674
# Velocity P-wave (km/s) = 4.75255 6.07665 5.45492
#
# Compressibility (1/GPa) = 0.05637028
#
# Stress axis : x y z
#
# Youngs Moduli (GPa) = 61.85339 34.63710 36.63970
#
# Poissons Ratio (x) = 0.09285 -0.17149
# Poissons Ratio (y) = 0.16580 0.36567
# Poissons Ratio (z) = -0.28950 0.34568
#
# Static dielectric constant tensor:
#      x y z
#    x 4.346250 0.000000 -0.126940 
#    y 0.000000 3.434790 0.000000 
#    z -0.126940 0.000000 3.299830 
# 
# 
# High freq. dielectric constant tensor:
#      x y z
#    x 1.794360 0.000000 -0.012940 
#    y 0.000000 1.767630 0.000000 
#    z -0.012940 0.000000 1.734930 
# 
# From -- ./inp_files/108667.got.cif
#   From: 2010.06.25/outbox.cif.g09.slc.cpg/sg12_55_cif.got.tgz:108667.got - 2010.06.28 00:19:55.
