data_PCOD8088693
_publ_section_title
;
Structure prediction by ZEFSAII (Michael W. Deem and Ramdas Pophale) SiO2 
 PCOD8088693
Probable space group: C 2/M
;
_chemical_formula_sum "Si O2"
_cell_formula_units_Z 48
_cell_length_a 22.536406
_cell_length_b 11.976121
_cell_length_c 8.921834
_cell_angle_alpha 90.000000
_cell_angle_beta 89.451107
_cell_angle_gamma 90.000000
_cell_volume 2407.881125
_symmetry_space_group_name_H-M "C 2/M"
_symmetry_group_IT_number 12
_symmetry_cell_setting 'monoclinic'
loop_
_space_group_symop_operation_xyz
x,y,z
-x,y,-z
-x,-y,-z
x,-y,z
1/2+x,1/2+y,z
1/2-x,1/2+y,-z
1/2-x,1/2-y,-z
1/2+x,1/2-y,z
loop_
_atom_site_type_symbol
_atom_site_label
_atom_site_fract_x
_atom_site_fract_y
_atom_site_fract_z
Si Si1 0.430919 0.373366 0.044943
Si Si2 0.097301 0.367167 0.381059
Si Si3 0.832813 0.741197 0.867132
Si Si4 0.998420 0.377577 0.162113
Si Si5 0.607429 0.783092 0.704142
Si Si6 0.282129 0.129356 0.151138
O O1 0.407164 0.500000 0.040024
O O2 0.420009 0.328384 0.216307
O O3 0.500000 0.370698 0.000000
O O4 0.391929 0.298250 0.932366
O O5 0.097343 0.500000 0.420328
O O6 0.153238 0.334508 0.277719
O O7 0.038982 0.326170 0.291693
O O8 0.098371 0.288304 0.526632
O O9 0.785888 0.835958 0.821742
O O10 0.802675 0.655077 0.982406
O O11 0.024728 0.500000 0.130530
O O12 0.930834 0.383423 0.220305
O O13 0.000000 0.312391 0.000000
O O14 0.676731 0.799974 0.736338
O O15 0.288558 0.000000 0.188038
#
# Coordination Sequence:
#
# PCOD8088693 Si02
#       6
#     8   8   8   8   8   8
#     4  10  21  39  61  82 108 146 193 238 275 319
#     4  11  22  35  55  86 120 147 176 222 281 340
#     4  10  21  36  57  82 109 146 190 233 277 325
#     4  10  19  32  54  82 111 144 181 223 272 326
#     4  11  21  35  55  81 113 146 180 223 280 333
#     4  10  20  36  57  79 107 145 191 235 274 325
#
# _framework density 19.934539000000001
#
# number of rings (size 3 to 8) (size 9 to 14) (size 15 to 20)
#    0.000    1.667    0.000    6.500    0.000    3.333 
#    0.000    2.500    0.000    4.500    0.000    0.000 
#    0.000    0.000    0.000    0.000    0.000    0.000 
#
# Total GULP energy -297427.547643 kJ/mol
# GULP energy per Si atom -12392.814485 kJ/mol
# Density = 1.988917 g / cm^3
# Si number density = 19.934539 Si / 1000 Ang^3
#
#
#
# Elastic Constant Matrix: (Units=GPa)
#
#
# Indices 1 2 3 4 5 6 
#
# 1 114.7870 11.4962 34.8616 0.0000 7.6374 0.0000
# 2 11.4962 79.8204 16.2325 0.0000 -0.8363 0.0000
# 3 34.8616 16.2325 128.8298 0.0000 9.8574 0.0000
# 4 0.0000 0.0000 0.0000 10.0710 0.0000 9.8480
# 5 7.6374 -0.8363 9.8574 0.0000 24.3738 0.0000
# 6 0.0000 0.0000 0.0000 9.8480 0.0000 15.5535
#
#
#
# Elastic Compliance Matrix: (Units=1/GPa)
#
#
# Indices 1 2 3 4 5 6 
#
# 1 0.009655 -0.000938 -0.002333 0.000000 -0.002114 0.000000
# 2 -0.000938 0.012979 -0.001484 0.000000 0.001339 0.000000
# 3 -0.002333 -0.001484 0.008801 0.000000 -0.002879 0.000000
# 4 0.000000 0.000000 0.000000 0.260716 0.000000 -0.165078
# 5 -0.002114 0.001339 -0.002879 0.000000 0.042900 0.000000
# 6 0.000000 0.000000 0.000000 -0.165078 0.000000 0.168816
#
#
# Mechanical properties :
#
#
# Convention : Reuss Voigt Hill
#
# Bulk Modulus (GPa) = 45.61042 49.84643 47.72843
# Shear Modulus (GPa) = 9.60272 27.38946 18.49609
#
# Velocity S-wave (km/s) = 2.19718 3.71073 3.04935
# Velocity P-wave (km/s) = 5.41909 6.58929 6.03263
#
# Compressibility (1/GPa) = 0.02192481
#
# Stress axis : x y z
#
# Youngs Moduli (GPa) = 103.57477 77.04708 113.62766
#
# Poissons Ratio (x) = 0.07230 0.26505
# Poissons Ratio (y) = 0.09719 0.16862
# Poissons Ratio (z) = 0.24160 0.11433
#
# Static dielectric constant tensor:
#      x y z
#    x 3.715870 0.000000 0.069160 
#    y 0.000000 3.595930 0.000000 
#    z 0.069160 0.000000 3.580290 
# 
# 
# High freq. dielectric constant tensor:
#      x y z
#    x 1.786050 0.000000 0.004140 
#    y 0.000000 1.764010 0.000000 
#    z 0.004140 0.000000 1.768520 
# 
# From -- ./inp_files/94426.got.cif
#   From: 2010.06.25/outbox.cif.g09.slc.cpg/sg12_48_cif.got.tgz:94426.got - 2010.06.28 00:19:55.
