data_PCOD8088355
_publ_section_title
;
Structure prediction by ZEFSAII (Michael W. Deem and Ramdas Pophale) SiO2 
 PCOD8088355
Probable space group: C 2/M
;
_chemical_formula_sum "Si O2"
_cell_formula_units_Z 56
_cell_length_a 15.018075
_cell_length_b 9.213853
_cell_length_c 28.951959
_cell_angle_alpha 90.000000
_cell_angle_beta 131.230295
_cell_angle_gamma 90.000000
_cell_volume 3012.934986
_symmetry_space_group_name_H-M "C 2/M"
_symmetry_group_IT_number 12
_symmetry_cell_setting 'monoclinic'
loop_
_space_group_symop_operation_xyz
x,y,z
-x,y,-z
-x,-y,-z
x,-y,z
1/2+x,1/2+y,z
1/2-x,1/2+y,-z
1/2-x,1/2-y,-z
1/2+x,1/2-y,z
loop_
_atom_site_type_symbol
_atom_site_label
_atom_site_fract_x
_atom_site_fract_y
_atom_site_fract_z
Si Si1 0.242446 0.671720 0.125245
Si Si2 0.058189 0.828014 0.126270
Si Si3 0.009980 0.171804 0.212112
Si Si4 0.806985 0.828223 0.649700
Si Si5 0.148390 0.831785 0.438450
Si Si6 0.615394 0.659331 0.008268
Si Si7 0.936653 0.168877 0.431416
O O1 0.224940 0.500000 0.121375
O O2 0.166634 0.745603 0.139467
O O3 0.377475 0.720628 0.179554
O O4 0.204941 0.724787 0.061060
O O5 0.049195 0.769612 0.175381
O O6 0.082676 0.000000 0.131370
O O7 0.931978 0.791102 0.058392
O O8 0.099179 0.233392 0.281188
O O9 0.014961 0.000000 0.212522
O O10 0.854097 0.781437 0.615481
O O11 0.681092 0.758697 0.617408
O O12 0.793291 0.000000 0.648995
O O13 0.250000 0.750000 0.500000
O O14 0.021300 0.797273 0.417113
O O15 0.179093 0.000000 0.453533
O O16 0.676359 0.500000 0.026591
O O17 0.500000 0.648099 0.000000
O O18 0.000000 0.221580 0.500000
O O19 0.903827 0.000000 0.423955
#
# Coordination Sequence:
#
# PCOD8088355 Si02
#       7
#     8   8   8   8   8   8   8
#     4  10  19  32  53  79 106 135 172 222 268 304
#     4   9  18  35  55  72 101 143 178 211 260 318
#     4   9  20  37  53  73 105 142 176 213 261 312
#     4  10  21  37  56  78 104 138 180 216 250 309
#     4  10  20  34  55  80 106 135 166 206 257 307
#     4   8  15  29  50  75 102 136 174 213 261 315
#     4  10  20  35  55  80 110 138 164 208 266 309
#
# _framework density 18.586528999999999
#
# number of rings (size 3 to 8) (size 9 to 14) (size 15 to 20)
#    0.000    2.571    1.429    1.286    0.000    5.143 
#    0.000    5.000    0.000    0.000    0.000    0.000 
#    0.000    0.000    0.000    0.000    0.000    0.000 
#
# Total GULP energy -347153.491191 kJ/mol
# GULP energy per Si atom -12398.338971 kJ/mol
# Density = 1.854423 g / cm^3
# Si number density = 18.586529 Si / 1000 Ang^3
#
#
#
# Elastic Constant Matrix: (Units=GPa)
#
#
# Indices 1 2 3 4 5 6 
#
# 1 115.5558 39.7597 73.9974 0.0000 -6.2822 0.0000
# 2 39.7597 48.6493 43.4375 0.0000 3.1071 0.0000
# 3 73.9974 43.4375 163.2332 0.0000 -5.4764 0.0000
# 4 0.0000 0.0000 0.0000 24.7050 0.0000 4.6153
# 5 -6.2822 3.1071 -5.4764 0.0000 34.0872 0.0000
# 6 0.0000 0.0000 0.0000 4.6153 0.0000 24.5596
#
#
#
# Elastic Compliance Matrix: (Units=1/GPa)
#
#
# Indices 1 2 3 4 5 6 
#
# 1 0.014291 -0.008063 -0.004243 0.000000 0.002687 0.000000
# 2 -0.008063 0.031965 -0.005026 0.000000 -0.005207 0.000000
# 3 -0.004243 -0.005026 0.009427 0.000000 0.001191 0.000000
# 4 0.000000 0.000000 0.000000 0.041950 0.000000 -0.007883
# 5 0.002687 -0.005207 0.001191 0.000000 0.030498 0.000000
# 6 0.000000 0.000000 0.000000 -0.007883 0.000000 0.042199
#
#
# Mechanical properties :
#
#
# Convention : Reuss Voigt Hill
#
# Bulk Modulus (GPa) = 47.57392 71.31417 59.44404
# Shear Modulus (GPa) = 23.58504 28.01993 25.80249
#
# Velocity S-wave (km/s) = 3.56607 3.88692 3.72995
# Velocity P-wave (km/s) = 6.52743 7.65482 7.11349
#
# Compressibility (1/GPa) = 0.02101992
#
# Stress axis : x y z
#
# Youngs Moduli (GPa) = 69.97378 31.28441 106.08089
#
# Poissons Ratio (x) = 0.25225 0.45006
# Poissons Ratio (y) = 0.56421 0.53311
# Poissons Ratio (z) = 0.29687 0.15722
#
# Static dielectric constant tensor:
#      x y z
#    x 3.431250 0.000000 -0.178250 
#    y 0.000000 3.240310 0.000000 
#    z -0.178250 0.000000 3.768120 
# 
# 
# High freq. dielectric constant tensor:
#      x y z
#    x 1.723030 0.000000 -0.006190 
#    y 0.000000 1.701960 0.000000 
#    z -0.006190 0.000000 1.723720 
# 
# From -- ./inp_files/337889.got.cif
#   From: 2010.06.25/outbox.cif.g09.slc.cpg/sg12_169_cif.got.tgz:337889.got - 2010.06.28 00:19:55.
