data_PCOD8088852
_publ_section_title
;
Structure prediction by ZEFSAII (Michael W. Deem and Ramdas Pophale) SiO2 
 PCOD8088852
Probable space group: C 2/M
;
_chemical_formula_sum "Si O2"
_cell_formula_units_Z 56
_cell_length_a 28.703658
_cell_length_b 9.219845
_cell_length_c 14.971667
_cell_angle_alpha 90.000000
_cell_angle_beta 134.037715
_cell_angle_gamma 90.000000
_cell_volume 2848.320580
_symmetry_space_group_name_H-M "C 2/M"
_symmetry_group_IT_number 12
_symmetry_cell_setting 'monoclinic'
loop_
_space_group_symop_operation_xyz
x,y,z
-x,y,-z
-x,-y,-z
x,-y,z
1/2+x,1/2+y,z
1/2-x,1/2+y,-z
1/2-x,1/2-y,-z
1/2+x,1/2-y,z
loop_
_atom_site_type_symbol
_atom_site_label
_atom_site_fract_x
_atom_site_fract_y
_atom_site_fract_z
Si Si1 0.350598 0.169419 0.665112
Si Si2 0.930001 0.832417 0.166889
Si Si3 0.182989 0.327783 0.893872
Si Si4 0.980896 0.168427 0.875957
Si Si5 0.968220 0.169698 0.548328
Si Si6 0.654535 0.833821 0.654982
Si Si7 0.245232 0.334587 0.621001
O O1 0.420694 0.242710 0.757145
O O2 0.307077 0.232738 0.687769
O O3 0.314361 0.204839 0.524104
O O4 0.360127 0.000000 0.693755
O O5 0.868360 0.730863 0.102392
O O6 0.956073 0.805667 0.101837
O O7 0.986977 0.786261 0.309710
O O8 0.909888 0.000000 0.155010
O O9 0.190696 0.500000 0.913955
O O10 0.161084 0.281575 0.765429
O O11 0.250000 0.250000 0.000000
O O12 0.960923 0.000000 0.849440
O O13 0.000000 0.222517 0.000000
O O14 0.899107 0.243342 0.469066
O O15 0.000000 0.229489 0.500000
O O16 0.956138 0.000000 0.526943
O O17 0.722056 0.811171 0.692059
O O18 0.632880 0.000000 0.622336
O O19 0.267155 0.500000 0.633582
#
# Coordination Sequence:
#
# PCOD8088852 Si02
#       7
#     8   8   8   8   8   8   8
#     4  10  20  35  57  85 113 143 182 231 282 327
#     4  10  21  39  60  83 113 147 184 227 277 331
#     4  11  24  40  58  80 110 148 188 228 273 326
#     4  10  22  39  59  81 109 150 192 228 271 326
#     4  10  19  32  55  85 115 144 175 222 281 331
#     4  10  21  36  56  83 111 146 187 226 271 329
#     4   9  19  36  57  81 113 147 181 224 278 336
#
# _framework density 19.660706999999999
#
# number of rings (size 3 to 8) (size 9 to 14) (size 15 to 20)
#    0.000    2.000    1.429    1.714    0.000    4.571 
#    0.000    5.714    0.000    0.000    0.000    0.000 
#    0.000    0.000    0.000    0.000    0.000    0.000 
#
# Total GULP energy -347298.390454 kJ/mol
# GULP energy per Si atom -12403.513945 kJ/mol
# Density = 1.961596 g / cm^3
# Si number density = 19.660707 Si / 1000 Ang^3
#
#
#
# Elastic Constant Matrix: (Units=GPa)
#
#
# Indices 1 2 3 4 5 6 
#
# 1 118.6950 43.4496 43.1832 0.0000 0.6542 0.0000
# 2 43.4496 75.3417 46.4639 0.0000 14.7512 0.0000
# 3 43.1832 46.4639 75.9763 0.0000 10.8689 0.0000
# 4 0.0000 0.0000 0.0000 29.6935 0.0000 10.7741
# 5 0.6542 14.7512 10.8689 0.0000 33.1582 0.0000
# 6 0.0000 0.0000 0.0000 10.7741 0.0000 35.0682
#
#
#
# Elastic Compliance Matrix: (Units=1/GPa)
#
#
# Indices 1 2 3 4 5 6 
#
# 1 0.011684 -0.004808 -0.004169 0.000000 0.003275 0.000000
# 2 -0.004808 0.024276 -0.011103 0.000000 -0.007066 0.000000
# 3 -0.004169 -0.011103 0.022666 0.000000 -0.002408 0.000000
# 4 0.000000 0.000000 0.000000 0.037903 0.000000 -0.011645
# 5 0.003275 -0.007066 -0.002408 0.000000 0.034027 0.000000
# 6 0.000000 0.000000 0.000000 -0.011645 0.000000 0.032094
#
#
# Mechanical properties :
#
#
# Convention : Reuss Voigt Hill
#
# Bulk Modulus (GPa) = 54.15215 59.57848 56.86532
# Shear Modulus (GPa) = 23.92764 28.71173 26.31968
#
# Velocity S-wave (km/s) = 3.49238 3.82561 3.66279
# Velocity P-wave (km/s) = 6.62310 7.06278 6.84647
#
# Compressibility (1/GPa) = 0.01846649
#
# Stress axis : x y z
#
# Youngs Moduli (GPa) = 85.58948 41.19239 44.11939
#
# Poissons Ratio (x) = 0.19807 0.18392
# Poissons Ratio (y) = 0.41154 0.48984
# Poissons Ratio (z) = 0.35679 0.45734
#
# Static dielectric constant tensor:
#      x y z
#    x 3.739020 0.000000 -0.087370 
#    y 0.000000 2.774350 0.000000 
#    z -0.087370 0.000000 3.441950 
# 
# 
# High freq. dielectric constant tensor:
#      x y z
#    x 1.778160 0.000000 0.000200 
#    y 0.000000 1.760960 0.000000 
#    z 0.000200 0.000000 1.753980 
# 
# From -- ./inp_files/295156.got.cif
#   From: 2010.06.25/outbox.cif.g09.slc.cpg/sg12_148_cif.got.tgz:295156.got - 2010.06.28 00:19:55.
