data_PCOD8088462
_publ_section_title
;
Structure prediction by ZEFSAII (Michael W. Deem and Ramdas Pophale) SiO2 
 PCOD8088462
Probable space group: C 2/M
;
_chemical_formula_sum "Si O2"
_cell_formula_units_Z 64
_cell_length_a 20.777985
_cell_length_b 13.026307
_cell_length_c 20.007557
_cell_angle_alpha 90.000000
_cell_angle_beta 40.871192
_cell_angle_gamma 90.000000
_cell_volume 3543.529100
_symmetry_space_group_name_H-M "C 2/M"
_symmetry_group_IT_number 12
_symmetry_cell_setting 'monoclinic'
loop_
_space_group_symop_operation_xyz
x,y,z
-x,y,-z
-x,-y,-z
x,-y,z
1/2+x,1/2+y,z
1/2-x,1/2+y,-z
1/2-x,1/2-y,-z
1/2+x,1/2-y,z
loop_
_atom_site_type_symbol
_atom_site_label
_atom_site_fract_x
_atom_site_fract_y
_atom_site_fract_z
Si Si1 0.310230 0.230878 0.235730
Si Si2 0.297920 0.618361 0.786711
Si Si3 0.681070 0.769320 0.990821
Si Si4 0.185705 0.759763 0.458649
Si Si5 0.518080 0.881467 0.821851
Si Si6 0.851788 0.383438 0.401536
Si Si7 0.387718 0.380275 0.066588
Si Si8 0.499135 0.621376 0.426387
O O1 0.267082 0.134911 0.228546
O O2 0.227619 0.268761 0.352966
O O3 0.410451 0.190313 0.190281
O O4 0.325549 0.326482 0.174006
O O5 0.301966 0.500000 0.800553
O O6 0.252362 0.673059 0.885243
O O7 0.407484 0.663060 0.688417
O O8 0.636793 0.669194 0.987107
O O9 0.750000 0.750000 0.000000
O O10 0.592190 0.841920 0.083511
O O11 0.139948 0.657559 0.528990
O O12 0.274518 0.809954 0.427839
O O13 0.101161 0.844556 0.528596
O O14 0.547334 0.874623 0.720313
O O15 0.525068 0.000000 0.840742
O O16 0.814191 0.500000 0.432685
O O17 0.359724 0.500000 0.084522
O O18 0.500000 0.364242 0.000000
O O19 0.500000 0.668509 0.500000
O O20 0.503911 0.500000 0.425662
#
# Coordination Sequence:
#
# PCOD8088462 Si02
#       8
#     8   8   8   8   8   8   8   8
#     4  10  19  35  58  88 107 143 184 232 282 331
#     4  10  21  35  55  85 113 139 181 231 280 334
#     4  11  24  39  59  82 114 151 190 232 285 345
#     4  10  19  33  57  78 114 144 183 228 272 324
#     4  10  20  36  58  82 112 143 183 233 287 334
#     4   9  20  35  54  80 108 146 186 226 272 327
#     4  10  21  40  61  83 113 149 190 234 282 340
#     4  10  19  32  53  81 112 143 173 217 276 327
#
# _framework density 18.061091000000001
#
# number of rings (size 3 to 8) (size 9 to 14) (size 15 to 20)
#    0.000    2.000    2.500    1.125    1.750    2.500 
#    0.000    1.875    0.000    0.375    0.000    0.000 
#    0.000    0.000    0.000    0.000    0.000    0.000 
#
# Total GULP energy -396614.830184 kJ/mol
# GULP energy per Si atom -12394.213443 kJ/mol
# Density = 1.801998 g / cm^3
# Si number density = 18.061091 Si / 1000 Ang^3
#
#
#
# Elastic Constant Matrix: (Units=GPa)
#
#
# Indices 1 2 3 4 5 6 
#
# 1 82.4362 27.7850 45.1601 0.0000 7.1604 0.0000
# 2 27.7850 86.3587 52.4807 0.0000 8.9861 0.0000
# 3 45.1601 52.4807 140.9990 0.0000 3.0419 0.0000
# 4 0.0000 0.0000 0.0000 19.6878 0.0000 -5.5465
# 5 7.1604 8.9861 3.0419 0.0000 31.1514 0.0000
# 6 0.0000 0.0000 0.0000 -5.5465 0.0000 18.6372
#
#
#
# Elastic Compliance Matrix: (Units=1/GPa)
#
#
# Indices 1 2 3 4 5 6 
#
# 1 0.015296 -0.002221 -0.004019 0.000000 -0.002483 0.000000
# 2 -0.002221 0.015745 -0.005073 0.000000 -0.003536 0.000000
# 3 -0.004019 -0.005073 0.010238 0.000000 0.001387 0.000000
# 4 0.000000 0.000000 0.000000 0.055441 0.000000 0.016500
# 5 -0.002483 -0.003536 0.001387 0.000000 0.033557 0.000000
# 6 0.000000 0.000000 0.000000 0.016500 0.000000 0.058566
#
#
# Mechanical properties :
#
#
# Convention : Reuss Voigt Hill
#
# Bulk Modulus (GPa) = 53.60829 62.29393 57.95111
# Shear Modulus (GPa) = 22.96884 26.18649 24.57766
#
# Velocity S-wave (km/s) = 3.57000 3.81187 3.69291
# Velocity P-wave (km/s) = 6.83661 7.34434 7.09502
#
# Compressibility (1/GPa) = 0.01865383
#
# Stress axis : x y z
#
# Youngs Moduli (GPa) = 65.37446 63.51314 97.67808
#
# Poissons Ratio (x) = 0.14104 0.39258
# Poissons Ratio (y) = 0.14517 0.49550
# Poissons Ratio (z) = 0.26275 0.32219
#
# Static dielectric constant tensor:
#      x y z
#    x 3.353230 0.000000 0.161410 
#    y 0.000000 3.254190 0.000000 
#    z 0.161410 0.000000 3.773160 
# 
# 
# High freq. dielectric constant tensor:
#      x y z
#    x 1.687780 0.000000 0.001330 
#    y 0.000000 1.687070 0.000000 
#    z 0.001330 0.000000 1.719860 
# 
# From -- ./inp_files/290067.got.cif
#   From: 2010.06.25/outbox.cif.g09.slc.cpg/sg12_146_cif.got.tgz:290067.got - 2010.06.28 00:19:55.
