data_PCOD8088061
_publ_section_title
;
Structure prediction by ZEFSAII (Michael W. Deem and Ramdas Pophale) SiO2 
 PCOD8088061
Probable space group: C 2/M
;
_chemical_formula_sum "Si O2"
_cell_formula_units_Z 56
_cell_length_a 20.825942
_cell_length_b 8.882931
_cell_length_c 19.022764
_cell_angle_alpha 90.000000
_cell_angle_beta 56.107294
_cell_angle_gamma 90.000000
_cell_volume 2921.165954
_symmetry_space_group_name_H-M "C 2/M"
_symmetry_group_IT_number 12
_symmetry_cell_setting 'monoclinic'
loop_
_space_group_symop_operation_xyz
x,y,z
-x,y,-z
-x,-y,-z
x,-y,z
1/2+x,1/2+y,z
1/2-x,1/2+y,-z
1/2-x,1/2-y,-z
1/2+x,1/2-y,z
loop_
_atom_site_type_symbol
_atom_site_label
_atom_site_fract_x
_atom_site_fract_y
_atom_site_fract_z
Si Si1 0.340100 0.667503 0.874019
Si Si2 0.159377 0.666980 0.991819
Si Si3 0.231820 0.174826 0.437277
Si Si4 0.825307 0.676814 0.740376
Si Si5 0.080401 0.822837 0.918492
Si Si6 0.817003 0.678015 0.246625
Si Si7 0.089478 0.826876 0.430940
O O1 0.376580 0.500000 0.843562
O O2 0.250262 0.650982 0.945462
O O3 0.357247 0.766831 0.795280
O O4 0.378745 0.753118 0.916662
O O5 0.122804 0.500000 0.004604
O O6 0.145805 0.772263 0.933056
O O7 0.250000 0.250000 0.500000
O O8 0.293695 0.229049 0.339938
O O9 0.144358 0.212390 0.464471
O O10 0.242049 0.000000 0.443746
O O11 0.807924 0.500000 0.753190
O O12 0.748187 0.766187 0.767469
O O13 0.891470 0.714222 0.643681
O O14 0.101505 0.749936 0.829325
O O15 0.079263 0.000000 0.909383
O O16 0.000000 0.762434 0.000000
O O17 0.822474 0.500000 0.237616
O O18 0.000000 0.800533 0.500000
O O19 0.106307 0.000000 0.398478
#
# Coordination Sequence:
#
# PCOD8088061 Si02
#       7
#     8   8   8   8   8   8   8
#     4  10  19  32  52  77 106 137 173 220 266 318
#     4  10  20  33  52  76 104 138 175 220 269 316
#     4   9  19  35  58  86 112 141 183 230 280 337
#     4  11  20  31  53  82 111 141 178 226 274 328
#     4  11  23  37  54  78 109 146 187 231 278 330
#     4  10  20  36  56  79 106 143 190 232 273 328
#     4   9  19  37  58  80 110 148 187 228 278 336
#
# _framework density 19.170428000000001
#
# number of rings (size 3 to 8) (size 9 to 14) (size 15 to 20)
#    0.000    2.000    1.429    3.857    0.000    5.429 
#    0.000    1.429    0.000    5.143    0.000    0.000 
#    0.000    0.000    0.000    0.000    0.000    0.000 
#
# Total GULP energy -347095.039854 kJ/mol
# GULP energy per Si atom -12396.251423 kJ/mol
# Density = 1.912679 g / cm^3
# Si number density = 19.170428 Si / 1000 Ang^3
#
#
#
# Elastic Constant Matrix: (Units=GPa)
#
#
# Indices 1 2 3 4 5 6 
#
# 1 52.5119 24.5413 56.2245 -0.0001 3.0786 -0.0001
# 2 24.5413 82.1372 51.1319 -0.0004 0.6732 0.0001
# 3 56.2245 51.1319 144.4080 -0.0001 9.7387 0.0001
# 4 -0.0001 -0.0004 -0.0001 36.7409 0.0000 3.7523
# 5 3.0786 0.6732 9.7387 0.0000 34.2300 -0.0001
# 6 -0.0001 0.0001 0.0001 3.7523 -0.0001 21.4167
#
#
#
# Elastic Compliance Matrix: (Units=1/GPa)
#
#
# Indices 1 2 3 4 5 6 
#
# 1 0.033027 -0.002368 -0.012055 0.000000 0.000506 0.000000
# 2 -0.002368 0.015843 -0.004773 0.000000 0.001259 0.000000
# 3 -0.012055 -0.004773 0.013487 0.000000 -0.002659 0.000000
# 4 0.000000 0.000000 0.000000 0.027714 0.000000 -0.004855
# 5 0.000506 0.001259 -0.002659 0.000000 0.029900 0.000000
# 6 0.000000 0.000000 0.000000 -0.004855 0.000000 0.047543
#
#
# Mechanical properties :
#
#
# Convention : Reuss Voigt Hill
#
# Bulk Modulus (GPa) = 41.72367 60.31695 51.02031
# Shear Modulus (GPa) = 23.37601 28.28812 25.83207
#
# Velocity S-wave (km/s) = 3.49575 3.84554 3.67481
# Velocity P-wave (km/s) = 6.17297 7.15887 6.68412
#
# Compressibility (1/GPa) = 0.02396721
#
# Stress axis : x y z
#
# Youngs Moduli (GPa) = 30.27808 63.11932 74.14292
#
# Poissons Ratio (x) = 0.14946 0.89377
# Poissons Ratio (y) = 0.07170 0.35386
# Poissons Ratio (z) = 0.36499 0.30125
#
# Static dielectric constant tensor:
#      x y z
#    x 3.230770 0.000000 0.033870 
#    y 0.000000 3.659440 0.000000 
#    z 0.033870 0.000000 3.744180 
# 
# 
# High freq. dielectric constant tensor:
#      x y z
#    x 1.708600 0.000000 0.010060 
#    y 0.000000 1.754160 0.000000 
#    z 0.010060 0.000000 1.750720 
# 
# From -- ./inp_files/280860.got.cif
#   From: 2010.06.25/outbox.cif.g09.slc.cpg/sg12_141_cif.got.tgz:280860.got - 2010.06.28 00:19:55.
