data_PCOD8088267
_publ_section_title
;
Structure prediction by ZEFSAII (Michael W. Deem and Ramdas Pophale) SiO2 
 PCOD8088267
Probable space group: C 2/M
;
_chemical_formula_sum "Si O2"
_cell_formula_units_Z 56
_cell_length_a 19.279854
_cell_length_b 8.940353
_cell_length_c 21.969257
_cell_angle_alpha 90.000000
_cell_angle_beta 125.362506
_cell_angle_gamma 90.000000
_cell_volume 3088.170784
_symmetry_space_group_name_H-M "C 2/M"
_symmetry_group_IT_number 12
_symmetry_cell_setting 'monoclinic'
loop_
_space_group_symop_operation_xyz
x,y,z
-x,y,-z
-x,-y,-z
x,-y,z
1/2+x,1/2+y,z
1/2-x,1/2+y,-z
1/2-x,1/2-y,-z
1/2+x,1/2-y,z
loop_
_atom_site_type_symbol
_atom_site_label
_atom_site_fract_x
_atom_site_fract_y
_atom_site_fract_z
Si Si1 0.989700 0.672684 0.396467
Si Si2 0.943370 0.175017 0.917948
Si Si3 0.458215 0.674750 0.790079
Si Si4 0.745143 0.675313 0.199900
Si Si5 0.136931 0.672417 0.558140
Si Si6 0.590192 0.326498 0.755809
Si Si7 0.213317 0.676382 0.311279
O O1 0.984364 0.500000 0.373846
O O2 0.083255 0.710532 0.470173
O O3 0.920203 0.707659 0.412226
O O4 0.972272 0.775747 0.329741
O O5 0.971223 0.235821 0.865616
O O6 0.843860 0.210145 0.879214
O O7 0.961037 0.000000 0.927779
O O8 0.000000 0.251964 0.000000
O O9 0.433743 0.500000 0.778588
O O10 0.543780 0.705404 0.796178
O O11 0.379871 0.762062 0.719477
O O12 0.757215 0.500000 0.217410
O O13 0.821757 0.735771 0.197547
O O14 0.747963 0.754832 0.266246
O O15 0.164620 0.500000 0.571850
O O16 0.221082 0.774930 0.602407
O O17 0.611032 0.500000 0.757915
O O18 0.209728 0.500000 0.304034
#
# Coordination Sequence:
#
# PCOD8088267 Si02
#       7
#     8   8   8   8   8   8   8
#     4   9  18  31  50  73 100 136 173 213 259 303
#     4   8  15  32  58  81  98 128 175 212 242 296
#     4   9  20  36  53  74 105 140 168 207 261 306
#     4  10  19  32  53  77 104 137 170 208 254 302
#     4   9  17  31  50  73 100 133 173 216 261 302
#     4  11  21  33  50  76 107 137 172 212 255 304
#     4  11  20  31  51  78 102 131 176 220 254 302
#
# _framework density 18.133713
#
# number of rings (size 3 to 8) (size 9 to 14) (size 15 to 20)
#    0.000    2.429    1.429    3.857    0.000    1.714 
#    0.000    2.857    0.000   10.714    0.000    0.000 
#    0.000    0.000    0.000    0.000    0.000    0.000 
#
# Total GULP energy -347160.875381 kJ/mol
# GULP energy per Si atom -12398.602692 kJ/mol
# Density = 1.809244 g / cm^3
# Si number density = 18.133713 Si / 1000 Ang^3
#
#
#
# Elastic Constant Matrix: (Units=GPa)
#
#
# Indices 1 2 3 4 5 6 
#
# 1 97.1887 47.0622 44.2671 0.0000 6.7976 0.0000
# 2 47.0622 82.7159 36.2685 0.0000 6.9351 0.0000
# 3 44.2671 36.2685 106.3447 0.0000 15.0726 0.0000
# 4 0.0000 0.0000 0.0000 11.9645 0.0000 0.0207
# 5 6.7976 6.9351 15.0726 0.0000 22.9358 0.0000
# 6 0.0000 0.0000 0.0000 0.0207 0.0000 25.7622
#
#
#
# Elastic Compliance Matrix: (Units=1/GPa)
#
#
# Indices 1 2 3 4 5 6 
#
# 1 0.015568 -0.007080 -0.004097 0.000000 0.000219 0.000000
# 2 -0.007080 0.017466 -0.002821 0.000000 -0.001329 0.000000
# 3 -0.004097 -0.002821 0.012988 0.000000 -0.006468 0.000000
# 4 0.000000 0.000000 0.000000 0.083581 0.000000 -0.000067
# 5 0.000219 -0.001329 -0.006468 0.000000 0.048187 0.000000
# 6 0.000000 0.000000 0.000000 -0.000067 0.000000 0.038817
#
#
# Mechanical properties :
#
#
# Convention : Reuss Voigt Hill
#
# Bulk Modulus (GPa) = 55.47567 60.16053 57.81810
# Shear Modulus (GPa) = 19.95121 22.70928 21.33025
#
# Velocity S-wave (km/s) = 3.32057 3.54266 3.43341
# Velocity P-wave (km/s) = 6.73502 7.06979 6.90444
#
# Compressibility (1/GPa) = 0.01802592
#
# Stress axis : x y z
#
# Youngs Moduli (GPa) = 64.23325 57.25349 76.99570
#
# Poissons Ratio (x) = 0.40534 0.31545
# Poissons Ratio (y) = 0.45475 0.21724
# Poissons Ratio (z) = 0.26316 0.16154
#
# Static dielectric constant tensor:
#      x y z
#    x 3.264170 0.000000 0.150800 
#    y 0.000000 3.181430 0.000000 
#    z 0.150800 0.000000 3.538760 
# 
# 
# High freq. dielectric constant tensor:
#      x y z
#    x 1.690060 0.000000 0.016690 
#    y 0.000000 1.689000 0.000000 
#    z 0.016690 0.000000 1.693980 
# 
# From -- ./inp_files/314371.got.cif
#   From: 2010.06.25/outbox.cif.g09.slc.cpg/sg12_158_cif.got.tgz:314371.got - 2010.06.28 00:19:55.
