data_PCOD8088312
_publ_section_title
;
Structure prediction by ZEFSAII (Michael W. Deem and Ramdas Pophale) SiO2 
 PCOD8088312
Probable space group: C 2/M
;
_chemical_formula_sum "Si O2"
_cell_formula_units_Z 40
_cell_length_a 22.932970
_cell_length_b 9.054701
_cell_length_c 18.477379
_cell_angle_alpha 90.000000
_cell_angle_beta 144.663637
_cell_angle_gamma 90.000000
_cell_volume 2219.139743
_symmetry_space_group_name_H-M "C 2/M"
_symmetry_group_IT_number 12
_symmetry_cell_setting 'monoclinic'
loop_
_space_group_symop_operation_xyz
x,y,z
-x,y,-z
-x,-y,-z
x,-y,z
1/2+x,1/2+y,z
1/2-x,1/2+y,-z
1/2-x,1/2-y,-z
1/2+x,1/2-y,z
loop_
_atom_site_type_symbol
_atom_site_label
_atom_site_fract_x
_atom_site_fract_y
_atom_site_fract_z
Si Si1 0.899465 0.172261 0.621275
Si Si2 0.883520 0.828465 0.877701
Si Si3 0.191459 0.327544 0.337353
Si Si4 0.402620 0.828647 0.184471
Si Si5 0.194833 0.829939 0.044332
O O1 0.882214 0.244275 0.682197
O O2 0.807309 0.206557 0.474398
O O3 0.999314 0.242769 0.687054
O O4 0.915821 0.000000 0.649913
O O5 0.827082 0.730697 0.761546
O O6 0.829145 0.790643 0.897667
O O7 0.872531 0.000000 0.845947
O O8 0.000000 0.782429 0.000000
O O9 0.167381 0.500000 0.317712
O O10 0.312622 0.797160 0.149668
O O11 0.428661 0.000000 0.205235
O O12 0.373746 0.771577 0.075640
O O13 0.168855 0.000000 0.000244
#
# Coordination Sequence:
#
# PCOD8088312 Si02
#       5
#     8   8   8   8   8
#     4  10  20  35  54  75 102 135 169 209 257 305
#     4  10  20  34  53  76 104 137 167 202 255 310
#     4  10  21  35  53  78 103 130 169 213 255 302
#     4  10  19  32  53  78 103 135 174 213 251 296
#     4   9  19  34  51  76 108 138 170 208 254 305
#
# _framework density 18.025003000000002
#
# number of rings (size 3 to 8) (size 9 to 14) (size 15 to 20)
#    0.000    2.200    0.000    3.000    0.000    6.000 
#    0.000    1.000    0.000    6.000    0.000    0.000 
#    0.000    0.000    0.000    0.000    0.000    0.000 
#
# Total GULP energy -248094.366867 kJ/mol
# GULP energy per Si atom -12404.718343 kJ/mol
# Density = 1.798398 g / cm^3
# Si number density = 18.025003 Si / 1000 Ang^3
#
#
#
# Elastic Constant Matrix: (Units=GPa)
#
#
# Indices 1 2 3 4 5 6 
#
# 1 114.3792 52.8294 68.2568 0.0000 3.0934 0.0000
# 2 52.8294 94.6917 58.5724 0.0000 5.9686 0.0000
# 3 68.2568 58.5724 101.4765 0.0000 7.2766 0.0000
# 4 0.0000 0.0000 0.0000 36.7711 0.0000 0.6015
# 5 3.0934 5.9686 7.2766 0.0000 30.0813 0.0000
# 6 0.0000 0.0000 0.0000 0.6015 0.0000 29.5528
#
#
#
# Elastic Compliance Matrix: (Units=1/GPa)
#
#
# Indices 1 2 3 4 5 6 
#
# 1 0.015304 -0.003409 -0.008408 0.000000 0.001136 0.000000
# 2 -0.003409 0.017213 -0.007553 0.000000 -0.001238 0.000000
# 3 -0.008408 -0.007553 0.020048 0.000000 -0.002486 0.000000
# 4 0.000000 0.000000 0.000000 0.027204 0.000000 -0.000554
# 5 0.001136 -0.001238 -0.002486 0.000000 0.033973 0.000000
# 6 0.000000 0.000000 0.000000 -0.000554 0.000000 0.033849
#
#
# Mechanical properties :
#
#
# Convention : Reuss Voigt Hill
#
# Bulk Modulus (GPa) = 72.33708 74.42942 73.38325
# Shear Modulus (GPa) = 26.18615 28.00697 27.09656
#
# Velocity S-wave (km/s) = 3.81565 3.94608 3.88142
# Velocity P-wave (km/s) = 7.72211 7.88315 7.80304
#
# Compressibility (1/GPa) = 0.01382417
#
# Stress axis : x y z
#
# Youngs Moduli (GPa) = 65.34139 58.09616 49.88033
#
# Poissons Ratio (x) = 0.19807 0.41939
# Poissons Ratio (y) = 0.22277 0.37676
# Poissons Ratio (z) = 0.54938 0.43882
#
# Static dielectric constant tensor:
#      x y z
#    x 3.333280 0.000000 0.190350 
#    y 0.000000 3.388670 0.000000 
#    z 0.190350 0.000000 3.283010 
# 
# 
# High freq. dielectric constant tensor:
#      x y z
#    x 1.693500 0.000000 0.014610 
#    y 0.000000 1.707230 0.000000 
#    z 0.014610 0.000000 1.695140 
# 
# From -- ./inp_files/171866.got.cif
#   From: 2010.06.25/outbox.cif.g09.slc.cpg/sg12_86_cif.got.tgz:171866.got - 2010.06.28 00:19:55.
