data_PCOD8088782
_publ_section_title
;
Structure prediction by ZEFSAII (Michael W. Deem and Ramdas Pophale) SiO2 
 PCOD8088782
Probable space group: C 2/M
;
_chemical_formula_sum "Si O2"
_cell_formula_units_Z 56
_cell_length_a 21.604014
_cell_length_b 8.884621
_cell_length_c 18.211595
_cell_angle_alpha 90.000000
_cell_angle_beta 120.291976
_cell_angle_gamma 90.000000
_cell_volume 3018.329730
_symmetry_space_group_name_H-M "C 2/M"
_symmetry_group_IT_number 12
_symmetry_cell_setting 'monoclinic'
loop_
_space_group_symop_operation_xyz
x,y,z
-x,y,-z
-x,-y,-z
x,-y,z
1/2+x,1/2+y,z
1/2-x,1/2+y,-z
1/2-x,1/2-y,-z
1/2+x,1/2-y,z
loop_
_atom_site_type_symbol
_atom_site_label
_atom_site_fract_x
_atom_site_fract_y
_atom_site_fract_z
Si Si1 0.460404 0.169225 0.045388
Si Si2 0.584365 0.675475 0.759873
Si Si3 0.336846 0.672014 0.622428
Si Si4 0.329660 0.172759 0.471058
Si Si5 0.958732 0.668784 0.760610
Si Si6 0.327845 0.180502 0.061867
Si Si7 0.574462 0.324403 0.583556
O O1 0.521310 0.171892 0.142841
O O2 0.385737 0.237916 0.034226
O O3 0.441303 0.000000 0.009086
O O4 0.500000 0.253508 0.000000
O O5 0.600395 0.500000 0.780324
O O6 0.506482 0.715430 0.743479
O O7 0.645108 0.767128 0.841400
O O8 0.580555 0.720281 0.672325
O O9 0.359858 0.500000 0.644651
O O10 0.359998 0.726445 0.555315
O O11 0.254241 0.699023 0.588006
O O12 0.377451 0.773880 0.706345
O O13 0.363826 0.226342 0.416163
O O14 0.348011 0.000000 0.498729
O O15 0.967582 0.500000 0.734294
O O16 0.323942 0.000000 0.059508
O O17 0.250000 0.250000 0.000000
O O18 0.500000 0.278559 0.500000
O O19 0.589453 0.500000 0.580734
#
# Coordination Sequence:
#
# PCOD8088782 Si02
#       7
#     8   8   8   8   8   8   8
#     4   8  16  33  55  80 108 137 177 226 271 325
#     4  10  20  35  56  81 111 146 185 225 271 329
#     4  10  20  35  53  74 105 141 176 218 268 322
#     4  10  21  35  53  76 104 139 179 223 267 315
#     4  10  19  32  55  82 105 137 179 221 267 319
#     4  10  20  36  59  83 112 148 189 235 286 342
#     4  10  21  36  54  78 108 143 181 223 272 324
#
# _framework density 18.553307
#
# number of rings (size 3 to 8) (size 9 to 14) (size 15 to 20)
#    0.000    2.286    0.000    3.857    0.000    4.286 
#    2.571    0.000    0.000   14.571    0.000    0.000 
#    0.000    0.000    0.000    0.000    0.000    0.000 
#
# Total GULP energy -347072.551474 kJ/mol
# GULP energy per Si atom -12395.448267 kJ/mol
# Density = 1.851108 g / cm^3
# Si number density = 18.553307 Si / 1000 Ang^3
#
#
#
# Elastic Constant Matrix: (Units=GPa)
#
#
# Indices 1 2 3 4 5 6 
#
# 1 99.8110 42.0202 69.5845 0.0000 -14.9357 0.0000
# 2 42.0202 59.6912 47.5081 0.0000 4.2567 0.0000
# 3 69.5845 47.5081 114.3291 0.0000 4.5750 0.0000
# 4 0.0000 0.0000 0.0000 32.0701 0.0000 4.1499
# 5 -14.9357 4.2567 4.5750 0.0000 24.2809 0.0000
# 6 0.0000 0.0000 0.0000 4.1499 0.0000 28.3291
#
#
#
# Elastic Compliance Matrix: (Units=1/GPa)
#
#
# Indices 1 2 3 4 5 6 
#
# 1 0.025716 -0.009606 -0.012454 0.000000 0.019849 0.000000
# 2 -0.009606 0.028765 -0.005711 0.000000 -0.009876 0.000000
# 3 -0.012454 -0.005711 0.019110 0.000000 -0.010260 0.000000
# 4 0.000000 0.000000 0.000000 0.031784 0.000000 -0.004656
# 5 0.019849 -0.009876 -0.010260 0.000000 0.057059 0.000000
# 6 0.000000 0.000000 0.000000 -0.004656 0.000000 0.035982
#
#
# Mechanical properties :
#
#
# Convention : Reuss Voigt Hill
#
# Bulk Modulus (GPa) = 55.40636 65.78409 60.59522
# Shear Modulus (GPa) = 19.23266 24.58393 21.90829
#
# Velocity S-wave (km/s) = 3.22315 3.64406 3.44005
# Velocity P-wave (km/s) = 6.61662 7.29653 6.96488
#
# Compressibility (1/GPa) = 0.01804847
#
# Stress axis : x y z
#
# Youngs Moduli (GPa) = 38.88654 34.76455 52.32759
#
# Poissons Ratio (x) = 0.33396 0.65169
# Poissons Ratio (y) = 0.37355 0.29885
# Poissons Ratio (z) = 0.48429 0.19854
#
# Static dielectric constant tensor:
#      x y z
#    x 3.425800 0.000000 -0.000310 
#    y 0.000000 3.384060 0.000000 
#    z -0.000310 0.000000 3.468020 
# 
# 
# High freq. dielectric constant tensor:
#      x y z
#    x 1.715720 0.000000 0.004600 
#    y 0.000000 1.715940 0.000000 
#    z 0.004600 0.000000 1.721230 
# 
# From -- ./inp_files/281612.got.cif
#   From: 2010.06.25/outbox.cif.g09.slc.cpg/sg12_141_cif.got.tgz:281612.got - 2010.06.28 00:19:55.
