data_PCOD8088938
_publ_section_title
;
Structure prediction by ZEFSAII (Michael W. Deem and Ramdas Pophale) SiO2 
 PCOD8088938
Probable space group: C 2/M
;
_chemical_formula_sum "Si O2"
_cell_formula_units_Z 40
_cell_length_a 10.464882
_cell_length_b 18.006936
_cell_length_c 15.718045
_cell_angle_alpha 90.000000
_cell_angle_beta 41.959152
_cell_angle_gamma 90.000000
_cell_volume 1980.338645
_symmetry_space_group_name_H-M "C 2/M"
_symmetry_group_IT_number 12
_symmetry_cell_setting 'monoclinic'
loop_
_space_group_symop_operation_xyz
x,y,z
-x,y,-z
-x,-y,-z
x,-y,z
1/2+x,1/2+y,z
1/2-x,1/2+y,-z
1/2-x,1/2-y,-z
1/2+x,1/2-y,z
loop_
_atom_site_type_symbol
_atom_site_label
_atom_site_fract_x
_atom_site_fract_y
_atom_site_fract_z
Si Si1 0.704054 0.411858 0.364294
Si Si2 0.388735 0.283933 0.135047
Si Si3 0.637096 0.584344 0.039081
Si Si4 0.040982 0.681878 0.207842
Si Si5 0.806635 0.583015 0.129136
O O1 0.500000 0.385823 0.500000
O O2 0.728109 0.500000 0.363261
O O3 0.726364 0.381150 0.255827
O O4 0.870759 0.368098 0.332747
O O5 0.444236 0.371790 0.110518
O O6 0.161852 0.279720 0.224788
O O7 0.450877 0.245260 0.191700
O O8 0.500000 0.246988 0.000000
O O9 0.629445 0.500000 0.007768
O O10 0.644605 0.584204 0.137905
O O11 0.823168 0.627144 0.912907
O O12 0.865780 0.500000 0.126383
O O13 0.000000 0.623436 0.000000
#
# Coordination Sequence:
#
# PCOD8088938 Si02
#       5
#     8   8   8   8   8
#     4  10  21  36  58  87 116 148 191 238 284 336
#     4  10  23  35  53  85 119 154 185 236 288 335
#     4  10  19  32  56  87 114 145 189 238 288 335
#     4  11  22  36  56  81 116 156 189 233 284 341
#     4   9  16  28  53  85 111 144 181 230 284 329
#
# _framework density 20.198564999999999
#
# number of rings (size 3 to 8) (size 9 to 14) (size 15 to 20)
#    0.000    2.000    2.000    3.000    5.600    4.400 
#    0.000    1.000    0.000    0.000    0.000    5.600 
#    0.000    0.000    0.000    0.000    0.000    0.000 
#
# Total GULP energy -247789.141878 kJ/mol
# GULP energy per Si atom -12389.457094 kJ/mol
# Density = 2.015259 g / cm^3
# Si number density = 20.198565 Si / 1000 Ang^3
#
#
#
# Elastic Constant Matrix: (Units=GPa)
#
#
# Indices 1 2 3 4 5 6 
#
# 1 139.9453 46.9650 45.9837 -0.0004 -26.5857 0.0000
# 2 46.9650 111.0219 14.4427 0.0006 -14.0735 0.0003
# 3 45.9837 14.4427 110.2791 0.0021 -18.4894 0.0020
# 4 -0.0004 0.0006 0.0021 -4.0183 0.0002 2.7676
# 5 -26.5857 -14.0735 -18.4894 0.0002 27.4926 -0.0013
# 6 0.0000 0.0003 0.0020 2.7676 -0.0013 31.7033
#
#
#
# Elastic Compliance Matrix: (Units=1/GPa)
#
#
# Indices 1 2 3 4 5 6 
#
# 1 0.010382 -0.003200 -0.002819 -0.000002 0.006505 0.000001
# 2 -0.003200 0.010642 0.000378 0.000002 0.002607 0.000000
# 3 -0.002819 0.000378 0.011011 0.000006 0.004872 -0.000001
# 4 -0.000002 0.000002 0.000006 -0.234747 0.000005 0.020493
# 5 0.006505 0.002607 0.004872 0.000005 0.047275 0.000001
# 6 0.000001 0.000000 -0.000001 0.020493 0.000001 0.029754
#
#
# Mechanical properties :
#
#
# Convention : Reuss Voigt Hill
#
# Bulk Modulus (GPa) = 48.18925 64.00324 56.09625
# Shear Modulus (GPa) = -46.51932 27.95917 -9.28007
#
# Velocity S-wave (km/s) = -4.80427 3.72454 -2.14579
# Velocity P-wave (km/s) = 2.62014 7.08887 4.65763
#
# Compressibility (1/GPa) = 0.02075152
#
# Stress axis : x y z
#
# Youngs Moduli (GPa) = 96.32219 93.96357 90.81967
#
# Poissons Ratio (x) = 0.30072 0.25604
# Poissons Ratio (y) = 0.30827 -0.03431
# Poissons Ratio (z) = 0.27155 -0.03550
#
# Static dielectric constant tensor:
#      x y z
#    x 3.889570 0.000000 -0.086640 
#    y 0.000000 3.809150 0.000000 
#    z -0.086640 0.000000 3.399870 
# 
# 
# High freq. dielectric constant tensor:
#      x y z
#    x 1.796790 0.000000 -0.006500 
#    y 0.000000 1.804620 0.000000 
#    z -0.006500 0.000000 1.725630 
# 
# From -- ./inp_files/263765.got.cif
#   From: 2010.06.25/outbox.cif.g09.slc.cpg/sg12_132_cif.got.tgz:263765.got - 2010.06.28 00:19:55.
