data_PCOD8088755
_publ_section_title
;
Structure prediction by ZEFSAII (Michael W. Deem and Ramdas Pophale) SiO2 
 PCOD8088755
Probable space group: C 2/M
;
_chemical_formula_sum "Si O2"
_cell_formula_units_Z 48
_cell_length_a 27.852839
_cell_length_b 7.590896
_cell_length_c 11.871234
_cell_angle_alpha 90.000000
_cell_angle_beta 89.999988
_cell_angle_gamma 90.000000
_cell_volume 2509.911311
_symmetry_space_group_name_H-M "C 2/M"
_symmetry_group_IT_number 12
_symmetry_cell_setting 'monoclinic'
loop_
_space_group_symop_operation_xyz
x,y,z
-x,y,-z
-x,-y,-z
x,-y,z
1/2+x,1/2+y,z
1/2-x,1/2+y,-z
1/2-x,1/2-y,-z
1/2+x,1/2-y,z
loop_
_atom_site_type_symbol
_atom_site_label
_atom_site_fract_x
_atom_site_fract_y
_atom_site_fract_z
Si Si1 0.946661 0.708966 0.500000
Si Si2 0.802927 0.794237 0.627371
Si Si3 0.944675 0.000000 0.133114
Si Si4 0.444675 0.500000 0.866886
Si Si5 0.601787 0.200502 0.273027
Si Si6 0.697073 0.705763 0.627371
Si Si7 0.898213 0.299498 0.273027
O O1 0.947248 0.500000 0.500000
O O2 0.919823 0.777385 0.610791
O O3 0.919823 0.777385 0.389209
O O4 0.000000 0.787984 0.500000
O O5 0.840594 0.704582 0.712745
O O6 0.750000 0.750000 0.673215
O O7 0.808796 0.717803 0.500000
O O8 0.812300 0.000000 0.627854
O O9 0.917389 0.824414 0.174014
O O10 1.000000 0.000000 0.174653
O O11 0.941955 0.000000 1.000000
O O12 0.417389 0.324414 0.825986
O O13 0.585337 0.000000 0.247313
O O14 0.687700 0.500000 0.627854
O O15 0.659406 0.795418 0.712745
O O16 0.914663 0.500000 0.247313
#
# Coordination Sequence:
#
# PCOD8088755 Si02
#       7
#     8   8   4   4   8   8   8
#     4   9  18  31  52  85 121 153 188 233 294 368
#     4  10  19  32  54  89 129 164 197 236 291 363
#     4  11  26  45  63  85 115 158 215 265 301 350
#     4  11  26  45  63  85 115 158 215 265 301 350
#     4  11  21  37  61  89 122 158 197 244 306 364
#     4  10  19  32  54  89 129 164 197 236 291 363
#     4  11  21  37  61  89 122 158 197 244 306 364
#
# _framework density 19.124182999999999
#
# number of rings (size 3 to 8) (size 9 to 14) (size 15 to 20)
#    0.000    1.667    3.333    2.000    0.000    4.667 
#    0.000    3.333    0.000    1.000    0.000    0.000 
#    0.000    0.000    0.000    0.000    0.000    0.000 
#
# Total GULP energy -297648.413982 kJ/mol
# GULP energy per Si atom -12402.017249 kJ/mol
# Density = 1.908066 g / cm^3
# Si number density = 19.124183 Si / 1000 Ang^3
#
#
#
# Elastic Constant Matrix: (Units=GPa)
#
#
# Indices 1 2 3 4 5 6 
#
# 1 145.5441 27.2127 43.1411 0.0000 0.0000 0.0000
# 2 27.2127 97.7297 32.7366 0.0000 0.0000 0.0000
# 3 43.1411 32.7366 71.9207 0.0000 0.0000 0.0000
# 4 0.0000 0.0000 0.0000 25.1959 0.0000 0.0000
# 5 0.0000 0.0000 0.0000 0.0000 23.9838 0.0000
# 6 0.0000 0.0000 0.0000 0.0000 0.0000 24.0426
#
#
#
# Elastic Compliance Matrix: (Units=1/GPa)
#
#
# Indices 1 2 3 4 5 6 
#
# 1 0.008405 -0.000769 -0.004692 0.000000 0.000000 0.000000
# 2 -0.000769 0.012143 -0.005066 0.000000 0.000000 0.000000
# 3 -0.004692 -0.005066 0.019025 0.000000 0.000000 0.000000
# 4 0.000000 0.000000 0.000000 0.039689 0.000000 0.000000
# 5 0.000000 0.000000 0.000000 0.000000 0.041695 0.000000
# 6 0.000000 0.000000 0.000000 0.000000 0.000000 0.041593
#
#
# Mechanical properties :
#
#
# Convention : Reuss Voigt Hill
#
# Bulk Modulus (GPa) = 53.99729 57.93060 55.96395
# Shear Modulus (GPa) = 26.34672 28.78473 27.56573
#
# Velocity S-wave (km/s) = 3.71572 3.88383 3.80071
# Velocity P-wave (km/s) = 6.83412 7.10421 6.97047
#
# Compressibility (1/GPa) = 0.01851945
#
# Stress axis : x y z
#
# Youngs Moduli (GPa) = 118.97339 82.34910 52.56345
#
# Poissons Ratio (x) = 0.06331 0.24662
# Poissons Ratio (y) = 0.09147 0.26630
# Poissons Ratio (z) = 0.55821 0.41720
#
# Static dielectric constant tensor:
#      x y z
#    x 3.722540 0.000000 0.000000 
#    y 0.000000 3.375200 0.000000 
#    z 0.000000 0.000000 3.105240 
# 
# 
# High freq. dielectric constant tensor:
#      x y z
#    x 1.760640 0.000000 0.000000 
#    y 0.000000 1.750810 0.000000 
#    z 0.000000 0.000000 1.690340 
# 
# From -- ./inp_files/179298.got.cif
#   From: 2010.06.25/outbox.cif.g09.slc.cpg/sg12_90_cif.got.tgz:179298.got - 2010.06.28 00:19:55.
