data_PCOD8088165
_publ_section_title
;
Structure prediction by ZEFSAII (Michael W. Deem and Ramdas Pophale) SiO2 
 PCOD8088165
Probable space group: C 2/M
;
_chemical_formula_sum "Si O2"
_cell_formula_units_Z 64
_cell_length_a 19.988373
_cell_length_b 9.217421
_cell_length_c 20.940689
_cell_angle_alpha 90.000000
_cell_angle_beta 64.104053
_cell_angle_gamma 90.000000
_cell_volume 3470.737880
_symmetry_space_group_name_H-M "C 2/M"
_symmetry_group_IT_number 12
_symmetry_cell_setting 'monoclinic'
loop_
_space_group_symop_operation_xyz
x,y,z
-x,y,-z
-x,-y,-z
x,-y,z
1/2+x,1/2+y,z
1/2-x,1/2+y,-z
1/2-x,1/2-y,-z
1/2+x,1/2-y,z
loop_
_atom_site_type_symbol
_atom_site_label
_atom_site_fract_x
_atom_site_fract_y
_atom_site_fract_z
Si Si1 0.857406 0.834131 0.948054
Si Si2 0.246598 0.167654 0.775729
Si Si3 0.221001 0.669233 0.915027
Si Si4 0.083949 0.668575 0.290576
Si Si5 0.476285 0.334217 0.800873
Si Si6 0.524993 0.171018 0.557313
Si Si7 0.356864 0.330811 0.297667
Si Si8 0.322106 0.828114 0.442656
O O1 0.798989 0.793659 0.916489
O O2 0.940444 0.807871 0.885846
O O3 0.845504 0.000000 0.974436
O O4 0.846037 0.733491 0.014332
O O5 0.218233 0.260945 0.846642
O O6 0.332057 0.199348 0.723182
O O7 0.202181 0.213067 0.731228
O O8 0.233294 0.000000 0.798659
O O9 0.207582 0.500000 0.912669
O O10 0.067234 0.500000 0.289686
O O11 0.069837 0.738846 0.228681
O O12 0.028626 0.738129 0.366089
O O13 0.464566 0.500000 0.785011
O O14 0.562764 0.293087 0.765352
O O15 0.500000 0.239490 0.500000
O O16 0.610446 0.208428 0.537150
O O17 0.512111 0.000000 0.560648
O O18 0.350092 0.500000 0.319662
O O19 0.342250 0.232123 0.364912
O O20 0.250000 0.750000 0.500000
O O21 0.308406 0.000000 0.443766
#
# Coordination Sequence:
#
# PCOD8088165 Si02
#       8
#     8   8   8   8   8   8   8   8
#     4   9  18  32  52  78 109 144 181 223 278 332
#     4  10  21  35  55  82 112 147 185 226 272 327
#     4  10  19  32  52  80 111 142 182 232 278 321
#     4  10  19  33  56  82 107 139 185 229 268 320
#     4  10  19  35  57  81 110 143 180 227 276 325
#     4   9  19  35  57  83 110 141 181 226 269 318
#     4  10  22  39  59  82 112 148 185 223 271 329
#     4  11  23  39  60  83 112 148 185 225 273 327
#
# _framework density 18.439882999999998
#
# number of rings (size 3 to 8) (size 9 to 14) (size 15 to 20)
#    0.000    2.125    2.500    0.750    1.750    1.500 
#    0.000    0.625    0.000    5.625    0.000    0.000 
#    0.000    0.000    0.000    0.000    0.000    0.000 
#
# Total GULP energy -396838.533718 kJ/mol
# GULP energy per Si atom -12401.204179 kJ/mol
# Density = 1.839791 g / cm^3
# Si number density = 18.439883 Si / 1000 Ang^3
#
#
#
# Elastic Constant Matrix: (Units=GPa)
#
#
# Indices 1 2 3 4 5 6 
#
# 1 104.4738 51.8041 53.5249 0.0000 -7.3186 0.0000
# 2 51.8041 67.4613 54.9631 0.0001 -1.9068 0.0005
# 3 53.5249 54.9631 122.1585 0.0000 -15.7368 0.0000
# 4 0.0000 0.0001 0.0000 33.9782 0.0000 0.4969
# 5 -7.3186 -1.9068 -15.7368 0.0000 32.3532 0.0000
# 6 0.0000 0.0005 0.0000 0.4969 0.0000 18.7677
#
#
#
# Elastic Compliance Matrix: (Units=1/GPa)
#
#
# Indices 1 2 3 4 5 6 
#
# 1 0.015986 -0.010617 -0.001965 0.000000 0.002034 0.000000
# 2 -0.010617 0.030946 -0.009971 0.000000 -0.005428 -0.000001
# 3 -0.001965 -0.009971 0.014296 0.000000 0.005922 0.000000
# 4 0.000000 0.000000 0.000000 0.029442 0.000000 -0.000779
# 5 0.002034 -0.005428 0.005922 0.000000 0.033929 0.000000
# 6 0.000000 -0.000001 0.000000 -0.000779 0.000000 0.053304
#
#
# Mechanical properties :
#
#
# Convention : Reuss Voigt Hill
#
# Bulk Modulus (GPa) = 62.02746 68.29755 65.16250
# Shear Modulus (GPa) = 21.89294 25.93993 23.91644
#
# Velocity S-wave (km/s) = 3.44940 3.75471 3.60529
# Velocity P-wave (km/s) = 7.04097 7.47766 7.26260
#
# Compressibility (1/GPa) = 0.01612189
#
# Stress axis : x y z
#
# Youngs Moduli (GPa) = 62.55641 32.31386 69.94751
#
# Poissons Ratio (x) = 0.34307 0.13747
# Poissons Ratio (y) = 0.66414 0.69746
# Poissons Ratio (z) = 0.12294 0.32221
#
# Static dielectric constant tensor:
#      x y z
#    x 3.414510 0.000000 -0.102290 
#    y 0.000000 3.278550 0.000000 
#    z -0.102290 0.000000 3.608330 
# 
# 
# High freq. dielectric constant tensor:
#      x y z
#    x 1.706510 0.000000 -0.010670 
#    y 0.000000 1.701450 0.000000 
#    z -0.010670 0.000000 1.726230 
# 
# From -- ./inp_files/319861.got.cif
#   From: 2010.06.25/outbox.cif.g09.slc.cpg/sg12_160_cif.got.tgz:319861.got - 2010.06.28 00:19:55.
