data_PCOD8088052
_publ_section_title
;
Structure prediction by ZEFSAII (Michael W. Deem and Ramdas Pophale) SiO2 
 PCOD8088052
Probable space group: C 2/M
;
_chemical_formula_sum "Si O2"
_cell_formula_units_Z 48
_cell_length_a 18.520443
_cell_length_b 8.989570
_cell_length_c 25.394212
_cell_angle_alpha 90.000000
_cell_angle_beta 41.062089
_cell_angle_gamma 90.000000
_cell_volume 2777.210181
_symmetry_space_group_name_H-M "C 2/M"
_symmetry_group_IT_number 12
_symmetry_cell_setting 'monoclinic'
loop_
_space_group_symop_operation_xyz
x,y,z
-x,y,-z
-x,-y,-z
x,-y,z
1/2+x,1/2+y,z
1/2-x,1/2+y,-z
1/2-x,1/2-y,-z
1/2+x,1/2-y,z
loop_
_atom_site_type_symbol
_atom_site_label
_atom_site_fract_x
_atom_site_fract_y
_atom_site_fract_z
Si Si1 0.905215 0.826865 0.010776
Si Si2 0.801455 0.668425 0.256910
Si Si3 0.676641 0.325414 0.153893
Si Si4 0.860315 0.323959 0.721734
Si Si5 0.018643 0.172862 0.146968
Si Si6 0.568592 0.331174 0.413873
O O1 0.945546 0.779060 0.930923
O O2 0.872158 0.000000 0.030838
O O3 0.800661 0.729667 0.082673
O O4 0.000000 0.789091 0.000000
O O5 0.825794 0.500000 0.225246
O O6 0.761830 0.764765 0.227769
O O7 0.699946 0.671354 0.354806
O O8 0.909137 0.738655 0.223726
O O9 0.674805 0.500000 0.165896
O O10 0.611771 0.243128 0.236633
O O11 0.615514 0.283418 0.133455
O O12 0.861346 0.500000 0.723513
O O13 0.949941 0.265056 0.629444
O O14 0.990116 0.000000 0.165656
O O15 0.500000 0.260794 0.500000
O O16 0.528202 0.500000 0.425705
#
# Coordination Sequence:
#
# PCOD8088052 Si02
#       6
#     8   8   8   8   8   8
#     4  10  21  36  54  75 101 135 177 222 268 308
#     4   9  18  32  53  79 104 135 172 209 258 312
#     4  11  22  35  51  74 105 142 181 216 260 308
#     4  10  19  32  52  77 105 135 174 217 258 304
#     4  10  21  35  51  75 108 142 174 216 263 309
#     4   8  16  32  54  81 109 134 166 211 260 309
#
# _framework density 17.283532000000001
#
# number of rings (size 3 to 8) (size 9 to 14) (size 15 to 20)
#    1.000    1.333    0.000    3.500    0.000    4.000 
#    0.000    0.000    0.000    1.000    0.000    0.000 
#    0.000    0.000    0.000    0.000    0.000    0.000 
#
# Total GULP energy -297469.153057 kJ/mol
# GULP energy per Si atom -12394.548044 kJ/mol
# Density = 1.724419 g / cm^3
# Si number density = 17.283532 Si / 1000 Ang^3
#
#
#
# Elastic Constant Matrix: (Units=GPa)
#
#
# Indices 1 2 3 4 5 6 
#
# 1 87.7835 44.9072 55.4592 0.0000 18.7918 -0.0002
# 2 44.9072 96.4045 53.8833 0.0000 11.4870 -0.0005
# 3 55.4592 53.8833 123.6231 0.0000 15.9265 0.0000
# 4 0.0000 0.0000 0.0000 26.2303 0.0000 -3.6768
# 5 18.7918 11.4870 15.9265 0.0000 18.2968 0.0000
# 6 -0.0002 -0.0005 0.0000 -3.6768 0.0000 24.8500
#
#
#
# Elastic Compliance Matrix: (Units=1/GPa)
#
#
# Indices 1 2 3 4 5 6 
#
# 1 0.019884 -0.004850 -0.005145 0.000000 -0.012899 0.000000
# 2 -0.004850 0.015140 -0.004326 0.000000 -0.000759 0.000000
# 3 -0.005145 -0.004326 0.012673 0.000000 -0.003032 0.000000
# 4 0.000000 0.000000 0.000000 0.038931 0.000000 0.005760
# 5 -0.012899 -0.000759 -0.003032 0.000000 0.071018 0.000000
# 6 0.000000 0.000000 0.000000 0.005760 0.000000 0.041094
#
#
# Mechanical properties :
#
#
# Convention : Reuss Voigt Hill
#
# Bulk Modulus (GPa) = 52.47372 68.47893 60.47632
# Shear Modulus (GPa) = 21.39184 24.11284 22.75234
#
# Velocity S-wave (km/s) = 3.52191 3.73920 3.63218
# Velocity P-wave (km/s) = 6.85310 7.63866 7.25652
#
# Compressibility (1/GPa) = 0.01905716
#
# Stress axis : x y z
#
# Youngs Moduli (GPa) = 50.29076 66.04869 78.90764
#
# Poissons Ratio (x) = 0.32034 0.40595
# Poissons Ratio (y) = 0.24391 0.34132
# Poissons Ratio (z) = 0.25873 0.28570
#
# Static dielectric constant tensor:
#      x y z
#    x 3.065260 0.000000 0.101700 
#    y 0.000000 3.169440 0.000000 
#    z 0.101700 0.000000 3.221200 
# 
# 
# High freq. dielectric constant tensor:
#      x y z
#    x 1.644250 0.000000 0.005700 
#    y 0.000000 1.673530 0.000000 
#    z 0.005700 0.000000 1.660060 
# 
# From -- ./inp_files/313589.got.cif
#   From: 2010.06.25/outbox.cif.g09.slc.cpg/sg12_157_cif.got.tgz:313589.got - 2010.06.28 00:19:55.
