data_PCOD8088740
_publ_section_title
;
Structure prediction by ZEFSAII (Michael W. Deem and Ramdas Pophale) SiO2 
 PCOD8088740
Probable space group: C 2/M
;
_chemical_formula_sum "Si O2"
_cell_formula_units_Z 64
_cell_length_a 9.986116
_cell_length_b 28.211556
_cell_length_c 15.633127
_cell_angle_alpha 90.000000
_cell_angle_beta 50.299153
_cell_angle_gamma 90.000000
_cell_volume 3388.567205
_symmetry_space_group_name_H-M "C 2/M"
_symmetry_group_IT_number 12
_symmetry_cell_setting 'monoclinic'
loop_
_space_group_symop_operation_xyz
x,y,z
-x,y,-z
-x,-y,-z
x,-y,z
1/2+x,1/2+y,z
1/2-x,1/2+y,-z
1/2-x,1/2-y,-z
1/2+x,1/2-y,z
loop_
_atom_site_type_symbol
_atom_site_label
_atom_site_fract_x
_atom_site_fract_y
_atom_site_fract_z
Si Si1 0.846846 0.602090 0.500000
Si Si2 0.387136 0.792781 0.259424
Si Si3 0.620889 0.555863 0.724035
Si Si4 0.214953 0.885670 0.130532
Si Si5 0.094015 0.792781 0.259424
Si Si6 0.207879 0.196159 0.500000
Si Si7 0.931042 0.555863 0.724035
Si Si8 0.476017 0.114330 0.869468
O O1 0.673600 0.579080 0.611245
O O2 0.830747 0.658974 0.500000
O O3 0.000000 0.587717 0.500000
O O4 0.896090 0.579080 0.388755
O O5 0.281234 0.775469 0.218766
O O6 0.501229 0.750000 0.248771
O O7 0.241516 0.811795 0.385981
O O8 0.515065 0.835588 0.183447
O O9 0.616771 0.500000 0.714265
O O10 0.427631 0.573528 0.824983
O O11 0.755089 0.570699 0.744911
O O12 0.118041 0.835588 0.183447
O O13 0.339352 0.897531 0.160648
O O14 0.324447 0.881919 0.000000
O O15 0.986522 0.811795 0.385981
O O16 0.250000 0.250000 0.500000
O O17 0.954698 0.500000 0.714266
O O18 0.922403 0.573529 0.824983
#
# Coordination Sequence:
#
# PCOD8088740 Si02
#       8
#     8   8   8   8   8   8   8   8
#     4  10  19  35  60  87 117 151 183 225 286 346
#     4  10  21  36  56  83 114 149 187 231 281 337
#     4  10  21  38  61  88 115 145 187 238 288 339
#     4  10  22  40  59  81 113 153 195 237 282 333
#     4  10  21  36  56  83 114 149 187 231 281 337
#     4  10  19  32  54  85 113 147 180 224 270 341
#     4  10  21  38  61  88 115 145 187 238 288 339
#     4  10  22  40  59  81 113 153 195 237 282 333
#
# _framework density 18.887039000000001
#
# number of rings (size 3 to 8) (size 9 to 14) (size 15 to 20)
#    0.000    2.000    2.500    0.750    0.000    8.500 
#    0.000    3.125    0.000    1.500    0.000    0.000 
#    0.000    0.000    0.000    0.000    0.000    0.000 
#
# Total GULP energy -396656.540722 kJ/mol
# GULP energy per Si atom -12395.516898 kJ/mol
# Density = 1.884405 g / cm^3
# Si number density = 18.887039 Si / 1000 Ang^3
#
#
#
# Elastic Constant Matrix: (Units=GPa)
#
#
# Indices 1 2 3 4 5 6 
#
# 1 76.1326 51.1483 37.4203 0.0000 0.3124 0.0000
# 2 51.1483 117.8223 55.2411 0.0000 0.1177 0.0000
# 3 37.4203 55.2411 116.0080 0.0000 0.8346 0.0000
# 4 0.0000 0.0000 0.0000 23.3612 0.0000 -0.3272
# 5 0.3124 0.1177 0.8346 0.0000 24.8010 0.0000
# 6 0.0000 0.0000 0.0000 -0.3272 0.0000 34.7353
#
#
#
# Elastic Compliance Matrix: (Units=1/GPa)
#
#
# Indices 1 2 3 4 5 6 
#
# 1 0.019259 -0.007014 -0.002871 0.000000 -0.000113 0.000000
# 2 -0.007014 0.013482 -0.004158 0.000000 0.000164 0.000000
# 3 -0.002871 -0.004158 0.011529 0.000000 -0.000332 0.000000
# 4 0.000000 0.000000 0.000000 0.042812 0.000000 0.000403
# 5 -0.000113 0.000164 -0.000332 0.000000 0.040333 0.000000
# 6 0.000000 0.000000 0.000000 0.000403 0.000000 0.028793
#
#
# Mechanical properties :
#
#
# Convention : Reuss Voigt Hill
#
# Bulk Modulus (GPa) = 61.79869 66.39804 64.09836
# Shear Modulus (GPa) = 26.35882 27.65638 27.00760
#
# Velocity S-wave (km/s) = 3.73983 3.83077 3.78558
# Velocity P-wave (km/s) = 7.17214 7.40257 7.28827
#
# Compressibility (1/GPa) = 0.01618157
#
# Stress axis : x y z
#
# Youngs Moduli (GPa) = 51.92311 74.17355 86.73838
#
# Poissons Ratio (x) = 0.52027 0.24907
# Poissons Ratio (y) = 0.36420 0.36070
# Poissons Ratio (z) = 0.14910 0.30845
#
# Static dielectric constant tensor:
#      x y z
#    x 3.353570 0.000000 0.013440 
#    y 0.000000 3.338040 0.000000 
#    z 0.013440 0.000000 3.820990 
# 
# 
# High freq. dielectric constant tensor:
#      x y z
#    x 1.722660 0.000000 0.000500 
#    y 0.000000 1.732740 0.000000 
#    z 0.000500 0.000000 1.739960 
# 
# From -- ./inp_files/201264.got.cif
#   From: 2010.06.25/outbox.cif.g09.slc.cpg/sg12_101_cif.got.tgz:201264.got - 2010.06.28 00:19:55.
