data_PCOD8088847
_publ_section_title
;
Structure prediction by ZEFSAII (Michael W. Deem and Ramdas Pophale) SiO2 
 PCOD8088847
Probable space group: C 2/M
;
_chemical_formula_sum "Si O2"
_cell_formula_units_Z 44
_cell_length_a 17.845076
_cell_length_b 19.991188
_cell_length_c 8.119006
_cell_angle_alpha 90.000000
_cell_angle_beta 50.199964
_cell_angle_gamma 90.000000
_cell_volume 2225.262041
_symmetry_space_group_name_H-M "C 2/M"
_symmetry_group_IT_number 12
_symmetry_cell_setting 'monoclinic'
loop_
_space_group_symop_operation_xyz
x,y,z
-x,y,-z
-x,-y,-z
x,-y,z
1/2+x,1/2+y,z
1/2-x,1/2+y,-z
1/2-x,1/2-y,-z
1/2+x,1/2-y,z
loop_
_atom_site_type_symbol
_atom_site_label
_atom_site_fract_x
_atom_site_fract_y
_atom_site_fract_z
Si Si1 0.074396 0.356187 0.243470
Si Si2 0.092665 0.000000 0.745869
Si Si3 0.797493 0.860612 0.960780
Si Si4 0.287492 0.500000 0.118936
Si Si5 0.465947 0.276375 0.864511
Si Si6 0.417931 0.000000 0.745799
Si Si7 0.081627 0.119937 0.508848
O O1 0.039225 0.303140 0.158266
O O2 0.076476 0.431020 0.156980
O O3 0.000000 0.353501 0.500000
O O4 0.184776 0.341691 0.149968
O O5 0.190393 0.000000 0.717695
O O6 0.098427 0.066020 0.627198
O O7 0.000000 0.000000 0.000000
O O8 0.859563 0.806676 0.975905
O O9 0.820807 0.861967 0.731599
O O10 0.832537 0.933246 0.975791
O O11 0.173868 0.500000 0.245788
O O12 0.545490 0.309731 0.633726
O O13 0.500000 0.290868 0.000000
O O14 0.500000 0.000000 0.500000
O O15 0.000000 0.091020 0.500000
#
# Coordination Sequence:
#
# PCOD8088847 Si02
#       7
#     8   4   8   4   8   4   8
#     4  10  20  39  62  81 103 142 190 232 275 331
#     4  12  20  31  53  88 125 151 173 219 273 326
#     4  10  20  37  58  81 111 151 188 223 270 332
#     4  10  19  32  55  85 110 141 184 224 268 322
#     4  11  22  36  54  84 116 144 181 229 277 330
#     4   8  18  37  60  77  96 134 184 229 270 318
#     4  10  20  34  53  80 117 157 185 213 264 337
#
# _framework density 19.772950999999999
#
# number of rings (size 3 to 8) (size 9 to 14) (size 15 to 20)
#    0.000    1.818    0.000    6.818    0.000    0.000 
#    0.000    9.545    0.000    0.000    0.000    0.000 
#    0.000    0.000    0.000    0.000    0.000    0.000 
#
# Total GULP energy -272647.568474 kJ/mol
# GULP energy per Si atom -12393.071294 kJ/mol
# Density = 1.972795 g / cm^3
# Si number density = 19.772951 Si / 1000 Ang^3
#
#
#
# Elastic Constant Matrix: (Units=GPa)
#
#
# Indices 1 2 3 4 5 6 
#
# 1 70.4869 54.0457 62.2894 0.0000 12.4403 0.0000
# 2 54.0457 155.0090 38.3443 0.0000 5.0331 0.0000
# 3 62.2894 38.3443 115.1000 0.0000 -8.4474 0.0000
# 4 0.0000 0.0000 0.0000 19.6273 0.0000 -0.1080
# 5 12.4403 5.0331 -8.4474 0.0000 30.2956 0.0000
# 6 0.0000 0.0000 0.0000 -0.1080 0.0000 20.1411
#
#
#
# Elastic Compliance Matrix: (Units=1/GPa)
#
#
# Indices 1 2 3 4 5 6 
#
# 1 0.047373 -0.009733 -0.024199 0.000000 -0.024583 0.000000
# 2 -0.009733 0.009134 0.002456 0.000000 0.003164 0.000000
# 3 -0.024199 0.002456 0.022118 0.000000 0.015696 0.000000
# 4 0.000000 0.000000 0.000000 0.050951 0.000000 0.000273
# 5 -0.024583 0.003164 0.015696 0.000000 0.046954 0.000000
# 6 0.000000 0.000000 0.000000 0.000273 0.000000 0.049651
#
#
# Mechanical properties :
#
#
# Convention : Reuss Voigt Hill
#
# Bulk Modulus (GPa) = 63.79937 72.21719 68.00828
# Shear Modulus (GPa) = 16.98619 26.40724 21.69671
#
# Velocity S-wave (km/s) = 2.93416 3.65845 3.31613
# Velocity P-wave (km/s) = 6.61929 7.37890 7.00939
#
# Compressibility (1/GPa) = 0.01567414
#
# Stress axis : x y z
#
# Youngs Moduli (GPa) = 21.10896 109.47675 45.21272
#
# Poissons Ratio (x) = 1.06553 1.09411
# Poissons Ratio (y) = 0.20545 -0.11106
# Poissons Ratio (z) = 0.51082 -0.26892
#
# Static dielectric constant tensor:
#      x y z
#    x 3.483530 0.000000 -0.063850 
#    y 0.000000 4.680600 0.000000 
#    z -0.063850 0.000000 3.593580 
# 
# 
# High freq. dielectric constant tensor:
#      x y z
#    x 1.748250 0.000000 -0.014250 
#    y 0.000000 1.791530 0.000000 
#    z -0.014250 0.000000 1.764670 
# 
# From -- ./inp_files/75735.got.cif
#   From: 2010.06.25/outbox.cif.g09.slc.cpg/sg12_38_cif.got.tgz:75735.got - 2010.06.28 00:19:55.
