data_PCOD8088904
_publ_section_title
;
Structure prediction by ZEFSAII (Michael W. Deem and Ramdas Pophale) SiO2 
 PCOD8088904
Probable space group: C 2/M
;
_chemical_formula_sum "Si O2"
_cell_formula_units_Z 40
_cell_length_a 12.475798
_cell_length_b 16.894070
_cell_length_c 10.460971
_cell_angle_alpha 90.000000
_cell_angle_beta 74.398073
_cell_angle_gamma 90.000000
_cell_volume 2123.587395
_symmetry_space_group_name_H-M "C 2/M"
_symmetry_group_IT_number 12
_symmetry_cell_setting 'monoclinic'
loop_
_space_group_symop_operation_xyz
x,y,z
-x,y,-z
-x,-y,-z
x,-y,z
1/2+x,1/2+y,z
1/2-x,1/2+y,-z
1/2-x,1/2-y,-z
1/2+x,1/2-y,z
loop_
_atom_site_type_symbol
_atom_site_label
_atom_site_fract_x
_atom_site_fract_y
_atom_site_fract_z
Si Si1 0.065376 0.089656 0.360718
Si Si2 0.261763 0.827369 0.677321
Si Si3 0.049822 0.094219 0.851659
Si Si4 0.785761 0.350107 0.374124
Si Si5 0.020648 0.411133 0.344099
O O1 0.028269 0.127385 0.237919
O O2 0.198286 0.092117 0.333382
O O3 0.000000 0.133106 0.500000
O O4 0.023704 0.000000 0.371265
O O5 0.239096 0.734345 0.681232
O O6 0.260231 0.857512 0.532452
O O7 0.378350 0.849478 0.709245
O O8 0.171811 0.871278 0.792157
O O9 0.057527 0.000000 0.853036
O O10 0.000000 0.127075 0.000000
O O11 0.911899 0.377207 0.305716
O O12 0.047645 0.500000 0.283718
O O13 0.000000 0.416764 0.500000
#
# Coordination Sequence:
#
# PCOD8088904 Si02
#       5
#     8   8   8   8   8
#     4  10  19  32  56  82 109 141 181 233 276 319
#     4  10  20  32  53  80 111 143 179 228 277 331
#     4  10  21  37  57  81 111 148 187 226 273 331
#     4  10  20  31  53  82 114 138 176 231 285 326
#     4   9  18  31  49  76 110 146 180 219 275 338
#
# _framework density 18.836051000000001
#
# number of rings (size 3 to 8) (size 9 to 14) (size 15 to 20)
#    0.000    2.200    2.000    1.200    2.800    2.400 
#    0.000    1.000    0.000    0.000    0.000    5.600 
#    0.000    0.000    0.000    0.000    0.000    0.000 
#
# Total GULP energy -247898.285945 kJ/mol
# GULP energy per Si atom -12394.914297 kJ/mol
# Density = 1.879318 g / cm^3
# Si number density = 18.836051 Si / 1000 Ang^3
#
#
#
# Elastic Constant Matrix: (Units=GPa)
#
#
# Indices 1 2 3 4 5 6 
#
# 1 167.1369 40.2068 55.8613 0.0000 -17.1188 0.0000
# 2 40.2068 68.1556 26.5291 0.0000 -7.4054 0.0000
# 3 55.8613 26.5291 93.4149 0.0000 1.2724 0.0000
# 4 0.0000 0.0000 0.0000 9.5052 0.0000 -11.0092
# 5 -17.1188 -7.4054 1.2724 0.0000 24.3032 0.0000
# 6 0.0000 0.0000 0.0000 -11.0092 0.0000 28.9781
#
#
#
# Elastic Compliance Matrix: (Units=1/GPa)
#
#
# Indices 1 2 3 4 5 6 
#
# 1 0.008726 -0.002795 -0.004499 0.000000 0.005530 0.000000
# 2 -0.002795 0.018096 -0.003518 0.000000 0.003729 0.000000
# 3 -0.004499 -0.003518 0.014463 0.000000 -0.004999 0.000000
# 4 0.000000 0.000000 0.000000 0.187876 0.000000 0.071377
# 5 0.005530 0.003729 -0.004999 0.000000 0.046440 0.000000
# 6 0.000000 0.000000 0.000000 0.071377 0.000000 0.061626
#
#
# Mechanical properties :
#
#
# Convention : Reuss Voigt Hill
#
# Bulk Modulus (GPa) = 50.86872 63.76686 57.31779
# Shear Modulus (GPa) = 13.68340 26.29799 19.99069
#
# Velocity S-wave (km/s) = 2.69819 3.74057 3.26129
# Velocity P-wave (km/s) = 6.06396 7.25141 6.68411
#
# Compressibility (1/GPa) = 0.01965845
#
# Stress axis : x y z
#
# Youngs Moduli (GPa) = 114.60257 55.26073 69.14287
#
# Poissons Ratio (x) = 0.15447 0.31110
# Poissons Ratio (y) = 0.32035 0.24327
# Poissons Ratio (z) = 0.51565 0.19443
#
# Static dielectric constant tensor:
#      x y z
#    x 3.633520 0.000000 -0.032030 
#    y 0.000000 3.378350 0.000000 
#    z -0.032030 0.000000 3.204620 
# 
# 
# High freq. dielectric constant tensor:
#      x y z
#    x 1.745890 0.000000 -0.011060 
#    y 0.000000 1.722230 0.000000 
#    z -0.011060 0.000000 1.681640 
# 
# From -- ./inp_files/46969.got.cif
#   From: 2010.06.25/outbox.cif.g09.slc.cpg/sg12_24_cif.got.tgz:46969.got - 2010.06.28 00:19:55.
