data_PCOD8088090
_publ_section_title
;
Structure prediction by ZEFSAII (Michael W. Deem and Ramdas Pophale) SiO2 
 PCOD8088090
Probable space group: C 2/M
;
_chemical_formula_sum "Si O2"
_cell_formula_units_Z 48
_cell_length_a 27.594191
_cell_length_b 8.517999
_cell_length_c 11.908358
_cell_angle_alpha 90.000000
_cell_angle_beta 71.585826
_cell_angle_gamma 90.000000
_cell_volume 2655.711207
_symmetry_space_group_name_H-M "C 2/M"
_symmetry_group_IT_number 12
_symmetry_cell_setting 'monoclinic'
loop_
_space_group_symop_operation_xyz
x,y,z
-x,y,-z
-x,-y,-z
x,-y,z
1/2+x,1/2+y,z
1/2-x,1/2+y,-z
1/2-x,1/2-y,-z
1/2+x,1/2-y,z
loop_
_atom_site_type_symbol
_atom_site_label
_atom_site_fract_x
_atom_site_fract_y
_atom_site_fract_z
Si Si1 0.195160 0.685422 0.003364
Si Si2 0.056447 0.186018 0.470112
Si Si3 0.144730 0.184902 0.243769
Si Si4 0.210406 0.681662 0.382578
Si Si5 0.368821 0.682759 0.395751
Si Si6 0.814073 0.682670 0.245433
O O1 0.195340 0.500000 0.017751
O O2 0.149726 0.761308 0.111180
O O3 0.250000 0.750000 0.000000
O O4 0.180969 0.735560 0.887102
O O5 0.090113 0.234759 0.336700
O O6 0.083148 0.246307 0.565640
O O7 0.000000 0.261283 0.500000
O O8 0.052640 0.000000 0.478807
O O9 0.190072 0.275086 0.274036
O O10 0.153722 0.000000 0.249653
O O11 0.200990 0.500000 0.417516
O O12 0.182094 0.788063 0.494584
O O13 0.270096 0.719807 0.340318
O O14 0.374912 0.500000 0.365893
O O15 0.365287 0.774575 0.279058
O O16 0.801407 0.500000 0.262451
#
# Coordination Sequence:
#
# PCOD8088090 Si02
#       6
#     8   8   8   8   8   8
#     4  11  22  34  51  72 103 143 180 214 248 300
#     4   8  16  33  57  81 102 127 163 214 268 311
#     4  10  19  32  52  78 106 134 172 216 257 304
#     4  11  20  31  49  71 102 139 173 209 250 303
#     4  10  20  33  51  75 102 131 168 213 260 309
#     4  11  22  34  48  69 102 140 175 209 250 302
#
# _framework density 18.074254
#
# number of rings (size 3 to 8) (size 9 to 14) (size 15 to 20)
#    0.000    1.833    1.667    5.000    0.000    2.000 
#    0.000    0.000    0.000   19.000    0.000    7.000 
#    0.000    0.000    0.000    0.000    0.000    0.000 
#
# Total GULP energy -297556.295016 kJ/mol
# GULP energy per Si atom -12398.178959 kJ/mol
# Density = 1.803312 g / cm^3
# Si number density = 18.074254 Si / 1000 Ang^3
#
#
#
# Elastic Constant Matrix: (Units=GPa)
#
#
# Indices 1 2 3 4 5 6 
#
# 1 114.0564 20.9507 70.7233 0.0000 7.6376 0.0000
# 2 20.9507 49.8080 17.8990 0.0000 4.0271 0.0000
# 3 70.7233 17.8990 118.5613 0.0000 21.0922 0.0000
# 4 0.0000 0.0000 0.0000 30.2821 0.0000 4.5296
# 5 7.6376 4.0271 21.0922 0.0000 23.4759 0.0000
# 6 0.0000 0.0000 0.0000 4.5296 0.0000 16.6459
#
#
#
# Elastic Compliance Matrix: (Units=1/GPa)
#
#
# Indices 1 2 3 4 5 6 
#
# 1 0.014643 -0.003262 -0.008920 0.000000 0.003810 0.000000
# 2 -0.003262 0.021972 -0.001059 0.000000 -0.001757 0.000000
# 3 -0.008920 -0.001059 0.015909 0.000000 -0.011210 0.000000
# 4 0.000000 0.000000 0.000000 0.034424 0.000000 -0.009367
# 5 0.003810 -0.001757 -0.011210 0.000000 0.051731 0.000000
# 6 0.000000 0.000000 0.000000 -0.009367 0.000000 0.062624
#
#
# Mechanical properties :
#
#
# Convention : Reuss Voigt Hill
#
# Bulk Modulus (GPa) = 38.39835 55.73019 47.06427
# Shear Modulus (GPa) = 21.14486 25.60429 23.37458
#
# Velocity S-wave (km/s) = 3.42407 3.76788 3.60008
# Velocity P-wave (km/s) = 6.07645 7.05905 6.58610
#
# Compressibility (1/GPa) = 0.02604279
#
# Stress axis : x y z
#
# Youngs Moduli (GPa) = 68.29407 45.51328 62.85570
#
# Poissons Ratio (x) = 0.14845 0.56066
# Poissons Ratio (y) = 0.22275 0.06656
# Poissons Ratio (z) = 0.60917 0.04819
#
# Static dielectric constant tensor:
#      x y z
#    x 3.625640 0.000000 0.146970 
#    y 0.000000 3.213310 0.000000 
#    z 0.146970 0.000000 3.552060 
# 
# 
# High freq. dielectric constant tensor:
#      x y z
#    x 1.668460 0.000000 0.019290 
#    y 0.000000 1.696690 0.000000 
#    z 0.019290 0.000000 1.700640 
# 
# From -- ./inp_files/179231.got.cif
#   From: 2010.06.25/outbox.cif.g09.slc.cpg/sg12_90_cif.got.tgz:179231.got - 2010.06.28 00:19:55.
