data_PCOD8088422
_publ_section_title
;
Structure prediction by ZEFSAII (Michael W. Deem and Ramdas Pophale) SiO2 
 PCOD8088422
Probable space group: C 2/M
;
_chemical_formula_sum "Si O2"
_cell_formula_units_Z 56
_cell_length_a 33.434143
_cell_length_b 8.893181
_cell_length_c 12.528379
_cell_angle_alpha 90.000000
_cell_angle_beta 121.542329
_cell_angle_gamma 90.000000
_cell_volume 3174.762322
_symmetry_space_group_name_H-M "C 2/M"
_symmetry_group_IT_number 12
_symmetry_cell_setting 'monoclinic'
loop_
_space_group_symop_operation_xyz
x,y,z
-x,y,-z
-x,-y,-z
x,-y,z
1/2+x,1/2+y,z
1/2-x,1/2+y,-z
1/2-x,1/2-y,-z
1/2+x,1/2-y,z
loop_
_atom_site_type_symbol
_atom_site_label
_atom_site_fract_x
_atom_site_fract_y
_atom_site_fract_z
Si Si1 0.950096 0.324775 0.882894
Si Si2 0.115235 0.324892 0.012685
Si Si3 0.403321 0.825192 0.402251
Si Si4 0.305007 0.827677 0.168958
Si Si5 0.048792 0.823045 0.337720
Si Si6 0.298416 0.673272 0.938363
Si Si7 0.055648 0.177560 0.745701
O O1 0.950651 0.500000 0.852941
O O2 0.938467 0.227256 0.763500
O O3 0.910195 0.285381 0.912767
O O4 0.000000 0.274846 0.000000
O O5 0.112024 0.500000 0.982508
O O6 0.092385 0.238644 0.882126
O O7 0.169329 0.271285 0.096573
O O8 0.347972 0.796613 0.308123
O O9 0.415065 0.757630 0.533332
O O10 0.434496 0.744512 0.356486
O O11 0.415845 0.000000 0.416811
O O12 0.256359 0.795127 0.163796
O O13 0.305441 0.000000 0.127602
O O14 0.309722 0.717460 0.075770
O O15 0.996109 0.771506 0.291600
O O16 0.055089 0.000000 0.357486
O O17 0.311396 0.500000 0.940469
O O18 0.060285 0.000000 0.745707
#
# Coordination Sequence:
#
# PCOD8088422 Si02
#       7
#     8   8   8   8   8   8   8
#     4  10  21  38  58  78 104 142 185 225 266 317
#     4  11  21  34  55  81 110 141 179 223 267 320
#     4  11  22  36  56  79 109 147 184 220 263 321
#     4   9  19  34  52  78 109 142 179 218 265 323
#     4  11  24  38  54  78 111 145 182 225 269 320
#     4  10  19  32  53  80 110 141 174 220 273 321
#     4  11  22  35  52  79 112 145 179 218 268 321
#
# _framework density 17.639115
#
# number of rings (size 3 to 8) (size 9 to 14) (size 15 to 20)
#    0.000    1.571    2.857    2.571    0.000    6.000 
#    0.000    0.000    0.000    0.857    0.000    0.000 
#    0.000    0.000    0.000    0.000    0.000    0.000 
#
# Total GULP energy -347320.300928 kJ/mol
# GULP energy per Si atom -12404.296462 kJ/mol
# Density = 1.759897 g / cm^3
# Si number density = 17.639115 Si / 1000 Ang^3
#
#
#
# Elastic Constant Matrix: (Units=GPa)
#
#
# Indices 1 2 3 4 5 6 
#
# 1 126.7725 44.5050 48.4275 0.0000 -0.1286 0.0000
# 2 44.5050 65.7088 32.5476 0.0000 -3.2414 0.0000
# 3 48.4275 32.5476 81.9058 0.0000 -9.0015 0.0000
# 4 0.0000 0.0000 0.0000 21.1070 0.0000 -1.5879
# 5 -0.1286 -3.2414 -9.0015 0.0000 20.0034 0.0000
# 6 0.0000 0.0000 0.0000 -1.5879 0.0000 30.5948
#
#
#
# Elastic Compliance Matrix: (Units=1/GPa)
#
#
# Indices 1 2 3 4 5 6 
#
# 1 0.011804 -0.005630 -0.005085 0.000000 -0.003125 0.000000
# 2 -0.005630 0.021636 -0.005142 0.000000 0.001156 0.000000
# 3 -0.005085 -0.005142 0.018057 0.000000 0.007260 0.000000
# 4 0.000000 0.000000 0.000000 0.047563 0.000000 0.002469
# 5 -0.003125 0.001156 0.007260 0.000000 0.053426 0.000000
# 6 0.000000 0.000000 0.000000 0.002469 0.000000 0.032813
#
#
# Mechanical properties :
#
#
# Convention : Reuss Voigt Hill
#
# Bulk Modulus (GPa) = 50.54993 58.37192 54.46093
# Shear Modulus (GPa) = 22.36054 24.26818 23.31436
#
# Velocity S-wave (km/s) = 3.56430 3.71322 3.63952
# Velocity P-wave (km/s) = 6.75715 7.17971 6.97163
#
# Compressibility (1/GPa) = 0.01978242
#
# Stress axis : x y z
#
# Youngs Moduli (GPa) = 84.71571 46.21939 55.38020
#
# Poissons Ratio (x) = 0.26023 0.28163
# Poissons Ratio (y) = 0.47697 0.28475
# Poissons Ratio (z) = 0.43081 0.23765
#
# Static dielectric constant tensor:
#      x y z
#    x 3.552550 0.000000 0.123140 
#    y 0.000000 3.347450 0.000000 
#    z 0.123140 0.000000 3.069920 
# 
# 
# High freq. dielectric constant tensor:
#      x y z
#    x 1.688490 0.000000 0.007980 
#    y 0.000000 1.694560 0.000000 
#    z 0.007980 0.000000 1.657900 
# 
# From -- ./inp_files/186396.got.cif
#   From: 2010.06.25/outbox.cif.g09.slc.cpg/sg12_94_cif.got.tgz:186396.got - 2010.06.28 00:19:55.
