data_PCOD8088121
_publ_section_title
;
Structure prediction by ZEFSAII (Michael W. Deem and Ramdas Pophale) SiO2 
 PCOD8088121
Probable space group: C 2/M
;
_chemical_formula_sum "Si O2"
_cell_formula_units_Z 64
_cell_length_a 19.707963
_cell_length_b 27.110550
_cell_length_c 13.854697
_cell_angle_alpha 90.000000
_cell_angle_beta 151.023902
_cell_angle_gamma 90.000000
_cell_volume 3586.091120
_symmetry_space_group_name_H-M "C 2/M"
_symmetry_group_IT_number 12
_symmetry_cell_setting 'monoclinic'
loop_
_space_group_symop_operation_xyz
x,y,z
-x,y,-z
-x,-y,-z
x,-y,z
1/2+x,1/2+y,z
1/2-x,1/2+y,-z
1/2-x,1/2-y,-z
1/2+x,1/2-y,z
loop_
_atom_site_type_symbol
_atom_site_label
_atom_site_fract_x
_atom_site_fract_y
_atom_site_fract_z
Si Si1 0.932657 0.782289 0.516434
Si Si2 0.931813 0.056870 0.516008
Si Si3 0.084068 0.862564 0.819293
Si Si4 0.431487 0.831921 0.514659
Si Si5 0.118413 0.831606 0.072554
Si Si6 0.119407 0.282474 0.074430
Si Si7 0.118520 0.443073 0.072186
Si Si8 0.881102 0.637310 0.086325
O O1 0.968533 0.725315 0.578973
O O2 0.767366 0.792444 0.309701
O O3 0.000000 0.800693 0.500000
O O4 0.998023 0.813734 0.684039
O O5 0.766799 0.067445 0.307133
O O6 0.000000 0.073553 0.500000
O O7 0.998273 0.088711 0.684030
O O8 0.965679 0.000000 0.579962
O O9 0.103299 0.864097 0.957995
O O10 0.233487 0.861973 0.955199
O O11 0.500000 0.849566 0.500000
O O12 0.266414 0.841692 0.307528
O O13 0.495725 0.863492 0.681535
O O14 0.104178 0.774399 0.025581
O O15 0.000000 0.848083 0.000000
O O16 0.104413 0.313878 0.959448
O O17 0.000000 0.299057 0.000000
O O18 0.104253 0.500000 0.024154
O O19 0.102042 0.411971 0.954767
O O20 0.000000 0.426993 0.000000
#
# Coordination Sequence:
#
# PCOD8088121 Si02
#       8
#     8   8   8   8   8   8   8   8
#     4  10  19  32  52  79 109 139 179 222 267 321
#     4  10  20  36  58  86 114 135 167 217 272 328
#     4  12  21  33  58  82 104 143 187 221 261 319
#     4  10  21  35  52  76 107 145 185 225 261 305
#     4  10  23  39  52  74 111 147 182 227 268 304
#     4  10  21  35  51  79 114 141 174 224 274 319
#     4  10  22  39  58  85 117 139 163 214 278 329
#     4  12  21  33  58  82 105 143 187 218 261 321
#
# _framework density 17.846730999999998
#
# number of rings (size 3 to 8) (size 9 to 14) (size 15 to 20)
#    0.000    1.500    3.750    2.250    0.000    3.000 
#    0.000    3.750    0.000    1.500    0.000    0.000 
#    0.000    0.000    0.000    0.000    0.000    0.000 
#
# Total GULP energy -396975.776284 kJ/mol
# GULP energy per Si atom -12405.493009 kJ/mol
# Density = 1.780611 g / cm^3
# Si number density = 17.846731 Si / 1000 Ang^3
#
#
#
# Elastic Constant Matrix: (Units=GPa)
#
#
# Indices 1 2 3 4 5 6 
#
# 1 136.9259 45.9874 71.7846 0.0000 12.8979 0.0000
# 2 45.9874 71.2078 50.9127 0.0000 -12.2120 0.0000
# 3 71.7846 50.9127 119.7183 0.0000 -1.7230 0.0000
# 4 0.0000 0.0000 0.0000 36.6525 0.0000 -7.4658
# 5 12.8979 -12.2120 -1.7230 0.0000 37.8283 0.0000
# 6 0.0000 0.0000 0.0000 -7.4658 0.0000 23.0387
#
#
#
# Elastic Compliance Matrix: (Units=1/GPa)
#
#
# Indices 1 2 3 4 5 6 
#
# 1 0.012448 -0.005320 -0.005291 0.000000 -0.006203 0.000000
# 2 -0.005320 0.023980 -0.006875 0.000000 0.009242 0.000000
# 3 -0.005291 -0.006875 0.014453 0.000000 0.000243 0.000000
# 4 0.000000 0.000000 0.000000 0.029211 0.000000 0.009466
# 5 -0.006203 0.009242 0.000243 0.000000 0.031545 0.000000
# 6 0.000000 0.000000 0.000000 0.009466 0.000000 0.046473
#
#
# Mechanical properties :
#
#
# Convention : Reuss Voigt Hill
#
# Bulk Modulus (GPa) = 62.85838 73.91349 68.38594
# Shear Modulus (GPa) = 25.20373 30.11507 27.65940
#
# Velocity S-wave (km/s) = 3.76205 4.11229 3.94106
# Velocity P-wave (km/s) = 7.35991 8.00334 7.68836
#
# Compressibility (1/GPa) = 0.01590878
#
# Stress axis : x y z
#
# Youngs Moduli (GPa) = 80.33413 41.70207 69.19212
#
# Poissons Ratio (x) = 0.22186 0.36608
# Poissons Ratio (y) = 0.42738 0.47568
# Poissons Ratio (z) = 0.42503 0.28669
#
# Static dielectric constant tensor:
#      x y z
#    x 3.389320 0.000000 0.132110 
#    y 0.000000 3.175890 0.000000 
#    z 0.132110 0.000000 3.384040 
# 
# 
# High freq. dielectric constant tensor:
#      x y z
#    x 1.692190 0.000000 0.015320 
#    y 0.000000 1.671910 0.000000 
#    z 0.015320 0.000000 1.696810 
# 
# From -- ./inp_files/161246.got.cif
#   From: 2010.06.25/outbox.cif.g09.slc.cpg/sg12_81_cif.got.tgz:161246.got - 2010.06.28 00:19:55.
