data_PCOD8088083
_publ_section_title
;
Structure prediction by ZEFSAII (Michael W. Deem and Ramdas Pophale) SiO2 
 PCOD8088083
Probable space group: C 2/M
;
_chemical_formula_sum "Si O2"
_cell_formula_units_Z 64
_cell_length_a 20.800498
_cell_length_b 9.242724
_cell_length_c 23.469232
_cell_angle_alpha 90.000000
_cell_angle_beta 127.679238
_cell_angle_gamma 90.000000
_cell_volume 3571.029005
_symmetry_space_group_name_H-M "C 2/M"
_symmetry_group_IT_number 12
_symmetry_cell_setting 'monoclinic'
loop_
_space_group_symop_operation_xyz
x,y,z
-x,y,-z
-x,-y,-z
x,-y,z
1/2+x,1/2+y,z
1/2-x,1/2+y,-z
1/2-x,1/2-y,-z
1/2+x,1/2-y,z
loop_
_atom_site_type_symbol
_atom_site_label
_atom_site_fract_x
_atom_site_fract_y
_atom_site_fract_z
Si Si1 0.795222 0.329761 0.316603
Si Si2 0.464146 0.332609 0.417993
Si Si3 0.261640 0.170594 0.822987
Si Si4 0.124958 0.831700 0.444435
Si Si5 0.413043 0.844187 0.977131
Si Si6 0.694292 0.836439 0.888091
Si Si7 0.863819 0.838631 0.046011
Si Si8 0.756291 0.833476 0.586726
O O1 0.800155 0.500000 0.305779
O O2 0.886355 0.268633 0.368614
O O3 0.745302 0.246164 0.241506
O O4 0.743010 0.300025 0.345656
O O5 0.500000 0.307375 0.500000
O O6 0.438542 0.500000 0.395570
O O7 0.531570 0.285656 0.406658
O O8 0.351896 0.206044 0.894412
O O9 0.198514 0.245155 0.832315
O O10 0.243014 0.000000 0.808227
O O11 0.156802 0.795639 0.397086
O O12 0.183419 0.756079 0.520827
O O13 0.132338 0.000000 0.461913
O O14 0.380284 0.000000 0.983348
O O15 0.500000 0.869439 0.000000
O O16 0.425086 0.728968 0.033694
O O17 0.629616 0.755672 0.893151
O O18 0.666505 0.000000 0.859321
O O19 0.777079 0.834903 0.968410
O O20 0.890903 0.000000 0.076223
O O21 0.735252 0.000000 0.564201
#
# Coordination Sequence:
#
# PCOD8088083 Si02
#       8
#     8   8   8   8   8   8   8   8
#     4  11  22  34  51  75 106 139 174 213 263 318
#     4  10  19  32  52  78 104 134 174 219 263 307
#     4  10  20  34  53  75 101 132 170 210 254 312
#     4   9  17  31  51  74 101 131 171 217 261 306
#     4   9  18  33  53  76 100 131 170 214 263 308
#     4   9  16  28  47  71  99 128 159 200 246 293
#     4   9  16  26  45  74 102 127 160 200 245 294
#     4   9  18  31  49  74 101 134 171 212 259 308
#
# _framework density 17.922004000000001
#
# number of rings (size 3 to 8) (size 9 to 14) (size 15 to 20)
#    0.000    2.500    1.250    1.500    0.000    5.000 
#    0.000    0.000    2.750    0.000    0.000    0.000 
#    0.000    0.000    0.000    0.000    0.000    0.000 
#
# Total GULP energy -396576.220652 kJ/mol
# GULP energy per Si atom -12393.006895 kJ/mol
# Density = 1.788121 g / cm^3
# Si number density = 17.922004 Si / 1000 Ang^3
#
#
#
# Elastic Constant Matrix: (Units=GPa)
#
#
# Indices 1 2 3 4 5 6 
#
# 1 120.6071 56.1873 46.4479 0.0000 -19.5011 0.0000
# 2 56.1873 107.3076 39.6144 0.0000 -17.7845 0.0000
# 3 46.4479 39.6144 64.9747 0.0000 -18.3435 0.0000
# 4 0.0000 0.0000 0.0000 27.1792 0.0000 -6.1240
# 5 -19.5011 -17.7845 -18.3435 0.0000 24.4596 0.0000
# 6 0.0000 0.0000 0.0000 -6.1240 0.0000 25.4584
#
#
#
# Elastic Compliance Matrix: (Units=1/GPa)
#
#
# Indices 1 2 3 4 5 6 
#
# 1 0.012964 -0.004116 -0.005944 0.000000 0.002886 0.000000
# 2 -0.004116 0.013668 -0.004455 0.000000 0.003316 0.000000
# 3 -0.005944 -0.004455 0.025503 0.000000 0.011148 0.000000
# 4 0.000000 0.000000 0.000000 0.038901 0.000000 0.009358
# 5 0.002886 0.003316 0.011148 0.000000 0.053956 0.000000
# 6 0.000000 0.000000 0.000000 0.009358 0.000000 0.041531
#
#
# Mechanical properties :
#
#
# Convention : Reuss Voigt Hill
#
# Bulk Modulus (GPa) = 43.27756 64.15429 53.71593
# Shear Modulus (GPa) = 22.39590 25.46209 23.92899
#
# Velocity S-wave (km/s) = 3.53885 3.77333 3.65797
# Velocity P-wave (km/s) = 6.39516 7.40663 6.91940
#
# Compressibility (1/GPa) = 0.02310666
#
# Stress axis : x y z
#
# Youngs Moduli (GPa) = 77.13379 73.16213 39.21117
#
# Poissons Ratio (x) = 0.30112 0.23306
# Poissons Ratio (y) = 0.31747 0.17469
# Poissons Ratio (z) = 0.45845 0.32595
#
# Static dielectric constant tensor:
#      x y z
#    x 3.536390 0.000000 -0.243630 
#    y 0.000000 3.552340 0.000000 
#    z -0.243630 0.000000 2.988770 
# 
# 
# High freq. dielectric constant tensor:
#      x y z
#    x 1.696690 0.000000 -0.022690 
#    y 0.000000 1.706200 0.000000 
#    z -0.022690 0.000000 1.652800 
# 
# From -- ./inp_files/346131.got.cif
#   From: 2010.06.25/outbox.cif.g09.slc.cpg/sg12_174_cif.got.tgz:346131.got - 2010.06.28 00:19:55.
