data_PCOD8088295
_publ_section_title
;
Structure prediction by ZEFSAII (Michael W. Deem and Ramdas Pophale) SiO2 
 PCOD8088295
Probable space group: C 2/M
;
_chemical_formula_sum "Si O2"
_cell_formula_units_Z 64
_cell_length_a 14.874647
_cell_length_b 9.251170
_cell_length_c 22.335440
_cell_angle_alpha 90.000000
_cell_angle_beta 88.821790
_cell_angle_gamma 90.000000
_cell_volume 3072.882908
_symmetry_space_group_name_H-M "C 2/M"
_symmetry_group_IT_number 12
_symmetry_cell_setting 'monoclinic'
loop_
_space_group_symop_operation_xyz
x,y,z
-x,y,-z
-x,-y,-z
x,-y,z
1/2+x,1/2+y,z
1/2-x,1/2+y,-z
1/2-x,1/2-y,-z
1/2+x,1/2-y,z
loop_
_atom_site_type_symbol
_atom_site_label
_atom_site_fract_x
_atom_site_fract_y
_atom_site_fract_z
Si Si1 0.603400 0.339768 0.012139
Si Si2 0.630512 0.667369 0.658691
Si Si3 0.976596 0.167968 0.567954
Si Si4 0.156657 0.159782 0.884094
Si Si5 0.836631 0.670382 0.643261
Si Si6 0.138785 0.338835 0.774954
Si Si7 0.852224 0.162560 0.760879
Si Si8 0.364121 0.839800 0.871115
O O1 0.642291 0.500000 0.027572
O O2 0.617451 0.230005 0.065382
O O3 0.500000 0.353089 0.000000
O O4 0.651134 0.276347 0.951593
O O5 0.625489 0.500000 0.676133
O O6 0.563263 0.708744 0.606431
O O7 0.731366 0.707481 0.636218
O O8 0.600858 0.754385 0.718079
O O9 0.890528 0.264088 0.586565
O O10 0.000000 0.207442 0.500000
O O11 0.950967 0.000000 0.575522
O O12 0.105826 0.261794 0.836906
O O13 0.258529 0.145423 0.862378
O O14 0.111124 0.000000 0.884452
O O15 0.853143 0.500000 0.647807
O O16 0.876553 0.746301 0.701794
O O17 0.098723 0.500000 0.774964
O O18 0.246016 0.343084 0.771571
O O19 0.901231 0.240157 0.816568
O O20 0.890918 0.000000 0.753847
O O21 0.407989 0.000000 0.868156
#
# Coordination Sequence:
#
# PCOD8088295 Si02
#       8
#     8   8   8   8   8   8   8   8
#     4  10  21  36  50  68  99 139 180 219 266 330
#     4   9  19  37  59  83 116 155 189 231 287 341
#     4  10  22  40  60  85 118 157 199 234 273 338
#     4   9  18  33  53  75 100 134 176 221 272 330
#     4  10  20  36  59  87 118 150 189 238 290 335
#     4   9  17  30  53  83 108 134 176 228 275 327
#     4   9  17  32  55  81 108 139 178 222 272 333
#     4  10  19  32  53  78 102 132 173 224 277 324
#
# _framework density 20.827349000000002
#
# number of rings (size 3 to 8) (size 9 to 14) (size 15 to 20)
#    0.000    2.500    0.000    1.875    0.000    6.000 
#    2.250    0.000    0.000    0.000    0.000    0.000 
#    0.000    0.000    0.000    0.000    0.000    0.000 
#
# Total GULP energy -396795.594930 kJ/mol
# GULP energy per Si atom -12399.862342 kJ/mol
# Density = 2.077994 g / cm^3
# Si number density = 20.827349 Si / 1000 Ang^3
#
#
#
# Elastic Constant Matrix: (Units=GPa)
#
#
# Indices 1 2 3 4 5 6 
#
# 1 28.2898 17.2191 12.5030 0.0000 8.7365 0.0000
# 2 17.2191 115.7342 58.2385 0.0000 15.4912 0.0000
# 3 12.5030 58.2385 132.2517 0.0000 18.4772 0.0000
# 4 0.0000 0.0000 0.0000 44.5114 0.0000 -6.0852
# 5 8.7365 15.4912 18.4772 0.0000 24.8160 0.0000
# 6 0.0000 0.0000 0.0000 -6.0852 0.0000 16.3180
#
#
#
# Elastic Compliance Matrix: (Units=1/GPa)
#
#
# Indices 1 2 3 4 5 6 
#
# 1 0.041837 -0.004487 -0.000349 0.000000 -0.011668 0.000000
# 2 -0.004487 0.011890 -0.004459 0.000000 -0.002522 0.000000
# 3 -0.000349 -0.004459 0.010214 0.000000 -0.004699 0.000000
# 4 0.000000 0.000000 0.000000 0.023673 0.000000 0.008828
# 5 -0.011668 -0.002522 -0.004699 0.000000 0.049477 0.000000
# 6 0.000000 0.000000 0.000000 0.008828 0.000000 0.064574
#
#
# Mechanical properties :
#
#
# Convention : Reuss Voigt Hill
#
# Bulk Modulus (GPa) = 22.05056 50.24413 36.14735
# Shear Modulus (GPa) = 21.24287 29.68343 25.46315
#
# Velocity S-wave (km/s) = 3.19713 3.77930 3.50034
# Velocity P-wave (km/s) = 4.92333 6.57424 5.80774
#
# Compressibility (1/GPa) = 0.04535031
#
# Stress axis : x y z
#
# Youngs Moduli (GPa) = 23.90219 84.10747 97.90046
#
# Poissons Ratio (x) = 0.37740 0.03418
# Poissons Ratio (y) = 0.10725 0.43655
# Poissons Ratio (z) = 0.00835 0.37504
#
# Static dielectric constant tensor:
#      x y z
#    x 3.516460 0.000000 0.036270 
#    y 0.000000 4.008150 0.000000 
#    z 0.036270 0.000000 4.083500 
# 
# 
# High freq. dielectric constant tensor:
#      x y z
#    x 1.795530 0.000000 -0.004800 
#    y 0.000000 1.818250 0.000000 
#    z -0.004800 0.000000 1.816010 
# 
# From -- ./inp_files/313977.got.cif
#   From: 2010.06.25/outbox.cif.g09.slc.cpg/sg12_157_cif.got.tgz:313977.got - 2010.06.28 00:19:55.
