data_PCOD8088330
_publ_section_title
;
Structure prediction by ZEFSAII (Michael W. Deem and Ramdas Pophale) SiO2 
 PCOD8088330
Probable space group: C 2/M
;
_chemical_formula_sum "Si O2"
_cell_formula_units_Z 48
_cell_length_a 19.697999
_cell_length_b 9.073056
_cell_length_c 14.277061
_cell_angle_alpha 90.000000
_cell_angle_beta 89.309997
_cell_angle_gamma 90.000000
_cell_volume 2551.426277
_symmetry_space_group_name_H-M "C 2/M"
_symmetry_group_IT_number 12
_symmetry_cell_setting 'monoclinic'
loop_
_space_group_symop_operation_xyz
x,y,z
-x,y,-z
-x,-y,-z
x,-y,z
1/2+x,1/2+y,z
1/2-x,1/2+y,-z
1/2-x,1/2-y,-z
1/2+x,1/2-y,z
loop_
_atom_site_type_symbol
_atom_site_label
_atom_site_fract_x
_atom_site_fract_y
_atom_site_fract_z
Si Si1 0.997672 0.675117 0.604159
Si Si2 0.430542 0.169218 0.047107
Si Si3 0.160658 0.825843 0.085561
Si Si4 0.240964 0.165812 0.796229
Si Si5 0.109151 0.669229 0.745823
Si Si6 0.614959 0.166785 0.255422
O O1 0.997946 0.500000 0.597855
O O2 0.928724 0.728642 0.656982
O O3 0.000000 0.744674 0.500000
O O4 0.062909 0.729331 0.661778
O O5 0.434315 0.188345 0.158683
O O6 0.417516 0.000000 0.018357
O O7 0.500000 0.228022 0.000000
O O8 0.366692 0.266906 0.013345
O O9 0.234429 0.755026 0.110696
O O10 0.105125 0.770723 0.164174
O O11 0.167532 0.000000 0.084369
O O12 0.177943 0.238759 0.745774
O O13 0.304280 0.166104 0.721249
O O14 0.222246 0.000000 0.827542
O O15 0.129512 0.500000 0.729975
O O16 0.590605 0.000000 0.230298
#
# Coordination Sequence:
#
# PCOD8088330 Si02
#       6
#     8   8   8   8   8   8
#     4   9  17  33  59  85 106 135 178 224 267 316
#     4  10  20  34  52  76 109 147 182 215 258 315
#     4  10  19  32  53  78 106 139 180 220 260 307
#     4   9  19  35  55  76 108 148 179 213 263 320
#     4  10  20  33  54  82 109 136 177 227 266 309
#     4   8  16  33  55  78 106 143 179 209 258 318
#
# _framework density 18.813006999999999
#
# number of rings (size 3 to 8) (size 9 to 14) (size 15 to 20)
#    1.000    1.667    0.000    2.500    0.000    4.333 
#    0.000    3.333    0.000    2.000    0.000    0.000 
#    0.000    0.000    0.000    0.000    0.000    0.000 
#
# Total GULP energy -297422.810657 kJ/mol
# GULP energy per Si atom -12392.617111 kJ/mol
# Density = 1.877019 g / cm^3
# Si number density = 18.813007 Si / 1000 Ang^3
#
#
#
# Elastic Constant Matrix: (Units=GPa)
#
#
# Indices 1 2 3 4 5 6 
#
# 1 75.4061 33.5763 35.3800 0.0000 27.8009 0.0000
# 2 33.5763 91.7720 35.0120 0.0000 15.4060 0.0000
# 3 35.3800 35.0120 110.2279 0.0000 23.1996 0.0000
# 4 0.0000 0.0000 0.0000 16.7371 0.0000 8.3868
# 5 27.8009 15.4060 23.1996 0.0000 22.1741 0.0000
# 6 0.0000 0.0000 0.0000 8.3868 0.0000 22.8806
#
#
#
# Elastic Compliance Matrix: (Units=1/GPa)
#
#
# Indices 1 2 3 4 5 6 
#
# 1 0.026362 -0.004414 -0.000960 0.000000 -0.028980 0.000000
# 2 -0.004414 0.013740 -0.002697 0.000000 -0.001191 0.000000
# 3 -0.000960 -0.002697 0.012297 0.000000 -0.009788 0.000000
# 4 0.000000 0.000000 0.000000 0.073191 0.000000 -0.026828
# 5 -0.028980 -0.001191 -0.009788 0.000000 0.092500 0.000000
# 6 0.000000 0.000000 0.000000 -0.026828 0.000000 0.053539
#
#
# Mechanical properties :
#
#
# Convention : Reuss Voigt Hill
#
# Bulk Modulus (GPa) = 27.58027 53.92694 40.75360
# Shear Modulus (GPa) = 16.67468 23.92087 20.29778
#
# Velocity S-wave (km/s) = 2.98037 3.56969 3.28826
# Velocity P-wave (km/s) = 5.15127 6.76145 6.01052
#
# Compressibility (1/GPa) = 0.03625780
#
# Stress axis : x y z
#
# Youngs Moduli (GPa) = 37.93378 72.77885 81.32021
#
# Poissons Ratio (x) = 0.32122 0.07807
# Poissons Ratio (y) = 0.16742 0.21932
# Poissons Ratio (z) = 0.03642 0.19629
#
# Static dielectric constant tensor:
#      x y z
#    x 3.415060 0.000000 -0.040830 
#    y 0.000000 3.159800 0.000000 
#    z -0.040830 0.000000 3.371810 
# 
# 
# High freq. dielectric constant tensor:
#      x y z
#    x 1.733630 0.000000 0.002860 
#    y 0.000000 1.704720 0.000000 
#    z 0.002860 0.000000 1.703680 
# 
# From -- ./inp_files/230395.got.cif
#   From: 2010.06.25/outbox.cif.g09.slc.cpg/sg12_116_cif.got.tgz:230395.got - 2010.06.28 00:19:55.
