data_PCOD8088476
_publ_section_title
;
Structure prediction by ZEFSAII (Michael W. Deem and Ramdas Pophale) SiO2 
 PCOD8088476
Probable space group: C 2/M
;
_chemical_formula_sum "Si O2"
_cell_formula_units_Z 56
_cell_length_a 23.224137
_cell_length_b 15.978728
_cell_length_c 9.279629
_cell_angle_alpha 90.000000
_cell_angle_beta 116.948672
_cell_angle_gamma 90.000000
_cell_volume 3069.667262
_symmetry_space_group_name_H-M "C 2/M"
_symmetry_group_IT_number 12
_symmetry_cell_setting 'monoclinic'
loop_
_space_group_symop_operation_xyz
x,y,z
-x,y,-z
-x,-y,-z
x,-y,z
1/2+x,1/2+y,z
1/2-x,1/2+y,-z
1/2-x,1/2-y,-z
1/2+x,1/2-y,z
loop_
_atom_site_type_symbol
_atom_site_label
_atom_site_fract_x
_atom_site_fract_y
_atom_site_fract_z
Si Si1 0.328506 0.305237 0.817008
Si Si2 0.301457 0.101047 0.296013
Si Si3 0.364608 0.823072 0.093172
Si Si4 0.511564 0.279127 0.676740
Si Si5 0.122207 0.299818 0.374502
Si Si6 0.946950 0.909216 0.057804
Si Si7 0.569578 0.905941 0.076843
O O1 0.272077 0.373415 0.758035
O O2 0.334028 0.270398 0.658049
O O3 0.321709 0.234183 0.934697
O O4 0.394398 0.350923 0.926268
O O5 0.318600 0.131058 0.154801
O O6 0.344583 0.157033 0.451523
O O7 0.310611 0.000000 0.324808
O O8 0.422552 0.773878 0.236737
O O9 0.397955 0.897341 0.041649
O O10 0.500000 0.302782 0.500000
O O11 0.448815 0.231793 0.665332
O O12 0.520926 0.366548 0.767618
O O13 0.116863 0.370743 0.249442
O O14 0.918550 0.000000 0.072443
O O15 0.000000 0.924388 0.000000
O O16 0.557356 0.000000 0.106198
O O17 0.500000 0.858385 0.000000
#
# Coordination Sequence:
#
# PCOD8088476 Si02
#       7
#     8   8   8   8   8   8   8
#     4  10  22  39  63  81 114 151 201 230 284 341
#     4  12  24  39  56  84 121 155 190 238 284 334
#     4  10  21  36  59  84 112 151 197 232 282 345
#     4  11  20  36  57  85 120 148 187 234 291 343
#     4  11  21  37  57  85 112 153 196 232 282 346
#     4  10  20  36  62  90 109 140 191 247 291 331
#     4  10  19  32  53  81 114 148 189 239 282 324
#
# _framework density 18.243019
#
# number of rings (size 3 to 8) (size 9 to 14) (size 15 to 20)
#    0.000    1.429    4.286    2.143    0.000    0.286 
#    0.000    0.714    0.000    0.000    0.000    0.000 
#    0.000    0.000    0.000    0.000    0.000    0.000 
#
# Total GULP energy -346981.930318 kJ/mol
# GULP energy per Si atom -12392.211797 kJ/mol
# Density = 1.820150 g / cm^3
# Si number density = 18.243019 Si / 1000 Ang^3
#
#
#
# Elastic Constant Matrix: (Units=GPa)
#
#
# Indices 1 2 3 4 5 6 
#
# 1 64.6579 25.9773 6.2940 0.0000 -8.5880 0.0000
# 2 25.9773 96.1933 25.9617 0.0000 -8.9157 0.0000
# 3 6.2940 25.9617 62.5144 0.0000 -11.2951 0.0000
# 4 0.0000 0.0000 0.0000 19.5686 0.0000 0.6849
# 5 -8.5880 -8.9157 -11.2951 0.0000 27.4556 0.0000
# 6 0.0000 0.0000 0.0000 0.6849 0.0000 18.5796
#
#
#
# Elastic Compliance Matrix: (Units=1/GPa)
#
#
# Indices 1 2 3 4 5 6 
#
# 1 0.017838 -0.004659 0.000944 0.000000 0.004455 0.000000
# 2 -0.004659 0.013022 -0.004794 0.000000 0.000799 0.000000
# 3 0.000944 -0.004794 0.019083 0.000000 0.006589 0.000000
# 4 0.000000 0.000000 0.000000 0.051168 0.000000 -0.001886
# 5 0.004455 0.000799 0.006589 0.000000 0.040786 0.000000
# 6 0.000000 0.000000 0.000000 -0.001886 0.000000 0.053892
#
#
# Mechanical properties :
#
#
# Convention : Reuss Voigt Hill
#
# Bulk Modulus (GPa) = 30.37365 37.75906 34.06635
# Shear Modulus (GPa) = 22.34312 24.12958 23.23635
#
# Velocity S-wave (km/s) = 3.50344 3.64081 3.57278
# Velocity P-wave (km/s) = 5.74900 6.19812 5.97778
#
# Compressibility (1/GPa) = 0.03292328
#
# Stress axis : x y z
#
# Youngs Moduli (GPa) = 56.06112 76.79347 52.40298
#
# Poissons Ratio (x) = 0.35778 -0.04946
# Poissons Ratio (y) = 0.26119 0.25125
# Poissons Ratio (z) = -0.05291 0.36819
#
# Static dielectric constant tensor:
#      x y z
#    x 3.406060 0.000000 -0.082520 
#    y 0.000000 3.507670 0.000000 
#    z -0.082520 0.000000 3.428770 
# 
# 
# High freq. dielectric constant tensor:
#      x y z
#    x 1.708700 0.000000 -0.005350 
#    y 0.000000 1.706740 0.000000 
#    z -0.005350 0.000000 1.710120 
# 
# From -- ./inp_files/75987.got.cif
#   From: 2010.06.25/outbox.cif.g09.slc.cpg/sg12_38_cif.got.tgz:75987.got - 2010.06.28 00:19:55.
