data_PCOD8088766
_publ_section_title
;
Structure prediction by ZEFSAII (Michael W. Deem and Ramdas Pophale) SiO2 
 PCOD8088766
Probable space group: C 2/M
;
_chemical_formula_sum "Si O2"
_cell_formula_units_Z 48
_cell_length_a 13.201765
_cell_length_b 23.454633
_cell_length_c 12.739931
_cell_angle_alpha 90.000000
_cell_angle_beta 45.512941
_cell_angle_gamma 90.000000
_cell_volume 2814.272464
_symmetry_space_group_name_H-M "C 2/M"
_symmetry_group_IT_number 12
_symmetry_cell_setting 'monoclinic'
loop_
_space_group_symop_operation_xyz
x,y,z
-x,y,-z
-x,-y,-z
x,-y,z
1/2+x,1/2+y,z
1/2-x,1/2+y,-z
1/2-x,1/2-y,-z
1/2+x,1/2-y,z
loop_
_atom_site_type_symbol
_atom_site_label
_atom_site_fract_x
_atom_site_fract_y
_atom_site_fract_z
Si Si1 0.122959 0.267636 0.327523
Si Si2 0.562320 0.064889 0.842500
Si Si3 0.428021 0.832169 0.839873
Si Si4 0.435456 0.724194 0.159664
Si Si5 0.132474 0.164063 0.169160
Si Si6 0.381232 0.434792 0.667243
O O1 0.075252 0.316226 0.280186
O O2 0.266764 0.284832 0.282632
O O3 0.152746 0.207987 0.249144
O O4 0.000000 0.259055 0.500000
O O5 0.495824 0.105182 0.801719
O O6 0.730900 0.072171 0.719116
O O7 0.517076 0.000000 0.850345
O O8 0.500000 0.084110 0.000000
O O9 0.523400 0.788175 0.836620
O O10 0.268053 0.831235 0.996655
O O11 0.494877 0.679094 0.200601
O O12 0.500000 0.710109 0.000000
O O13 0.113013 0.101102 0.229896
O O14 0.500000 0.413000 0.500000
O O15 0.408672 0.500000 0.680586
#
# Coordination Sequence:
#
# PCOD8088766 Si02
#       6
#     8   8   8   8   8   8
#     4  11  23  35  50  79 108 132 171 215 254 300
#     4  10  19  32  55  81 102 131 171 212 255 304
#     4  11  20  33  56  77 103 136 173 211 252 303
#     4  11  19  34  54  74 103 140 170 206 256 303
#     4  11  20  33  56  78 100 140 174 205 252 310
#     4  10  21  35  52  79 110 133 163 214 263 300
#
# _framework density 17.055917999999998
#
# number of rings (size 3 to 8) (size 9 to 14) (size 15 to 20)
#    0.000    1.333    5.000    3.000    0.000    4.000 
#    0.000    0.000    0.000    2.000    0.000    0.000 
#    0.000    0.000    0.000    0.000    0.000    0.000 
#
# Total GULP energy -297718.807169 kJ/mol
# GULP energy per Si atom -12404.950299 kJ/mol
# Density = 1.701710 g / cm^3
# Si number density = 17.055918 Si / 1000 Ang^3
#
#
#
# Elastic Constant Matrix: (Units=GPa)
#
#
# Indices 1 2 3 4 5 6 
#
# 1 88.8112 31.0933 8.5613 0.0000 -8.3043 0.0000
# 2 31.0933 81.1870 1.3854 0.0000 6.5110 0.0000
# 3 8.5613 1.3854 58.4813 0.0000 -13.9974 0.0000
# 4 0.0000 0.0000 0.0000 11.2805 0.0000 -6.2725
# 5 -8.3043 6.5110 -13.9974 0.0000 27.5897 0.0000
# 6 0.0000 0.0000 0.0000 -6.2725 0.0000 18.9934
#
#
#
# Elastic Compliance Matrix: (Units=1/GPa)
#
#
# Indices 1 2 3 4 5 6 
#
# 1 0.013796 -0.005687 -0.000649 0.000000 0.005166 0.000000
# 2 -0.005687 0.014967 -0.000885 0.000000 -0.005693 0.000000
# 3 -0.000649 -0.000885 0.019598 0.000000 0.009957 0.000000
# 4 0.000000 0.000000 0.000000 0.108589 0.000000 0.035861
# 5 0.005166 -0.005693 0.009957 0.000000 0.044195 0.000000
# 6 0.000000 0.000000 0.000000 0.035861 0.000000 0.064493
#
#
# Mechanical properties :
#
#
# Convention : Reuss Voigt Hill
#
# Bulk Modulus (GPa) = 29.47980 34.50662 31.99321
# Shear Modulus (GPa) = 17.15937 24.06868 20.61402
#
# Velocity S-wave (km/s) = 3.17529 3.76062 3.48028
# Velocity P-wave (km/s) = 5.54663 6.25554 5.91172
#
# Compressibility (1/GPa) = 0.03392153
#
# Stress axis : x y z
#
# Youngs Moduli (GPa) = 72.48252 66.81407 51.02437
#
# Poissons Ratio (x) = 0.37997 0.03309
# Poissons Ratio (y) = 0.41221 0.04513
# Poissons Ratio (z) = 0.04701 0.05910
#
# Static dielectric constant tensor:
#      x y z
#    x 3.259920 0.000000 -0.109630 
#    y 0.000000 3.175610 0.000000 
#    z -0.109630 0.000000 3.193890 
# 
# 
# High freq. dielectric constant tensor:
#      x y z
#    x 1.654330 0.000000 -0.015810 
#    y 0.000000 1.649300 0.000000 
#    z -0.015810 0.000000 1.660090 
# 
# From -- ./inp_files/50583.got.cif
#   From: 2010.06.25/outbox.cif.g09.slc.cpg/sg12_26_cif.got.tgz:50583.got - 2010.06.28 00:19:55.
