data_PCOD8088733
_publ_section_title
;
Structure prediction by ZEFSAII (Michael W. Deem and Ramdas Pophale) SiO2 
 PCOD8088733
Probable space group: C 2/M
;
_chemical_formula_sum "Si O2"
_cell_formula_units_Z 64
_cell_length_a 8.891158
_cell_length_b 31.488567
_cell_length_c 13.469884
_cell_angle_alpha 90.000000
_cell_angle_beta 121.382917
_cell_angle_gamma 90.000000
_cell_volume 3219.463202
_symmetry_space_group_name_H-M "C 2/M"
_symmetry_group_IT_number 12
_symmetry_cell_setting 'monoclinic'
loop_
_space_group_symop_operation_xyz
x,y,z
-x,y,-z
-x,-y,-z
x,-y,z
1/2+x,1/2+y,z
1/2-x,1/2+y,-z
1/2-x,1/2-y,-z
1/2+x,1/2-y,z
loop_
_atom_site_type_symbol
_atom_site_label
_atom_site_fract_x
_atom_site_fract_y
_atom_site_fract_z
Si Si1 0.506667 0.761341 0.267083
Si Si2 0.351120 0.951692 0.691415
Si Si3 0.662789 0.391548 0.753060
Si Si4 0.637282 0.305373 0.630809
Si Si5 0.122456 0.952722 0.429701
Si Si6 0.866285 0.798582 0.862747
Si Si7 0.184771 0.547975 0.692050
Si Si8 0.963288 0.109795 0.872336
O O1 0.458369 0.733172 0.345519
O O2 0.674811 0.791035 0.351714
O O3 0.334739 0.788314 0.175714
O O4 0.561407 0.733603 0.192785
O O5 0.331585 0.920270 0.779216
O O6 0.172274 0.949133 0.563275
O O7 0.503115 0.933334 0.672503
O O8 0.383292 0.000000 0.738608
O O9 0.679799 0.343725 0.720005
O O10 0.495980 0.413952 0.645423
O O11 0.641363 0.390640 0.865468
O O12 0.500000 0.320776 0.500000
O O13 0.300607 0.949262 0.422917
O O14 0.038796 0.000000 0.380814
O O15 0.864373 0.845884 0.817369
O O16 0.000000 0.796050 0.000000
O O17 0.197186 0.500000 0.733318
O O18 0.345704 0.571101 0.798967
O O19 0.000000 0.103841 0.000000
#
# Coordination Sequence:
#
# PCOD8088733 Si02
#       8
#     8   8   8   8   8   8   8   8
#     4  10  22  38  61  85 115 151 185 236 280 342
#     4  10  19  32  54  84 117 145 179 229 277 324
#     4  11  21  35  55  82 112 143 189 234 274 332
#     4  11  22  38  57  84 120 157 188 221 273 346
#     4   9  17  32  54  82 114 151 182 218 275 329
#     4  10  20  39  63  87 111 142 189 244 292 333
#     4   9  19  34  55  81 113 148 186 223 268 336
#     4  10  22  40  59  76 108 144 186 237 286 337
#
# _framework density 19.879090000000001
#
# number of rings (size 3 to 8) (size 9 to 14) (size 15 to 20)
#    0.000    2.000    1.250    2.625    1.750    3.250 
#    0.000    0.625    0.000    1.500    0.000    0.000 
#    0.000    0.000    0.000    0.000    0.000    0.000 
#
# Total GULP energy -396625.244046 kJ/mol
# GULP energy per Si atom -12394.538876 kJ/mol
# Density = 1.983384 g / cm^3
# Si number density = 19.879090 Si / 1000 Ang^3
#
#
#
# Elastic Constant Matrix: (Units=GPa)
#
#
# Indices 1 2 3 4 5 6 
#
# 1 116.6502 34.2111 27.1192 0.0000 -11.4997 0.0000
# 2 34.2111 64.5511 15.8331 0.0000 -10.2486 0.0000
# 3 27.1192 15.8331 55.6824 0.0000 -13.4573 0.0000
# 4 0.0000 0.0000 0.0000 8.1699 0.0000 -9.2742
# 5 -11.4997 -10.2486 -13.4573 0.0000 32.8180 0.0000
# 6 0.0000 0.0000 0.0000 -9.2742 0.0000 29.4045
#
#
#
# Elastic Compliance Matrix: (Units=1/GPa)
#
#
# Indices 1 2 3 4 5 6 
#
# 1 0.010918 -0.004733 -0.003779 0.000000 0.000798 0.000000
# 2 -0.004733 0.019101 -0.002315 0.000000 0.003357 0.000000
# 3 -0.003779 -0.002315 0.022159 0.000000 0.007039 0.000000
# 4 0.000000 0.000000 0.000000 0.190665 0.000000 0.060136
# 5 0.000798 0.003357 0.007039 0.000000 0.034686 0.000000
# 6 0.000000 0.000000 0.000000 0.060136 0.000000 0.052975
#
#
# Mechanical properties :
#
#
# Convention : Reuss Voigt Hill
#
# Bulk Modulus (GPa) = 32.76020 43.46783 38.11402
# Shear Modulus (GPa) = 13.79955 24.72652 19.26303
#
# Velocity S-wave (km/s) = 2.63758 3.53065 3.11627
# Velocity P-wave (km/s) = 5.07851 6.20759 5.67122
#
# Compressibility (1/GPa) = 0.03052484
#
# Stress axis : x y z
#
# Youngs Moduli (GPa) = 91.59335 52.35426 45.12876
#
# Poissons Ratio (x) = 0.24778 0.17053
# Poissons Ratio (y) = 0.43348 0.10447
# Poissons Ratio (z) = 0.34610 0.12119
#
# Static dielectric constant tensor:
#      x y z
#    x 4.158080 0.000000 -0.190250 
#    y 0.000000 3.735240 0.000000 
#    z -0.190250 0.000000 3.248780 
# 
# 
# High freq. dielectric constant tensor:
#      x y z
#    x 1.802870 0.000000 -0.015880 
#    y 0.000000 1.780700 0.000000 
#    z -0.015880 0.000000 1.734780 
# 
# From -- ./inp_files/200953.got.cif
#   From: 2010.06.25/outbox.cif.g09.slc.cpg/sg12_101_cif.got.tgz:200953.got - 2010.06.28 00:19:55.
