data_PCOD8088908
_publ_section_title
;
Structure prediction by ZEFSAII (Michael W. Deem and Ramdas Pophale) SiO2 
 PCOD8088908
Probable space group: C 2/M
;
_chemical_formula_sum "Si O2"
_cell_formula_units_Z 56
_cell_length_a 14.755560
_cell_length_b 9.284626
_cell_length_c 25.070713
_cell_angle_alpha 90.000000
_cell_angle_beta 123.045674
_cell_angle_gamma 90.000000
_cell_volume 2879.076305
_symmetry_space_group_name_H-M "C 2/M"
_symmetry_group_IT_number 12
_symmetry_cell_setting 'monoclinic'
loop_
_space_group_symop_operation_xyz
x,y,z
-x,y,-z
-x,-y,-z
x,-y,z
1/2+x,1/2+y,z
1/2-x,1/2+y,-z
1/2-x,1/2-y,-z
1/2+x,1/2-y,z
loop_
_atom_site_type_symbol
_atom_site_label
_atom_site_fract_x
_atom_site_fract_y
_atom_site_fract_z
Si Si1 0.728255 0.167646 0.803793
Si Si2 0.398195 0.160777 0.808519
Si Si3 0.982737 0.335595 0.719997
Si Si4 0.765268 0.665139 0.921389
Si Si5 0.329532 0.668445 0.593534
Si Si6 0.112689 0.831894 0.508053
Si Si7 0.602122 0.162392 0.937746
O O1 0.801040 0.224766 0.778391
O O2 0.606361 0.206287 0.748981
O O3 0.773758 0.245458 0.870468
O O4 0.743483 0.000000 0.817570
O O5 0.466857 0.187088 0.777560
O O6 0.475459 0.182358 0.884796
O O7 0.348824 0.000000 0.792938
O O8 0.957966 0.500000 0.694631
O O9 0.908334 0.227465 0.663778
O O10 0.744571 0.500000 0.899334
O O11 0.665590 0.719398 0.924528
O O12 0.874741 0.683505 0.991756
O O13 0.310677 0.500000 0.595859
O O14 0.213485 0.744355 0.564333
O O15 0.387385 0.699899 0.555338
O O16 0.000000 0.781603 0.500000
O O17 0.131937 0.000000 0.526053
O O18 0.638096 0.000000 0.931842
#
# Coordination Sequence:
#
# PCOD8088908 Si02
#       7
#     8   8   8   8   8   8   8
#     4  11  23  39  57  81 113 148 190 239 290 344
#     4  10  21  39  59  79 107 148 193 234 286 348
#     4  10  22  41  60  77 113 159 190 227 282 341
#     4  10  19  32  56  83 107 142 186 236 292 350
#     4  10  21  36  59  90 119 148 189 237 275 321
#     4   9  19  38  62  88 120 156 190 224 272 330
#     4   9  18  35  56  79 109 143 185 236 293 351
#
# _framework density 19.450683999999999
#
# number of rings (size 3 to 8) (size 9 to 14) (size 15 to 20)
#    0.000    2.143    1.429    1.286    0.000    5.429 
#    0.000    7.143    0.000    0.000    0.000    0.000 
#    0.000    0.000    0.000    0.000    0.000    0.000 
#
# Total GULP energy -347180.320766 kJ/mol
# GULP energy per Si atom -12399.297170 kJ/mol
# Density = 1.940641 g / cm^3
# Si number density = 19.450684 Si / 1000 Ang^3
#
#
#
# Elastic Constant Matrix: (Units=GPa)
#
#
# Indices 1 2 3 4 5 6 
#
# 1 109.6130 52.1296 33.9102 0.0000 22.8286 0.0000
# 2 52.1296 94.1979 52.4760 0.0000 18.7925 0.0000
# 3 33.9102 52.4760 93.7613 0.0000 21.2799 0.0000
# 4 0.0000 0.0000 0.0000 32.6554 0.0000 -0.3430
# 5 22.8286 18.7925 21.2799 0.0000 18.0160 0.0000
# 6 0.0000 0.0000 0.0000 -0.3430 0.0000 34.6895
#
#
#
# Elastic Compliance Matrix: (Units=1/GPa)
#
#
# Indices 1 2 3 4 5 6 
#
# 1 0.014374 -0.005928 0.001161 0.000000 -0.013402 0.000000
# 2 -0.005928 0.018775 -0.007684 0.000000 -0.002997 0.000000
# 3 0.001161 -0.007684 0.017844 0.000000 -0.014533 0.000000
# 4 0.000000 0.000000 0.000000 0.030626 0.000000 0.000303
# 5 -0.013402 -0.002997 -0.014533 0.000000 0.092780 0.000000
# 6 0.000000 0.000000 0.000000 0.000303 0.000000 0.028830
#
#
# Mechanical properties :
#
#
# Convention : Reuss Voigt Hill
#
# Bulk Modulus (GPa) = 38.32649 63.84487 51.08568
# Shear Modulus (GPa) = 21.11235 27.67594 24.39414
#
# Velocity S-wave (km/s) = 3.29816 3.77620 3.54524
# Velocity P-wave (km/s) = 5.85244 7.20473 6.56350
#
# Compressibility (1/GPa) = 0.02609161
#
# Stress axis : x y z
#
# Youngs Moduli (GPa) = 69.56961 53.26309 56.03986
#
# Poissons Ratio (x) = 0.31572 -0.06504
# Poissons Ratio (y) = 0.41238 0.43060
# Poissons Ratio (z) = -0.08074 0.40926
#
# Static dielectric constant tensor:
#      x y z
#    x 3.526090 0.000000 0.003330 
#    y 0.000000 3.642340 0.000000 
#    z 0.003330 0.000000 3.506920 
# 
# 
# High freq. dielectric constant tensor:
#      x y z
#    x 1.752070 0.000000 0.003670 
#    y 0.000000 1.760650 0.000000 
#    z 0.003670 0.000000 1.752770 
# 
# From -- ./inp_files/339016.got.cif
#   From: 2010.06.25/outbox.cif.g09.slc.cpg/sg12_170_cif.got.tgz:339016.got - 2010.06.28 00:19:55.
