data_PCOD8088793
_publ_section_title
;
Structure prediction by ZEFSAII (Michael W. Deem and Ramdas Pophale) SiO2 
 PCOD8088793
Probable space group: C 2/M
;
_chemical_formula_sum "Si O2"
_cell_formula_units_Z 64
_cell_length_a 17.696192
_cell_length_b 22.409028
_cell_length_c 9.140301
_cell_angle_alpha 90.000000
_cell_angle_beta 84.541216
_cell_angle_gamma 90.000000
_cell_volume 3608.189055
_symmetry_space_group_name_H-M "C 2/M"
_symmetry_group_IT_number 12
_symmetry_cell_setting 'monoclinic'
loop_
_space_group_symop_operation_xyz
x,y,z
-x,y,-z
-x,-y,-z
x,-y,z
1/2+x,1/2+y,z
1/2-x,1/2+y,-z
1/2-x,1/2-y,-z
1/2+x,1/2-y,z
loop_
_atom_site_type_symbol
_atom_site_label
_atom_site_fract_x
_atom_site_fract_y
_atom_site_fract_z
Si Si1 0.456933 0.723139 0.854660
Si Si2 0.118848 0.691185 0.337138
Si Si3 0.923227 0.263963 0.355131
Si Si4 0.273098 0.266559 0.228663
Si Si5 0.591853 0.935011 0.255519
Si Si6 0.806828 0.165923 0.933992
Si Si7 0.689045 0.932477 0.953014
Si Si8 0.543653 0.875977 0.849606
O O1 0.408481 0.783139 0.816746
O O2 0.519941 0.711959 0.715411
O O3 0.396258 0.668455 0.871424
O O4 0.500000 0.732780 0.000000
O O5 0.072819 0.726867 0.471042
O O6 0.208415 0.701007 0.334895
O O7 0.103802 0.620585 0.362131
O O8 0.837892 0.248321 0.331569
O O9 0.952584 0.323634 0.269736
O O10 0.244176 0.205607 0.163172
O O11 0.304352 0.310574 0.099513
O O12 0.657920 0.930853 0.123065
O O13 0.508246 0.930403 0.199366
O O14 0.596877 0.000000 0.333653
O O15 0.771312 0.099799 0.931454
O O16 0.701367 0.000000 0.896150
O O17 0.628283 0.899540 0.861124
O O18 0.500000 0.850098 0.000000
#
# Coordination Sequence:
#
# PCOD8088793 Si02
#       8
#     8   8   8   8   8   8   8   8
#     4  11  22  34  54  78 107 142 174 215 269 324
#     4  11  23  35  51  79 111 141 183 219 263 318
#     4  12  21  34  53  79 109 146 169 223 270 314
#     4  10  20  33  54  76 108 137 177 224 269 319
#     4  10  20  33  50  73 107 149 181 213 254 308
#     4  10  19  32  55  83 100 137 183 218 262 316
#     4  10  19  34  55  78 104 138 184 226 260 305
#     4  10  20  31  51  77 107 141 183 210 253 315
#
# _framework density 17.73743
#
# number of rings (size 3 to 8) (size 9 to 14) (size 15 to 20)
#    0.000    1.500    5.000    1.500    1.750    1.500 
#    0.000    1.875    0.000    0.375    0.000    0.000 
#    0.000    8.000    0.000    0.000    0.000    0.000 
#
# Total GULP energy -396564.075246 kJ/mol
# GULP energy per Si atom -12392.627351 kJ/mol
# Density = 1.769706 g / cm^3
# Si number density = 17.737430 Si / 1000 Ang^3
#
#
#
# Elastic Constant Matrix: (Units=GPa)
#
#
# Indices 1 2 3 4 5 6 
#
# 1 116.2923 51.4175 32.3545 0.0000 -13.7322 0.0000
# 2 51.4175 67.4503 20.7687 0.0000 5.9711 0.0000
# 3 32.3545 20.7687 67.4371 0.0000 -9.4316 0.0000
# 4 0.0000 0.0000 0.0000 14.8901 0.0000 0.0855
# 5 -13.7322 5.9711 -9.4316 0.0000 13.7705 0.0000
# 6 0.0000 0.0000 0.0000 0.0855 0.0000 20.8288
#
#
#
# Elastic Compliance Matrix: (Units=1/GPa)
#
#
# Indices 1 2 3 4 5 6 
#
# 1 0.019293 -0.016927 -0.000360 0.000000 0.026332 0.000000
# 2 -0.016927 0.033124 -0.007133 0.000000 -0.036129 0.000000
# 3 -0.000360 -0.007133 0.019443 0.000000 0.016051 0.000000
# 4 0.000000 0.000000 0.000000 0.067160 0.000000 -0.000276
# 5 0.026332 -0.036129 0.016051 0.000000 0.125538 0.000000
# 6 0.000000 0.000000 0.000000 -0.000276 0.000000 0.048012
#
#
# Mechanical properties :
#
#
# Convention : Reuss Voigt Hill
#
# Bulk Modulus (GPa) = 43.44223 51.14012 47.29117
# Shear Modulus (GPa) = 13.54706 19.67381 16.61043
#
# Velocity S-wave (km/s) = 2.76661 3.33403 3.06349
# Velocity P-wave (km/s) = 5.89496 6.61176 6.26362
#
# Compressibility (1/GPa) = 0.02301908
#
# Stress axis : x y z
#
# Youngs Moduli (GPa) = 51.83256 30.18955 51.43221
#
# Poissons Ratio (x) = 0.51102 0.01853
# Poissons Ratio (y) = 0.87738 0.36687
# Poissons Ratio (z) = 0.01867 0.21534
#
# Static dielectric constant tensor:
#      x y z
#    x 3.604840 0.000000 -0.112280 
#    y 0.000000 3.093140 0.000000 
#    z -0.112280 0.000000 3.118210 
# 
# 
# High freq. dielectric constant tensor:
#      x y z
#    x 1.699020 0.000000 -0.000540 
#    y 0.000000 1.643900 0.000000 
#    z -0.000540 0.000000 1.669630 
# 
# From -- ./inp_files/77539.got.cif
#   From: 2010.06.25/outbox.cif.g09.slc.cpg/sg12_39_cif.got.tgz:77539.got - 2010.06.28 00:19:55.
