data_PCOD8088644
_publ_section_title
;
Structure prediction by ZEFSAII (Michael W. Deem and Ramdas Pophale) SiO2 
 PCOD8088644
Probable space group: C 2/M
;
_chemical_formula_sum "Si O2"
_cell_formula_units_Z 64
_cell_length_a 25.397682
_cell_length_b 9.095050
_cell_length_c 15.189694
_cell_angle_alpha 90.000000
_cell_angle_beta 108.583246
_cell_angle_gamma 90.000000
_cell_volume 3325.777137
_symmetry_space_group_name_H-M "C 2/M"
_symmetry_group_IT_number 12
_symmetry_cell_setting 'monoclinic'
loop_
_space_group_symop_operation_xyz
x,y,z
-x,y,-z
-x,-y,-z
x,-y,z
1/2+x,1/2+y,z
1/2-x,1/2+y,-z
1/2-x,1/2-y,-z
1/2+x,1/2-y,z
loop_
_atom_site_type_symbol
_atom_site_label
_atom_site_fract_x
_atom_site_fract_y
_atom_site_fract_z
Si Si1 0.941599 0.170679 0.796047
Si Si2 0.748979 0.827201 0.906295
Si Si3 0.124607 0.675190 0.374345
Si Si4 0.930514 0.170197 0.124571
Si Si5 0.651053 0.168359 0.581770
Si Si6 0.869734 0.826726 0.919501
Si Si7 0.229966 0.830422 0.403131
Si Si8 0.133771 0.325005 0.761853
O O1 0.931109 0.264159 0.701004
O O2 0.902242 0.236205 0.852229
O O3 0.004667 0.194224 0.859324
O O4 0.928927 0.000000 0.769993
O O5 0.804548 0.784734 0.880836
O O6 0.694875 0.773034 0.825108
O O7 0.747748 0.000000 0.922956
O O8 0.750000 0.750000 0.000000
O O9 0.127877 0.500000 0.373018
O O10 0.129570 0.738202 0.477823
O O11 0.174870 0.744815 0.342101
O O12 0.913691 0.256282 0.203374
O O13 0.916049 0.000000 0.131695
O O14 0.896751 0.236524 0.023772
O O15 0.717702 0.181957 0.634693
O O16 0.623479 0.233688 0.655922
O O17 0.633972 0.000000 0.564566
O O18 0.879389 0.000000 0.924921
O O19 0.250000 0.750000 0.500000
O O20 0.214853 0.000000 0.413012
O O21 0.129425 0.500000 0.763066
#
# Coordination Sequence:
#
# PCOD8088644 Si02
#       8
#     8   8   8   8   8   8   8   8
#     4  10  21  36  58  81 102 139 186 226 268 320
#     4  10  19  32  54  81 110 139 172 214 264 318
#     4  10  20  35  52  76 109 142 180 229 276 317
#     4  10  20  37  57  79 107 139 178 224 271 322
#     4   8  17  33  53  75 104 143 183 215 255 318
#     4   9  18  34  57  81 106 138 176 217 264 325
#     4   9  16  29  51  75 105 141 177 219 265 316
#     4  10  20  34  55  81 107 142 183 217 258 319
#
# _framework density 19.243622999999999
#
# number of rings (size 3 to 8) (size 9 to 14) (size 15 to 20)
#    0.000    2.500    1.250    1.875    1.750    2.000 
#    0.000    5.625    0.000    5.250    0.000    0.000 
#    0.000    0.000    0.000    0.000    0.000    0.000 
#
# Total GULP energy -396574.452128 kJ/mol
# GULP energy per Si atom -12392.951629 kJ/mol
# Density = 1.919982 g / cm^3
# Si number density = 19.243623 Si / 1000 Ang^3
#
#
#
# Elastic Constant Matrix: (Units=GPa)
#
#
# Indices 1 2 3 4 5 6 
#
# 1 84.2250 21.1470 34.6125 0.0000 -13.1883 0.0000
# 2 21.1470 45.3086 22.6178 0.0000 -2.9345 0.0000
# 3 34.6125 22.6178 100.7326 0.0000 -15.5440 0.0000
# 4 0.0000 0.0000 0.0000 25.3847 0.0000 1.8373
# 5 -13.1883 -2.9345 -15.5440 0.0000 30.3588 0.0000
# 6 0.0000 0.0000 0.0000 1.8373 0.0000 26.1730
#
#
#
# Elastic Compliance Matrix: (Units=1/GPa)
#
#
# Indices 1 2 3 4 5 6 
#
# 1 0.015249 -0.005130 -0.003412 0.000000 0.004382 0.000000
# 2 -0.005130 0.026590 -0.004511 0.000000 -0.001968 0.000000
# 3 -0.003412 -0.004511 0.012830 0.000000 0.004651 0.000000
# 4 0.000000 0.000000 0.000000 0.039595 0.000000 -0.002779
# 5 0.004382 -0.001968 0.004651 0.000000 0.037034 0.000000
# 6 0.000000 0.000000 0.000000 -0.002779 0.000000 0.038402
#
#
# Mechanical properties :
#
#
# Convention : Reuss Voigt Hill
#
# Bulk Modulus (GPa) = 35.01066 43.00232 39.00649
# Shear Modulus (GPa) = 24.35127 26.50923 25.43025
#
# Velocity S-wave (km/s) = 3.56113 3.71558 3.63917
# Velocity P-wave (km/s) = 5.92805 6.38765 6.16214
#
# Compressibility (1/GPa) = 0.02856273
#
# Stress axis : x y z
#
# Youngs Moduli (GPa) = 65.57699 37.60826 77.94142
#
# Poissons Ratio (x) = 0.19295 0.26591
# Poissons Ratio (y) = 0.33644 0.35161
# Poissons Ratio (z) = 0.22373 0.16966
#
# Static dielectric constant tensor:
#      x y z
#    x 3.711150 0.000000 -0.058740 
#    y 0.000000 3.241810 0.000000 
#    z -0.058740 0.000000 3.670720 
# 
# 
# High freq. dielectric constant tensor:
#      x y z
#    x 1.742600 0.000000 0.000600 
#    y 0.000000 1.715640 0.000000 
#    z 0.000600 0.000000 1.752610 
# 
# From -- ./inp_files/244037.got.cif
#   From: 2010.06.25/outbox.cif.g09.slc.cpg/sg12_123_cif.got.tgz:244037.got - 2010.06.28 00:19:55.
