data_PCOD8088303
_publ_section_title
;
Structure prediction by ZEFSAII (Michael W. Deem and Ramdas Pophale) SiO2 
 PCOD8088303
Probable space group: C 2/M
;
_chemical_formula_sum "Si O2"
_cell_formula_units_Z 64
_cell_length_a 19.627977
_cell_length_b 9.300466
_cell_length_c 23.717739
_cell_angle_alpha 90.000000
_cell_angle_beta 52.984048
_cell_angle_gamma 90.000000
_cell_volume 3457.092582
_symmetry_space_group_name_H-M "C 2/M"
_symmetry_group_IT_number 12
_symmetry_cell_setting 'monoclinic'
loop_
_space_group_symop_operation_xyz
x,y,z
-x,y,-z
-x,-y,-z
x,-y,z
1/2+x,1/2+y,z
1/2-x,1/2+y,-z
1/2-x,1/2-y,-z
1/2+x,1/2-y,z
loop_
_atom_site_type_symbol
_atom_site_label
_atom_site_fract_x
_atom_site_fract_y
_atom_site_fract_z
Si Si1 0.822669 0.171470 0.499861
Si Si2 0.570776 0.331239 0.009792
Si Si3 0.012902 0.828933 0.377428
Si Si4 0.402182 0.329369 0.778259
Si Si5 0.162982 0.829809 0.379542
Si Si6 0.211072 0.332959 0.878625
Si Si7 0.007247 0.169418 0.833420
Si Si8 0.172928 0.666473 0.770103
O O1 0.750000 0.250000 0.500000
O O2 0.818124 0.225900 0.566852
O O3 0.915450 0.222424 0.431762
O O4 0.810276 0.000000 0.500718
O O5 0.588636 0.500000 0.998994
O O6 0.658566 0.251254 0.952161
O O7 0.500000 0.284725 0.000000
O O8 0.539603 0.279711 0.086452
O O9 0.050178 0.766313 0.300343
O O10 0.072766 0.772097 0.399179
O O11 0.015513 0.000000 0.375896
O O12 0.398592 0.500000 0.774778
O O13 0.306420 0.269447 0.830072
O O14 0.450571 0.278401 0.809742
O O15 0.238253 0.778594 0.300485
O O16 0.157840 0.000000 0.383904
O O17 0.210484 0.500000 0.895264
O O18 0.170418 0.306027 0.837897
O O19 0.098020 0.243085 0.779530
O O20 0.022383 0.000000 0.826526
O O21 0.159054 0.500000 0.762545
#
# Coordination Sequence:
#
# PCOD8088303 Si02
#       8
#     8   8   8   8   8   8   8   8
#     4  10  21  34  53  82 111 139 171 210 256 304
#     4  10  20  34  50  72 105 141 171 205 257 316
#     4   9  16  31  55  78 101 135 178 215 249 299
#     4   9  18  33  52  77 104 131 171 220 260 296
#     4   9  17  32  53  78 106 136 173 217 257 297
#     4  10  19  33  55  78  99 128 173 223 261 297
#     4  10  21  35  52  74 104 140 173 209 257 314
#     4  10  19  32  53  78 103 132 170 218 263 301
#
# _framework density 18.512665999999999
#
# number of rings (size 3 to 8) (size 9 to 14) (size 15 to 20)
#    0.000    2.375    2.500    0.375    1.750    2.750 
#    0.000    0.625    0.000    3.000    0.000    0.000 
#    0.000    0.000    0.000    0.000    0.000    0.000 
#
# Total GULP energy -396772.223763 kJ/mol
# GULP energy per Si atom -12399.131993 kJ/mol
# Density = 1.847053 g / cm^3
# Si number density = 18.512666 Si / 1000 Ang^3
#
#
#
# Elastic Constant Matrix: (Units=GPa)
#
#
# Indices 1 2 3 4 5 6 
#
# 1 144.0908 32.1650 71.1881 0.0000 -2.5779 0.0001
# 2 32.1650 22.7755 26.3206 -0.0001 -4.8882 -0.0001
# 3 71.1881 26.3206 126.7144 0.0000 -5.6178 0.0000
# 4 0.0000 -0.0001 0.0000 14.5298 0.0000 -3.9777
# 5 -2.5779 -4.8882 -5.6178 0.0000 37.1094 0.0000
# 6 0.0001 -0.0001 0.0000 -3.9777 0.0000 23.2237
#
#
#
# Elastic Compliance Matrix: (Units=1/GPa)
#
#
# Indices 1 2 3 4 5 6 
#
# 1 0.011610 -0.011955 -0.004101 0.000000 -0.001389 0.000000
# 2 -0.011955 0.071369 -0.007780 0.000001 0.007393 0.000000
# 3 -0.004101 -0.007780 0.011833 0.000000 0.000482 0.000000
# 4 0.000000 0.000001 0.000000 0.072210 0.000000 0.012368
# 5 -0.001389 0.007393 0.000482 0.000000 0.027898 0.000000
# 6 0.000000 0.000000 0.000000 0.012368 0.000000 0.045178
#
#
# Mechanical properties :
#
#
# Convention : Reuss Voigt Hill
#
# Bulk Modulus (GPa) = 21.21380 61.43647 41.32514
# Shear Modulus (GPa) = 16.47542 25.89972 21.18757
#
# Velocity S-wave (km/s) = 2.98645 3.74441 3.38670
# Velocity P-wave (km/s) = 4.83485 7.20780 6.13711
#
# Compressibility (1/GPa) = 0.04713912
#
# Stress axis : x y z
#
# Youngs Moduli (GPa) = 86.13288 14.01174 84.50977
#
# Poissons Ratio (x) = 0.16752 0.34655
# Poissons Ratio (y) = 1.02976 0.65749
# Poissons Ratio (z) = 0.35321 0.10901
#
# Static dielectric constant tensor:
#      x y z
#    x 3.516570 0.000000 0.014630 
#    y 0.000000 2.904300 0.000000 
#    z 0.014630 0.000000 3.618320 
# 
# 
# High freq. dielectric constant tensor:
#      x y z
#    x 1.727650 0.000000 -0.002580 
#    y 0.000000 1.664400 0.000000 
#    z -0.002580 0.000000 1.733310 
# 
# From -- ./inp_files/315705.got.cif
#   From: 2010.06.25/outbox.cif.g09.slc.cpg/sg12_158_cif.got.tgz:315705.got - 2010.06.28 00:19:55.
