data_PCOD8088960
_publ_section_title
;
Structure prediction by ZEFSAII (Michael W. Deem and Ramdas Pophale) SiO2 
 PCOD8088960
Probable space group: C 2/M
;
_chemical_formula_sum "Si O2"
_cell_formula_units_Z 48
_cell_length_a 11.198848
_cell_length_b 18.422105
_cell_length_c 14.730025
_cell_angle_alpha 90.000000
_cell_angle_beta 124.737753
_cell_angle_gamma 90.000000
_cell_volume 2497.271223
_symmetry_space_group_name_H-M "C 2/M"
_symmetry_group_IT_number 12
_symmetry_cell_setting 'monoclinic'
loop_
_space_group_symop_operation_xyz
x,y,z
-x,y,-z
-x,-y,-z
x,-y,z
1/2+x,1/2+y,z
1/2-x,1/2+y,-z
1/2-x,1/2-y,-z
1/2+x,1/2-y,z
loop_
_atom_site_type_symbol
_atom_site_label
_atom_site_fract_x
_atom_site_fract_y
_atom_site_fract_z
Si Si1 0.567728 0.667655 0.932119
Si Si2 0.586419 0.582829 0.288496
Si Si3 0.399224 0.417740 0.379230
Si Si4 0.087156 0.585967 0.272638
Si Si5 0.374840 0.913737 0.508212
Si Si6 0.594712 0.838092 0.952203
O O1 0.453588 0.633789 0.812406
O O2 0.565432 0.753799 0.925526
O O3 0.500000 0.642658 0.000000
O O4 0.732064 0.642487 0.974776
O O5 0.613030 0.500000 0.265887
O O6 0.457128 0.585262 0.303586
O O7 0.724610 0.615708 0.401620
O O8 0.500000 0.379043 0.500000
O O9 0.376483 0.500000 0.404996
O O10 0.240310 0.383134 0.302066
O O11 0.067726 0.500000 0.256297
O O12 0.085372 0.614285 0.375018
O O13 0.959399 0.621580 0.160725
O O14 0.500000 0.882207 0.500000
O O15 0.366006 0.000000 0.505197
O O16 0.500000 0.864556 0.000000
#
# Coordination Sequence:
#
# PCOD8088960 Si02
#       6
#     8   8   8   8   8   8
#     4  10  23  40  57  76 105 147 183 219 271 318
#     4  10  19  33  56  81 108 139 176 220 261 314
#     4   9  15  28  51  80 109 136 166 206 264 319
#     4  10  19  32  57  84 106 136 176 220 263 316
#     4   9  18  31  49  78 113 143 167 207 270 321
#     4  10  22  41  58  75 107 145 180 222 271 318
#
# _framework density 19.220980000000001
#
# number of rings (size 3 to 8) (size 9 to 14) (size 15 to 20)
#    0.000    2.333    1.667    1.000    2.333    1.333 
#    0.000    0.833    0.000    0.000    0.000    0.000 
#    0.000    0.000    0.000    0.000    0.000    0.000 
#
# Total GULP energy -297349.960422 kJ/mol
# GULP energy per Si atom -12389.581684 kJ/mol
# Density = 1.917723 g / cm^3
# Si number density = 19.220980 Si / 1000 Ang^3
#
#
#
# Elastic Constant Matrix: (Units=GPa)
#
#
# Indices 1 2 3 4 5 6 
#
# 1 131.9365 14.8957 51.5255 0.0000 -6.6133 0.0000
# 2 14.8957 14.3501 33.4417 0.0000 1.3820 0.0000
# 3 51.5255 33.4417 154.8772 0.0000 0.2572 0.0000
# 4 0.0000 0.0000 0.0000 -3.3341 0.0000 -2.6721
# 5 -6.6133 1.3820 0.2572 0.0000 27.3786 0.0000
# 6 0.0000 0.0000 0.0000 -2.6721 0.0000 10.7010
#
#
#
# Elastic Compliance Matrix: (Units=1/GPa)
#
#
# Indices 1 2 3 4 5 6 
#
# 1 0.009027 -0.005232 -0.001877 0.000000 0.002462 0.000000
# 2 -0.005232 0.144577 -0.029463 0.000000 -0.008285 0.000000
# 3 -0.001877 -0.029463 0.013442 0.000000 0.000907 0.000000
# 4 0.000000 0.000000 0.000000 -0.249918 0.000000 -0.062406
# 5 0.002462 -0.008285 0.000907 0.000000 0.037529 0.000000
# 6 0.000000 0.000000 0.000000 -0.062406 0.000000 0.077866
#
#
# Mechanical properties :
#
#
# Convention : Reuss Voigt Hill
#
# Bulk Modulus (GPa) = 10.64964 55.65440 33.15202
# Shear Modulus (GPa) = 36.50518 20.36916 28.43717
#
# Velocity S-wave (km/s) = 4.36275 3.25889 3.85058
# Velocity P-wave (km/s) = 5.56154 6.57102 6.08725
#
# Compressibility (1/GPa) = 0.09389993
#
# Stress axis : x y z
#
# Youngs Moduli (GPa) = 110.78241 6.91675 74.39550
#
# Poissons Ratio (x) = 0.03619 0.13968
# Poissons Ratio (y) = 0.57958 2.19194
# Poissons Ratio (z) = 0.20799 0.20379
#
# Static dielectric constant tensor:
#      x y z
#    x 3.867370 0.000000 0.028450 
#    y 0.000000 3.023250 0.000000 
#    z 0.028450 0.000000 3.541420 
# 
# 
# High freq. dielectric constant tensor:
#      x y z
#    x 1.766320 0.000000 0.001360 
#    y 0.000000 1.692520 0.000000 
#    z 0.001360 0.000000 1.759250 
# 
# From -- ./inp_files/89734.got.cif
#   From: 2010.06.25/outbox.cif.g09.slc.cpg/sg12_45_cif.got.tgz:89734.got - 2010.06.28 00:19:55.
