data_PCOD8088658
_publ_section_title
;
Structure prediction by ZEFSAII (Michael W. Deem and Ramdas Pophale) SiO2 
 PCOD8088658
Probable space group: C 2/M
;
_chemical_formula_sum "Si O2"
_cell_formula_units_Z 64
_cell_length_a 19.513454
_cell_length_b 9.589332
_cell_length_c 23.923699
_cell_angle_alpha 90.000000
_cell_angle_beta 129.237723
_cell_angle_gamma 90.000000
_cell_volume 3467.273238
_symmetry_space_group_name_H-M "C 2/M"
_symmetry_group_IT_number 12
_symmetry_cell_setting 'monoclinic'
loop_
_space_group_symop_operation_xyz
x,y,z
-x,y,-z
-x,-y,-z
x,-y,z
1/2+x,1/2+y,z
1/2-x,1/2+y,-z
1/2-x,1/2-y,-z
1/2+x,1/2-y,z
loop_
_atom_site_type_symbol
_atom_site_label
_atom_site_fract_x
_atom_site_fract_y
_atom_site_fract_z
Si Si1 0.162078 0.840850 0.245988
Si Si2 0.955787 0.841185 0.129240
Si Si3 0.576001 0.839390 0.383024
Si Si4 0.071586 0.836462 0.490023
Si Si5 0.771443 0.661056 0.618599
Si Si6 0.424315 0.162757 0.219280
Si Si7 0.413074 0.665994 0.985242
Si Si8 0.739843 0.335103 0.172299
O O1 0.182227 0.750345 0.310239
O O2 0.217179 0.778531 0.222332
O O3 0.060575 0.829434 0.176439
O O4 0.188657 0.000000 0.273323
O O5 0.920575 0.743955 0.159726
O O6 0.928453 0.000000 0.128584
O O7 0.911002 0.787138 0.048852
O O8 0.550949 0.745252 0.422740
O O9 0.676104 0.813025 0.412705
O O10 0.510920 0.797487 0.299054
O O11 0.562068 0.000000 0.393394
O O12 0.169580 0.793462 0.560424
O O13 0.000000 0.793081 0.500000
O O14 0.065906 0.000000 0.473904
O O15 0.779386 0.500000 0.640045
O O16 0.339436 0.210194 0.210934
O O17 0.421609 0.000000 0.203611
O O18 0.416535 0.500000 0.984457
O O19 0.326520 0.725962 0.909023
O O20 0.500000 0.727816 0.000000
O O21 0.727447 0.500000 0.166974
#
# Coordination Sequence:
#
# PCOD8088658 Si02
#       8
#     8   8   8   8   8   8   8   8
#     4  10  19  32  55  83 104 132 182 229 259 300
#     4  10  19  32  54  82 106 134 180 227 262 306
#     4  10  21  37  57  79 105 142 180 212 254 314
#     4  10  23  40  57  81 110 138 171 215 266 313
#     4  10  21  38  57  78 108 143 175 210 262 320
#     4  10  21  36  53  77 112 145 172 212 267 319
#     4   9  15  28  51  77 105 137 177 226 269 304
#     4   9  18  32  51  77 107 141 180 221 265 310
#
# _framework density 18.458309
#
# number of rings (size 3 to 8) (size 9 to 14) (size 15 to 20)
#    0.000    2.250    2.500    0.375    1.750    2.250 
#    0.000    0.625    0.000    1.125    0.000    0.000 
#    0.000    0.000    0.000    0.000    0.000    0.000 
#
# Total GULP energy -396814.568532 kJ/mol
# GULP energy per Si atom -12400.455267 kJ/mol
# Density = 1.841630 g / cm^3
# Si number density = 18.458309 Si / 1000 Ang^3
#
#
#
# Elastic Constant Matrix: (Units=GPa)
#
#
# Indices 1 2 3 4 5 6 
#
# 1 112.5841 32.0791 33.1000 0.0000 -11.0736 0.0000
# 2 32.0791 42.8867 34.7894 0.0000 -13.2211 0.0000
# 3 33.1000 34.7894 78.4152 0.0000 -13.2283 0.0000
# 4 0.0000 0.0000 0.0000 18.5563 0.0000 -7.5238
# 5 -11.0736 -13.2211 -13.2283 0.0000 34.7201 0.0000
# 6 0.0000 0.0000 0.0000 -7.5238 0.0000 23.0178
#
#
#
# Elastic Compliance Matrix: (Units=1/GPa)
#
#
# Indices 1 2 3 4 5 6 
#
# 1 0.011420 -0.007152 -0.001595 0.000000 0.000311 0.000000
# 2 -0.007152 0.043257 -0.014725 0.000000 0.008581 0.000000
# 3 -0.001595 -0.014725 0.020227 0.000000 0.001591 0.000000
# 4 0.000000 0.000000 0.000000 0.062123 0.000000 0.020306
# 5 0.000311 0.008581 0.001591 0.000000 0.032774 0.000000
# 6 0.000000 0.000000 0.000000 0.020306 0.000000 0.050082
#
#
# Mechanical properties :
#
#
# Convention : Reuss Voigt Hill
#
# Bulk Modulus (GPa) = 35.76535 48.20256 41.98395
# Shear Modulus (GPa) = 18.10633 24.18667 21.14650
#
# Velocity S-wave (km/s) = 3.13538 3.62379 3.38840
# Velocity P-wave (km/s) = 5.70314 6.60909 6.17276
#
# Compressibility (1/GPa) = 0.02796003
#
# Stress axis : x y z
#
# Youngs Moduli (GPa) = 87.56835 23.11769 49.43937
#
# Poissons Ratio (x) = 0.16535 0.07884
# Poissons Ratio (y) = 0.62632 0.72797
# Poissons Ratio (z) = 0.13965 0.34040
#
# Static dielectric constant tensor:
#      x y z
#    x 3.563000 0.000000 0.060130 
#    y 0.000000 3.091020 0.000000 
#    z 0.060130 0.000000 3.425440 
# 
# 
# High freq. dielectric constant tensor:
#      x y z
#    x 1.726280 0.000000 -0.000270 
#    y 0.000000 1.681250 0.000000 
#    z -0.000270 0.000000 1.721450 
# 
# From -- ./inp_files/315738.got.cif
#   From: 2010.06.25/outbox.cif.g09.slc.cpg/sg12_158_cif.got.tgz:315738.got - 2010.06.28 00:19:55.
