data_PCOD8088737
_publ_section_title
;
Structure prediction by ZEFSAII (Michael W. Deem and Ramdas Pophale) SiO2 
 PCOD8088737
Probable space group: C 2/M
;
_chemical_formula_sum "Si O2"
_cell_formula_units_Z 56
_cell_length_a 25.108113
_cell_length_b 8.854415
_cell_length_c 17.099276
_cell_angle_alpha 90.000000
_cell_angle_beta 132.613731
_cell_angle_gamma 90.000000
_cell_volume 2797.634922
_symmetry_space_group_name_H-M "C 2/M"
_symmetry_group_IT_number 12
_symmetry_cell_setting 'monoclinic'
loop_
_space_group_symop_operation_xyz
x,y,z
-x,y,-z
-x,-y,-z
x,-y,z
1/2+x,1/2+y,z
1/2-x,1/2+y,-z
1/2-x,1/2-y,-z
1/2+x,1/2-y,z
loop_
_atom_site_type_symbol
_atom_site_label
_atom_site_fract_x
_atom_site_fract_y
_atom_site_fract_z
Si Si1 0.913411 0.178168 0.013696
Si Si2 0.824230 0.176462 0.778590
Si Si3 0.060234 0.824800 0.231647
Si Si4 0.672388 0.321525 0.922367
Si Si5 0.439246 0.821733 0.600565
Si Si6 0.169095 0.178076 0.617056
Si Si7 0.418823 0.322150 0.316963
O O1 0.869830 0.241584 0.044607
O O2 0.997386 0.224552 0.107818
O O3 0.907433 0.000000 0.003837
O O4 0.877745 0.241927 0.898969
O O5 0.862913 0.202695 0.733567
O O6 0.751030 0.269917 0.709404
O O7 0.807048 0.000000 0.774306
O O8 0.053325 0.727152 0.302431
O O9 0.049624 0.000000 0.244573
O O10 0.679997 0.500000 0.931519
O O11 0.629979 0.267677 0.803598
O O12 0.750000 0.250000 0.000000
O O13 0.364074 0.757235 0.492286
O O14 0.504139 0.759520 0.611438
O O15 0.438230 0.000000 0.594841
O O16 0.122264 0.227334 0.645536
O O17 0.167846 0.000000 0.603546
O O18 0.433613 0.500000 0.329592
#
# Coordination Sequence:
#
# PCOD8088737 Si02
#       7
#     8   8   8   8   8   8   8
#     4   9  17  34  60  88 119 155 195 239 289 349
#     4  10  21  37  62  93 121 155 200 249 294 345
#     4  10  20  39  64  88 120 160 201 242 294 360
#     4  10  19  32  54  84 121 157 190 233 283 345
#     4  12  25  40  62  90 118 152 201 257 302 348
#     4  11  24  41  62  86 120 162 198 242 301 363
#     4  10  21  40  62  86 118 159 200 237 294 365
#
# _framework density 20.016907
#
# number of rings (size 3 to 8) (size 9 to 14) (size 15 to 20)
#    0.000    1.714    1.429    3.429    0.000    6.286 
#    0.000    0.714    0.000    1.714    0.000    0.000 
#    0.000    0.000    0.000    0.000    0.000    0.000 
#
# Total GULP energy -347270.673961 kJ/mol
# GULP energy per Si atom -12402.524070 kJ/mol
# Density = 1.997135 g / cm^3
# Si number density = 20.016907 Si / 1000 Ang^3
#
#
#
# Elastic Constant Matrix: (Units=GPa)
#
#
# Indices 1 2 3 4 5 6 
#
# 1 108.6964 43.5741 50.0502 0.0000 9.5404 0.0000
# 2 43.5741 62.6083 35.4851 0.0000 7.1238 0.0000
# 3 50.0502 35.4851 117.8488 0.0000 13.0759 0.0000
# 4 0.0000 0.0000 0.0000 24.2877 0.0000 8.9348
# 5 9.5404 7.1238 13.0759 0.0000 20.0323 0.0000
# 6 0.0000 0.0000 0.0000 8.9348 0.0000 27.7098
#
#
#
# Elastic Compliance Matrix: (Units=1/GPa)
#
#
# Indices 1 2 3 4 5 6 
#
# 1 0.013982 -0.007571 -0.003470 0.000000 -0.001702 0.000000
# 2 -0.007571 0.023564 -0.003612 0.000000 -0.002416 0.000000
# 3 -0.003470 -0.003612 0.011558 0.000000 -0.004607 0.000000
# 4 0.000000 0.000000 0.000000 0.046714 0.000000 -0.015063
# 5 -0.001702 -0.002416 -0.004607 0.000000 0.054597 0.000000
# 6 0.000000 0.000000 0.000000 -0.015063 0.000000 0.040945
#
#
# Mechanical properties :
#
#
# Convention : Reuss Voigt Hill
#
# Bulk Modulus (GPa) = 50.50841 60.81913 55.66377
# Shear Modulus (GPa) = 22.00092 25.07557 23.53824
#
# Velocity S-wave (km/s) = 3.31889 3.54322 3.43289
# Velocity P-wave (km/s) = 6.32253 6.86943 6.60164
#
# Compressibility (1/GPa) = 0.01979868
#
# Stress axis : x y z
#
# Youngs Moduli (GPa) = 71.52060 42.43841 86.52239
#
# Poissons Ratio (x) = 0.32130 0.30020
# Poissons Ratio (y) = 0.54148 0.31249
# Poissons Ratio (z) = 0.24815 0.15327
#
# Static dielectric constant tensor:
#      x y z
#    x 3.799150 0.000000 -0.205750 
#    y 0.000000 3.343120 0.000000 
#    z -0.205750 0.000000 4.018470 
# 
# 
# High freq. dielectric constant tensor:
#      x y z
#    x 1.790260 0.000000 0.000490 
#    y 0.000000 1.752800 0.000000 
#    z 0.000490 0.000000 1.796180 
# 
# From -- ./inp_files/288377.got.cif
#   From: 2010.06.25/outbox.cif.g09.slc.cpg/sg12_145_cif.got.tgz:288377.got - 2010.06.28 00:19:55.
