data_PCOD8088392
_publ_section_title
;
Structure prediction by ZEFSAII (Michael W. Deem and Ramdas Pophale) SiO2 
 PCOD8088392
Probable space group: C 2/M
;
_chemical_formula_sum "Si O2"
_cell_formula_units_Z 48
_cell_length_a 19.160371
_cell_length_b 8.932500
_cell_length_c 29.235453
_cell_angle_alpha 90.000000
_cell_angle_beta 31.735439
_cell_angle_gamma 90.000000
_cell_volume 2631.907941
_symmetry_space_group_name_H-M "C 2/M"
_symmetry_group_IT_number 12
_symmetry_cell_setting 'monoclinic'
loop_
_space_group_symop_operation_xyz
x,y,z
-x,y,-z
-x,-y,-z
x,-y,z
1/2+x,1/2+y,z
1/2-x,1/2+y,-z
1/2-x,1/2-y,-z
1/2+x,1/2-y,z
loop_
_atom_site_type_symbol
_atom_site_label
_atom_site_fract_x
_atom_site_fract_y
_atom_site_fract_z
Si Si1 0.821028 0.173363 0.228170
Si Si2 0.115762 0.174631 0.467312
Si Si3 0.445824 0.327344 0.644355
Si Si4 0.403106 0.325512 0.770227
Si Si5 0.605772 0.822572 0.723264
Si Si6 0.133464 0.826488 0.900320
O O1 0.669163 0.226433 0.312895
O O2 0.904377 0.265002 0.219120
O O3 0.886529 0.204477 0.142366
O O4 0.825064 0.000000 0.239009
O O5 0.259448 0.243519 0.375196
O O6 0.000000 0.245304 0.500000
O O7 0.079722 0.204613 0.540718
O O8 0.124644 0.000000 0.451297
O O9 0.401116 0.500000 0.663912
O O10 0.470883 0.288197 0.683389
O O11 0.408756 0.500000 0.778299
O O12 0.479849 0.236733 0.766217
O O13 0.251125 0.273397 0.854951
O O14 0.601291 0.000000 0.725215
O O15 0.167932 0.000000 0.889955
O O16 0.000000 0.777093 0.000000
#
# Coordination Sequence:
#
# PCOD8088392 Si02
#       6
#     8   8   8   8   8   8
#     4  10  19  32  53  80 107 133 169 216 262 308
#     4   9  16  29  51  75 100 137 186 222 248 298
#     4   9  17  33  53  73 101 142 182 215 256 305
#     4  10  21  35  53  79 111 138 170 218 266 309
#     4  11  21  34  53  75 106 146 181 214 258 308
#     4   9  19  38  62  83 103 132 170 210 257 320
#
# _framework density 18.237719999999999
#
# number of rings (size 3 to 8) (size 9 to 14) (size 15 to 20)
#    0.000    2.333    1.667    1.500    0.000    2.333 
#    0.000    3.333    0.000    0.000    0.000    0.000 
#    0.000    0.000    0.000    0.000    0.000    0.000 
#
# Total GULP energy -297601.671133 kJ/mol
# GULP energy per Si atom -12400.069631 kJ/mol
# Density = 1.819621 g / cm^3
# Si number density = 18.237720 Si / 1000 Ang^3
#
#
#
# Elastic Constant Matrix: (Units=GPa)
#
#
# Indices 1 2 3 4 5 6 
#
# 1 130.5282 55.4547 52.2715 -0.0050 -1.7993 0.0093
# 2 55.4547 73.7589 35.9063 -0.0075 -2.0282 0.0103
# 3 52.2715 35.9063 106.8640 0.0003 8.9310 0.0015
# 4 -0.0050 -0.0075 0.0003 22.2283 0.0019 -1.1121
# 5 -1.7993 -2.0282 8.9310 0.0019 18.7694 -0.0034
# 6 0.0093 0.0103 0.0015 -1.1121 -0.0034 30.7930
#
#
#
# Elastic Compliance Matrix: (Units=1/GPa)
#
#
# Indices 1 2 3 4 5 6 
#
# 1 0.012323 -0.007393 -0.003724 0.000000 0.002154 -0.000001
# 2 -0.007393 0.021021 -0.003726 0.000005 0.003336 -0.000004
# 3 -0.003724 -0.003726 0.013012 -0.000002 -0.006951 0.000001
# 4 0.000000 0.000005 -0.000002 0.045069 -0.000003 0.001628
# 5 0.002154 0.003336 -0.006951 -0.000003 0.057153 0.000005
# 6 -0.000001 -0.000004 0.000001 0.001628 0.000005 0.032534
#
#
# Mechanical properties :
#
#
# Convention : Reuss Voigt Hill
#
# Bulk Modulus (GPa) = 59.98268 66.49069 63.23669
# Shear Modulus (GPa) = 23.11033 25.52606 24.31819
#
# Velocity S-wave (km/s) = 3.56360 3.74522 3.65554
# Velocity P-wave (km/s) = 7.06350 7.43231 7.25025
#
# Compressibility (1/GPa) = 0.01667148
#
# Stress axis : x y z
#
# Youngs Moduli (GPa) = 81.14953 47.57053 76.85294
#
# Poissons Ratio (x) = 0.35168 0.28618
# Poissons Ratio (y) = 0.59993 0.28634
# Poissons Ratio (z) = 0.30217 0.17724
#
# Static dielectric constant tensor:
#      x y z
#    x 3.358010 -0.000010 0.176450 
#    y -0.000010 3.256970 0.000010 
#    z 0.176450 0.000010 3.347680 
# 
# 
# High freq. dielectric constant tensor:
#      x y z
#    x 1.705110 0.000000 0.012990 
#    y 0.000000 1.697280 0.000000 
#    z 0.012990 0.000000 1.693500 
# 
# From -- ./inp_files/274057.got.cif
#   From: 2010.06.25/outbox.cif.g09.slc.cpg/sg12_138_cif.got.tgz:274057.got - 2010.06.28 00:19:55.
