data_PCOD8088854
_publ_section_title
;
Structure prediction by ZEFSAII (Michael W. Deem and Ramdas Pophale) SiO2 
 PCOD8088854
Probable space group: C 2/M
;
_chemical_formula_sum "Si O2"
_cell_formula_units_Z 40
_cell_length_a 24.721565
_cell_length_b 8.934014
_cell_length_c 14.305619
_cell_angle_alpha 90.000000
_cell_angle_beta 38.440796
_cell_angle_gamma 90.000000
_cell_volume 1964.328170
_symmetry_space_group_name_H-M "C 2/M"
_symmetry_group_IT_number 12
_symmetry_cell_setting 'monoclinic'
loop_
_space_group_symop_operation_xyz
x,y,z
-x,y,-z
-x,-y,-z
x,-y,z
1/2+x,1/2+y,z
1/2-x,1/2+y,-z
1/2-x,1/2-y,-z
1/2+x,1/2-y,z
loop_
_atom_site_type_symbol
_atom_site_label
_atom_site_fract_x
_atom_site_fract_y
_atom_site_fract_z
Si Si1 0.532898 0.330908 0.120284
Si Si2 0.742498 0.669290 0.722744
Si Si3 0.400098 0.176242 0.180983
Si Si4 0.294010 0.330583 0.025936
Si Si5 0.653488 0.667463 0.571116
O O1 0.557227 0.500000 0.051662
O O2 0.499356 0.225037 0.077368
O O3 0.611893 0.260735 0.073526
O O4 0.450862 0.339373 0.301353
O O5 0.746215 0.500000 0.681041
O O6 0.641806 0.732242 0.850224
O O7 0.809366 0.769167 0.575235
O O8 0.766980 0.679635 0.799191
O O9 0.330576 0.226419 0.358211
O O10 0.396596 0.000000 0.169286
O O11 0.307948 0.500000 0.975086
O O12 0.250000 0.250000 0.000000
O O13 0.690190 0.500000 0.539487
#
# Coordination Sequence:
#
# PCOD8088854 Si02
#       5
#     8   8   8   8   8
#     4   8  18  37  57  78 110 146 180 218 271 324
#     4  11  21  34  55  83 114 146 181 219 270 327
#     4  10  19  32  55  85 116 144 177 221 270 322
#     4  10  23  42  60  78 105 145 187 230 273 319
#     4   9  18  34  56  82 114 145 178 219 267 325
#
# _framework density 20.363195999999999
#
# number of rings (size 3 to 8) (size 9 to 14) (size 15 to 20)
#    1.200    1.200    0.000    3.000    0.000    3.200 
#    0.000    5.000    0.000    6.000    0.000    0.000 
#    0.000    0.000    0.000    0.000    0.000    0.000 
#
# Total GULP energy -247885.152170 kJ/mol
# GULP energy per Si atom -12394.257609 kJ/mol
# Density = 2.031685 g / cm^3
# Si number density = 20.363196 Si / 1000 Ang^3
#
#
#
# Elastic Constant Matrix: (Units=GPa)
#
#
# Indices 1 2 3 4 5 6 
#
# 1 147.3383 68.8370 45.9887 -0.0026 16.3426 0.0007
# 2 68.8370 133.9962 31.6566 -0.0006 7.6772 0.0000
# 3 45.9887 31.6566 49.1310 -0.0046 7.0490 0.0017
# 4 -0.0026 -0.0006 -0.0046 30.2335 0.0018 2.1615
# 5 16.3426 7.6772 7.0490 0.0018 16.9782 -0.0003
# 6 0.0007 0.0000 0.0017 2.1615 -0.0003 35.7593
#
#
#
# Elastic Compliance Matrix: (Units=1/GPa)
#
#
# Indices 1 2 3 4 5 6 
#
# 1 0.011623 -0.003836 -0.007498 0.000000 -0.006340 0.000000
# 2 -0.003836 0.010117 -0.002979 -0.000001 0.000355 0.000000
# 3 -0.007498 -0.002979 0.029840 0.000004 -0.003825 -0.000002
# 4 0.000000 -0.000001 0.000004 0.033219 -0.000005 -0.002008
# 5 -0.006340 0.000355 -0.003825 -0.000005 0.066430 0.000001
# 6 0.000000 0.000000 -0.000002 -0.002008 0.000001 0.028086
#
#
# Mechanical properties :
#
#
# Convention : Reuss Voigt Hill
#
# Bulk Modulus (GPa) = 43.56505 69.27002 56.41753
# Shear Modulus (GPa) = 23.19178 28.85974 26.02576
#
# Velocity S-wave (km/s) = 3.37843 3.76872 3.57890
# Velocity P-wave (km/s) = 6.05465 7.28209 6.69655
#
# Compressibility (1/GPa) = 0.02295418
#
# Stress axis : x y z
#
# Youngs Moduli (GPa) = 86.03539 98.84238 33.51165
#
# Poissons Ratio (x) = 0.37920 0.25128
# Poissons Ratio (y) = 0.33006 0.09982
# Poissons Ratio (z) = 0.64511 0.29442
#
# Static dielectric constant tensor:
#      x y z
#    x 3.492050 0.000000 -0.187210 
#    y 0.000000 3.538540 0.000000 
#    z -0.187210 0.000000 3.880370 
# 
# 
# High freq. dielectric constant tensor:
#      x y z
#    x 1.764310 0.000000 -0.010000 
#    y 0.000000 1.792700 0.000000 
#    z -0.010000 0.000000 1.825200 
# 
# From -- ./inp_files/236513.got.cif
#   From: 2010.06.25/outbox.cif.g09.slc.cpg/sg12_119_cif.got.tgz:236513.got - 2010.06.28 00:19:55.
