data_PCOD8088574
_publ_section_title
;
Structure prediction by ZEFSAII (Michael W. Deem and Ramdas Pophale) SiO2 
 PCOD8088574
Probable space group: C 2/M
;
_chemical_formula_sum "Si O2"
_cell_formula_units_Z 56
_cell_length_a 19.034112
_cell_length_b 9.366773
_cell_length_c 20.410418
_cell_angle_alpha 90.000000
_cell_angle_beta 119.656422
_cell_angle_gamma 90.000000
_cell_volume 3162.265565
_symmetry_space_group_name_H-M "C 2/M"
_symmetry_group_IT_number 12
_symmetry_cell_setting 'monoclinic'
loop_
_space_group_symop_operation_xyz
x,y,z
-x,y,-z
-x,-y,-z
x,-y,z
1/2+x,1/2+y,z
1/2-x,1/2+y,-z
1/2-x,1/2-y,-z
1/2+x,1/2-y,z
loop_
_atom_site_type_symbol
_atom_site_label
_atom_site_fract_x
_atom_site_fract_y
_atom_site_fract_z
Si Si1 0.174402 0.655071 0.451899
Si Si2 0.291297 0.335075 0.785427
Si Si3 0.110693 0.665549 0.741648
Si Si4 0.358909 0.843019 0.710476
Si Si5 0.006313 0.669684 0.428550
Si Si6 0.515278 0.668724 0.801229
Si Si7 0.461523 0.333057 0.917400
O O1 0.184553 0.500000 0.491060
O O2 0.250000 0.750000 0.500000
O O3 0.176400 0.631498 0.376251
O O4 0.091157 0.726423 0.438715
O O5 0.303363 0.500000 0.769906
O O6 0.206874 0.313849 0.782855
O O7 0.289829 0.234843 0.721049
O O8 0.368484 0.282270 0.864259
O O9 0.087534 0.500000 0.742965
O O10 0.065954 0.720273 0.654136
O O11 0.087752 0.757500 0.794995
O O12 0.433905 0.737532 0.736707
O O13 0.382097 0.000000 0.750759
O O14 0.004291 0.500000 0.429548
O O15 0.000000 0.731111 0.500000
O O16 0.515827 0.500000 0.788154
O O17 0.518063 0.702693 0.880566
O O18 0.458838 0.500000 0.927874
O O19 0.500000 0.258829 0.000000
#
# Coordination Sequence:
#
# PCOD8088574 Si02
#       7
#     8   8   8   8   8   8   8
#     4  10  21  34  50  72  98 129 169 212 261 308
#     4   9  19  32  53  81 101 133 178 211 250 304
#     4  10  19  34  53  74 105 136 171 216 258 307
#     4  10  19  34  52  72 102 136 169 214 265 305
#     4   9  18  33  51  70  95 133 172 208 256 305
#     4  10  19  32  54  79 100 133 176 210 252 309
#     4   8  15  31  53  77 105 134 169 211 253 301
#
# _framework density 17.708822999999999
#
# number of rings (size 3 to 8) (size 9 to 14) (size 15 to 20)
#    0.000    2.571    1.429    1.714    2.000    1.714 
#    0.000    0.714    0.000   11.571    0.000    0.000 
#    0.000    0.000    0.000    0.000    0.000    0.000 
#
# Total GULP energy -346930.827224 kJ/mol
# GULP energy per Si atom -12390.386687 kJ/mol
# Density = 1.766852 g / cm^3
# Si number density = 17.708823 Si / 1000 Ang^3
#
#
#
# Elastic Constant Matrix: (Units=GPa)
#
#
# Indices 1 2 3 4 5 6 
#
# 1 126.0027 53.5597 60.1692 0.0000 -0.1537 0.0000
# 2 53.5597 72.6031 34.1338 0.0000 -6.1457 0.0000
# 3 60.1692 34.1338 98.7651 0.0000 -6.7892 0.0000
# 4 0.0000 0.0000 0.0000 16.5319 0.0000 -3.4050
# 5 -0.1537 -6.1457 -6.7892 0.0000 22.2155 0.0000
# 6 0.0000 0.0000 0.0000 -3.4050 0.0000 30.9524
#
#
#
# Elastic Compliance Matrix: (Units=1/GPa)
#
#
# Indices 1 2 3 4 5 6 
#
# 1 0.014285 -0.007948 -0.006231 0.000000 -0.004004 0.000000
# 2 -0.007948 0.021049 -0.002080 0.000000 0.005132 0.000000
# 3 -0.006231 -0.002080 0.014911 0.000000 0.003938 0.000000
# 4 0.000000 0.000000 0.000000 0.061892 0.000000 0.006809
# 5 -0.004004 0.005132 0.003938 0.000000 0.047609 0.000000
# 6 0.000000 0.000000 0.000000 0.006809 0.000000 0.033057
#
#
# Mechanical properties :
#
#
# Convention : Reuss Voigt Hill
#
# Bulk Modulus (GPa) = 56.41087 65.89959 61.15523
# Shear Modulus (GPa) = 21.62352 23.90716 22.76534
#
# Velocity S-wave (km/s) = 3.49816 3.67824 3.58933
# Velocity P-wave (km/s) = 6.94550 7.43861 7.19628
#
# Compressibility (1/GPa) = 0.01772708
#
# Stress axis : x y z
#
# Youngs Moduli (GPa) = 70.00160 47.50842 67.06531
#
# Poissons Ratio (x) = 0.37758 0.41791
# Poissons Ratio (y) = 0.55635 0.13949
# Poissons Ratio (z) = 0.43620 0.09882
#
# Static dielectric constant tensor:
#      x y z
#    x 3.372180 0.000000 -0.076010 
#    y 0.000000 2.932520 0.000000 
#    z -0.076010 0.000000 3.310680 
# 
# 
# High freq. dielectric constant tensor:
#      x y z
#    x 1.687650 0.000000 -0.005810 
#    y 0.000000 1.662830 0.000000 
#    z -0.005810 0.000000 1.671020 
# 
# From -- ./inp_files/313799.got.cif
#   From: 2010.06.25/outbox.cif.g09.slc.cpg/sg12_157_cif.got.tgz:313799.got - 2010.06.28 00:19:55.
