data_PCOD8088631
_publ_section_title
;
Structure prediction by ZEFSAII (Michael W. Deem and Ramdas Pophale) SiO2 
 PCOD8088631
Probable space group: C 2/M
;
_chemical_formula_sum "Si O2"
_cell_formula_units_Z 56
_cell_length_a 23.902712
_cell_length_b 14.489134
_cell_length_c 8.842570
_cell_angle_alpha 90.000000
_cell_angle_beta 106.767813
_cell_angle_gamma 90.000000
_cell_volume 2932.233853
_symmetry_space_group_name_H-M "C 2/M"
_symmetry_group_IT_number 12
_symmetry_cell_setting 'monoclinic'
loop_
_space_group_symop_operation_xyz
x,y,z
-x,y,-z
-x,-y,-z
x,-y,z
1/2+x,1/2+y,z
1/2-x,1/2+y,-z
1/2-x,1/2-y,-z
1/2+x,1/2-y,z
loop_
_atom_site_type_symbol
_atom_site_label
_atom_site_fract_x
_atom_site_fract_y
_atom_site_fract_z
Si Si1 0.185180 0.747047 0.890323
Si Si2 0.013923 0.777190 0.334811
Si Si3 0.772380 0.194010 0.376747
Si Si4 0.592427 0.603883 0.803415
Si Si5 0.163625 0.607577 0.115884
Si Si6 0.385109 0.599434 0.528748
Si Si7 0.542280 0.103173 0.174046
O O1 0.190216 0.740753 0.710846
O O2 0.149457 0.840262 0.907048
O O3 0.250000 0.750000 0.000000
O O4 0.155087 0.658857 0.946753
O O5 0.076153 0.826045 0.351988
O O6 0.018429 0.673141 0.280097
O O7 0.000000 0.771079 0.500000
O O8 0.965232 0.835577 0.203877
O O9 0.750000 0.250000 0.500000
O O10 0.720606 0.142822 0.248577
O O11 0.816389 0.120053 0.482346
O O12 0.590733 0.500000 0.874292
O O13 0.593302 0.593760 0.625378
O O14 0.170178 0.500000 0.084292
O O15 0.107896 0.628896 0.175724
O O16 0.394982 0.500000 0.614160
O O17 0.541138 0.000000 0.242774
O O18 0.500000 0.108800 0.000000
#
# Coordination Sequence:
#
# PCOD8088631 Si02
#       7
#     8   8   8   8   8   8   8
#     4   9  19  33  53  78 102 138 179 215 256 307
#     4  10  19  32  54  81 107 134 170 219 268 315
#     4  10  19  33  54  79 109 139 174 222 274 322
#     4   9  17  31  53  79 106 136 171 210 257 315
#     4  10  20  36  55  74 102 144 185 219 265 323
#     4   9  17  30  50  77 106 137 171 206 255 320
#     4  10  21  36  54  74 100 139 180 218 265 318
#
# _framework density 19.098067
#
# number of rings (size 3 to 8) (size 9 to 14) (size 15 to 20)
#    0.000    2.429    0.000    2.571    0.000    5.429 
#    0.000    1.429    0.000   24.857    0.000    0.000 
#    0.000    0.000    0.000    0.000    0.000    0.000 
#
# Total GULP energy -346991.174872 kJ/mol
# GULP energy per Si atom -12392.541960 kJ/mol
# Density = 1.905460 g / cm^3
# Si number density = 19.098067 Si / 1000 Ang^3
#
#
#
# Elastic Constant Matrix: (Units=GPa)
#
#
# Indices 1 2 3 4 5 6 
#
# 1 101.7410 68.7608 35.5084 0.0000 19.0558 0.0000
# 2 68.7608 163.1513 49.9234 0.0000 -3.3675 0.0000
# 3 35.5084 49.9234 48.7853 0.0000 8.6712 0.0000
# 4 0.0000 0.0000 0.0000 29.5044 0.0000 -0.0163
# 5 19.0558 -3.3675 8.6712 0.0000 33.8340 0.0000
# 6 0.0000 0.0000 0.0000 -0.0163 0.0000 28.5598
#
#
#
# Elastic Compliance Matrix: (Units=1/GPa)
#
#
# Indices 1 2 3 4 5 6 
#
# 1 0.017257 -0.005985 -0.004822 0.000000 -0.009079 0.000000
# 2 -0.005985 0.011385 -0.008481 0.000000 0.006677 0.000000
# 3 -0.004822 -0.008481 0.033898 0.000000 -0.006816 0.000000
# 4 0.000000 0.000000 0.000000 0.033893 0.000000 0.000019
# 5 -0.009079 0.006677 -0.006816 0.000000 0.037081 0.000000
# 6 0.000000 0.000000 0.000000 0.000019 0.000000 0.035014
#
#
# Mechanical properties :
#
#
# Convention : Reuss Voigt Hill
#
# Bulk Modulus (GPa) = 41.73002 69.11809 55.42406
# Shear Modulus (GPa) = 23.24575 29.01197 26.12886
#
# Velocity S-wave (km/s) = 3.49259 3.90180 3.70285
# Velocity P-wave (km/s) = 6.17755 7.52120 6.88224
#
# Compressibility (1/GPa) = 0.02396356
#
# Stress axis : x y z
#
# Youngs Moduli (GPa) = 57.94633 87.83813 29.50011
#
# Poissons Ratio (x) = 0.52571 0.14226
# Poissons Ratio (y) = 0.34680 0.25019
# Poissons Ratio (z) = 0.27944 0.74494
#
# Static dielectric constant tensor:
#      x y z
#    x 4.076800 0.000000 0.424200 
#    y 0.000000 3.757480 0.000000 
#    z 0.424200 0.000000 3.554580 
# 
# 
# High freq. dielectric constant tensor:
#      x y z
#    x 1.753120 0.000000 0.022680 
#    y 0.000000 1.744550 0.000000 
#    z 0.022680 0.000000 1.713860 
# 
# From -- ./inp_files/96984.got.cif
#   From: 2010.06.25/outbox.cif.g09.slc.cpg/sg12_49_cif.got.tgz:96984.got - 2010.06.28 00:19:55.
