data_PCOD8088029
_publ_section_title
;
Structure prediction by ZEFSAII (Michael W. Deem and Ramdas Pophale) SiO2 
 PCOD8088029
Probable space group: C 2/M
;
_chemical_formula_sum "Si O2"
_cell_formula_units_Z 56
_cell_length_a 10.119144
_cell_length_b 18.556236
_cell_length_c 22.666136
_cell_angle_alpha 90.000000
_cell_angle_beta 47.958299
_cell_angle_gamma 90.000000
_cell_volume 3160.820231
_symmetry_space_group_name_H-M "C 2/M"
_symmetry_group_IT_number 12
_symmetry_cell_setting 'monoclinic'
loop_
_space_group_symop_operation_xyz
x,y,z
-x,y,-z
-x,-y,-z
x,-y,z
1/2+x,1/2+y,z
1/2-x,1/2+y,-z
1/2-x,1/2-y,-z
1/2+x,1/2-y,z
loop_
_atom_site_type_symbol
_atom_site_label
_atom_site_fract_x
_atom_site_fract_y
_atom_site_fract_z
Si Si1 0.106657 0.182047 0.827277
Si Si2 0.853500 0.812084 1.000000
Si Si3 0.587546 0.414374 0.608302
Si Si4 0.411515 0.817953 0.827277
Si Si5 0.646173 0.914568 0.569217
Si Si6 0.296010 0.914623 0.316138
Si Si7 0.255585 0.585377 0.316136
O O1 0.282044 0.206057 0.811971
O O2 0.154682 0.119690 0.767614
O O3 0.959779 0.146012 0.916123
O O4 0.024734 0.250000 0.816845
O O5 0.750000 0.750000 0.000000
O O6 0.708148 0.853988 0.083877
O O7 0.000000 0.777625 0.000000
O O8 0.597410 0.500000 0.601726
O O9 0.720996 0.381256 0.519337
O O10 0.388409 0.387221 0.656361
O O11 0.642491 0.387221 0.656367
O O12 0.542480 0.880310 0.767614
O O13 0.705018 0.887963 0.616059
O O14 0.446800 0.887966 0.616056
O O15 0.655302 0.000000 0.563134
O O16 0.319356 0.000000 0.304923
O O17 0.265889 0.500000 0.304919
#
# Coordination Sequence:
#
# PCOD8088029 Si02
#       7
#     8   8   8   8   8   8   8
#     4  10  20  34  54  76 101 132 166 204 248 297
#     4   8  16  32  51  73  96 126 168 203 236 291
#     4   9  18  30  49  76 101 132 170 207 245 289
#     4  10  20  34  54  76 101 132 166 204 248 297
#     4   9  16  30  51  74  99 130 170 209 245 289
#     4  10  19  32  52  77 104 130 165 210 251 293
#     4  10  19  32  52  77 104 130 165 210 251 293
#
# _framework density 17.716920999999999
#
# number of rings (size 3 to 8) (size 9 to 14) (size 15 to 20)
#    0.000    2.571    1.429    0.857    2.000    3.429 
#    0.000    0.714    0.000    7.714    0.000    3.000 
#    0.000    0.000    0.000    0.000    0.000    0.000 
#
# Total GULP energy -346913.204915 kJ/mol
# GULP energy per Si atom -12389.757318 kJ/mol
# Density = 1.767660 g / cm^3
# Si number density = 17.716921 Si / 1000 Ang^3
#
#
#
# Elastic Constant Matrix: (Units=GPa)
#
#
# Indices 1 2 3 4 5 6 
#
# 1 157.3036 27.4303 80.2514 0.0001 0.0019 0.0004
# 2 27.4303 29.6827 39.5421 0.0005 -0.0015 0.0002
# 3 80.2514 39.5421 174.5886 0.0004 -0.0030 0.0006
# 4 0.0001 0.0005 0.0004 20.0811 -0.0002 0.0002
# 5 0.0019 -0.0015 -0.0030 -0.0002 28.3255 -0.0004
# 6 0.0004 0.0002 0.0006 0.0002 -0.0004 16.8633
#
#
#
# Elastic Compliance Matrix: (Units=1/GPa)
#
#
# Indices 1 2 3 4 5 6 
#
# 1 0.008600 -0.003840 -0.003083 0.000000 -0.000001 0.000000
# 2 -0.003840 0.049961 -0.009551 -0.000001 0.000002 0.000000
# 3 -0.003083 -0.009551 0.009308 0.000000 0.000001 0.000000
# 4 0.000000 -0.000001 0.000000 0.049798 0.000000 -0.000001
# 5 -0.000001 0.000002 0.000001 0.000000 0.035304 0.000001
# 6 0.000000 0.000000 0.000000 -0.000001 0.000001 0.059301
#
#
# Mechanical properties :
#
#
# Convention : Reuss Voigt Hill
#
# Bulk Modulus (GPa) = 28.63560 72.89136 50.76348
# Shear Modulus (GPa) = 19.46596 27.34404 23.40500
#
# Velocity S-wave (km/s) = 3.31829 3.93286 3.63857
# Velocity P-wave (km/s) = 5.55692 7.86478 6.80933
#
# Compressibility (1/GPa) = 0.03492156
#
# Stress axis : x y z
#
# Youngs Moduli (GPa) = 116.28321 20.01570 107.43348
#
# Poissons Ratio (x) = 0.07685 0.33125
# Poissons Ratio (y) = 0.44649 1.02605
# Poissons Ratio (z) = 0.35854 0.19116
#
# Static dielectric constant tensor:
#      x y z
#    x 3.666490 0.000000 0.000010 
#    y 0.000000 2.689210 0.000010 
#    z 0.000010 0.000010 3.880370 
# 
# 
# High freq. dielectric constant tensor:
#      x y z
#    x 1.710200 0.000000 0.000000 
#    y 0.000000 1.615630 0.000000 
#    z 0.000000 0.000000 1.709380 
# 
# From -- ./inp_files/302073.got.cif
#   From: 2010.06.25/outbox.cif.g09.slc.cpg/sg12_152_cif.got.tgz:302073.got - 2010.06.28 00:19:55.
