data_PCOD8088674
_publ_section_title
;
Structure prediction by ZEFSAII (Michael W. Deem and Ramdas Pophale) SiO2 
 PCOD8088674
Probable space group: C 2/M
;
_chemical_formula_sum "Si O2"
_cell_formula_units_Z 64
_cell_length_a 20.403858
_cell_length_b 9.339840
_cell_length_c 18.464442
_cell_angle_alpha 90.000000
_cell_angle_beta 97.131819
_cell_angle_gamma 90.000000
_cell_volume 3491.521950
_symmetry_space_group_name_H-M "C 2/M"
_symmetry_group_IT_number 12
_symmetry_cell_setting 'monoclinic'
loop_
_space_group_symop_operation_xyz
x,y,z
-x,y,-z
-x,-y,-z
x,-y,z
1/2+x,1/2+y,z
1/2-x,1/2+y,-z
1/2-x,1/2-y,-z
1/2+x,1/2-y,z
loop_
_atom_site_type_symbol
_atom_site_label
_atom_site_fract_x
_atom_site_fract_y
_atom_site_fract_z
Si Si1 0.448435 0.331991 0.052937
Si Si2 0.315712 0.666673 0.422315
Si Si3 0.455171 0.164600 0.200154
Si Si4 0.834776 0.335393 0.564231
Si Si5 0.192141 0.167766 0.031166
Si Si6 0.193604 0.831877 0.196761
Si Si7 0.904993 0.336047 0.717837
Si Si8 0.333480 0.831577 0.282049
O O1 0.456530 0.500000 0.066466
O O2 0.465071 0.256577 0.130061
O O3 0.500000 0.277316 0.000000
O O4 0.375558 0.290372 0.017198
O O5 0.333493 0.500000 0.421574
O O6 0.237481 0.694545 0.412941
O O7 0.349281 0.734035 0.498129
O O8 0.346031 0.744903 0.357098
O O9 0.517306 0.189135 0.261390
O O10 0.389957 0.214337 0.233517
O O11 0.448810 0.000000 0.175624
O O12 0.841140 0.500000 0.540073
O O13 0.887557 0.294005 0.633014
O O14 0.188961 0.219022 0.113466
O O15 0.206995 0.000000 0.028627
O O16 0.250000 0.250000 0.000000
O O17 0.134658 0.759009 0.231353
O O18 0.264047 0.784834 0.238110
O O19 0.183023 0.000000 0.202143
O O20 0.884481 0.500000 0.729160
O O21 0.336134 0.000000 0.299731
#
# Coordination Sequence:
#
# PCOD8088674 Si02
#       8
#     8   8   8   8   8   8   8   8
#     4  10  21  38  58  79 107 144 184 224 271 324
#     4  10  19  32  54  82 109 140 178 220 264 314
#     4  10  22  38  57  80 109 144 182 222 268 322
#     4   9  18  33  53  79 110 139 174 221 267 314
#     4  10  21  36  54  79 108 140 177 222 272 321
#     4  10  20  34  55  79 105 137 177 221 267 318
#     4  10  20  36  56  81 108 137 177 224 268 312
#     4  10  20  35  54  79 110 144 178 217 268 322
#
# _framework density 18.330114999999999
#
# number of rings (size 3 to 8) (size 9 to 14) (size 15 to 20)
#    0.000    2.125    1.250    1.875    0.000    5.250 
#    0.000    0.625    0.000    3.750    0.000    0.000 
#    0.000    0.000    0.000    0.000    0.000    0.000 
#
# Total GULP energy -396946.347484 kJ/mol
# GULP energy per Si atom -12404.573359 kJ/mol
# Density = 1.828840 g / cm^3
# Si number density = 18.330115 Si / 1000 Ang^3
#
#
#
# Elastic Constant Matrix: (Units=GPa)
#
#
# Indices 1 2 3 4 5 6 
#
# 1 71.2394 24.3495 28.0037 0.0000 0.3166 0.0000
# 2 24.3495 50.0171 45.7282 0.0000 -1.9823 0.0000
# 3 28.0037 45.7282 121.9323 0.0000 8.0754 0.0000
# 4 0.0000 0.0000 0.0000 33.4397 0.0000 -3.5708
# 5 0.3166 -1.9823 8.0754 0.0000 27.1243 0.0000
# 6 0.0000 0.0000 0.0000 -3.5708 0.0000 26.5327
#
#
#
# Elastic Compliance Matrix: (Units=1/GPa)
#
#
# Indices 1 2 3 4 5 6 
#
# 1 0.016960 -0.007203 -0.001169 0.000000 -0.000376 0.000000
# 2 -0.007203 0.034384 -0.011642 0.000000 0.006063 0.000000
# 3 -0.001169 -0.011642 0.013151 0.000000 -0.004752 0.000000
# 4 0.000000 0.000000 0.000000 0.030341 0.000000 0.004083
# 5 -0.000376 0.006063 -0.004752 0.000000 0.038730 0.000000
# 6 0.000000 0.000000 0.000000 0.004083 0.000000 0.038239
#
#
# Mechanical properties :
#
#
# Convention : Reuss Voigt Hill
#
# Bulk Modulus (GPa) = 40.87188 48.81684 44.84436
# Shear Modulus (GPa) = 22.72854 27.09319 24.91086
#
# Velocity S-wave (km/s) = 3.52512 3.84874 3.69048
# Velocity P-wave (km/s) = 6.23817 6.81471 6.53280
#
# Compressibility (1/GPa) = 0.02446670
#
# Stress axis : x y z
#
# Youngs Moduli (GPa) = 58.96135 29.08337 76.04155
#
# Poissons Ratio (x) = 0.20948 0.08889
# Poissons Ratio (y) = 0.42469 0.88530
# Poissons Ratio (z) = 0.06893 0.33860
#
# Static dielectric constant tensor:
#      x y z
#    x 3.356640 0.000000 0.109630 
#    y 0.000000 3.307790 0.000000 
#    z 0.109630 0.000000 3.379770 
# 
# 
# High freq. dielectric constant tensor:
#      x y z
#    x 1.705570 0.000000 0.006580 
#    y 0.000000 1.705650 0.000000 
#    z 0.006580 0.000000 1.721610 
# 
# From -- ./inp_files/281404.got.cif
#   From: 2010.06.25/outbox.cif.g09.slc.cpg/sg12_141_cif.got.tgz:281404.got - 2010.06.28 00:19:55.
