data_PCOD8088669
_publ_section_title
;
Structure prediction by ZEFSAII (Michael W. Deem and Ramdas Pophale) SiO2 
 PCOD8088669
Probable space group: C 2/M
;
_chemical_formula_sum "Si O2"
_cell_formula_units_Z 64
_cell_length_a 28.744178
_cell_length_b 9.644664
_cell_length_c 23.348824
_cell_angle_alpha 90.000000
_cell_angle_beta 148.100443
_cell_angle_gamma 90.000000
_cell_volume 3420.510501
_symmetry_space_group_name_H-M "C 2/M"
_symmetry_group_IT_number 12
_symmetry_cell_setting 'monoclinic'
loop_
_space_group_symop_operation_xyz
x,y,z
-x,y,-z
-x,-y,-z
x,-y,z
1/2+x,1/2+y,z
1/2-x,1/2+y,-z
1/2-x,1/2-y,-z
1/2+x,1/2-y,z
loop_
_atom_site_type_symbol
_atom_site_label
_atom_site_fract_x
_atom_site_fract_y
_atom_site_fract_z
Si Si1 0.239477 0.840867 0.776658
Si Si2 0.708160 0.843413 0.294051
Si Si3 0.952854 0.165006 0.394284
Si Si4 0.368588 0.344823 0.980108
Si Si5 0.335424 0.663528 0.074498
Si Si6 0.805783 0.837973 0.512872
Si Si7 0.496766 0.335464 0.677303
Si Si8 0.456194 0.343402 0.896799
O O1 0.233834 0.820280 0.702315
O O2 0.149056 0.788551 0.710547
O O3 0.257230 0.000000 0.811270
O O4 0.320100 0.753737 0.884972
O O5 0.769254 0.810364 0.411526
O O6 0.625181 0.744321 0.209473
O O7 0.672276 0.000000 0.258934
O O8 0.000000 0.227919 0.500000
O O9 0.996232 0.222222 0.380771
O O10 0.959441 0.000000 0.403301
O O11 0.332491 0.500000 0.932400
O O12 0.355243 0.296219 0.030416
O O13 0.472905 0.339117 0.079579
O O14 0.318434 0.500000 0.065778
O O15 0.417825 0.715308 0.198525
O O16 0.250000 0.750000 0.000000
O O17 0.750000 0.750000 0.500000
O O18 0.907498 0.785620 0.616065
O O19 0.799823 0.000000 0.523765
O O20 0.494510 0.500000 0.672176
O O21 0.423660 0.500000 0.875384
O O22 0.500000 0.280640 0.000000
#
# Coordination Sequence:
#
# PCOD8088669 Si02
#       8
#     8   8   8   8   8   8   8   8
#     4  10  19  32  54  82 109 137 172 219 275 330
#     4  10  21  35  53  81 114 141 176 231 286 322
#     4   9  16  28  51  80 105 131 169 216 264 319
#     4  10  21  35  52  77 108 140 180 222 266 323
#     4  10  21  37  57  81 110 145 183 227 274 325
#     4  10  22  39  58  81 110 147 189 233 276 327
#     4   9  18  34  55  77 106 143 182 220 267 326
#     4  10  20  35  55  79 107 145 187 222 264 331
#
# _framework density 18.710657999999999
#
# number of rings (size 3 to 8) (size 9 to 14) (size 15 to 20)
#    0.000    2.250    1.250    1.500    1.750    5.750 
#    0.000    0.625    0.000    1.125    0.000    0.000 
#    0.000    0.000    0.000    0.000    0.000    0.000 
#
# Total GULP energy -396768.045452 kJ/mol
# GULP energy per Si atom -12399.001420 kJ/mol
# Density = 1.866807 g / cm^3
# Si number density = 18.710658 Si / 1000 Ang^3
#
#
#
# Elastic Constant Matrix: (Units=GPa)
#
#
# Indices 1 2 3 4 5 6 
#
# 1 139.9827 36.9902 53.5761 0.0000 3.9164 0.0000
# 2 36.9902 46.0485 42.1053 0.0000 2.7994 0.0000
# 3 53.5761 42.1053 117.7370 0.0000 5.7521 0.0000
# 4 0.0000 0.0000 0.0000 23.7434 0.0000 4.1216
# 5 3.9164 2.7994 5.7521 0.0000 34.6903 0.0000
# 6 0.0000 0.0000 0.0000 4.1216 0.0000 24.3155
#
#
#
# Elastic Compliance Matrix: (Units=1/GPa)
#
#
# Indices 1 2 3 4 5 6 
#
# 1 0.009495 -0.005457 -0.002357 0.000000 -0.000241 0.000000
# 2 -0.005457 0.035421 -0.010157 0.000000 -0.000558 0.000000
# 3 -0.002357 -0.010157 0.013253 0.000000 -0.001112 0.000000
# 4 0.000000 0.000000 0.000000 0.043394 0.000000 -0.007355
# 5 -0.000241 -0.000558 -0.001112 0.000000 0.029083 0.000000
# 6 0.000000 0.000000 0.000000 -0.007355 0.000000 0.042373
#
#
# Mechanical properties :
#
#
# Convention : Reuss Voigt Hill
#
# Bulk Modulus (GPa) = 44.99194 63.23461 54.11328
# Shear Modulus (GPa) = 23.10874 27.95629 25.53252
#
# Velocity S-wave (km/s) = 3.51815 3.86960 3.69805
# Velocity P-wave (km/s) = 6.37193 7.33720 6.87154
#
# Compressibility (1/GPa) = 0.02222620
#
# Stress axis : x y z
#
# Youngs Moduli (GPa) = 105.32241 28.23213 75.45589
#
# Poissons Ratio (x) = 0.15406 0.17787
# Poissons Ratio (y) = 0.57473 0.76639
# Poissons Ratio (z) = 0.24827 0.28675
#
# Static dielectric constant tensor:
#      x y z
#    x 1.964210 0.000000 -0.636240 
#    y 0.000000 3.155960 0.000000 
#    z -0.636240 0.000000 3.249270 
# 
# 
# High freq. dielectric constant tensor:
#      x y z
#    x 1.744800 0.000000 -0.000740 
#    y 0.000000 1.688050 0.000000 
#    z -0.000740 0.000000 1.730200 
# 
# From -- ./inp_files/353563.got.cif
#   From: 2010.06.25/outbox.cif.g09.slc.cpg/sg12_177_cif.got.tgz:353563.got - 2010.06.28 00:19:55.
