data_PCOD8088812
_publ_section_title
;
Structure prediction by ZEFSAII (Michael W. Deem and Ramdas Pophale) SiO2 
 PCOD8088812
Probable space group: C 2/M
;
_chemical_formula_sum "Si O2"
_cell_formula_units_Z 64
_cell_length_a 21.058835
_cell_length_b 13.003274
_cell_length_c 21.714744
_cell_angle_alpha 90.000000
_cell_angle_beta 145.673289
_cell_angle_gamma 90.000000
_cell_volume 3353.145671
_symmetry_space_group_name_H-M "C 2/M"
_symmetry_group_IT_number 12
_symmetry_cell_setting 'monoclinic'
loop_
_space_group_symop_operation_xyz
x,y,z
-x,y,-z
-x,-y,-z
x,-y,z
1/2+x,1/2+y,z
1/2-x,1/2+y,-z
1/2-x,1/2-y,-z
1/2+x,1/2-y,z
loop_
_atom_site_type_symbol
_atom_site_label
_atom_site_fract_x
_atom_site_fract_y
_atom_site_fract_z
Si Si1 0.125688 0.118974 0.409093
Si Si2 0.419518 0.749123 0.256238
Si Si3 0.274879 0.387153 0.706271
Si Si4 0.288607 0.224821 0.623835
Si Si5 0.517170 0.880564 0.811397
Si Si6 0.523035 0.382361 0.950561
Si Si7 0.568440 0.115571 0.616202
Si Si8 0.691711 0.233387 0.019183
O O1 0.197289 0.142526 0.527700
O O2 0.176517 0.190050 0.397505
O O3 0.994893 0.146789 0.313590
O O4 0.135575 0.000000 0.398843
O O5 0.443315 0.826626 0.219552
O O6 0.453839 0.806644 0.346257
O O7 0.289525 0.710830 0.147745
O O8 0.252668 0.500000 0.658019
O O9 0.230209 0.292717 0.629814
O O10 0.407329 0.373397 0.821104
O O11 0.202997 0.381730 0.711462
O O12 0.395674 0.161835 0.734209
O O13 0.510109 0.000000 0.792185
O O14 0.603791 0.859719 0.937424
O O15 0.562444 0.500000 0.990038
O O16 0.500000 0.333762 0.000000
O O17 0.620317 0.329181 0.988221
O O18 0.500000 0.148651 0.500000
O O19 0.531441 0.000000 0.605983
O O20 0.750000 0.250000 0.000000
#
# Coordination Sequence:
#
# PCOD8088812 Si02
#       8
#     8   8   8   8   8   8   8   8
#     4  10  21  35  55  80 109 146 187 232 284 342
#     4  10  21  36  55  81 116 151 188 234 291 346
#     4  10  19  32  55  83 112 145 182 229 289 344
#     4  10  19  35  55  81 111 140 182 234 288 336
#     4  10  20  35  56  81 110 150 191 233 286 345
#     4  10  20  35  58  88 119 153 193 242 303 363
#     4  10  20  34  55  86 119 152 190 237 296 360
#     4  10  21  36  53  84 120 159 198 241 294 354
#
# _framework density 19.086555000000001
#
# number of rings (size 3 to 8) (size 9 to 14) (size 15 to 20)
#    0.000    2.000    1.250    2.625    0.000    4.000 
#    0.000    3.750    0.000    4.500    0.000    0.000 
#    0.000    0.000    0.000    0.000    0.000    0.000 
#
# Total GULP energy -396574.962366 kJ/mol
# GULP energy per Si atom -12392.967574 kJ/mol
# Density = 1.904311 g / cm^3
# Si number density = 19.086555 Si / 1000 Ang^3
#
#
#
# Elastic Constant Matrix: (Units=GPa)
#
#
# Indices 1 2 3 4 5 6 
#
# 1 66.2844 21.5860 16.8264 0.0000 4.0887 0.0000
# 2 21.5860 92.4692 41.9195 0.0000 5.4415 0.0000
# 3 16.8264 41.9195 99.2379 0.0000 6.5812 0.0000
# 4 0.0000 0.0000 0.0000 23.2702 0.0000 1.4323
# 5 4.0887 5.4415 6.5812 0.0000 30.4806 0.0000
# 6 0.0000 0.0000 0.0000 1.4323 0.0000 24.7826
#
#
#
# Elastic Compliance Matrix: (Units=1/GPa)
#
#
# Indices 1 2 3 4 5 6 
#
# 1 0.016549 -0.003157 -0.001383 0.000000 -0.001358 0.000000
# 2 -0.003157 0.014020 -0.005325 0.000000 -0.000930 0.000000
# 3 -0.001383 -0.005325 0.012667 0.000000 -0.001599 0.000000
# 4 0.000000 0.000000 0.000000 0.043127 0.000000 -0.002492
# 5 -0.001358 -0.000930 -0.001599 0.000000 0.033501 0.000000
# 6 0.000000 0.000000 0.000000 -0.002492 0.000000 0.040495
#
#
# Mechanical properties :
#
#
# Convention : Reuss Voigt Hill
#
# Bulk Modulus (GPa) = 42.54057 46.51726 44.52892
# Shear Modulus (GPa) = 26.60650 27.55064 27.07857
#
# Velocity S-wave (km/s) = 3.73767 3.80341 3.77068
# Velocity P-wave (km/s) = 6.40028 6.61155 6.50677
#
# Compressibility (1/GPa) = 0.02350697
#
# Stress axis : x y z
#
# Youngs Moduli (GPa) = 60.42583 71.32557 78.94653
#
# Poissons Ratio (x) = 0.22514 0.10915
# Poissons Ratio (y) = 0.19074 0.42043
# Poissons Ratio (z) = 0.08354 0.37984
#
# Static dielectric constant tensor:
#      x y z
#    x 3.378320 0.000000 0.125360 
#    y 0.000000 3.334120 0.000000 
#    z 0.125360 0.000000 3.931500 
# 
# 
# High freq. dielectric constant tensor:
#      x y z
#    x 1.725270 0.000000 0.013490 
#    y 0.000000 1.719650 0.000000 
#    z 0.013490 0.000000 1.760380 
# 
# From -- ./inp_files/349335.got.cif
#   From: 2010.06.25/outbox.cif.g09.slc.cpg/sg12_175_cif.got.tgz:349335.got - 2010.06.28 00:19:55.
