data_PCOD8088942
_publ_section_title
;
Structure prediction by ZEFSAII (Michael W. Deem and Ramdas Pophale) SiO2 
 PCOD8088942
Probable space group: C 2/M
;
_chemical_formula_sum "Si O2"
_cell_formula_units_Z 64
_cell_length_a 19.999461
_cell_length_b 8.713500
_cell_length_c 21.615521
_cell_angle_alpha 90.000000
_cell_angle_beta 120.171665
_cell_angle_gamma 90.000000
_cell_volume 3256.517506
_symmetry_space_group_name_H-M "C 2/M"
_symmetry_group_IT_number 12
_symmetry_cell_setting 'monoclinic'
loop_
_space_group_symop_operation_xyz
x,y,z
-x,y,-z
-x,-y,-z
x,-y,z
1/2+x,1/2+y,z
1/2-x,1/2+y,-z
1/2-x,1/2-y,-z
1/2+x,1/2-y,z
loop_
_atom_site_type_symbol
_atom_site_label
_atom_site_fract_x
_atom_site_fract_y
_atom_site_fract_z
Si Si1 0.349899 0.176017 0.087783
Si Si2 0.346634 0.180297 0.706561
Si Si3 0.199625 0.323437 0.067391
Si Si4 0.728454 0.180178 0.555263
Si Si5 0.413130 0.320948 0.447690
Si Si6 0.372140 0.321796 0.288398
Si Si7 0.709819 0.678421 0.196029
Si Si8 0.519957 0.822428 0.757673
O O1 0.288118 0.286458 0.091097
O O2 0.433178 0.206136 0.156936
O O3 0.322600 0.000000 0.084894
O O4 0.355453 0.212377 0.017038
O O5 0.286148 0.264582 0.635017
O O6 0.331998 0.225307 0.770396
O O7 0.432573 0.231507 0.728007
O O8 0.334016 0.000000 0.693203
O O9 0.195113 0.500000 0.085165
O O10 0.171285 0.221950 0.112269
O O11 0.750000 0.250000 0.500000
O O12 0.641453 0.228021 0.531390
O O13 0.733777 0.000000 0.552245
O O14 0.500000 0.264771 0.500000
O O15 0.403866 0.500000 0.458225
O O16 0.390623 0.281986 0.367412
O O17 0.351624 0.500000 0.270468
O O18 0.300325 0.219543 0.233334
O O19 0.446396 0.279297 0.282058
O O20 0.699283 0.500000 0.204944
O O21 0.523846 0.000000 0.739923
#
# Coordination Sequence:
#
# PCOD8088942 Si02
#       8
#     8   8   8   8   8   8   8   8
#     4   9  18  34  55  85 121 155 196 247 302 361
#     4  11  24  43  64  89 122 160 203 248 300 359
#     4  10  19  32  56  87 118 156 199 247 304 358
#     4  12  26  44  66  91 123 163 203 246 298 358
#     4  10  23  43  65  93 126 158 197 250 302 353
#     4  11  22  37  62  91 122 156 198 251 302 353
#     4  12  23  38  60  87 119 160 206 250 299 354
#     4  10  22  39  61  89 123 159 198 249 302 359
#
# _framework density 19.652895999999998
#
# number of rings (size 3 to 8) (size 9 to 14) (size 15 to 20)
#    0.000    1.375    2.500    3.375    1.750    2.250 
#    0.000    0.625    0.000    3.750    0.000    0.000 
#    0.000    0.000    0.000    0.000    0.000    0.000 
#
# Total GULP energy -396961.119155 kJ/mol
# GULP energy per Si atom -12405.034974 kJ/mol
# Density = 1.960816 g / cm^3
# Si number density = 19.652896 Si / 1000 Ang^3
#
#
#
# Elastic Constant Matrix: (Units=GPa)
#
#
# Indices 1 2 3 4 5 6 
#
# 1 122.9167 42.5788 42.6970 0.0000 -10.4579 0.0000
# 2 42.5788 85.1720 39.0588 0.0000 -3.9998 0.0000
# 3 42.6970 39.0588 85.6393 0.0000 -19.2757 0.0000
# 4 0.0000 0.0000 0.0000 27.2761 0.0000 -4.8662
# 5 -10.4579 -3.9998 -19.2757 0.0000 33.3888 0.0000
# 6 0.0000 0.0000 0.0000 -4.8662 0.0000 31.7052
#
#
#
# Elastic Compliance Matrix: (Units=1/GPa)
#
#
# Indices 1 2 3 4 5 6 
#
# 1 0.010697 -0.003735 -0.003420 0.000000 0.000928 0.000000
# 2 -0.003735 0.016327 -0.006215 0.000000 -0.002802 0.000000
# 3 -0.003420 -0.006215 0.018169 0.000000 0.008673 0.000000
# 4 0.000000 0.000000 0.000000 0.037694 0.000000 0.005785
# 5 0.000928 -0.002802 0.008673 0.000000 0.034912 0.000000
# 6 0.000000 0.000000 0.000000 0.005785 0.000000 0.032429
#
#
# Mechanical properties :
#
#
# Convention : Reuss Voigt Hill
#
# Bulk Modulus (GPa) = 54.19696 60.26633 57.23164
# Shear Modulus (GPa) = 27.30472 29.76692 28.53582
#
# Velocity S-wave (km/s) = 3.73144 3.89605 3.81463
# Velocity P-wave (km/s) = 6.79719 7.13939 6.97039
#
# Compressibility (1/GPa) = 0.01845122
#
# Stress axis : x y z
#
# Youngs Moduli (GPa) = 93.48755 61.24948 55.03935
#
# Poissons Ratio (x) = 0.22878 0.18826
# Poissons Ratio (y) = 0.34920 0.34206
# Poissons Ratio (z) = 0.31977 0.38065
#
# Static dielectric constant tensor:
#      x y z
#    x 3.497470 0.000000 -0.057500 
#    y 0.000000 3.607270 0.000000 
#    z -0.057500 0.000000 3.815380 
# 
# 
# High freq. dielectric constant tensor:
#      x y z
#    x 1.753550 0.000000 -0.010870 
#    y 0.000000 1.769120 0.000000 
#    z -0.010870 0.000000 1.779920 
# 
# From -- ./inp_files/320007.got.cif
#   From: 2010.06.25/outbox.cif.g09.slc.cpg/sg12_161_cif.got.tgz:320007.got - 2010.06.28 00:19:55.
