data_PCOD8088467
_publ_section_title
;
Structure prediction by ZEFSAII (Michael W. Deem and Ramdas Pophale) SiO2 
 PCOD8088467
Probable space group: C 2/M
;
_chemical_formula_sum "Si O2"
_cell_formula_units_Z 48
_cell_length_a 21.916876
_cell_length_b 18.732278
_cell_length_c 16.371085
_cell_angle_alpha 90.000000
_cell_angle_beta 158.393529
_cell_angle_gamma 90.000000
_cell_volume 2474.943886
_symmetry_space_group_name_H-M "C 2/M"
_symmetry_group_IT_number 12
_symmetry_cell_setting 'monoclinic'
loop_
_space_group_symop_operation_xyz
x,y,z
-x,y,-z
-x,-y,-z
x,-y,z
1/2+x,1/2+y,z
1/2-x,1/2+y,-z
1/2-x,1/2-y,-z
1/2+x,1/2-y,z
loop_
_atom_site_type_symbol
_atom_site_label
_atom_site_fract_x
_atom_site_fract_y
_atom_site_fract_z
Si Si1 0.128123 0.716469 0.594665
Si Si2 0.571694 0.714006 0.788109
Si Si3 0.922450 0.918643 0.672304
Si Si4 0.958822 0.275040 0.083933
Si Si5 0.863118 0.848490 0.770682
Si Si6 0.434150 0.076930 0.827766
O O1 0.192392 0.655786 0.610722
O O2 0.000000 0.681310 0.500000
O O3 0.033501 0.777888 0.425547
O O4 0.274301 0.751018 0.830091
O O5 0.568275 0.630645 0.814302
O O6 0.486608 0.755638 0.756643
O O7 0.750000 0.750000 0.000000
O O8 0.858621 0.894442 0.682791
O O9 0.763260 0.910906 0.415999
O O10 0.988307 0.000000 0.758510
O O11 0.088064 0.234779 0.185497
O O12 0.971187 0.360051 0.099699
O O13 0.000000 0.884298 0.000000
O O14 0.472664 0.000000 0.833287
O O15 0.500000 0.076046 0.000000
#
# Coordination Sequence:
#
# PCOD8088467 Si02
#       6
#     8   8   8   8   8   8
#     4  11  20  33  55  84 115 145 182 234 275 330
#     4  11  21  35  55  80 110 146 183 229 278 328
#     4  10  21  37  58  83 110 145 189 234 278 328
#     4  10  19  35  55  82 109 142 189 235 273 321
#     4   9  19  34  58  84 107 139 188 239 276 322
#     4  10  19  32  53  81 113 143 177 225 276 322
#
# _framework density 19.394379000000001
#
# number of rings (size 3 to 8) (size 9 to 14) (size 15 to 20)
#    0.000    1.833    1.667    4.500    0.000    3.000 
#    0.000    0.833    0.000    2.500    0.000    0.000 
#    0.000    0.000    0.000    0.000    0.000    0.000 
#
# Total GULP energy -297333.979938 kJ/mol
# GULP energy per Si atom -12388.915831 kJ/mol
# Density = 1.935024 g / cm^3
# Si number density = 19.394379 Si / 1000 Ang^3
#
#
#
# Elastic Constant Matrix: (Units=GPa)
#
#
# Indices 1 2 3 4 5 6 
#
# 1 106.0764 37.9591 37.3588 0.0000 8.4741 0.0000
# 2 37.9591 123.6305 39.4790 0.0000 7.2433 0.0000
# 3 37.3588 39.4790 76.5018 0.0000 0.6953 0.0000
# 4 0.0000 0.0000 0.0000 -1.4069 0.0000 30.6289
# 5 8.4741 7.2433 0.6953 0.0000 36.4278 0.0000
# 6 0.0000 0.0000 0.0000 30.6289 0.0000 -17.0558
#
#
#
# Elastic Compliance Matrix: (Units=1/GPa)
#
#
# Indices 1 2 3 4 5 6 
#
# 1 0.012029 -0.002022 -0.004809 0.000000 -0.002304 0.000000
# 2 -0.002022 0.010148 -0.004236 0.000000 -0.001467 0.000000
# 3 -0.004809 -0.004236 0.017591 0.000000 0.001625 0.000000
# 4 0.000000 0.000000 0.000000 0.018658 0.000000 0.033506
# 5 -0.002304 -0.001467 0.001625 0.000000 0.028248 0.000000
# 6 0.000000 0.000000 0.000000 0.033506 0.000000 0.001539
#
#
# Mechanical properties :
#
#
# Convention : Reuss Voigt Hill
#
# Bulk Modulus (GPa) = 56.71336 59.53360 58.12348
# Shear Modulus (GPa) = 43.01928 16.35383 29.68656
#
# Velocity S-wave (km/s) = 4.71481 2.90698 3.91663
# Velocity P-wave (km/s) = 7.67756 6.48308 7.10547
#
# Compressibility (1/GPa) = 0.01763253
#
# Stress axis : x y z
#
# Youngs Moduli (GPa) = 83.13366 98.53957 56.84570
#
# Poissons Ratio (x) = 0.19929 0.27340
# Poissons Ratio (y) = 0.16814 0.24080
# Poissons Ratio (z) = 0.39983 0.41742
#
# Static dielectric constant tensor:
#      x y z
#    x 3.742750 0.000000 -0.244930 
#    y 0.000000 3.790520 0.000000 
#    z -0.244930 0.000000 3.651360 
# 
# 
# High freq. dielectric constant tensor:
#      x y z
#    x 1.753030 0.000000 -0.024750 
#    y 0.000000 1.726760 0.000000 
#    z -0.024750 0.000000 1.762010 
# 
# From -- ./inp_files/61721.got.cif
#   From: 2010.06.25/outbox.cif.g09.slc.cpg/sg12_31_cif.got.tgz:61721.got - 2010.06.28 00:19:55.
