data_PCOD8088646
_publ_section_title
;
Structure prediction by ZEFSAII (Michael W. Deem and Ramdas Pophale) SiO2 
 PCOD8088646
Probable space group: C 2/M
;
_chemical_formula_sum "Si O2"
_cell_formula_units_Z 64
_cell_length_a 22.916521
_cell_length_b 9.242996
_cell_length_c 21.095196
_cell_angle_alpha 90.000000
_cell_angle_beta 51.228669
_cell_angle_gamma 90.000000
_cell_volume 3483.737957
_symmetry_space_group_name_H-M "C 2/M"
_symmetry_group_IT_number 12
_symmetry_cell_setting 'monoclinic'
loop_
_space_group_symop_operation_xyz
x,y,z
-x,y,-z
-x,-y,-z
x,-y,z
1/2+x,1/2+y,z
1/2-x,1/2+y,-z
1/2-x,1/2-y,-z
1/2+x,1/2-y,z
loop_
_atom_site_type_symbol
_atom_site_label
_atom_site_fract_x
_atom_site_fract_y
_atom_site_fract_z
Si Si1 0.412365 0.837718 0.553276
Si Si2 0.660945 0.665020 0.499105
Si Si3 0.193628 0.161191 0.614593
Si Si4 0.700535 0.828787 0.264403
Si Si5 0.998276 0.667743 0.926680
Si Si6 0.702630 0.168878 0.119734
Si Si7 0.358962 0.335039 0.213385
Si Si8 0.862634 0.830657 0.951499
O O1 0.500000 0.834631 0.500000
O O2 0.401363 0.749356 0.496840
O O3 0.366954 0.771049 0.644467
O O4 0.382165 0.000000 0.564145
O O5 0.656398 0.500000 0.482129
O O6 0.741977 0.721332 0.423570
O O7 0.645130 0.690198 0.584391
O O8 0.140361 0.172195 0.711032
O O9 0.229747 0.000000 0.585986
O O10 0.689801 0.771117 0.199887
O O11 0.780093 0.778526 0.238887
O O12 0.698867 0.000000 0.262562
O O13 0.989018 0.500000 0.914329
O O14 0.077619 0.725423 0.849925
O O15 0.931581 0.757538 0.940449
O O16 0.000000 0.691105 0.000000
O O17 0.648911 0.259107 0.109683
O O18 0.682004 0.000000 0.127082
O O19 0.789355 0.195154 0.043916
O O20 0.375128 0.500000 0.179527
O O21 0.879719 0.000000 0.930693
#
# Coordination Sequence:
#
# PCOD8088646 Si02
#       8
#     8   8   8   8   8   8   8   8
#     4  10  20  36  56  77 107 146 186 226 273 329
#     4  10  19  32  54  81 110 141 177 223 276 326
#     4   9  18  34  56  80 108 143 179 222 271 325
#     4   9  17  33  57  81 105 139 184 226 268 322
#     4  11  24  39  55  81 117 148 177 225 280 325
#     4   9  18  34  58  83 109 142 184 231 271 313
#     4  10  19  35  59  81 108 145 186 230 271 323
#     4  10  20  36  58  82 109 146 187 221 267 328
#
# _framework density 18.371072000000002
#
# number of rings (size 3 to 8) (size 9 to 14) (size 15 to 20)
#    0.000    2.250    1.250    1.875    0.000    3.750 
#    2.250    1.250    0.000    0.000    0.000    0.000 
#    0.000    0.000    0.000    0.000    0.000    0.000 
#
# Total GULP energy -396735.284742 kJ/mol
# GULP energy per Si atom -12397.977648 kJ/mol
# Density = 1.832926 g / cm^3
# Si number density = 18.371072 Si / 1000 Ang^3
#
#
#
# Elastic Constant Matrix: (Units=GPa)
#
#
# Indices 1 2 3 4 5 6 
#
# 1 108.7877 62.8695 55.2954 -0.0001 11.6384 -0.0006
# 2 62.8695 89.5552 43.9098 0.0004 9.0808 0.0001
# 3 55.2954 43.9098 94.9062 -0.0002 13.0039 -0.0004
# 4 -0.0001 0.0004 -0.0002 14.2396 -0.0001 -4.7973
# 5 11.6384 9.0808 13.0039 -0.0001 29.2334 0.0001
# 6 -0.0006 0.0001 -0.0004 -4.7973 0.0001 24.4090
#
#
#
# Elastic Compliance Matrix: (Units=1/GPa)
#
#
# Indices 1 2 3 4 5 6 
#
# 1 0.017769 -0.009499 -0.005743 0.000000 -0.001569 0.000000
# 2 -0.009499 0.019593 -0.003423 -0.000001 -0.000782 0.000000
# 3 -0.005743 -0.003423 0.015982 0.000000 -0.003759 0.000000
# 4 0.000000 -0.000001 0.000000 0.075206 0.000000 0.014781
# 5 -0.001569 -0.000782 -0.003759 0.000000 0.036747 0.000000
# 6 0.000000 0.000000 0.000000 0.014781 0.000000 0.043873
#
#
# Mechanical properties :
#
#
# Convention : Reuss Voigt Hill
#
# Bulk Modulus (GPa) = 62.45082 68.59981 65.52531
# Shear Modulus (GPa) = 19.85409 22.32135 21.08772
#
# Velocity S-wave (km/s) = 3.29101 3.48951 3.39171
# Velocity P-wave (km/s) = 6.96483 7.32515 7.14726
#
# Compressibility (1/GPa) = 0.01601260
#
# Stress axis : x y z
#
# Youngs Moduli (GPa) = 56.27890 51.03982 62.57234
#
# Poissons Ratio (x) = 0.48483 0.35933
# Poissons Ratio (y) = 0.53460 0.21420
# Poissons Ratio (z) = 0.32319 0.17472
#
# Static dielectric constant tensor:
#      x y z
#    x 3.378560 0.000000 0.238110 
#    y 0.000000 3.408270 0.000000 
#    z 0.238110 0.000000 3.431970 
# 
# 
# High freq. dielectric constant tensor:
#      x y z
#    x 1.712350 0.000000 0.016660 
#    y 0.000000 1.702690 0.000000 
#    z 0.016660 0.000000 1.711190 
# 
# From -- ./inp_files/319755.got.cif
#   From: 2010.06.25/outbox.cif.g09.slc.cpg/sg12_160_cif.got.tgz:319755.got - 2010.06.28 00:19:55.
