data_PCOD8088529
_publ_section_title
;
Structure prediction by ZEFSAII (Michael W. Deem and Ramdas Pophale) SiO2 
 PCOD8088529
Probable space group: C 2/M
;
_chemical_formula_sum "Si O2"
_cell_formula_units_Z 56
_cell_length_a 30.286937
_cell_length_b 9.020605
_cell_length_c 11.787621
_cell_angle_alpha 90.000000
_cell_angle_beta 60.827289
_cell_angle_gamma 90.000000
_cell_volume 2811.953922
_symmetry_space_group_name_H-M "C 2/M"
_symmetry_group_IT_number 12
_symmetry_cell_setting 'monoclinic'
loop_
_space_group_symop_operation_xyz
x,y,z
-x,y,-z
-x,-y,-z
x,-y,z
1/2+x,1/2+y,z
1/2-x,1/2+y,-z
1/2-x,1/2-y,-z
1/2+x,1/2-y,z
loop_
_atom_site_type_symbol
_atom_site_label
_atom_site_fract_x
_atom_site_fract_y
_atom_site_fract_z
Si Si1 0.612253 0.666040 0.033429
Si Si2 0.341164 0.663358 0.253546
Si Si3 0.092321 0.827495 0.616550
Si Si4 0.658729 0.828446 0.366789
Si Si5 0.252414 0.672758 0.617160
Si Si6 0.695079 0.171869 0.071624
Si Si7 0.496636 0.676691 0.875754
O O1 0.619397 0.500000 0.074258
O O2 0.657042 0.767111 0.024575
O O3 0.555195 0.725570 0.124377
O O4 0.614064 0.662404 0.893808
O O5 0.315270 0.500000 0.288405
O O6 0.361864 0.698587 0.352782
O O7 0.301437 0.786493 0.259913
O O8 0.106278 0.737729 0.483950
O O9 0.041680 0.763322 0.738743
O O10 0.086034 0.000000 0.593539
O O11 0.704454 0.736687 0.359417
O O12 0.663367 0.804974 0.226719
O O13 0.662694 0.000000 0.395653
O O14 0.260617 0.500000 0.594676
O O15 0.250000 0.750000 0.500000
O O16 0.705961 0.000000 0.034665
O O17 0.750000 0.250000 0.000000
O O18 0.499855 0.500000 0.879373
O O19 0.500000 0.742551 0.000000
#
# Coordination Sequence:
#
# PCOD8088529 Si02
#       7
#     8   8   8   8   8   8   8
#     4  10  20  36  62  91 121 156 197 245 296 350
#     4  10  19  32  53  85 119 151 189 236 291 346
#     4  10  19  33  58  88 118 153 192 236 290 349
#     4  11  24  41  58  80 115 156 198 247 299 350
#     4  12  23  34  52  80 114 150 188 234 290 355
#     4  11  25  44  64  86 116 156 203 251 298 353
#     4   9  16  32  59  92 124 156 194 240 293 348
#
# _framework density 19.914978000000001
#
# number of rings (size 3 to 8) (size 9 to 14) (size 15 to 20)
#    0.000    1.571    2.857    3.000    0.000    6.286 
#    0.000    1.429    0.000    5.143    0.000    0.000 
#    0.000    0.000    0.000    0.000    0.000    0.000 
#
# Total GULP energy -347039.282751 kJ/mol
# GULP energy per Si atom -12394.260098 kJ/mol
# Density = 1.986965 g / cm^3
# Si number density = 19.914978 Si / 1000 Ang^3
#
#
#
# Elastic Constant Matrix: (Units=GPa)
#
#
# Indices 1 2 3 4 5 6 
#
# 1 85.6824 36.0645 34.2579 0.0000 -14.0132 0.0000
# 2 36.0645 98.5434 44.3496 0.0000 -3.4397 0.0000
# 3 34.2579 44.3496 109.4469 0.0000 -18.6562 0.0000
# 4 0.0000 0.0000 0.0000 29.5229 0.0000 -0.0635
# 5 -14.0132 -3.4397 -18.6562 0.0000 32.4868 0.0000
# 6 0.0000 0.0000 0.0000 -0.0635 0.0000 23.9516
#
#
#
# Elastic Compliance Matrix: (Units=1/GPa)
#
#
# Indices 1 2 3 4 5 6 
#
# 1 0.015180 -0.004428 -0.002130 0.000000 0.004856 0.000000
# 2 -0.004428 0.013793 -0.004744 0.000000 -0.003174 0.000000
# 3 -0.002130 -0.004744 0.012730 0.000000 0.005889 0.000000
# 4 0.000000 0.000000 0.000000 0.033872 0.000000 0.000090
# 5 0.004856 -0.003174 0.005889 0.000000 0.035922 0.000000
# 6 0.000000 0.000000 0.000000 0.000090 0.000000 0.041751
#
#
# Mechanical properties :
#
#
# Convention : Reuss Voigt Hill
#
# Bulk Modulus (GPa) = 52.35648 58.11298 55.23473
# Shear Modulus (GPa) = 27.43969 29.12565 28.28267
#
# Velocity S-wave (km/s) = 3.71596 3.82841 3.77260
# Velocity P-wave (km/s) = 6.69016 6.98471 6.83902
#
# Compressibility (1/GPa) = 0.01909983
#
# Stress axis : x y z
#
# Youngs Moduli (GPa) = 65.87448 72.50307 78.55643
#
# Poissons Ratio (x) = 0.32102 0.16730
# Poissons Ratio (y) = 0.29167 0.37268
# Poissons Ratio (z) = 0.14029 0.34396
#
# Static dielectric constant tensor:
#      x y z
#    x 3.755550 0.000000 -0.248710 
#    y 0.000000 4.046940 0.000000 
#    z -0.248710 0.000000 3.990520 
# 
# 
# High freq. dielectric constant tensor:
#      x y z
#    x 1.762040 0.000000 -0.015730 
#    y 0.000000 1.755280 0.000000 
#    z -0.015730 0.000000 1.790090 
# 
# From -- ./inp_files/187251.got.cif
#   From: 2010.06.25/outbox.cif.g09.slc.cpg/sg12_94_cif.got.tgz:187251.got - 2010.06.28 00:19:55.
