data_PCOD8088527
_publ_section_title
;
Structure prediction by ZEFSAII (Michael W. Deem and Ramdas Pophale) SiO2 
 PCOD8088527
Probable space group: C 2/M
;
_chemical_formula_sum "Si O2"
_cell_formula_units_Z 64
_cell_length_a 28.830290
_cell_length_b 8.690426
_cell_length_c 23.758299
_cell_angle_alpha 90.000000
_cell_angle_beta 150.556040
_cell_angle_gamma 90.000000
_cell_volume 2926.123134
_symmetry_space_group_name_H-M "C 2/M"
_symmetry_group_IT_number 12
_symmetry_cell_setting 'monoclinic'
loop_
_space_group_symop_operation_xyz
x,y,z
-x,y,-z
-x,-y,-z
x,-y,z
1/2+x,1/2+y,z
1/2-x,1/2+y,-z
1/2-x,1/2-y,-z
1/2+x,1/2-y,z
loop_
_atom_site_type_symbol
_atom_site_label
_atom_site_fract_x
_atom_site_fract_y
_atom_site_fract_z
Si Si1 0.769502 0.183560 0.792339
Si Si2 0.760112 0.682221 0.448446
Si Si3 0.969911 0.317890 0.644861
Si Si4 0.877433 0.322249 0.276861
Si Si5 0.751473 0.668943 0.943224
Si Si6 0.154930 0.681280 0.235698
Si Si7 0.466993 0.320621 0.054076
Si Si8 0.034172 0.669361 0.833562
O O1 0.670209 0.244621 0.715886
O O2 0.771163 0.254220 0.731965
O O3 0.767795 0.000000 0.787229
O O4 0.862748 0.238734 0.925825
O O5 0.748691 0.500000 0.439687
O O6 0.750000 0.750000 0.500000
O O7 0.681131 0.753700 0.324905
O O8 0.860961 0.729430 0.527911
O O9 0.985072 0.500000 0.660058
O O10 0.026581 0.248984 0.649638
O O11 0.014244 0.256963 0.750856
O O12 0.896497 0.500000 0.307310
O O13 0.794999 0.295585 0.145389
O O14 0.700550 0.500000 0.888553
O O15 0.750000 0.750000 0.000000
O O16 0.857797 0.641949 0.038760
O O17 0.159831 0.500000 0.241985
O O18 0.050047 0.737077 0.106331
O O19 0.475333 0.500000 0.051242
O O20 0.497062 0.285109 0.150455
O O21 0.983485 0.500000 0.785083
#
# Coordination Sequence:
#
# PCOD8088527 Si02
#       8
#     8   8   8   8   8   8   8   8
#     4  10  22  39  62  90 122 158 199 248 302 363
#     4  11  23  43  70  96 121 154 200 252 307 358
#     4   9  19  36  60  88 119 157 200 248 298 353
#     4  10  19  37  59  85 121 159 198 245 300 360
#     4  11  20  30  49  78 119 165 203 243 288 348
#     4  12  26  43  63  86 119 161 204 251 304 361
#     4  11  22  37  60  91 123 156 201 253 306 362
#     4  10  19  32  53  84 124 161 198 240 294 361
#
# _framework density 21.871945
#
# number of rings (size 3 to 8) (size 9 to 14) (size 15 to 20)
#    0.000    1.500    2.500    3.375    0.000    4.500 
#    0.000    2.500    0.000    3.750    0.000    0.000 
#    0.000    0.000    0.000    0.000    0.000    0.000 
#
# Total GULP energy -396421.731399 kJ/mol
# GULP energy per Si atom -12388.179106 kJ/mol
# Density = 2.182216 g / cm^3
# Si number density = 21.871945 Si / 1000 Ang^3
#
#
#
# Elastic Constant Matrix: (Units=GPa)
#
#
# Indices 1 2 3 4 5 6 
#
# 1 136.4084 33.4375 26.4661 0.0000 7.2323 0.0000
# 2 33.4375 45.0451 17.0798 0.0000 3.3549 0.0000
# 3 26.4661 17.0798 65.0887 0.0000 9.2069 0.0000
# 4 0.0000 0.0000 0.0000 21.2435 0.0000 -5.6079
# 5 7.2323 3.3549 9.2069 0.0000 37.5069 0.0000
# 6 0.0000 0.0000 0.0000 -5.6079 0.0000 28.6535
#
#
#
# Elastic Compliance Matrix: (Units=1/GPa)
#
#
# Indices 1 2 3 4 5 6 
#
# 1 0.009249 -0.006024 -0.002076 0.000000 -0.000735 0.000000
# 2 -0.006024 0.028591 -0.005030 0.000000 -0.000161 0.000000
# 3 -0.002076 -0.005030 0.018034 0.000000 -0.003577 0.000000
# 4 0.000000 0.000000 0.000000 0.049638 0.000000 0.009715
# 5 -0.000735 -0.000161 -0.003577 0.000000 0.027696 0.000000
# 6 0.000000 0.000000 0.000000 0.009715 0.000000 0.036801
#
#
# Mechanical properties :
#
#
# Convention : Reuss Voigt Hill
#
# Bulk Modulus (GPa) = 33.76877 44.50101 39.13489
# Shear Modulus (GPa) = 24.25527 28.78469 26.51998
#
# Velocity S-wave (km/s) = 3.33373 3.63168 3.48589
# Velocity P-wave (km/s) = 5.50374 6.16245 5.84239
#
# Compressibility (1/GPa) = 0.02961316
#
# Stress axis : x y z
#
# Youngs Moduli (GPa) = 108.11560 34.97614 55.45149
#
# Poissons Ratio (x) = 0.21069 0.11513
# Poissons Ratio (y) = 0.65128 0.27894
# Poissons Ratio (z) = 0.22447 0.17594
#
# Static dielectric constant tensor:
#      x y z
#    x 4.477720 0.000000 0.201170 
#    y 0.000000 3.780920 0.000000 
#    z 0.201170 0.000000 3.779120 
# 
# 
# High freq. dielectric constant tensor:
#      x y z
#    x 1.881160 0.000000 0.010480 
#    y 0.000000 1.832460 0.000000 
#    z 0.010480 0.000000 1.835040 
# 
# From -- ./inp_files/353516.got.cif
#   From: 2010.06.25/outbox.cif.g09.slc.cpg/sg12_177_cif.got.tgz:353516.got - 2010.06.28 00:19:55.
