data_PCOD8088722
_publ_section_title
;
Structure prediction by ZEFSAII (Michael W. Deem and Ramdas Pophale) SiO2 
 PCOD8088722
Probable space group: C 2/M
;
_chemical_formula_sum "Si O2"
_cell_formula_units_Z 56
_cell_length_a 19.871192
_cell_length_b 8.773581
_cell_length_c 25.652853
_cell_angle_alpha 90.000000
_cell_angle_beta 139.708461
_cell_angle_gamma 90.000000
_cell_volume 2892.171193
_symmetry_space_group_name_H-M "C 2/M"
_symmetry_group_IT_number 12
_symmetry_cell_setting 'monoclinic'
loop_
_space_group_symop_operation_xyz
x,y,z
-x,y,-z
-x,-y,-z
x,-y,z
1/2+x,1/2+y,z
1/2-x,1/2+y,-z
1/2-x,1/2-y,-z
1/2+x,1/2-y,z
loop_
_atom_site_type_symbol
_atom_site_label
_atom_site_fract_x
_atom_site_fract_y
_atom_site_fract_z
Si Si1 0.304506 0.176117 0.174669
Si Si2 0.851609 0.323330 0.084612
Si Si3 0.760015 0.821877 0.338819
Si Si4 0.422832 0.171449 0.502774
Si Si5 0.087769 0.822073 0.666447
Si Si6 0.603595 0.175671 0.093416
Si Si7 0.434683 0.679028 0.821376
O O1 0.355892 0.201944 0.148951
O O2 0.386779 0.230901 0.266183
O O3 0.200049 0.276369 0.114565
O O4 0.276192 0.000000 0.167192
O O5 0.853270 0.500000 0.070448
O O6 0.951022 0.244856 0.118135
O O7 0.750000 0.250000 0.000000
O O8 0.815131 0.749005 0.421853
O O9 0.823910 0.784730 0.324020
O O10 0.645087 0.751518 0.267162
O O11 0.751387 0.000000 0.343473
O O12 0.500000 0.172440 0.500000
O O13 0.474805 0.267317 0.580090
O O14 0.400919 0.000000 0.509066
O O15 0.083106 0.000000 0.676170
O O16 0.604874 0.281668 0.144487
O O17 0.615831 0.000000 0.117984
O O18 0.500000 0.203413 0.000000
O O19 0.436669 0.500000 0.814294
#
# Coordination Sequence:
#
# PCOD8088722 Si02
#       7
#     8   8   8   8   8   8   8
#     4  11  23  38  59  85 115 150 192 241 290 346
#     4  11  25  44  63  85 115 153 197 243 294 351
#     4  10  19  33  54  83 118 153 193 237 286 341
#     4   9  17  29  49  79 117 154 190 234 283 338
#     4  10  19  32  54  83 117 154 192 235 286 342
#     4  11  23  38  58  84 114 148 187 238 295 347
#     4  12  24  38  60  86 116 153 195 241 290 346
#
# _framework density 19.362615000000002
#
# number of rings (size 3 to 8) (size 9 to 14) (size 15 to 20)
#    0.000    1.429    1.429    4.714    0.000    8.571 
#    0.000    0.000    0.000    0.857    0.000    0.000 
#    0.000    0.000    0.000    0.000    0.000    0.000 
#
# Total GULP energy -347352.540195 kJ/mol
# GULP energy per Si atom -12405.447864 kJ/mol
# Density = 1.931855 g / cm^3
# Si number density = 19.362615 Si / 1000 Ang^3
#
#
#
# Elastic Constant Matrix: (Units=GPa)
#
#
# Indices 1 2 3 4 5 6 
#
# 1 29.5504 15.3959 10.6649 0.0000 0.4904 0.0000
# 2 15.3959 89.1084 48.0733 0.0000 0.9602 0.0002
# 3 10.6649 48.0733 127.9199 0.0000 2.3396 0.0000
# 4 0.0000 0.0000 0.0000 41.5977 0.0000 0.6124
# 5 0.4904 0.9602 2.3396 0.0000 26.7863 0.0000
# 6 0.0000 0.0002 0.0000 0.6124 0.0000 26.0355
#
#
#
# Elastic Compliance Matrix: (Units=1/GPa)
#
#
# Indices 1 2 3 4 5 6 
#
# 1 0.037268 -0.005974 -0.000855 0.000000 -0.000394 0.000000
# 2 -0.005974 0.015034 -0.005152 0.000000 0.000020 0.000000
# 3 -0.000855 -0.005152 0.009837 0.000000 -0.000659 0.000000
# 4 0.000000 0.000000 0.000000 0.024048 0.000000 -0.000566
# 5 -0.000394 0.000020 -0.000659 0.000000 0.037397 0.000000
# 6 0.000000 0.000000 0.000000 -0.000566 0.000000 0.038422
#
#
# Mechanical properties :
#
#
# Convention : Reuss Voigt Hill
#
# Bulk Modulus (GPa) = 26.19368 43.87189 35.03279
# Shear Modulus (GPa) = 25.16452 30.38022 27.77237
#
# Velocity S-wave (km/s) = 3.60897 3.96538 3.79136
# Velocity P-wave (km/s) = 5.56089 6.60854 6.10722
#
# Compressibility (1/GPa) = 0.03817714
#
# Stress axis : x y z
#
# Youngs Moduli (GPa) = 26.83278 66.51727 101.65774
#
# Poissons Ratio (x) = 0.39734 0.08692
# Poissons Ratio (y) = 0.16029 0.52375
# Poissons Ratio (z) = 0.02294 0.34271
#
# Static dielectric constant tensor:
#      x y z
#    x 3.222790 0.000000 -0.021620 
#    y 0.000000 3.702220 0.000000 
#    z -0.021620 0.000000 3.765240 
# 
# 
# High freq. dielectric constant tensor:
#      x y z
#    x 1.713270 0.000000 -0.002670 
#    y 0.000000 1.771760 0.000000 
#    z -0.002670 0.000000 1.773780 
# 
# From -- ./inp_files/363142.got.cif
#   From: 2010.06.25/outbox.cif.g09.slc.cpg/sg12_182_cif.got.tgz:363142.got - 2010.06.28 00:19:55.
