data_PCOD8088434
_publ_section_title
;
Structure prediction by ZEFSAII (Michael W. Deem and Ramdas Pophale) SiO2 
 PCOD8088434
Probable space group: C 2/M
;
_chemical_formula_sum "Si O2"
_cell_formula_units_Z 60
_cell_length_a 17.524714
_cell_length_b 21.703913
_cell_length_c 10.041832
_cell_angle_alpha 90.000000
_cell_angle_beta 54.783144
_cell_angle_gamma 90.000000
_cell_volume 3120.404149
_symmetry_space_group_name_H-M "C 2/M"
_symmetry_group_IT_number 12
_symmetry_cell_setting 'monoclinic'
loop_
_space_group_symop_operation_xyz
x,y,z
-x,y,-z
-x,-y,-z
x,-y,z
1/2+x,1/2+y,z
1/2-x,1/2+y,-z
1/2-x,1/2-y,-z
1/2+x,1/2-y,z
loop_
_atom_site_type_symbol
_atom_site_label
_atom_site_fract_x
_atom_site_fract_y
_atom_site_fract_z
Si Si1 0.312758 0.689657 0.336650
Si Si2 0.105141 0.930575 0.377840
Si Si3 0.725212 0.668390 0.129687
Si Si4 0.500000 0.126329 0.500000
Si Si5 0.168068 0.066136 0.611840
Si Si6 0.615244 0.931852 0.612915
Si Si7 0.330206 0.179417 0.287220
Si Si8 0.175262 0.303194 0.229891
O O1 0.375266 0.626138 0.267550
O O2 0.376250 0.751480 0.256876
O O3 0.265291 0.685134 0.530839
O O4 0.231154 0.689729 0.310261
O O5 0.155114 0.888297 0.218897
O O6 0.159697 0.927062 0.461800
O O7 0.000000 0.906383 0.500000
O O8 0.104883 0.000000 0.321369
O O9 0.807080 0.667122 0.157172
O O10 0.666923 0.731790 0.196234
O O11 0.771773 0.659385 0.939121
O O12 0.448330 0.081364 0.449938
O O13 0.428025 0.170263 0.649460
O O14 0.277202 0.066785 0.539751
O O15 0.123620 0.000000 0.701820
O O16 0.601685 0.875749 0.732884
O O17 0.588340 0.000000 0.698085
#
# Coordination Sequence:
#
# PCOD8088434 Si02
#       8
#     8   8   8   4   8   8   8   8
#     4   9  15  31  53  80 101 145 188 228 261 354
#     4  10  20  34  57  88 114 141 191 244 286 348
#     4  10  20  38  56  84 114 151 178 243 296 345
#     4  12  21  36  54  88 113 156 196 242 275 348
#     4   9  16  30  53  79 108 145 185 227 284 342
#     4  10  19  32  53  80 114 151 195 237 274 340
#     4   9  16  30  57  75 101 145 195 224 274 336
#     4  10  22  35  56  83 121 144 191 233 292 337
#
# _framework density 19.228278
#
# number of rings (size 3 to 8) (size 9 to 14) (size 15 to 20)
#    0.000    2.267    5.333    0.200    0.933    0.000 
#    0.000    2.667    0.000    1.600    0.000    2.800 
#    0.000    0.000    0.000    0.000    0.000    0.000 
#
# Total GULP energy -371686.884991 kJ/mol
# GULP energy per Si atom -12389.562833 kJ/mol
# Density = 1.918451 g / cm^3
# Si number density = 19.228278 Si / 1000 Ang^3
#
#
#
# Elastic Constant Matrix: (Units=GPa)
#
#
# Indices 1 2 3 4 5 6 
#
# 1 70.0482 39.1979 24.7277 0.0000 6.2800 0.0000
# 2 39.1979 187.0985 42.0452 0.0000 -5.8272 0.0000
# 3 24.7277 42.0452 67.0006 0.0000 -2.6813 0.0000
# 4 0.0000 0.0000 0.0000 21.5152 0.0000 6.7677
# 5 6.2800 -5.8272 -2.6813 0.0000 19.2101 0.0000
# 6 0.0000 0.0000 0.0000 6.7677 0.0000 12.0956
#
#
#
# Elastic Compliance Matrix: (Units=1/GPa)
#
#
# Indices 1 2 3 4 5 6 
#
# 1 0.018463 -0.002918 -0.005289 0.000000 -0.007659 0.000000
# 2 -0.002918 0.006718 -0.003036 0.000000 0.002568 0.000000
# 3 -0.005289 -0.003036 0.018921 0.000000 0.003449 0.000000
# 4 0.000000 0.000000 0.000000 0.056406 0.000000 -0.031560
# 5 -0.007659 0.002568 0.003449 0.000000 0.055820 0.000000
# 6 0.000000 0.000000 0.000000 -0.031560 0.000000 0.100333
#
#
# Mechanical properties :
#
#
# Convention : Reuss Voigt Hill
#
# Bulk Modulus (GPa) = 46.26513 59.56544 52.91529
# Shear Modulus (GPa) = 17.46096 25.10927 21.28512
#
# Velocity S-wave (km/s) = 3.01672 3.61758 3.33072
# Velocity P-wave (km/s) = 6.02058 6.96380 6.50929
#
# Compressibility (1/GPa) = 0.02161455
#
# Stress axis : x y z
#
# Youngs Moduli (GPa) = 54.16383 148.84481 52.85186
#
# Poissons Ratio (x) = 0.43431 0.27955
# Poissons Ratio (y) = 0.15804 0.16048
# Poissons Ratio (z) = 0.28649 0.45195
#
# Static dielectric constant tensor:
#      x y z
#    x 3.284370 0.000000 0.248390 
#    y 0.000000 4.538430 0.000000 
#    z 0.248390 0.000000 3.056060 
# 
# 
# High freq. dielectric constant tensor:
#      x y z
#    x 1.729460 0.000000 0.033720 
#    y 0.000000 1.781100 0.000000 
#    z 0.033720 0.000000 1.690780 
# 
# From -- ./inp_files/79101.got.cif
#   From: 2010.06.25/outbox.cif.g09.slc.cpg/sg12_40_cif.got.tgz:79101.got - 2010.06.28 00:19:55.
