data_PCOD8088406
_publ_section_title
;
Structure prediction by ZEFSAII (Michael W. Deem and Ramdas Pophale) SiO2 
 PCOD8088406
Probable space group: C 2/M
;
_chemical_formula_sum "Si O2"
_cell_formula_units_Z 64
_cell_length_a 14.561703
_cell_length_b 8.860224
_cell_length_c 27.297504
_cell_angle_alpha 90.000000
_cell_angle_beta 72.650551
_cell_angle_gamma 90.000000
_cell_volume 3361.688500
_symmetry_space_group_name_H-M "C 2/M"
_symmetry_group_IT_number 12
_symmetry_cell_setting 'monoclinic'
loop_
_space_group_symop_operation_xyz
x,y,z
-x,y,-z
-x,-y,-z
x,-y,z
1/2+x,1/2+y,z
1/2-x,1/2+y,-z
1/2-x,1/2-y,-z
1/2+x,1/2-y,z
loop_
_atom_site_type_symbol
_atom_site_label
_atom_site_fract_x
_atom_site_fract_y
_atom_site_fract_z
Si Si1 0.654442 0.170479 0.906941
Si Si2 0.527448 0.321727 0.441317
Si Si3 0.387055 0.321585 0.711898
Si Si4 0.148133 0.177952 0.006457
Si Si5 0.775027 0.822629 0.635805
Si Si6 0.932409 0.320065 0.364981
Si Si7 0.037213 0.329716 0.110474
Si Si8 0.850171 0.178200 0.827417
O O1 0.578025 0.172249 0.875053
O O2 0.753223 0.235633 0.869235
O O3 0.669691 0.000000 0.924152
O O4 0.614602 0.271669 0.957802
O O5 0.500000 0.269860 0.500000
O O6 0.515035 0.500000 0.435546
O O7 0.638131 0.272317 0.414084
O O8 0.454804 0.239611 0.415807
O O9 0.405295 0.500000 0.705205
O O10 0.305221 0.270769 0.685940
O O11 0.488055 0.240124 0.685540
O O12 0.350188 0.271079 0.771022
O O13 0.076345 0.233737 0.059184
O O14 0.153840 0.000000 0.008112
O O15 0.250000 0.250000 0.000000
O O16 0.672285 0.754560 0.635266
O O17 0.763280 0.000000 0.636222
O O18 0.934074 0.500000 0.364896
O O19 0.077775 0.500000 0.101133
O O20 0.061774 0.256778 0.158740
O O21 0.860912 0.000000 0.830060
#
# Coordination Sequence:
#
# PCOD8088406 Si02
#       8
#     8   8   8   8   8   8   8   8
#     4  10  22  39  58  82 111 143 179 217 267 330
#     4   9  18  34  54  76 107 147 184 217 260 319
#     4   9  19  37  57  76 103 142 184 221 266 322
#     4  12  23  37  59  83 110 144 180 219 267 320
#     4   8  16  32  53  76 105 141 180 217 264 324
#     4  10  19  32  53  80 108 139 178 225 273 315
#     4  11  23  38  58  84 112 142 177 219 268 325
#     4  10  21  38  59  80 106 142 180 223 271 320
#
# _framework density 19.038052
#
# number of rings (size 3 to 8) (size 9 to 14) (size 15 to 20)
#    0.000    2.125    1.250    3.000    0.000    4.750 
#    0.000    7.500    0.000    0.000    0.000    0.000 
#    0.000    0.000    0.000    0.000    0.000    0.000 
#
# Total GULP energy -396769.566496 kJ/mol
# GULP energy per Si atom -12399.048953 kJ/mol
# Density = 1.899472 g / cm^3
# Si number density = 19.038052 Si / 1000 Ang^3
#
#
#
# Elastic Constant Matrix: (Units=GPa)
#
#
# Indices 1 2 3 4 5 6 
#
# 1 132.0282 32.1942 47.0407 0.0000 14.2590 0.0000
# 2 32.1942 64.3794 42.2422 0.0000 5.3542 0.0000
# 3 47.0407 42.2422 132.1708 0.0000 18.4013 0.0000
# 4 0.0000 0.0000 0.0000 27.4066 0.0000 3.8707
# 5 14.2590 5.3542 18.4013 0.0000 19.5947 0.0000
# 6 0.0000 0.0000 0.0000 3.8707 0.0000 28.0489
#
#
#
# Elastic Compliance Matrix: (Units=1/GPa)
#
#
# Indices 1 2 3 4 5 6 
#
# 1 0.009448 -0.003232 -0.001720 0.000000 -0.004376 0.000000
# 2 -0.003232 0.020766 -0.005780 0.000000 0.002105 0.000000
# 3 -0.001720 -0.005780 0.011080 0.000000 -0.007574 0.000000
# 4 0.000000 0.000000 0.000000 0.037213 0.000000 -0.005135
# 5 -0.004376 0.002105 -0.007574 0.000000 0.060756 0.000000
# 6 0.000000 0.000000 0.000000 -0.005135 0.000000 0.036361
#
#
# Mechanical properties :
#
#
# Convention : Reuss Voigt Hill
#
# Bulk Modulus (GPa) = 50.42833 63.50365 56.96599
# Shear Modulus (GPa) = 24.54610 28.81678 26.68144
#
# Velocity S-wave (km/s) = 3.59460 3.89477 3.74770
# Velocity P-wave (km/s) = 6.61619 7.32491 6.97955
#
# Compressibility (1/GPa) = 0.01983012
#
# Stress axis : x y z
#
# Youngs Moduli (GPa) = 105.84477 48.15469 90.25265
#
# Poissons Ratio (x) = 0.15563 0.15527
# Poissons Ratio (y) = 0.34207 0.52165
# Poissons Ratio (z) = 0.18209 0.27833
#
# Static dielectric constant tensor:
#      x y z
#    x 3.748490 0.000000 0.036180 
#    y 0.000000 3.400430 0.000000 
#    z 0.036180 0.000000 3.578900 
# 
# 
# High freq. dielectric constant tensor:
#      x y z
#    x 1.749000 0.000000 0.005900 
#    y 0.000000 1.725920 0.000000 
#    z 0.005900 0.000000 1.736040 
# 
# From -- ./inp_files/359752.got.cif
#   From: 2010.06.25/outbox.cif.g09.slc.cpg/sg12_180_cif.got.tgz:359752.got - 2010.06.28 00:19:55.
