data_PCOD8088749
_publ_section_title
;
Structure prediction by ZEFSAII (Michael W. Deem and Ramdas Pophale) SiO2 
 PCOD8088749
Probable space group: C 2/M
;
_chemical_formula_sum "Si O2"
_cell_formula_units_Z 64
_cell_length_a 27.434296
_cell_length_b 13.179842
_cell_length_c 15.169712
_cell_angle_alpha 90.000000
_cell_angle_beta 143.078243
_cell_angle_gamma 90.000000
_cell_volume 3295.006173
_symmetry_space_group_name_H-M "C 2/M"
_symmetry_group_IT_number 12
_symmetry_cell_setting 'monoclinic'
loop_
_space_group_symop_operation_xyz
x,y,z
-x,y,-z
-x,-y,-z
x,-y,z
1/2+x,1/2+y,z
1/2-x,1/2+y,-z
1/2-x,1/2-y,-z
1/2+x,1/2-y,z
loop_
_atom_site_type_symbol
_atom_site_label
_atom_site_fract_x
_atom_site_fract_y
_atom_site_fract_z
Si Si1 0.977072 0.782609 0.176973
Si Si2 0.586969 0.619532 0.602489
Si Si3 0.833238 0.116422 0.857147
Si Si4 0.209440 0.719250 0.351464
Si Si5 0.455928 0.113097 0.844248
Si Si6 0.738299 0.115267 0.887494
Si Si7 0.369049 0.619416 0.523970
Si Si8 0.135610 0.760747 0.828418
O O1 0.991257 0.677031 0.148289
O O2 0.065156 0.836843 0.311424
O O3 0.946608 0.759269 0.232624
O O4 0.913487 0.849862 0.028377
O O5 0.500000 0.666213 0.500000
O O6 0.585982 0.500000 0.597365
O O7 0.613133 0.663945 0.546921
O O8 0.643144 0.654530 0.763398
O O9 0.817580 0.185955 0.748936
O O10 0.752275 0.119853 0.801929
O O11 0.847668 0.000000 0.846704
O O12 0.250000 0.750000 0.500000
O O13 0.133216 0.653385 0.267778
O O14 0.275841 0.648813 0.401636
O O15 0.450368 0.000000 0.797043
O O16 0.500000 0.114321 0.000000
O O17 0.651116 0.151756 0.801294
O O18 0.755682 0.000000 0.945191
O O19 0.796578 0.203985 0.005586
O O20 0.378622 0.500000 0.542740
#
# Coordination Sequence:
#
# PCOD8088749 Si02
#       8
#     8   8   8   8   8   8   8   8
#     4  11  21  40  63  92 119 154 205 250 298 353
#     4  10  19  32  54  85 120 153 187 228 288 346
#     4  10  22  40  64  90 120 157 198 246 300 355
#     4  12  24  42  63  87 120 155 200 246 304 363
#     4  11  24  45  66  84 116 158 198 248 302 358
#     4   9  19  35  56  85 119 155 194 236 286 345
#     4  11  23  38  60  92 125 159 199 250 299 352
#     4  10  19  33  59  85 119 157 192 240 288 342
#
# _framework density 19.423333
#
# number of rings (size 3 to 8) (size 9 to 14) (size 15 to 20)
#    0.000    1.500    3.750    1.875    0.000    2.500 
#    0.000    0.625    0.000    0.375    0.000    0.000 
#    0.000    0.000    0.000    0.000    0.000    0.000 
#
# Total GULP energy -396472.636682 kJ/mol
# GULP energy per Si atom -12389.769896 kJ/mol
# Density = 1.937913 g / cm^3
# Si number density = 19.423333 Si / 1000 Ang^3
#
#
#
# Elastic Constant Matrix: (Units=GPa)
#
#
# Indices 1 2 3 4 5 6 
#
# 1 76.4448 34.8044 20.9905 0.0000 -3.4687 0.0000
# 2 34.8044 84.2248 22.9342 0.0000 -4.8946 0.0000
# 3 20.9905 22.9342 77.8753 0.0000 -6.3611 0.0000
# 4 0.0000 0.0000 0.0000 24.1257 0.0000 0.2893
# 5 -3.4687 -4.8946 -6.3611 0.0000 34.0623 0.0000
# 6 0.0000 0.0000 0.0000 0.2893 0.0000 32.8892
#
#
#
# Elastic Compliance Matrix: (Units=1/GPa)
#
#
# Indices 1 2 3 4 5 6 
#
# 1 0.016611 -0.006125 -0.002648 0.000000 0.000317 0.000000
# 2 -0.006125 0.015212 -0.002743 0.000000 0.001050 0.000000
# 3 -0.002648 -0.002743 0.014530 0.000000 0.002050 0.000000
# 4 0.000000 0.000000 0.000000 0.041454 0.000000 -0.000365
# 5 0.000317 0.001050 0.002050 0.000000 0.029924 0.000000
# 6 0.000000 0.000000 0.000000 -0.000365 0.000000 0.030408
#
#
# Mechanical properties :
#
#
# Convention : Reuss Voigt Hill
#
# Bulk Modulus (GPa) = 42.87887 44.00035 43.43961
# Shear Modulus (GPa) = 27.94149 28.86981 28.40565
#
# Velocity S-wave (km/s) = 3.79694 3.85950 3.82835
# Velocity P-wave (km/s) = 6.43010 6.52407 6.47726
#
# Compressibility (1/GPa) = 0.02332151
#
# Stress axis : x y z
#
# Youngs Moduli (GPa) = 60.19966 65.73750 68.82306
#
# Poissons Ratio (x) = 0.40264 0.18223
# Poissons Ratio (y) = 0.36872 0.18880
# Poissons Ratio (z) = 0.15939 0.18033
#
# Static dielectric constant tensor:
#      x y z
#    x 4.043370 0.000000 0.071290 
#    y 0.000000 3.539660 0.000000 
#    z 0.071290 0.000000 3.530780 
# 
# 
# High freq. dielectric constant tensor:
#      x y z
#    x 1.771210 0.000000 -0.002850 
#    y 0.000000 1.750030 0.000000 
#    z -0.002850 0.000000 1.747620 
# 
# From -- ./inp_files/245972.got.cif
#   From: 2010.06.25/outbox.cif.g09.slc.cpg/sg12_123_cif.got.tgz:245972.got - 2010.06.28 00:19:55.
