data_PCOD8088612
_publ_section_title
;
Structure prediction by ZEFSAII (Michael W. Deem and Ramdas Pophale) SiO2 
 PCOD8088612
Probable space group: C 2/M
;
_chemical_formula_sum "Si O2"
_cell_formula_units_Z 64
_cell_length_a 15.565894
_cell_length_b 9.145449
_cell_length_c 33.082195
_cell_angle_alpha 90.000000
_cell_angle_beta 134.304040
_cell_angle_gamma 90.000000
_cell_volume 3370.312263
_symmetry_space_group_name_H-M "C 2/M"
_symmetry_group_IT_number 12
_symmetry_cell_setting 'monoclinic'
loop_
_space_group_symop_operation_xyz
x,y,z
-x,y,-z
-x,-y,-z
x,-y,z
1/2+x,1/2+y,z
1/2-x,1/2+y,-z
1/2-x,1/2-y,-z
1/2+x,1/2-y,z
loop_
_atom_site_type_symbol
_atom_site_label
_atom_site_fract_x
_atom_site_fract_y
_atom_site_fract_z
Si Si1 0.033798 0.829008 0.133363
Si Si2 0.093214 0.174130 0.063946
Si Si3 0.232228 0.829776 0.262653
Si Si4 0.141899 0.669568 0.866693
Si Si5 0.559731 0.165300 0.261296
Si Si6 0.598710 0.326312 0.563397
Si Si7 0.362018 0.831932 0.625868
Si Si8 0.455576 0.673342 0.364168
O O1 0.050805 0.767765 0.093697
O O2 0.156713 0.794968 0.197552
O O3 0.920699 0.750085 0.116491
O O4 0.004946 0.000000 0.124406
O O5 0.225218 0.234772 0.096312
O O6 0.097831 0.000000 0.066635
O O7 0.000000 0.232516 0.000000
O O8 0.156508 0.779006 0.276512
O O9 0.355532 0.740144 0.301408
O O10 0.262310 0.000000 0.276630
O O11 0.147510 0.500000 0.880063
O O12 0.069776 0.695018 0.801167
O O13 0.551576 0.184842 0.306670
O O14 0.604053 0.000000 0.265536
O O15 0.500000 0.262904 0.500000
O O16 0.596518 0.500000 0.562906
O O17 0.729686 0.271440 0.592813
O O18 0.568644 0.269841 0.598408
O O19 0.415274 0.733984 0.607377
O O20 0.356282 0.000000 0.609674
O O21 0.454440 0.500000 0.360549
#
# Coordination Sequence:
#
# PCOD8088612 Si02
#       8
#     8   8   8   8   8   8   8   8
#     4   9  19  34  53  77 106 138 174 219 266 313
#     4   9  18  33  53  76 102 139 183 217 254 314
#     4  10  19  32  54  80 110 142 177 219 269 321
#     4   9  18  32  53  77 104 137 176 218 260 312
#     4   9  17  32  54  78 108 142 177 216 266 321
#     4   9  19  38  60  78 105 146 184 217 261 318
#     4  10  20  35  56  82 110 144 180 217 265 318
#     4  11  22  36  55  83 112 142 179 221 268 315
#
# _framework density 18.989338
#
# number of rings (size 3 to 8) (size 9 to 14) (size 15 to 20)
#    0.000    2.500    1.250    0.750    1.750    2.000 
#    0.000    0.625    0.000    3.375    0.000    0.000 
#    0.000    0.000    0.000    0.000    0.000    0.000 
#
# Total GULP energy -396810.084276 kJ/mol
# GULP energy per Si atom -12400.315134 kJ/mol
# Density = 1.894612 g / cm^3
# Si number density = 18.989338 Si / 1000 Ang^3
#
#
#
# Elastic Constant Matrix: (Units=GPa)
#
#
# Indices 1 2 3 4 5 6 
#
# 1 164.4009 45.7850 79.1600 0.0000 6.7374 0.0000
# 2 45.7850 50.5881 32.2643 0.0000 -0.0886 0.0000
# 3 79.1600 32.2643 116.9425 0.0000 7.0651 0.0000
# 4 0.0000 0.0000 0.0000 15.5164 0.0000 0.2476
# 5 6.7374 -0.0886 7.0651 0.0000 25.7125 0.0000
# 6 0.0000 0.0000 0.0000 0.2476 0.0000 33.4188
#
#
#
# Elastic Compliance Matrix: (Units=1/GPa)
#
#
# Indices 1 2 3 4 5 6 
#
# 1 0.010344 -0.006004 -0.005268 0.000000 -0.001284 0.000000
# 2 -0.006004 0.027569 -0.003704 0.000000 0.002686 0.000000
# 3 -0.005268 -0.003704 0.013277 0.000000 -0.002281 0.000000
# 4 0.000000 0.000000 0.000000 0.064456 0.000000 -0.000478
# 5 -0.001284 0.002686 -0.002281 0.000000 0.039864 0.000000
# 6 0.000000 0.000000 0.000000 -0.000478 0.000000 0.029927
#
#
# Mechanical properties :
#
#
# Convention : Reuss Voigt Hill
#
# Bulk Modulus (GPa) = 47.08734 71.81670 59.45202
# Shear Modulus (GPa) = 22.47518 26.57769 24.52643
#
# Velocity S-wave (km/s) = 3.44404 3.74520 3.59777
# Velocity P-wave (km/s) = 6.37697 7.52353 6.97386
#
# Compressibility (1/GPa) = 0.02123713
#
# Stress axis : x y z
#
# Youngs Moduli (GPa) = 96.67453 36.27276 75.31931
#
# Poissons Ratio (x) = 0.21780 0.39677
# Poissons Ratio (y) = 0.58047 0.27899
# Poissons Ratio (z) = 0.50927 0.13436
#
# Static dielectric constant tensor:
#      x y z
#    x 3.487450 0.000000 0.038100 
#    y 0.000000 3.195760 0.000000 
#    z 0.038100 0.000000 3.617200 
# 
# 
# High freq. dielectric constant tensor:
#      x y z
#    x 1.741060 0.000000 0.002820 
#    y 0.000000 1.706160 0.000000 
#    z 0.002820 0.000000 1.737540 
# 
# From -- ./inp_files/359953.got.cif
#   From: 2010.06.25/outbox.cif.g09.slc.cpg/sg12_180_cif.got.tgz:359953.got - 2010.06.28 00:19:55.
