data_PCOD8088539
_publ_section_title
;
Structure prediction by ZEFSAII (Michael W. Deem and Ramdas Pophale) SiO2 
 PCOD8088539
Probable space group: C 2/M
;
_chemical_formula_sum "Si O2"
_cell_formula_units_Z 40
_cell_length_a 10.091784
_cell_length_b 26.399534
_cell_length_c 12.232406
_cell_angle_alpha 90.000000
_cell_angle_beta 143.774034
_cell_angle_gamma 90.000000
_cell_volume 1925.938859
_symmetry_space_group_name_H-M "C 2/M"
_symmetry_group_IT_number 12
_symmetry_cell_setting 'monoclinic'
loop_
_space_group_symop_operation_xyz
x,y,z
-x,y,-z
-x,-y,-z
x,-y,z
1/2+x,1/2+y,z
1/2-x,1/2+y,-z
1/2-x,1/2-y,-z
1/2+x,1/2-y,z
loop_
_atom_site_type_symbol
_atom_site_label
_atom_site_fract_x
_atom_site_fract_y
_atom_site_fract_z
Si Si1 0.107114 0.597348 0.957819
Si Si2 0.084253 0.057028 0.238093
Si Si3 0.709424 0.558570 0.568601
Si Si4 0.802583 0.192609 0.009859
Si Si5 0.275327 0.844296 0.282370
O O1 0.182431 0.656108 0.018127
O O2 0.924226 0.591629 0.741542
O O3 0.316846 0.562944 0.062380
O O4 0.000000 0.578339 0.000000
O O5 0.172736 0.068678 0.417505
O O6 0.209108 0.095811 0.239214
O O7 0.143555 0.000000 0.239464
O O8 0.500000 0.578559 0.500000
O O9 0.753273 0.500000 0.625280
O O10 0.703887 0.174974 0.827399
O O11 0.750000 0.250000 0.000000
O O12 0.069685 0.186252 0.199774
O O13 0.500000 0.832817 0.500000
#
# Coordination Sequence:
#
# PCOD8088539 Si02
#       5
#     8   8   8   8   8
#     4  11  21  35  59  87 120 161 204 250 300 358
#     4  10  21  37  60  90 125 163 199 242 297 358
#     4  10  19  32  53  86 124 158 194 238 290 352
#     4  10  24  43  64  87 120 157 202 260 312 354
#     4  10  22  43  65  90 124 157 203 251 297 367
#
# _framework density 20.769089999999998
#
# number of rings (size 3 to 8) (size 9 to 14) (size 15 to 20)
#    0.000    1.800    2.000    1.800    2.800    2.000 
#    0.000   10.000    0.000    0.000    0.000    0.000 
#    0.000    0.000    0.000    0.000    0.000    0.000 
#
# Total GULP energy -248019.937754 kJ/mol
# GULP energy per Si atom -12400.996888 kJ/mol
# Density = 2.072182 g / cm^3
# Si number density = 20.769090 Si / 1000 Ang^3
#
#
#
# Elastic Constant Matrix: (Units=GPa)
#
#
# Indices 1 2 3 4 5 6 
#
# 1 70.7762 38.8150 35.7411 0.0000 -2.2735 0.0000
# 2 38.8150 139.3751 45.3302 0.0000 -3.0755 0.0000
# 3 35.7411 45.3302 163.0269 0.0000 14.5723 0.0000
# 4 0.0000 0.0000 0.0000 16.0366 0.0000 -10.0832
# 5 -2.2735 -3.0755 14.5723 0.0000 24.5059 0.0000
# 6 0.0000 0.0000 0.0000 -10.0832 0.0000 22.1998
#
#
#
# Elastic Compliance Matrix: (Units=1/GPa)
#
#
# Indices 1 2 3 4 5 6 
#
# 1 0.017949 -0.003918 -0.003116 0.000000 0.003026 0.000000
# 2 -0.003918 0.008882 -0.001772 0.000000 0.001805 0.000000
# 3 -0.003116 -0.001772 0.007768 0.000000 -0.005131 0.000000
# 4 0.000000 0.000000 0.000000 0.087284 0.000000 0.039645
# 5 0.003026 0.001805 -0.005131 0.000000 0.044365 0.000000
# 6 0.000000 0.000000 0.000000 0.039645 0.000000 0.063052
#
#
# Mechanical properties :
#
#
# Convention : Reuss Voigt Hill
#
# Bulk Modulus (GPa) = 58.86972 68.10564 63.48768
# Shear Modulus (GPa) = 19.79603 29.43460 24.61532
#
# Velocity S-wave (km/s) = 3.09066 3.76870 3.44639
# Velocity P-wave (km/s) = 6.41425 7.19725 6.81700
#
# Compressibility (1/GPa) = 0.01698666
#
# Stress axis : x y z
#
# Youngs Moduli (GPa) = 55.71436 112.58352 128.72608
#
# Poissons Ratio (x) = 0.44115 0.40110
# Poissons Ratio (y) = 0.21831 0.22811
# Poissons Ratio (z) = 0.17360 0.19950
#
# Static dielectric constant tensor:
#      x y z
#    x 3.674540 0.000000 0.105400 
#    y 0.000000 3.605940 0.000000 
#    z 0.105400 0.000000 3.874310 
# 
# 
# High freq. dielectric constant tensor:
#      x y z
#    x 1.810650 0.000000 0.006630 
#    y 0.000000 1.796970 0.000000 
#    z 0.006630 0.000000 1.825940 
# 
# From -- ./inp_files/208520.got.cif
#   From: 2010.06.25/outbox.cif.g09.slc.cpg/sg12_105_cif.got.tgz:208520.got - 2010.06.28 00:19:55.
