data_PCOD8088185
_publ_section_title
;
Structure prediction by ZEFSAII (Michael W. Deem and Ramdas Pophale) SiO2 
 PCOD8088185
Probable space group: C 2/M
;
_chemical_formula_sum "Si O2"
_cell_formula_units_Z 64
_cell_length_a 30.470837
_cell_length_b 9.140805
_cell_length_c 14.704140
_cell_angle_alpha 90.000000
_cell_angle_beta 47.973348
_cell_angle_gamma 90.000000
_cell_volume 3042.285250
_symmetry_space_group_name_H-M "C 2/M"
_symmetry_group_IT_number 12
_symmetry_cell_setting 'monoclinic'
loop_
_space_group_symop_operation_xyz
x,y,z
-x,y,-z
-x,-y,-z
x,-y,z
1/2+x,1/2+y,z
1/2-x,1/2+y,-z
1/2-x,1/2-y,-z
1/2+x,1/2-y,z
loop_
_atom_site_type_symbol
_atom_site_label
_atom_site_fract_x
_atom_site_fract_y
_atom_site_fract_z
Si Si1 0.132595 0.661885 0.314907
Si Si2 0.239212 0.837262 0.923666
Si Si3 0.170093 0.829575 0.848758
Si Si4 0.583930 0.334495 0.728730
Si Si5 0.546420 0.331619 0.085609
Si Si6 0.553549 0.169150 0.259897
Si Si7 0.800877 0.674972 0.369089
Si Si8 0.940379 0.835435 0.448846
O O1 0.109305 0.500000 0.374503
O O2 0.202648 0.665169 0.218457
O O3 0.110123 0.699867 0.244523
O O4 0.112827 0.779485 0.415727
O O5 0.188876 0.777077 0.924470
O O6 0.222361 0.000000 0.978500
O O7 0.250000 0.750000 0.000000
O O8 0.204307 0.731441 0.727401
O O9 0.187233 0.000000 0.810899
O O10 0.098427 0.808754 0.938664
O O11 0.601091 0.500000 0.736193
O O12 0.519275 0.288937 0.859975
O O13 0.633962 0.221181 0.688645
O O14 0.579787 0.325280 0.626627
O O15 0.543220 0.500000 0.121724
O O16 0.565187 0.240400 0.146939
O O17 0.497514 0.237684 0.389087
O O18 0.541128 0.000000 0.260964
O O19 0.793788 0.500000 0.383368
O O20 0.750000 0.750000 0.500000
O O21 0.955708 0.000000 0.455521
#
# Coordination Sequence:
#
# PCOD8088185 Si02
#       8
#     8   8   8   8   8   8   8   8
#     4  10  21  34  50  78 116 157 202 252 305 360
#     4  10  22  39  60  88 122 161 204 250 302 360
#     4  10  22  42  66  94 126 165 210 255 308 365
#     4   9  20  40  62  89 122 157 200 250 308 366
#     4   9  19  37  63  91 122 158 201 252 303 362
#     4  10  19  32  52  80 119 161 200 249 307 361
#     4  12  27  45  67  93 124 162 204 256 310 370
#     4  10  21  35  55  83 114 152 201 252 303 364
#
# _framework density 21.036816000000002
#
# number of rings (size 3 to 8) (size 9 to 14) (size 15 to 20)
#    0.000    2.000    0.000    3.750    1.750    7.000 
#    0.000    2.500    0.000    0.000    0.000    0.000 
#    0.000    0.000    0.000    0.000    0.000    0.000 
#
# Total GULP energy -396733.658759 kJ/mol
# GULP energy per Si atom -12397.926836 kJ/mol
# Density = 2.098894 g / cm^3
# Si number density = 21.036816 Si / 1000 Ang^3
#
#
#
# Elastic Constant Matrix: (Units=GPa)
#
#
# Indices 1 2 3 4 5 6 
#
# 1 94.9125 43.6410 32.9515 0.0000 -12.0797 0.0001
# 2 43.6410 112.2966 52.2760 0.0000 1.0394 0.0000
# 3 32.9515 52.2760 105.7947 0.0000 -6.3133 0.0000
# 4 0.0000 0.0000 0.0000 34.8880 0.0000 4.5652
# 5 -12.0797 1.0394 -6.3133 0.0000 23.6217 0.0000
# 6 0.0001 0.0000 0.0000 4.5652 0.0000 32.7845
#
#
#
# Elastic Compliance Matrix: (Units=1/GPa)
#
#
# Indices 1 2 3 4 5 6 
#
# 1 0.014220 -0.004839 -0.001617 0.000000 0.007052 0.000000
# 2 -0.004839 0.013312 -0.005339 0.000000 -0.004487 0.000000
# 3 -0.001617 -0.005339 0.012762 0.000000 0.002819 0.000000
# 4 0.000000 0.000000 0.000000 0.029195 0.000000 -0.004065
# 5 0.007052 -0.004487 0.002819 0.000000 0.046891 0.000000
# 6 0.000000 0.000000 0.000000 -0.004065 0.000000 0.031068
#
#
# Mechanical properties :
#
#
# Convention : Reuss Voigt Hill
#
# Bulk Modulus (GPa) = 59.86141 63.41565 61.63853
# Shear Modulus (GPa) = 28.31162 30.53454 29.42308
#
# Velocity S-wave (km/s) = 3.67251 3.81396 3.74391
# Velocity P-wave (km/s) = 6.81912 7.04313 6.93203
#
# Compressibility (1/GPa) = 0.01670525
#
# Stress axis : x y z
#
# Youngs Moduli (GPa) = 70.32412 75.11968 78.35678
#
# Poissons Ratio (x) = 0.36347 0.12673
# Poissons Ratio (y) = 0.34027 0.41831
# Poissons Ratio (z) = 0.11373 0.40103
#
# Static dielectric constant tensor:
#      x y z
#    x 3.847990 0.000000 -0.209850 
#    y 0.000000 3.769070 0.000000 
#    z -0.209850 0.000000 3.834530 
# 
# 
# High freq. dielectric constant tensor:
#      x y z
#    x 1.828200 0.000000 -0.006900 
#    y 0.000000 1.814320 0.000000 
#    z -0.006900 0.000000 1.827460 
# 
# From -- ./inp_files/249847.got.cif
#   From: 2010.06.25/outbox.cif.g09.slc.cpg/sg12_125_cif.got.tgz:249847.got - 2010.06.28 00:19:55.
