data_PCOD8088240
_publ_section_title
;
Structure prediction by ZEFSAII (Michael W. Deem and Ramdas Pophale) SiO2 
 PCOD8088240
Probable space group: C 2/M
;
_chemical_formula_sum "Si O2"
_cell_formula_units_Z 40
_cell_length_a 13.070352
_cell_length_b 14.272236
_cell_length_c 11.624751
_cell_angle_alpha 90.000000
_cell_angle_beta 83.865460
_cell_angle_gamma 90.000000
_cell_volume 2156.100075
_symmetry_space_group_name_H-M "C 2/M"
_symmetry_group_IT_number 12
_symmetry_cell_setting 'monoclinic'
loop_
_space_group_symop_operation_xyz
x,y,z
-x,y,-z
-x,-y,-z
x,-y,z
1/2+x,1/2+y,z
1/2-x,1/2+y,-z
1/2-x,1/2-y,-z
1/2+x,1/2-y,z
loop_
_atom_site_type_symbol
_atom_site_label
_atom_site_fract_x
_atom_site_fract_y
_atom_site_fract_z
Si Si1 0.807212 0.101751 0.679991
Si Si2 0.157297 0.681432 0.534947
Si Si3 0.783470 0.892279 0.942693
Si Si4 0.051455 0.723943 0.334564
Si Si5 0.095144 0.711130 0.067347
O O1 0.711094 0.099611 0.602161
O O2 0.757382 0.119343 0.811294
O O3 0.897470 0.175455 0.644062
O O4 0.860409 0.000000 0.668769
O O5 0.250000 0.750000 0.500000
O O6 0.106611 0.650966 0.418124
O O7 0.069597 0.730683 0.624001
O O8 0.876281 0.820151 0.960154
O O9 0.813777 0.000000 0.970229
O O10 0.685829 0.860897 0.028120
O O11 0.067790 0.691525 0.202998
O O12 0.000000 0.683866 0.000000
#
# Coordination Sequence:
#
# PCOD8088240 Si02
#       5
#     8   8   8   8   8
#     4   9  17  32  54  76  99 127 162 204 248 293
#     4   9  17  32  51  69  95 130 162 198 246 294
#     4   9  19  34  51  76 106 132 165 208 249 296
#     4   9  18  32  50  73 100 131 166 202 245 296
#     4  10  19  32  53  76 101 136 171 203 247 299
#
# _framework density 18.552015000000001
#
# number of rings (size 3 to 8) (size 9 to 14) (size 15 to 20)
#    0.000    2.800    0.000    1.200    0.000    2.400 
#    0.000   12.000    0.000    0.000    0.000    0.000 
#    0.000    0.000    0.000    0.000    0.000    0.000 
#
# Total GULP energy -247773.514463 kJ/mol
# GULP energy per Si atom -12388.675723 kJ/mol
# Density = 1.850979 g / cm^3
# Si number density = 18.552015 Si / 1000 Ang^3
#
#
#
# Elastic Constant Matrix: (Units=GPa)
#
#
# Indices 1 2 3 4 5 6 
#
# 1 79.4875 1.0541 32.0437 0.0000 -10.9292 0.0000
# 2 1.0541 53.2740 6.9602 0.0000 -5.2041 0.0000
# 3 32.0437 6.9602 95.0353 0.0000 -5.1068 0.0000
# 4 0.0000 0.0000 0.0000 19.0850 0.0000 1.5870
# 5 -10.9292 -5.2041 -5.1068 0.0000 31.9357 0.0000
# 6 0.0000 0.0000 0.0000 1.5870 0.0000 14.5918
#
#
#
# Elastic Compliance Matrix: (Units=1/GPa)
#
#
# Indices 1 2 3 4 5 6 
#
# 1 0.015182 0.000787 -0.004933 0.000000 0.004535 0.000000
# 2 0.000787 0.019261 -0.001506 0.000000 0.003167 0.000000
# 3 -0.004933 -0.001506 0.012298 0.000000 0.000033 0.000000
# 4 0.000000 0.000000 0.000000 0.052875 0.000000 -0.005751
# 5 0.004535 0.003167 0.000033 0.000000 0.033386 0.000000
# 6 0.000000 0.000000 0.000000 -0.005751 0.000000 0.069157
#
#
# Mechanical properties :
#
#
# Convention : Reuss Voigt Hill
#
# Bulk Modulus (GPa) = 28.21833 34.21252 31.21543
# Shear Modulus (GPa) = 22.19490 25.63842 23.91666
#
# Velocity S-wave (km/s) = 3.46260 3.72153 3.59439
# Velocity P-wave (km/s) = 5.58834 6.07847 5.83855
#
# Compressibility (1/GPa) = 0.03543796
#
# Stress axis : x y z
#
# Youngs Moduli (GPa) = 65.86568 51.91719 81.31543
#
# Poissons Ratio (x) = -0.04087 0.40114
# Poissons Ratio (y) = -0.05184 0.12245
# Poissons Ratio (z) = 0.32492 0.07818
#
# Static dielectric constant tensor:
#      x y z
#    x 3.494930 0.000000 0.179410 
#    y 0.000000 3.265510 0.000000 
#    z 0.179410 0.000000 3.781110 
# 
# 
# High freq. dielectric constant tensor:
#      x y z
#    x 1.717910 0.000000 -0.002770 
#    y 0.000000 1.688990 0.000000 
#    z -0.002770 0.000000 1.735010 
# 
# From -- ./inp_files/129104.got.cif
#   From: 2010.06.25/outbox.cif.g09.slc.cpg/sg12_65_cif.got.tgz:129104.got - 2010.06.28 00:19:55.
