data_PCOD8088993
_publ_section_title
;
Structure prediction by ZEFSAII (Michael W. Deem and Ramdas Pophale) SiO2 
 PCOD8088993
Probable space group: C 2/M
;
_chemical_formula_sum "Si O2"
_cell_formula_units_Z 56
_cell_length_a 25.619228
_cell_length_b 13.866953
_cell_length_c 11.791077
_cell_angle_alpha 90.000000
_cell_angle_beta 41.988384
_cell_angle_gamma 90.000000
_cell_volume 2802.293672
_symmetry_space_group_name_H-M "C 2/M"
_symmetry_group_IT_number 12
_symmetry_cell_setting 'monoclinic'
loop_
_space_group_symop_operation_xyz
x,y,z
-x,y,-z
-x,-y,-z
x,-y,z
1/2+x,1/2+y,z
1/2-x,1/2+y,-z
1/2-x,1/2-y,-z
1/2+x,1/2-y,z
loop_
_atom_site_type_symbol
_atom_site_label
_atom_site_fract_x
_atom_site_fract_y
_atom_site_fract_z
Si Si1 0.951703 0.245966 0.384055
Si Si2 0.141090 0.231070 0.246986
Si Si3 0.592476 0.110031 0.174547
Si Si4 0.742240 0.890922 0.805102
Si Si5 0.416119 0.388846 0.113710
Si Si6 0.688560 0.691848 0.527655
Si Si7 0.582321 0.387790 0.134142
O O1 0.929311 0.226509 0.550282
O O2 0.873999 0.262575 0.433744
O O3 0.011316 0.335754 0.278233
O O4 0.992182 0.147059 0.277581
O O5 0.140727 0.341548 0.201632
O O6 0.220196 0.192560 0.176238
O O7 0.127925 0.165092 0.159263
O O8 0.573064 0.000000 0.238967
O O9 0.648703 0.115082 0.973074
O O10 0.765007 0.872869 0.637997
O O11 0.770546 0.000000 0.791985
O O12 0.434642 0.500000 0.068871
O O13 0.355406 0.375077 0.311982
O O14 0.500000 0.336199 0.000000
O O15 0.381192 0.356558 0.047171
O O16 0.750000 0.750000 0.500000
O O17 0.585575 0.500000 0.154111
#
# Coordination Sequence:
#
# PCOD8088993 Si02
#       7
#     8   8   8   8   8   8   8
#     4  10  22  38  57  87 116 153 201 244 293 353
#     4  10  21  36  60  91 122 152 196 244 299 356
#     4  10  21  39  62  86 119 160 199 242 295 355
#     4  10  22  40  62  89 123 158 194 247 305 358
#     4  10  20  36  58  83 112 151 193 239 296 355
#     4  11  24  38  59  85 116 159 199 246 302 349
#     4  10  19  32  58  89 119 149 186 239 297 358
#
# _framework density 19.983629000000001
#
# number of rings (size 3 to 8) (size 9 to 14) (size 15 to 20)
#    0.000    1.857    1.429    3.000    4.000    4.571 
#    0.000    1.429    0.000    2.571    0.000    0.000 
#    0.000    0.000    0.000    0.000    0.000    0.000 
#
# Total GULP energy -346926.658707 kJ/mol
# GULP energy per Si atom -12390.237811 kJ/mol
# Density = 1.993815 g / cm^3
# Si number density = 19.983629 Si / 1000 Ang^3
#
#
#
# Elastic Constant Matrix: (Units=GPa)
#
#
# Indices 1 2 3 4 5 6 
#
# 1 102.2003 29.7193 33.9891 0.0000 11.7685 0.0000
# 2 29.7193 88.2017 10.2652 0.0000 8.7115 0.0000
# 3 33.9891 10.2652 96.8730 0.0000 25.4577 0.0000
# 4 0.0000 0.0000 0.0000 28.4977 0.0000 2.5445
# 5 11.7685 8.7115 25.4577 0.0000 34.5832 0.0000
# 6 0.0000 0.0000 0.0000 2.5445 0.0000 21.7786
#
#
#
# Elastic Compliance Matrix: (Units=1/GPa)
#
#
# Indices 1 2 3 4 5 6 
#
# 1 0.012135 -0.003607 -0.003756 0.000000 -0.000456 0.000000
# 2 -0.003607 0.012725 0.000542 0.000000 -0.002377 0.000000
# 3 -0.003756 0.000542 0.013989 0.000000 -0.009156 0.000000
# 4 0.000000 0.000000 0.000000 0.035460 0.000000 -0.004143
# 5 -0.000456 -0.002377 -0.009156 0.000000 0.036410 0.000000
# 6 0.000000 0.000000 0.000000 -0.004143 0.000000 0.046401
#
#
# Mechanical properties :
#
#
# Convention : Reuss Voigt Hill
#
# Bulk Modulus (GPa) = 39.67036 48.35800 44.01418
# Shear Modulus (GPa) = 27.90738 31.19201 29.54969
#
# Velocity S-wave (km/s) = 3.74105 3.95508 3.84955
# Velocity P-wave (km/s) = 6.20928 6.71627 6.46774
#
# Compressibility (1/GPa) = 0.02520774
#
# Stress axis : x y z
#
# Youngs Moduli (GPa) = 82.40559 78.58780 71.48292
#
# Poissons Ratio (x) = 0.28344 0.26846
# Poissons Ratio (y) = 0.29721 -0.03872
# Poissons Ratio (z) = 0.30949 -0.04257
#
# Static dielectric constant tensor:
#      x y z
#    x 3.651530 0.000000 0.032580 
#    y 0.000000 3.580680 0.000000 
#    z 0.032580 0.000000 6.059470 
# 
# 
# High freq. dielectric constant tensor:
#      x y z
#    x 1.768730 0.000000 0.011400 
#    y 0.000000 1.761290 0.000000 
#    z 0.011400 0.000000 1.800920 
# 
# From -- ./inp_files/183485.got.cif
#   From: 2010.06.25/outbox.cif.g09.slc.cpg/sg12_92_cif.got.tgz:183485.got - 2010.06.28 00:19:55.
