data_PCOD8088514
_publ_section_title
;
Structure prediction by ZEFSAII (Michael W. Deem and Ramdas Pophale) SiO2 
 PCOD8088514
Probable space group: C 2/M
;
_chemical_formula_sum "Si O2"
_cell_formula_units_Z 40
_cell_length_a 8.413481
_cell_length_b 29.394574
_cell_length_c 9.211962
_cell_angle_alpha 90.000000
_cell_angle_beta 61.531152
_cell_angle_gamma 90.000000
_cell_volume 2002.726552
_symmetry_space_group_name_H-M "C 2/M"
_symmetry_group_IT_number 12
_symmetry_cell_setting 'monoclinic'
loop_
_space_group_symop_operation_xyz
x,y,z
-x,y,-z
-x,-y,-z
x,-y,z
1/2+x,1/2+y,z
1/2-x,1/2+y,-z
1/2-x,1/2-y,-z
1/2+x,1/2-y,z
loop_
_atom_site_type_symbol
_atom_site_label
_atom_site_fract_x
_atom_site_fract_y
_atom_site_fract_z
Si Si1 0.532616 0.642051 0.814463
Si Si2 0.337039 0.549362 0.183404
Si Si3 0.307126 0.371618 0.655325
Si Si4 0.034487 0.551714 0.821652
Si Si5 0.697984 0.800322 0.478460
O O1 0.627442 0.593257 0.731585
O O2 0.342804 0.642704 0.808540
O O3 0.661992 0.682306 0.704465
O O4 0.500000 0.647671 0.000000
O O5 0.330222 0.500000 0.269148
O O6 0.149227 0.557947 0.185523
O O7 0.500000 0.547233 0.000000
O O8 0.500000 0.380892 0.500000
O O9 0.189104 0.416786 0.687770
O O10 0.204502 0.330597 0.620626
O O11 0.105156 0.500000 0.784881
O O12 0.000000 0.567452 0.000000
O O13 0.500000 0.801865 0.500000
O O14 0.750000 0.750000 0.500000
#
# Coordination Sequence:
#
# PCOD8088514 Si02
#       5
#     8   8   8   8   8
#     4  10  20  37  61  88 117 151 195 239 282 339
#     4   9  17  30  51  81 116 152 190 237 286 330
#     4  10  22  38  58  86 119 155 193 237 294 349
#     4  10  19  32  53  83 118 157 200 241 284 337
#     4  11  23  43  64  84 115 151 187 236 299 353
#
# _framework density 19.972771999999999
#
# number of rings (size 3 to 8) (size 9 to 14) (size 15 to 20)
#    0.000    2.000    0.000    5.400    0.000    2.800 
#    0.000    8.000    0.000   10.800    0.000    0.000 
#    0.000    0.000    0.000    0.000    0.000    0.000 
#
# Total GULP energy -247906.287546 kJ/mol
# GULP energy per Si atom -12395.314377 kJ/mol
# Density = 1.992731 g / cm^3
# Si number density = 19.972772 Si / 1000 Ang^3
#
#
#
# Elastic Constant Matrix: (Units=GPa)
#
#
# Indices 1 2 3 4 5 6 
#
# 1 159.5587 72.3820 44.5445 0.0000 2.7155 0.0000
# 2 72.3820 172.6677 55.1602 0.0000 -2.0745 0.0000
# 3 44.5445 55.1602 68.2258 0.0000 14.0430 0.0000
# 4 0.0000 0.0000 0.0000 32.5709 0.0000 2.4592
# 5 2.7155 -2.0745 14.0430 0.0000 35.1753 0.0000
# 6 0.0000 0.0000 0.0000 2.4592 0.0000 40.3327
#
#
#
# Elastic Compliance Matrix: (Units=1/GPa)
#
#
# Indices 1 2 3 4 5 6 
#
# 1 0.008339 -0.002293 -0.003737 0.000000 0.000713 0.000000
# 2 -0.002293 0.008795 -0.006272 0.000000 0.003200 0.000000
# 3 -0.003737 -0.006272 0.024171 0.000000 -0.009731 0.000000
# 4 0.000000 0.000000 0.000000 0.030844 0.000000 -0.001881
# 5 0.000713 0.003200 -0.009731 0.000000 0.032448 0.000000
# 6 0.000000 0.000000 0.000000 -0.001881 0.000000 0.024908
#
#
# Mechanical properties :
#
#
# Convention : Reuss Voigt Hill
#
# Bulk Modulus (GPa) = 59.87983 82.73617 71.30800
# Shear Modulus (GPa) = 31.31340 36.84015 34.07678
#
# Velocity S-wave (km/s) = 3.96385 4.29945 4.13505
# Velocity P-wave (km/s) = 7.14110 8.13396 7.65365
#
# Compressibility (1/GPa) = 0.01670011
#
# Stress axis : x y z
#
# Youngs Moduli (GPa) = 119.92255 113.70303 41.37193
#
# Poissons Ratio (x) = 0.26074 0.15461
# Poissons Ratio (y) = 0.27500 0.25948
# Poissons Ratio (z) = 0.44816 0.71314
#
# Static dielectric constant tensor:
#      x y z
#    x 3.976710 0.000000 0.220610 
#    y 0.000000 3.995200 0.000000 
#    z 0.220610 0.000000 3.412540 
# 
# 
# High freq. dielectric constant tensor:
#      x y z
#    x 1.800460 0.000000 0.006100 
#    y 0.000000 1.785650 0.000000 
#    z 0.006100 0.000000 1.753060 
# 
# From -- ./inp_files/41431.got.cif
#   From: 2010.06.25/outbox.cif.g09.slc.cpg/sg12_21_cif.got.tgz:41431.got - 2010.06.28 00:19:55.
