data_PCOD8088253
_publ_section_title
;
Structure prediction by ZEFSAII (Michael W. Deem and Ramdas Pophale) SiO2 
 PCOD8088253
Probable space group: C 2/M
;
_chemical_formula_sum "Si O2"
_cell_formula_units_Z 48
_cell_length_a 8.700868
_cell_length_b 19.976241
_cell_length_c 17.796219
_cell_angle_alpha 90.000000
_cell_angle_beta 60.205015
_cell_angle_gamma 90.000000
_cell_volume 2684.282468
_symmetry_space_group_name_H-M "C 2/M"
_symmetry_group_IT_number 12
_symmetry_cell_setting 'monoclinic'
loop_
_space_group_symop_operation_xyz
x,y,z
-x,y,-z
-x,-y,-z
x,-y,z
1/2+x,1/2+y,z
1/2-x,1/2+y,-z
1/2-x,1/2-y,-z
1/2+x,1/2-y,z
loop_
_atom_site_type_symbol
_atom_site_label
_atom_site_fract_x
_atom_site_fract_y
_atom_site_fract_z
Si Si1 0.633322 0.161381 0.907788
Si Si2 0.880004 0.682622 0.745911
Si Si3 0.896673 0.306364 0.450192
Si Si4 0.193858 0.075786 0.430314
Si Si5 0.887248 0.577169 0.236547
Si Si6 0.492878 0.720221 0.848323
O O1 0.661541 0.113518 0.829261
O O2 0.537235 0.230843 0.907071
O O3 0.822067 0.172752 0.904425
O O4 0.500000 0.126873 0.000000
O O5 0.667992 0.676382 0.789008
O O6 0.939363 0.739028 0.788587
O O7 0.963070 0.711076 0.648817
O O8 0.947566 0.610898 0.759797
O O9 0.750000 0.250000 0.500000
O O10 0.819159 0.377767 0.447881
O O11 0.000000 0.318129 0.500000
O O12 0.220132 0.084121 0.333812
O O13 0.000000 0.098756 0.500000
O O14 0.233500 0.000000 0.445419
O O15 0.934987 0.500000 0.208688
#
# Coordination Sequence:
#
# PCOD8088253 Si02
#       6
#     8   8   8   8   8   8
#     4  10  19  32  53  77 101 128 162 207 252 299
#     4   9  18  33  50  70  99 133 164 202 248 296
#     4  11  21  30  47  75 104 131 166 211 254 294
#     4   9  19  36  54  71  97 135 173 206 247 301
#     4   9  19  35  52  71  99 135 168 201 246 296
#     4   9  18  32  51  73  98 128 164 201 248 300
#
# _framework density 17.881874
#
# number of rings (size 3 to 8) (size 9 to 14) (size 15 to 20)
#    0.000    2.500    0.000    2.000    0.000    7.333 
#    0.000    0.833    0.000    1.000    0.000    0.000 
#    0.000    0.000    0.000    0.000    0.000    0.000 
#
# Total GULP energy -297462.189020 kJ/mol
# GULP energy per Si atom -12394.257876 kJ/mol
# Density = 1.784117 g / cm^3
# Si number density = 17.881874 Si / 1000 Ang^3
#
#
#
# Elastic Constant Matrix: (Units=GPa)
#
#
# Indices 1 2 3 4 5 6 
#
# 1 105.3741 24.8291 47.3827 0.0000 -16.1071 0.0000
# 2 24.8291 54.5922 21.2355 0.0000 -7.8524 0.0000
# 3 47.3827 21.2355 102.0867 0.0000 -14.4047 0.0000
# 4 0.0000 0.0000 0.0000 19.7474 0.0000 -1.0968
# 5 -16.1071 -7.8524 -14.4047 0.0000 30.3337 0.0000
# 6 0.0000 0.0000 0.0000 -1.0968 0.0000 12.6787
#
#
#
# Elastic Compliance Matrix: (Units=1/GPa)
#
#
# Indices 1 2 3 4 5 6 
#
# 1 0.013050 -0.003532 -0.004795 0.000000 0.003738 0.000000
# 2 -0.003532 0.021223 -0.002427 0.000000 0.002466 0.000000
# 3 -0.004795 -0.002427 0.012945 0.000000 0.002973 0.000000
# 4 0.000000 0.000000 0.000000 0.050884 0.000000 0.004402
# 5 0.003738 0.002466 0.002973 0.000000 0.037002 0.000000
# 6 0.000000 0.000000 0.000000 0.004402 0.000000 0.079253
#
#
# Mechanical properties :
#
#
# Convention : Reuss Voigt Hill
#
# Bulk Modulus (GPa) = 38.89613 49.88305 44.38959
# Shear Modulus (GPa) = 20.45528 23.79235 22.12381
#
# Velocity S-wave (km/s) = 3.38585 3.65160 3.52123
# Velocity P-wave (km/s) = 6.08968 6.76279 6.43504
#
# Compressibility (1/GPa) = 0.02570950
#
# Stress axis : x y z
#
# Youngs Moduli (GPa) = 76.63009 47.11861 77.24744
#
# Poissons Ratio (x) = 0.16644 0.37038
# Poissons Ratio (y) = 0.27069 0.18750
# Poissons Ratio (z) = 0.36742 0.11437
#
# Static dielectric constant tensor:
#      x y z
#    x 3.373890 0.000000 -0.146360 
#    y 0.000000 3.478290 0.000000 
#    z -0.146360 0.000000 3.523530 
# 
# 
# High freq. dielectric constant tensor:
#      x y z
#    x 1.687670 0.000000 -0.003710 
#    y 0.000000 1.674300 0.000000 
#    z -0.003710 0.000000 1.705190 
# 
# From -- ./inp_files/196481.got.cif
#   From: 2010.06.25/outbox.cif.g09.slc.cpg/sg12_99_cif.got.tgz:196481.got - 2010.06.28 00:19:55.
