data_PCOD8088347
_publ_section_title
;
Structure prediction by ZEFSAII (Michael W. Deem and Ramdas Pophale) SiO2 
 PCOD8088347
Probable space group: C 2/M
;
_chemical_formula_sum "Si O2"
_cell_formula_units_Z 64
_cell_length_a 15.512455
_cell_length_b 8.907569
_cell_length_c 33.576678
_cell_angle_alpha 90.000000
_cell_angle_beta 134.487045
_cell_angle_gamma 90.000000
_cell_volume 3309.908482
_symmetry_space_group_name_H-M "C 2/M"
_symmetry_group_IT_number 12
_symmetry_cell_setting 'monoclinic'
loop_
_space_group_symop_operation_xyz
x,y,z
-x,y,-z
-x,-y,-z
x,-y,z
1/2+x,1/2+y,z
1/2-x,1/2+y,-z
1/2-x,1/2-y,-z
1/2+x,1/2-y,z
loop_
_atom_site_type_symbol
_atom_site_label
_atom_site_fract_x
_atom_site_fract_y
_atom_site_fract_z
Si Si1 0.662328 0.674316 0.003096
Si Si2 0.903215 0.678332 0.499829
Si Si3 0.658178 0.321857 0.381529
Si Si4 0.255326 0.677975 0.110745
Si Si5 0.472859 0.678487 0.814658
Si Si6 0.213208 0.821386 0.310897
Si Si7 0.482804 0.178104 0.381863
Si Si8 0.907044 0.826013 0.880885
O O1 0.695692 0.500000 0.016541
O O2 0.525433 0.698589 0.945582
O O3 0.750000 0.750000 0.000000
O O4 0.675648 0.749319 0.050270
O O5 0.908881 0.500000 0.499734
O O6 0.770534 0.735411 0.444691
O O7 0.937276 0.735054 0.554880
O O8 0.000000 0.744963 0.500000
O O9 0.647129 0.500000 0.378896
O O10 0.675835 0.262537 0.342354
O O11 0.536081 0.250111 0.359096
O O12 0.247891 0.500000 0.104695
O O13 0.392727 0.736421 0.151505
O O14 0.202790 0.731408 0.136052
O O15 0.472703 0.500000 0.814552
O O16 0.381545 0.742863 0.751913
O O17 0.431137 0.736953 0.844364
O O18 0.346459 0.762616 0.343056
O O19 0.213268 0.000000 0.310948
O O20 0.485784 0.000000 0.379076
O O21 0.869510 0.000000 0.867576
#
# Coordination Sequence:
#
# PCOD8088347 Si02
#       8
#     8   8   8   8   8   8   8   8
#     4  11  21  36  59  85 114 146 179 218 270 324
#     4   9  15  28  51  76 103 135 176 216 255 318
#     4  10  19  32  53  79 105 137 175 218 269 318
#     4  11  22  37  57  84 112 143 180 222 269 319
#     4   9  19  37  56  76 107 142 181 224 267 314
#     4   9  18  34  56  76  99 142 187 217 257 320
#     4  10  19  32  53  79 104 136 177 219 264 317
#     4  10  21  38  57  80 110 144 176 216 270 322
#
# _framework density 19.335882000000002
#
# number of rings (size 3 to 8) (size 9 to 14) (size 15 to 20)
#    0.000    2.125    2.500    1.500    0.000    3.500 
#    0.000    0.625    0.000    3.750    0.000    0.000 
#    0.000    0.000    0.000    0.000    0.000    0.000 
#
# Total GULP energy -396848.387958 kJ/mol
# GULP energy per Si atom -12401.512124 kJ/mol
# Density = 1.929187 g / cm^3
# Si number density = 19.335882 Si / 1000 Ang^3
#
#
#
# Elastic Constant Matrix: (Units=GPa)
#
#
# Indices 1 2 3 4 5 6 
#
# 1 183.5726 38.2086 76.1708 0.0000 -12.9664 0.0000
# 2 38.2086 40.0693 30.3739 0.0000 -1.5146 0.0000
# 3 76.1708 30.3739 147.5692 0.0000 -4.6656 0.0000
# 4 0.0000 0.0000 0.0000 13.7875 0.0000 -3.1142
# 5 -12.9664 -1.5146 -4.6656 0.0000 16.8957 0.0000
# 6 0.0000 0.0000 0.0000 -3.1142 0.0000 33.8573
#
#
#
# Elastic Compliance Matrix: (Units=1/GPa)
#
#
# Indices 1 2 3 4 5 6 
#
# 1 0.008127 -0.005334 -0.002941 0.000000 0.004947 0.000000
# 2 -0.005334 0.033087 -0.004129 0.000000 -0.002267 0.000000
# 3 -0.002941 -0.004129 0.009141 0.000000 -0.000103 0.000000
# 4 0.000000 0.000000 0.000000 0.074068 0.000000 0.006813
# 5 0.004947 -0.002267 -0.000103 0.000000 0.062751 0.000000
# 6 0.000000 0.000000 0.000000 0.006813 0.000000 0.030162
#
#
# Mechanical properties :
#
#
# Convention : Reuss Voigt Hill
#
# Bulk Modulus (GPa) = 39.14123 73.41309 56.27716
# Shear Modulus (GPa) = 19.94737 28.00530 23.97633
#
# Velocity S-wave (km/s) = 3.21538 3.80986 3.52517
# Velocity P-wave (km/s) = 5.83709 7.57648 6.76294
#
# Compressibility (1/GPa) = 0.02554850
#
# Stress axis : x y z
#
# Youngs Moduli (GPa) = 123.04291 30.22360 109.39686
#
# Poissons Ratio (x) = 0.16120 0.32172
# Poissons Ratio (y) = 0.65626 0.45168
# Poissons Ratio (z) = 0.36185 0.12479
#
# Static dielectric constant tensor:
#      x y z
#    x 3.527770 0.000000 0.065190 
#    y 0.000000 3.089520 0.000000 
#    z 0.065190 0.000000 3.716750 
# 
# 
# High freq. dielectric constant tensor:
#      x y z
#    x 1.769530 0.000000 -0.003180 
#    y 0.000000 1.708360 0.000000 
#    z -0.003180 0.000000 1.753850 
# 
# From -- ./inp_files/375592.got.cif
#   From: 2010.06.25/outbox.cif.g09.slc.cpg/sg12_188_cif.got.tgz:375592.got - 2010.06.28 00:19:55.
