data_PCOD8088070
_publ_section_title
;
Structure prediction by ZEFSAII (Michael W. Deem and Ramdas Pophale) SiO2 
 PCOD8088070
Probable space group: C 2/M
;
_chemical_formula_sum "Si O2"
_cell_formula_units_Z 56
_cell_length_a 25.607558
_cell_length_b 8.591279
_cell_length_c 19.263437
_cell_angle_alpha 90.000000
_cell_angle_beta 48.117701
_cell_angle_gamma 90.000000
_cell_volume 3155.257942
_symmetry_space_group_name_H-M "C 2/M"
_symmetry_group_IT_number 12
_symmetry_cell_setting 'monoclinic'
loop_
_space_group_symop_operation_xyz
x,y,z
-x,y,-z
-x,-y,-z
x,-y,z
1/2+x,1/2+y,z
1/2-x,1/2+y,-z
1/2-x,1/2-y,-z
1/2+x,1/2-y,z
loop_
_atom_site_type_symbol
_atom_site_label
_atom_site_fract_x
_atom_site_fract_y
_atom_site_fract_z
Si Si1 0.308341 0.817197 0.897885
Si Si2 0.498774 0.184619 0.113786
Si Si3 0.512934 0.817270 0.594635
Si Si4 0.100292 0.179575 0.403935
Si Si5 0.039008 0.182325 0.220155
Si Si6 0.890989 0.683839 0.096990
Si Si7 0.263145 0.319001 0.794319
O O1 0.382866 0.748022 0.852725
O O2 0.290174 0.778083 0.835229
O O3 0.312532 0.000000 0.904456
O O4 0.250000 0.750000 0.000000
O O5 0.498662 0.277926 0.185325
O O6 0.429998 0.240912 0.132186
O O7 0.498549 0.000000 0.128030
O O8 0.567102 0.235629 0.008944
O O9 0.580794 0.738414 0.498203
O O10 0.442727 0.776432 0.614816
O O11 0.506487 0.757710 0.678380
O O12 0.524208 0.000000 0.584820
O O13 0.182881 0.204270 0.317224
O O14 0.079064 0.000000 0.414274
O O15 0.042980 0.000000 0.229227
O O16 0.890592 0.500000 0.100157
O O17 0.811816 0.748699 0.163789
O O18 0.257745 0.500000 0.820886
#
# Coordination Sequence:
#
# PCOD8088070 Si02
#       7
#     8   8   8   8   8   8   8
#     4  12  24  36  51  75 109 144 177 213 261 316
#     4   9  17  33  56  79 105 140 182 220 256 308
#     4  11  21  34  53  75 103 138 179 221 265 319
#     4  10  19  32  52  77 108 140 174 217 265 318
#     4  12  23  36  53  77 108 140 177 221 270 318
#     4   8  16  32  55  80 105 139 180 217 256 310
#     4  10  19  33  54  79 109 142 175 213 263 319
#
# _framework density 17.748152000000001
#
# number of rings (size 3 to 8) (size 9 to 14) (size 15 to 20)
#    0.000    1.714    1.429    6.857    0.000    1.714 
#    0.000    2.143    0.000    0.857    0.000    0.000 
#    0.000    0.000    0.000    0.000    0.000    0.000 
#
# Total GULP energy -347224.664065 kJ/mol
# GULP energy per Si atom -12400.880859 kJ/mol
# Density = 1.770776 g / cm^3
# Si number density = 17.748152 Si / 1000 Ang^3
#
#
#
# Elastic Constant Matrix: (Units=GPa)
#
#
# Indices 1 2 3 4 5 6 
#
# 1 80.7312 14.9799 43.6119 -0.0114 7.1753 0.0068
# 2 14.9799 61.6614 24.9503 0.0175 -2.8086 0.0049
# 3 43.6119 24.9503 121.2952 -0.0115 7.3628 0.0064
# 4 -0.0114 0.0175 -0.0115 20.9686 0.0067 3.4827
# 5 7.1753 -2.8086 7.3628 0.0067 25.7343 -0.0044
# 6 0.0068 0.0049 0.0064 3.4827 -0.0044 20.5297
#
#
#
# Elastic Compliance Matrix: (Units=1/GPa)
#
#
# Indices 1 2 3 4 5 6 
#
# 1 0.015769 -0.001917 -0.005084 0.000009 -0.003151 -0.000005
# 2 -0.001917 0.018157 -0.003255 -0.000019 0.003448 0.000001
# 3 -0.005084 -0.003255 0.010866 0.000007 -0.002047 -0.000003
# 4 0.000009 -0.000019 0.000007 0.049073 -0.000021 -0.008325
# 5 -0.003151 0.003448 -0.002047 -0.000021 0.040699 0.000013
# 6 -0.000005 0.000001 -0.000003 -0.008325 0.000013 0.050122
#
#
# Mechanical properties :
#
#
# Convention : Reuss Voigt Hill
#
# Bulk Modulus (GPa) = 41.18593 47.86355 44.52474
# Shear Modulus (GPa) = 23.44193 25.45624 24.44908
#
# Velocity S-wave (km/s) = 3.63824 3.79133 3.71557
# Velocity P-wave (km/s) = 6.39571 6.79649 6.59915
#
# Compressibility (1/GPa) = 0.02428014
#
# Stress axis : x y z
#
# Youngs Moduli (GPa) = 63.41494 55.07385 92.02910
#
# Poissons Ratio (x) = 0.10559 0.46789
# Poissons Ratio (y) = 0.12158 0.29954
# Poissons Ratio (z) = 0.32241 0.17926
#
# Static dielectric constant tensor:
#      x y z
#    x 3.510030 0.000000 -0.194900 
#    y 0.000000 3.234720 0.000000 
#    z -0.194900 0.000000 3.590650 
# 
# 
# High freq. dielectric constant tensor:
#      x y z
#    x 1.666970 0.000000 -0.000800 
#    y 0.000000 1.683450 0.000000 
#    z -0.000800 0.000000 1.693270 
# 
# From -- ./inp_files/291858.got.cif
#   From: 2010.06.25/outbox.cif.g09.slc.cpg/sg12_146_cif.got.tgz:291858.got - 2010.06.28 00:19:55.
