data_PCOD8088320
_publ_section_title
;
Structure prediction by ZEFSAII (Michael W. Deem and Ramdas Pophale) SiO2 
 PCOD8088320
Probable space group: C 2/M
;
_chemical_formula_sum "Si O2"
_cell_formula_units_Z 56
_cell_length_a 26.988062
_cell_length_b 9.621821
_cell_length_c 13.599084
_cell_angle_alpha 90.000000
_cell_angle_beta 123.062104
_cell_angle_gamma 90.000000
_cell_volume 2959.538309
_symmetry_space_group_name_H-M "C 2/M"
_symmetry_group_IT_number 12
_symmetry_cell_setting 'monoclinic'
loop_
_space_group_symop_operation_xyz
x,y,z
-x,y,-z
-x,-y,-z
x,-y,z
1/2+x,1/2+y,z
1/2-x,1/2+y,-z
1/2-x,1/2-y,-z
1/2+x,1/2-y,z
loop_
_atom_site_type_symbol
_atom_site_label
_atom_site_fract_x
_atom_site_fract_y
_atom_site_fract_z
Si Si1 0.635306 0.337970 0.052195
Si Si2 0.736442 0.162983 0.245980
Si Si3 0.163503 0.658179 0.579520
Si Si4 0.166915 0.346131 0.365284
Si Si5 0.924953 0.843935 0.814486
Si Si6 0.527624 0.838849 0.424738
Si Si7 0.466888 0.657841 0.194324
O O1 0.654662 0.500000 0.078660
O O2 0.692497 0.238332 0.121160
O O3 0.590014 0.298355 0.090913
O O4 0.600260 0.307224 0.912634
O O5 0.800236 0.238776 0.309147
O O6 0.714730 0.189047 0.333820
O O7 0.742246 0.000000 0.225657
O O8 0.166688 0.500000 0.623925
O O9 0.193626 0.664991 0.503720
O O10 0.095778 0.709826 0.500564
O O11 0.141921 0.500000 0.319337
O O12 0.110915 0.246322 0.302291
O O13 0.993780 0.827058 0.862495
O O14 0.903115 0.000000 0.774374
O O15 0.500000 0.807231 0.500000
O O16 0.488377 0.757796 0.303171
O O17 0.523833 0.000000 0.392056
O O18 0.470518 0.500000 0.237658
#
# Coordination Sequence:
#
# PCOD8088320 Si02
#       7
#     8   8   8   8   8   8   8
#     4   9  18  32  49  73 108 145 175 203 246 307
#     4  10  20  31  47  75 107 137 174 212 248 297
#     4  10  19  33  52  71  99 137 172 209 259 311
#     4   9  17  29  45  70 103 138 174 208 247 302
#     4   9  16  27  46  73 105 139 174 207 245 300
#     4  10  22  39  58  79 102 132 172 218 267 313
#     4  10  19  32  53  78 104 136 173 215 259 303
#
# _framework density 18.921870999999999
#
# number of rings (size 3 to 8) (size 9 to 14) (size 15 to 20)
#    0.000    2.429    1.429    1.286    0.000    4.286 
#    0.000    0.000    0.000    5.143    0.000    0.000 
#    0.000    0.000    0.000    0.000    0.000    0.000 
#
# Total GULP energy -347036.653279 kJ/mol
# GULP energy per Si atom -12394.166189 kJ/mol
# Density = 1.887880 g / cm^3
# Si number density = 18.921871 Si / 1000 Ang^3
#
#
#
# Elastic Constant Matrix: (Units=GPa)
#
#
# Indices 1 2 3 4 5 6 
#
# 1 41.3918 29.6909 41.8544 0.0000 8.4518 0.0000
# 2 29.6909 100.2981 78.4426 0.0000 21.8143 0.0000
# 3 41.8544 78.4426 125.2876 0.0000 26.6830 0.0000
# 4 0.0000 0.0000 0.0000 34.9085 0.0000 5.2423
# 5 8.4518 21.8143 26.6830 0.0000 20.3292 0.0000
# 6 0.0000 0.0000 0.0000 5.2423 0.0000 17.3770
#
#
#
# Elastic Compliance Matrix: (Units=1/GPa)
#
#
# Indices 1 2 3 4 5 6 
#
# 1 0.036865 -0.002721 -0.011061 0.000000 0.002112 0.000000
# 2 -0.002721 0.020442 -0.010353 0.000000 -0.007215 0.000000
# 3 -0.011061 -0.010353 0.020561 0.000000 -0.011279 0.000000
# 4 0.000000 0.000000 0.000000 0.030006 0.000000 -0.009052
# 5 0.002112 -0.007215 -0.011279 0.000000 0.070859 0.000000
# 6 0.000000 0.000000 0.000000 -0.009052 0.000000 0.060278
#
#
# Mechanical properties :
#
#
# Convention : Reuss Voigt Hill
#
# Bulk Modulus (GPa) = 33.78743 62.99481 48.39112
# Shear Modulus (GPa) = 16.82656 22.32224 19.57440
#
# Velocity S-wave (km/s) = 2.98529 3.43841 3.21983
# Velocity P-wave (km/s) = 5.45689 7.00913 6.28114
#
# Compressibility (1/GPa) = 0.02959681
#
# Stress axis : x y z
#
# Youngs Moduli (GPa) = 27.12585 48.91810 48.63527
#
# Poissons Ratio (x) = 0.13312 0.53798
# Poissons Ratio (y) = 0.07382 0.50353
# Poissons Ratio (z) = 0.30005 0.50646
#
# Static dielectric constant tensor:
#      x y z
#    x 3.186640 0.000000 0.143420 
#    y 0.000000 3.465560 0.000000 
#    z 0.143420 0.000000 3.325340 
# 
# 
# High freq. dielectric constant tensor:
#      x y z
#    x 1.700830 0.000000 0.017910 
#    y 0.000000 1.735200 0.000000 
#    z 0.017910 0.000000 1.724730 
# 
# From -- ./inp_files/237872.got.cif
#   From: 2010.06.25/outbox.cif.g09.slc.cpg/sg12_119_cif.got.tgz:237872.got - 2010.06.28 00:19:55.
