data_PCOD8088907
_publ_section_title
;
Structure prediction by ZEFSAII (Michael W. Deem and Ramdas Pophale) SiO2 
 PCOD8088907
Probable space group: C 2/M
;
_chemical_formula_sum "Si O2"
_cell_formula_units_Z 56
_cell_length_a 14.546851
_cell_length_b 9.320210
_cell_length_c 24.048068
_cell_angle_alpha 90.000000
_cell_angle_beta 121.223447
_cell_angle_gamma 90.000000
_cell_volume 2788.163874
_symmetry_space_group_name_H-M "C 2/M"
_symmetry_group_IT_number 12
_symmetry_cell_setting 'monoclinic'
loop_
_space_group_symop_operation_xyz
x,y,z
-x,y,-z
-x,-y,-z
x,-y,z
1/2+x,1/2+y,z
1/2-x,1/2+y,-z
1/2-x,1/2-y,-z
1/2+x,1/2-y,z
loop_
_atom_site_type_symbol
_atom_site_label
_atom_site_fract_x
_atom_site_fract_y
_atom_site_fract_z
Si Si1 0.914912 0.163830 0.065417
Si Si2 0.325567 0.332548 0.596692
Si Si3 0.271425 0.163517 0.213082
Si Si4 0.613794 0.667037 0.509134
Si Si5 0.743186 0.661917 0.076610
Si Si6 0.513587 0.837281 0.279617
Si Si7 0.418466 0.837690 0.821769
O O1 0.821183 0.219464 0.076149
O O2 0.021857 0.255724 0.109395
O O3 0.940917 0.000000 0.089259
O O4 0.874547 0.177327 0.988936
O O5 0.307154 0.500000 0.600748
O O6 0.383810 0.302188 0.556084
O O7 0.210012 0.256871 0.566712
O O8 0.402071 0.272008 0.668270
O O9 0.231976 0.188826 0.138012
O O10 0.394730 0.207388 0.261800
O O11 0.197214 0.265844 0.227255
O O12 0.253660 0.000000 0.225783
O O13 0.500000 0.716900 0.500000
O O14 0.633882 0.500000 0.528262
O O15 0.788608 0.500000 0.079619
O O16 0.511999 0.827469 0.212452
O O17 0.541515 0.000000 0.307036
O O18 0.400154 0.000000 0.835010
#
# Coordination Sequence:
#
# PCOD8088907 Si02
#       7
#     8   8   8   8   8   8   8
#     4  10  19  32  56  83 107 142 186 235 289 347
#     4  10  21  36  59  90 119 149 190 234 270 320
#     4  10  21  39  59  80 109 148 192 235 287 347
#     4   9  19  38  62  88 121 156 186 221 273 329
#     4   9  18  35  56  79 110 144 182 232 294 352
#     4  10  22  41  60  77 113 159 190 228 283 338
#     4  11  23  39  57  80 111 148 191 238 290 345
#
# _framework density 20.084903000000001
#
# number of rings (size 3 to 8) (size 9 to 14) (size 15 to 20)
#    0.000    2.143    1.429    1.286    0.000    5.429 
#    0.000    7.143    0.000    0.000    0.000    0.000 
#    0.000    0.000    0.000    0.000    0.000    0.000 
#
# Total GULP energy -347222.095404 kJ/mol
# GULP energy per Si atom -12400.789122 kJ/mol
# Density = 2.003919 g / cm^3
# Si number density = 20.084903 Si / 1000 Ang^3
#
#
#
# Elastic Constant Matrix: (Units=GPa)
#
#
# Indices 1 2 3 4 5 6 
#
# 1 100.8653 48.5361 20.3181 0.0000 26.8833 0.0000
# 2 48.5361 111.4305 44.9972 0.0000 23.4449 0.0000
# 3 20.3181 44.9972 79.0920 0.0000 23.7111 0.0000
# 4 0.0000 0.0000 0.0000 28.7195 0.0000 5.0717
# 5 26.8833 23.4449 23.7111 0.0000 26.4349 0.0000
# 6 0.0000 0.0000 0.0000 5.0717 0.0000 33.5327
#
#
#
# Elastic Compliance Matrix: (Units=1/GPa)
#
#
# Indices 1 2 3 4 5 6 
#
# 1 0.015449 -0.005028 0.003098 0.000000 -0.014031 0.000000
# 2 -0.005028 0.014028 -0.006145 0.000000 -0.001816 0.000000
# 3 0.003098 -0.006145 0.020044 0.000000 -0.015680 0.000000
# 4 0.000000 0.000000 0.000000 0.035775 0.000000 -0.005411
# 5 -0.014031 -0.001816 -0.015680 0.000000 0.067773 0.000000
# 6 0.000000 0.000000 0.000000 -0.005411 0.000000 0.030640
#
#
# Mechanical properties :
#
#
# Convention : Reuss Voigt Hill
#
# Bulk Modulus (GPa) = 29.96537 57.67675 43.82106
# Shear Modulus (GPa) = 23.69869 29.57317 26.63593
#
# Velocity S-wave (km/s) = 3.43873 3.84136 3.64561
# Velocity P-wave (km/s) = 5.54240 6.96086 6.29173
#
# Compressibility (1/GPa) = 0.03337186
#
# Stress axis : x y z
#
# Youngs Moduli (GPa) = 64.72785 71.28715 49.89001
#
# Poissons Ratio (x) = 0.35846 -0.15457
# Poissons Ratio (y) = 0.32547 0.30655
# Poissons Ratio (z) = -0.20054 0.43803
#
# Static dielectric constant tensor:
#      x y z
#    x 3.549720 0.000000 0.115380 
#    y 0.000000 3.675530 0.000000 
#    z 0.115380 0.000000 3.509390 
# 
# 
# High freq. dielectric constant tensor:
#      x y z
#    x 1.779520 0.000000 0.013640 
#    y 0.000000 1.786460 0.000000 
#    z 0.013640 0.000000 1.774310 
# 
# From -- ./inp_files/339032.got.cif
#   From: 2010.06.25/outbox.cif.g09.slc.cpg/sg12_170_cif.got.tgz:339032.got - 2010.06.28 00:19:55.
