data_PCOD8088359
_publ_section_title
;
Structure prediction by ZEFSAII (Michael W. Deem and Ramdas Pophale) SiO2 
 PCOD8088359
Probable space group: C 2/M
;
_chemical_formula_sum "Si O2"
_cell_formula_units_Z 48
_cell_length_a 27.295533
_cell_length_b 8.861099
_cell_length_c 11.722690
_cell_angle_alpha 90.000000
_cell_angle_beta 71.300522
_cell_angle_gamma 90.000000
_cell_volume 2685.679532
_symmetry_space_group_name_H-M "C 2/M"
_symmetry_group_IT_number 12
_symmetry_cell_setting 'monoclinic'
loop_
_space_group_symop_operation_xyz
x,y,z
-x,y,-z
-x,-y,-z
x,-y,z
1/2+x,1/2+y,z
1/2-x,1/2+y,-z
1/2-x,1/2-y,-z
1/2+x,1/2-y,z
loop_
_atom_site_type_symbol
_atom_site_label
_atom_site_fract_x
_atom_site_fract_y
_atom_site_fract_z
Si Si1 0.626834 0.825917 0.110500
Si Si2 0.696416 0.821897 0.498107
Si Si3 0.176030 0.827522 0.274405
Si Si4 0.709663 0.830819 0.863584
Si Si5 0.558421 0.676994 0.977628
Si Si6 0.856107 0.824992 0.264028
O O1 0.630934 0.738884 0.227686
O O2 0.616351 0.000000 0.144244
O O3 0.680503 0.799415 0.003430
O O4 0.579023 0.762455 0.073557
O O5 0.750000 0.750000 0.500000
O O6 0.680148 0.768123 0.385784
O O7 0.649812 0.772153 0.616764
O O8 0.703170 0.000000 0.494211
O O9 0.229323 0.814377 0.163700
O O10 0.162881 0.000000 0.315125
O O11 0.692279 0.710338 0.782041
O O12 0.695986 0.000000 0.829562
O O13 0.562993 0.500000 0.998805
O O14 0.591229 0.721074 0.840638
O O15 0.500000 0.728918 0.000000
O O16 0.855204 0.000000 0.297416
#
# Coordination Sequence:
#
# PCOD8088359 Si02
#       6
#     8   8   8   8   8   8
#     4  10  20  33  50  77 108 138 175 218 267 316
#     4  12  23  35  51  74 107 146 184 219 256 306
#     4  11  21  33  50  73 105 146 182 214 257 310
#     4   9  18  31  48  71 104 142 177 214 254 307
#     4   9  19  37  60  83 106 135 174 220 269 320
#     4  10  19  32  53  79 106 139 178 219 262 308
#
# _framework density 17.872572999999999
#
# number of rings (size 3 to 8) (size 9 to 14) (size 15 to 20)
#    0.000    1.833    1.667    3.500    0.000    2.333 
#    0.000    0.000    0.000    1.000    0.000    7.000 
#    0.000    0.000    0.000    0.000    0.000    0.000 
#
# Total GULP energy -297628.650069 kJ/mol
# GULP energy per Si atom -12401.193753 kJ/mol
# Density = 1.783189 g / cm^3
# Si number density = 17.872573 Si / 1000 Ang^3
#
#
#
# Elastic Constant Matrix: (Units=GPa)
#
#
# Indices 1 2 3 4 5 6 
#
# 1 97.2356 49.2106 53.8274 0.0000 9.2450 0.0000
# 2 49.2106 114.0452 57.1381 0.0000 13.1063 0.0000
# 3 53.8274 57.1381 99.0407 0.0000 18.1897 0.0000
# 4 0.0000 0.0000 0.0000 33.0225 0.0000 5.7712
# 5 9.2450 13.1063 18.1897 0.0000 21.1363 0.0000
# 6 0.0000 0.0000 0.0000 5.7712 0.0000 24.1283
#
#
#
# Elastic Compliance Matrix: (Units=1/GPa)
#
#
# Indices 1 2 3 4 5 6 
#
# 1 0.015667 -0.003543 -0.006670 0.000000 0.001084 0.000000
# 2 -0.003543 0.013193 -0.005307 0.000000 -0.002064 0.000000
# 3 -0.006670 -0.005307 0.018580 0.000000 -0.009782 0.000000
# 4 0.000000 0.000000 0.000000 0.031603 0.000000 -0.007559
# 5 0.001084 -0.002064 -0.009782 0.000000 0.056536 0.000000
# 6 0.000000 0.000000 0.000000 -0.007559 0.000000 0.043253
#
#
# Mechanical properties :
#
#
# Convention : Reuss Voigt Hill
#
# Bulk Modulus (GPa) = 60.97303 70.07486 65.52394
# Shear Modulus (GPa) = 23.21941 25.66712 24.44326
#
# Velocity S-wave (km/s) = 3.60830 3.79373 3.70218
# Velocity P-wave (km/s) = 7.17978 7.64742 7.41729
#
# Compressibility (1/GPa) = 0.01640070
#
# Stress axis : x y z
#
# Youngs Moduli (GPa) = 63.83033 75.79634 53.82241
#
# Poissons Ratio (x) = 0.26856 0.35897
# Poissons Ratio (y) = 0.22616 0.28561
# Poissons Ratio (z) = 0.42572 0.40222
#
# Static dielectric constant tensor:
#      x y z
#    x 3.051110 0.000000 -0.057090 
#    y 0.000000 3.400690 0.000000 
#    z -0.057090 0.000000 3.350090 
# 
# 
# High freq. dielectric constant tensor:
#      x y z
#    x 1.657150 0.000000 0.009330 
#    y 0.000000 1.704350 0.000000 
#    z 0.009330 0.000000 1.687740 
# 
# From -- ./inp_files/172154.got.cif
#   From: 2010.06.25/outbox.cif.g09.slc.cpg/sg12_87_cif.got.tgz:172154.got - 2010.06.28 00:19:55.
