data_PCOD8088088
_publ_section_title
;
Structure prediction by ZEFSAII (Michael W. Deem and Ramdas Pophale) SiO2 
 PCOD8088088
Probable space group: C 2/M
;
_chemical_formula_sum "Si O2"
_cell_formula_units_Z 56
_cell_length_a 36.438217
_cell_length_b 13.732522
_cell_length_c 8.808188
_cell_angle_alpha 90.000000
_cell_angle_beta 136.484437
_cell_angle_gamma 90.000000
_cell_volume 3034.802802
_symmetry_space_group_name_H-M "C 2/M"
_symmetry_group_IT_number 12
_symmetry_cell_setting 'monoclinic'
loop_
_space_group_symop_operation_xyz
x,y,z
-x,y,-z
-x,-y,-z
x,-y,z
1/2+x,1/2+y,z
1/2-x,1/2+y,-z
1/2-x,1/2-y,-z
1/2+x,1/2-y,z
loop_
_atom_site_type_symbol
_atom_site_label
_atom_site_fract_x
_atom_site_fract_y
_atom_site_fract_z
Si Si1 0.129973 0.750000 0.639919
Si Si2 0.190046 0.388722 0.042089
Si Si3 0.559886 0.203664 0.156578
Si Si4 0.440114 0.296336 0.297258
Si Si5 0.406366 0.610556 0.896407
Si Si6 0.593634 0.110556 0.958213
Si Si7 0.309954 0.388722 0.401810
O O1 0.167357 0.672866 0.834849
O O2 0.092108 0.692808 0.409009
O O3 0.092108 0.807192 0.643642
O O4 0.167357 0.827134 0.669291
O O5 0.188859 0.500000 0.984153
O O6 0.154784 0.374572 0.088095
O O7 0.250000 0.354848 0.261113
O O8 0.556911 0.316132 0.091215
O O9 0.500000 0.165272 0.000000
O O10 0.590038 0.136389 0.124652
O O11 0.500000 0.334727 0.500000
O O12 0.443089 0.183868 0.249746
O O13 0.409962 0.363612 0.084424
O O14 0.425691 0.500000 0.925506
O O15 0.345216 0.625428 0.659392
O O16 0.574309 0.000000 0.871362
O O17 0.311141 0.500000 0.351000
#
# Coordination Sequence:
#
# PCOD8088088 Si02
#       7
#     8   8   8   8   8   8   8
#     4  10  19  32  52  78 106 132 165 208 254 298
#     4   9  18  34  54  75 102 134 167 207 253 299
#     4  10  20  35  52  74 105 135 167 209 250 294
#     4  10  20  35  52  74 105 135 167 209 250 294
#     4   9  19  35  53  74 100 134 173 205 243 299
#     4   9  19  35  53  74 100 134 173 205 243 299
#     4   9  18  34  54  75 102 134 167 207 253 299
#
# _framework density 18.4526
#
# number of rings (size 3 to 8) (size 9 to 14) (size 15 to 20)
#    0.000    2.571    0.000    2.143    0.000    2.286 
#    0.000   18.571    0.000    3.429    0.000    0.000 
#    0.000    0.000    0.000    0.000    0.000    0.000 
#
# Total GULP energy -347182.154418 kJ/mol
# GULP energy per Si atom -12399.362658 kJ/mol
# Density = 1.841060 g / cm^3
# Si number density = 18.452600 Si / 1000 Ang^3
#
#
#
# Elastic Constant Matrix: (Units=GPa)
#
#
# Indices 1 2 3 4 5 6 
#
# 1 125.0241 36.0247 75.7941 0.0000 2.8601 0.0000
# 2 36.0247 79.0283 36.4433 0.0000 1.4812 0.0000
# 3 75.7941 36.4433 127.1526 0.0000 4.6676 0.0000
# 4 0.0000 0.0000 0.0000 23.5606 0.0000 0.3982
# 5 2.8601 1.4812 4.6676 0.0000 31.4193 0.0000
# 6 0.0000 0.0000 0.0000 0.3982 0.0000 23.4482
#
#
#
# Elastic Compliance Matrix: (Units=1/GPa)
#
#
# Indices 1 2 3 4 5 6 
#
# 1 0.013010 -0.002713 -0.006977 0.000000 -0.000020 0.000000
# 2 -0.002713 0.015147 -0.002722 0.000000 -0.000063 0.000000
# 3 -0.006977 -0.002722 0.012846 0.000000 -0.001145 0.000000
# 4 0.000000 0.000000 0.000000 0.042456 0.000000 -0.000721
# 5 -0.000020 -0.000063 -0.001145 0.000000 0.032002 0.000000
# 6 0.000000 0.000000 0.000000 -0.000721 0.000000 0.042660
#
#
# Mechanical properties :
#
#
# Convention : Reuss Voigt Hill
#
# Bulk Modulus (GPa) = 61.80777 69.74770 65.77773
# Shear Modulus (GPa) = 26.54817 27.88181 27.21499
#
# Velocity S-wave (km/s) = 3.79716 3.89137 3.84456
# Velocity P-wave (km/s) = 7.26586 7.62041 7.44525
#
# Compressibility (1/GPa) = 0.01617920
#
# Stress axis : x y z
#
# Youngs Moduli (GPa) = 76.86198 66.02114 77.84776
#
# Poissons Ratio (x) = 0.17911 0.54314
# Poissons Ratio (y) = 0.20852 0.21188
# Poissons Ratio (z) = 0.53627 0.17969
#
# Static dielectric constant tensor:
#      x y z
#    x 3.396510 0.000000 0.036940 
#    y 0.000000 3.409070 0.000000 
#    z 0.036940 0.000000 3.406950 
# 
# 
# High freq. dielectric constant tensor:
#      x y z
#    x 1.714370 0.000000 0.000290 
#    y 0.000000 1.709750 0.000000 
#    z 0.000290 0.000000 1.714450 
# 
# From -- ./inp_files/104006.got.cif
#   From: 2010.06.25/outbox.cif.g09.slc.cpg/sg12_53_cif.got.tgz:104006.got - 2010.06.28 00:19:55.
