data_PCOD8088151
_publ_section_title
;
Structure prediction by ZEFSAII (Michael W. Deem and Ramdas Pophale) SiO2 
 PCOD8088151
Probable space group: C 2/M
;
_chemical_formula_sum "Si O2"
_cell_formula_units_Z 48
_cell_length_a 22.940785
_cell_length_b 8.951739
_cell_length_c 12.596033
_cell_angle_alpha 90.000000
_cell_angle_beta 91.373026
_cell_angle_gamma 90.000000
_cell_volume 2585.977631
_symmetry_space_group_name_H-M "C 2/M"
_symmetry_group_IT_number 12
_symmetry_cell_setting 'monoclinic'
loop_
_space_group_symop_operation_xyz
x,y,z
-x,y,-z
-x,-y,-z
x,-y,z
1/2+x,1/2+y,z
1/2-x,1/2+y,-z
1/2-x,1/2-y,-z
1/2+x,1/2-y,z
loop_
_atom_site_type_symbol
_atom_site_label
_atom_site_fract_x
_atom_site_fract_y
_atom_site_fract_z
Si Si1 0.134184 0.334909 0.185414
Si Si2 0.367388 0.171681 0.191995
Si Si3 0.933047 0.175881 0.009162
Si Si4 0.816292 0.327946 0.404942
Si Si5 0.260682 0.335450 0.106265
Si Si6 0.683443 0.674919 0.379181
O O1 0.105363 0.500000 0.197392
O O2 0.102476 0.248347 0.088809
O O3 0.201275 0.356583 0.163930
O O4 0.135756 0.246147 0.296345
O O5 0.368751 0.191136 0.320088
O O6 0.302385 0.226934 0.171247
O O7 0.374734 0.000000 0.157614
O O8 0.412966 0.266696 0.124640
O O9 0.923447 0.000000 0.003545
O O10 0.000000 0.221144 0.000000
O O11 0.812320 0.500000 0.441257
O O12 0.751307 0.279026 0.361192
O O13 0.835237 0.227108 0.504441
O O14 0.289054 0.500000 0.087963
O O15 0.250000 0.250000 0.000000
O O16 0.674924 0.500000 0.368213
#
# Coordination Sequence:
#
# PCOD8088151 Si02
#       6
#     8   8   8   8   8   8
#     4  11  22  35  55  81 112 148 184 224 273 330
#     4  11  21  35  56  81 112 148 183 225 275 328
#     4  11  25  42  59  80 107 142 186 235 283 331
#     4   9  19  33  50  78 115 150 184 219 263 323
#     4  11  21  31  49  79 113 146 180 220 272 333
#     4  10  19  32  52  79 115 152 184 220 265 322
#
# _framework density 18.561646
#
# number of rings (size 3 to 8) (size 9 to 14) (size 15 to 20)
#    0.000    1.500    3.333    2.500    0.000    4.667 
#    0.000    0.000    0.000    1.000    0.000    7.000 
#    0.000    0.000    0.000    0.000    0.000    0.000 
#
# Total GULP energy -297371.596221 kJ/mol
# GULP energy per Si atom -12390.483176 kJ/mol
# Density = 1.851940 g / cm^3
# Si number density = 18.561646 Si / 1000 Ang^3
#
#
#
# Elastic Constant Matrix: (Units=GPa)
#
#
# Indices 1 2 3 4 5 6 
#
# 1 69.9402 26.8199 36.1154 0.0000 -12.9074 0.0000
# 2 26.8199 83.1452 55.3922 0.0000 -11.1616 0.0000
# 3 36.1154 55.3922 112.0719 0.0000 -13.0479 0.0000
# 4 0.0000 0.0000 0.0000 30.5588 0.0000 -3.0342
# 5 -12.9074 -11.1616 -13.0479 0.0000 10.0031 0.0000
# 6 0.0000 0.0000 0.0000 -3.0342 0.0000 19.5451
#
#
#
# Elastic Compliance Matrix: (Units=1/GPa)
#
#
# Indices 1 2 3 4 5 6 
#
# 1 0.020386 -0.001586 -0.003453 0.000000 0.020030 0.000000
# 2 -0.001586 0.018938 -0.007814 0.000000 0.008892 0.000000
# 3 -0.003453 -0.007814 0.014578 0.000000 0.005840 0.000000
# 4 0.000000 0.000000 0.000000 0.033236 0.000000 0.005160
# 5 0.020030 0.008892 0.005840 0.000000 0.143355 0.000000
# 6 0.000000 0.000000 0.000000 0.005160 0.000000 0.051965
#
#
# Mechanical properties :
#
#
# Convention : Reuss Voigt Hill
#
# Bulk Modulus (GPa) = 35.46734 55.75694 45.61214
# Shear Modulus (GPa) = 15.74492 21.81007 18.77749
#
# Velocity S-wave (km/s) = 2.91563 3.43156 3.18406
# Velocity P-wave (km/s) = 5.52122 6.76792 6.17611
#
# Compressibility (1/GPa) = 0.02819495
#
# Stress axis : x y z
#
# Youngs Moduli (GPa) = 49.05310 52.80320 68.59800
#
# Poissons Ratio (x) = 0.08376 0.23690
# Poissons Ratio (y) = 0.07781 0.53602
# Poissons Ratio (z) = 0.16940 0.41260
#
# Static dielectric constant tensor:
#      x y z
#    x 3.111890 0.000000 -0.046360 
#    y 0.000000 3.596900 0.000000 
#    z -0.046360 0.000000 3.487890 
# 
# 
# High freq. dielectric constant tensor:
#      x y z
#    x 1.670770 0.000000 -0.005420 
#    y 0.000000 1.739410 0.000000 
#    z -0.005420 0.000000 1.729200 
# 
# From -- ./inp_files/172337.got.cif
#   From: 2010.06.25/outbox.cif.g09.slc.cpg/sg12_87_cif.got.tgz:172337.got - 2010.06.28 00:19:55.
