data_PCOD8088030
_publ_section_title
;
Structure prediction by ZEFSAII (Michael W. Deem and Ramdas Pophale) SiO2 
 PCOD8088030
Probable space group: C 2/M
;
_chemical_formula_sum "Si O2"
_cell_formula_units_Z 64
_cell_length_a 20.183922
_cell_length_b 9.159121
_cell_length_c 20.065879
_cell_angle_alpha 90.000000
_cell_angle_beta 96.488659
_cell_angle_gamma 90.000000
_cell_volume 3685.756256
_symmetry_space_group_name_H-M "C 2/M"
_symmetry_group_IT_number 12
_symmetry_cell_setting 'monoclinic'
loop_
_space_group_symop_operation_xyz
x,y,z
-x,y,-z
-x,-y,-z
x,-y,z
1/2+x,1/2+y,z
1/2-x,1/2+y,-z
1/2-x,1/2-y,-z
1/2+x,1/2-y,z
loop_
_atom_site_type_symbol
_atom_site_label
_atom_site_fract_x
_atom_site_fract_y
_atom_site_fract_z
Si Si1 0.698167 0.673378 0.945114
Si Si2 0.444715 0.326517 0.542329
Si Si3 0.163834 0.830802 0.678936
Si Si4 0.317444 0.165031 0.190121
Si Si5 0.455295 0.669704 0.057617
Si Si6 0.490377 0.331051 0.316874
Si Si7 0.192398 0.827400 0.532868
Si Si8 0.025637 0.337341 0.811598
O O1 0.710293 0.500000 0.945417
O O2 0.712260 0.737927 0.873173
O O3 0.622751 0.711440 0.960762
O O4 0.750000 0.750000 0.000000
O O5 0.500000 0.257823 0.500000
O O6 0.447778 0.500000 0.537549
O O7 0.459767 0.277493 0.619580
O O8 0.373996 0.267455 0.510056
O O9 0.200650 0.737406 0.740730
O O10 0.193528 0.783482 0.610919
O O11 0.084932 0.800586 0.667988
O O12 0.177782 0.000000 0.695703
O O13 0.396291 0.162925 0.192881
O O14 0.288497 0.000000 0.183516
O O15 0.461030 0.500000 0.074538
O O16 0.489596 0.753796 0.122166
O O17 0.500000 0.714913 0.000000
O O18 0.500062 0.500000 0.300887
O O19 0.510874 0.241828 0.253665
O O20 0.250000 0.750000 0.500000
O O21 0.198665 0.000000 0.525938
O O22 0.996943 0.500000 0.814424
#
# Coordination Sequence:
#
# PCOD8088030 Si02
#       8
#     8   8   8   8   8   8   8   8
#     4  10  19  32  52  77 104 131 162 203 247 289
#     4   9  15  28  51  76  95 120 165 210 242 281
#     4   9  16  28  48  72  95 123 161 206 249 289
#     4   9  17  29  47  72 100 128 162 203 244 291
#     4   9  18  33  53  75  99 130 168 203 234 281
#     4   9  15  26  49  74  94 119 160 211 249 280
#     4  10  20  33  50  72 100 131 164 201 246 298
#     4   9  17  28  44  71 104 131 157 195 246 296
#
# _framework density 17.364144
#
# number of rings (size 3 to 8) (size 9 to 14) (size 15 to 20)
#    0.000    2.750    1.250    1.125    0.000    4.250 
#    0.000    0.625    2.750    0.750    0.000    0.000 
#    0.000    0.000    0.000    0.000    0.000    0.000 
#
# Total GULP energy -396711.347839 kJ/mol
# GULP energy per Si atom -12397.229620 kJ/mol
# Density = 1.732462 g / cm^3
# Si number density = 17.364144 Si / 1000 Ang^3
#
#
#
# Elastic Constant Matrix: (Units=GPa)
#
#
# Indices 1 2 3 4 5 6 
#
# 1 72.1341 35.7727 67.4664 0.0000 1.0948 0.0000
# 2 35.7727 79.3075 77.2936 0.0000 0.4097 0.0000
# 3 67.4664 77.2936 180.4353 0.0000 3.1450 0.0000
# 4 0.0000 0.0000 0.0000 27.6068 0.0000 -0.3559
# 5 1.0948 0.4097 3.1450 0.0000 26.4410 0.0000
# 6 0.0000 0.0000 0.0000 -0.3559 0.0000 19.3238
#
#
#
# Elastic Compliance Matrix: (Units=1/GPa)
#
#
# Indices 1 2 3 4 5 6 
#
# 1 0.021793 -0.003243 -0.006759 0.000000 -0.000048 0.000000
# 2 -0.003243 0.022145 -0.008287 0.000000 0.000777 0.000000
# 3 -0.006759 -0.008287 0.011636 0.000000 -0.000976 0.000000
# 4 0.000000 0.000000 0.000000 0.036232 0.000000 0.000667
# 5 -0.000048 0.000777 -0.000976 0.000000 0.037926 0.000000
# 6 0.000000 0.000000 0.000000 0.000667 0.000000 0.051762
#
#
# Mechanical properties :
#
#
# Convention : Reuss Voigt Hill
#
# Bulk Modulus (GPa) = 52.64043 76.99359 64.81701
# Shear Modulus (GPa) = 22.28127 24.76392 23.52260
#
# Velocity S-wave (km/s) = 3.58603 3.78054 3.68457
# Velocity P-wave (km/s) = 6.89402 7.96828 7.45054
#
# Compressibility (1/GPa) = 0.01899680
#
# Stress axis : x y z
#
# Youngs Moduli (GPa) = 45.88549 45.15782 85.93780
#
# Poissons Ratio (x) = 0.14644 0.58083
# Poissons Ratio (y) = 0.14880 0.71218
# Poissons Ratio (z) = 0.31013 0.37423
#
# Static dielectric constant tensor:
#      x y z
#    x 2.957530 0.000000 0.100920 
#    y 0.000000 3.215200 0.000000 
#    z 0.100920 0.000000 3.465090 
# 
# 
# High freq. dielectric constant tensor:
#      x y z
#    x 1.627890 0.000000 0.006460 
#    y 0.000000 1.661490 0.000000 
#    z 0.006460 0.000000 1.686690 
# 
# From -- ./inp_files/314059.got.cif
#   From: 2010.06.25/outbox.cif.g09.slc.cpg/sg12_158_cif.got.tgz:314059.got - 2010.06.28 00:19:55.
