data_PCOD8088802
_publ_section_title
;
Structure prediction by ZEFSAII (Michael W. Deem and Ramdas Pophale) SiO2 
 PCOD8088802
Probable space group: C 2/M
;
_chemical_formula_sum "Si O2"
_cell_formula_units_Z 64
_cell_length_a 24.668896
_cell_length_b 8.920408
_cell_length_c 22.951333
_cell_angle_alpha 90.000000
_cell_angle_beta 135.461460
_cell_angle_gamma 90.000000
_cell_volume 3542.429525
_symmetry_space_group_name_H-M "C 2/M"
_symmetry_group_IT_number 12
_symmetry_cell_setting 'monoclinic'
loop_
_space_group_symop_operation_xyz
x,y,z
-x,y,-z
-x,-y,-z
x,-y,z
1/2+x,1/2+y,z
1/2-x,1/2+y,-z
1/2-x,1/2-y,-z
1/2+x,1/2-y,z
loop_
_atom_site_type_symbol
_atom_site_label
_atom_site_fract_x
_atom_site_fract_y
_atom_site_fract_z
Si Si1 0.925278 0.167669 0.482586
Si Si2 0.944804 0.676882 0.826630
Si Si3 0.082128 0.829155 0.995765
Si Si4 0.333040 0.675277 0.822601
Si Si5 0.828712 0.831457 0.049814
Si Si6 0.013557 0.676425 0.646959
Si Si7 0.516957 0.678839 0.773680
Si Si8 0.842678 0.674355 0.321119
O O1 0.856105 0.238000 0.391844
O O2 0.000000 0.162749 0.500000
O O3 0.943109 0.271594 0.551836
O O4 0.902332 0.000000 0.485341
O O5 0.945051 0.500000 0.818823
O O6 0.862953 0.731629 0.789926
O O7 0.011439 0.724526 0.923141
O O8 0.955107 0.753173 0.771440
O O9 0.151497 0.818823 0.002949
O O10 0.050972 0.000000 0.975370
O O11 0.116668 0.774470 0.083265
O O12 0.343179 0.500000 0.817540
O O13 0.243372 0.713180 0.766481
O O14 0.898359 0.763150 0.141600
O O15 0.815575 0.000000 0.059818
O O16 0.750000 0.750000 0.000000
O O17 0.008007 0.500000 0.653631
O O18 0.001074 0.763181 0.697293
O O19 0.096304 0.722352 0.682273
O O20 0.511022 0.500000 0.772254
O O21 0.853983 0.500000 0.343640
#
# Coordination Sequence:
#
# PCOD8088802 Si02
#       8
#     8   8   8   8   8   8   8   8
#     4   9  17  31  51  75 108 144 173 206 253 309
#     4  11  22  36  53  75 102 134 178 227 266 303
#     4   9  19  35  53  72  99 138 180 215 259 315
#     4  10  20  35  55  76 103 140 176 216 263 314
#     4   9  19  32  48  70 101 137 171 210 255 305
#     4  10  19  32  55  83 109 136 172 216 255 305
#     4  10  21  37  54  74 101 138 178 213 257 315
#     4   9  19  33  52  80 110 139 172 211 259 310
#
# _framework density 18.066697999999999
#
# number of rings (size 3 to 8) (size 9 to 14) (size 15 to 20)
#    0.000    2.375    0.000    3.375    1.750    7.000 
#    0.000    0.000    0.000    0.750    0.000    0.000 
#    0.000    0.000    0.000    0.000    0.000    0.000 
#
# Total GULP energy -396799.560504 kJ/mol
# GULP energy per Si atom -12399.986266 kJ/mol
# Density = 1.802558 g / cm^3
# Si number density = 18.066698 Si / 1000 Ang^3
#
#
#
# Elastic Constant Matrix: (Units=GPa)
#
#
# Indices 1 2 3 4 5 6 
#
# 1 73.3782 32.2275 38.9620 0.0000 -13.4301 0.0000
# 2 32.2275 80.6484 34.1567 0.0000 -7.8665 0.0000
# 3 38.9620 34.1567 82.0902 0.0000 -20.9974 0.0000
# 4 0.0000 0.0000 0.0000 30.5412 0.0000 -2.4277
# 5 -13.4301 -7.8665 -20.9974 0.0000 22.7899 0.0000
# 6 0.0000 0.0000 0.0000 -2.4277 0.0000 26.6720
#
#
#
# Elastic Compliance Matrix: (Units=1/GPa)
#
#
# Indices 1 2 3 4 5 6 
#
# 1 0.019901 -0.004853 -0.006352 0.000000 0.004200 0.000000
# 2 -0.004853 0.016245 -0.004911 0.000000 -0.001777 0.000000
# 3 -0.006352 -0.004911 0.020735 0.000000 0.013666 0.000000
# 4 0.000000 0.000000 0.000000 0.032981 0.000000 0.003002
# 5 0.004200 -0.001777 0.013666 0.000000 0.058332 0.000000
# 6 0.000000 0.000000 0.000000 0.003002 0.000000 0.037766
#
#
# Mechanical properties :
#
#
# Convention : Reuss Voigt Hill
#
# Bulk Modulus (GPa) = 40.56651 49.64549 45.10600
# Shear Modulus (GPa) = 22.08404 24.71867 23.40136
#
# Velocity S-wave (km/s) = 3.50002 3.70292 3.60290
# Velocity P-wave (km/s) = 6.23186 6.76911 6.50603
#
# Compressibility (1/GPa) = 0.02465088
#
# Stress axis : x y z
#
# Youngs Moduli (GPa) = 50.24939 61.55700 48.22669
#
# Poissons Ratio (x) = 0.29871 0.30633
# Poissons Ratio (y) = 0.24384 0.23683
# Poissons Ratio (z) = 0.31918 0.30229
#
# Static dielectric constant tensor:
#      x y z
#    x 3.293190 0.000000 -0.151220 
#    y 0.000000 3.348690 0.000000 
#    z -0.151220 0.000000 3.610110 
# 
# 
# High freq. dielectric constant tensor:
#      x y z
#    x 1.687220 0.000000 -0.008770 
#    y 0.000000 1.700080 0.000000 
#    z -0.008770 0.000000 1.690300 
# 
# From -- ./inp_files/324352.got.cif
#   From: 2010.06.25/outbox.cif.g09.slc.cpg/sg12_163_cif.got.tgz:324352.got - 2010.06.28 00:19:55.
