data_PCOD8088617
_publ_section_title
;
Structure prediction by ZEFSAII (Michael W. Deem and Ramdas Pophale) SiO2 
 PCOD8088617
Probable space group: C 2/M
;
_chemical_formula_sum "Si O2"
_cell_formula_units_Z 64
_cell_length_a 20.655359
_cell_length_b 9.106539
_cell_length_c 20.968568
_cell_angle_alpha 90.000000
_cell_angle_beta 61.546599
_cell_angle_gamma 90.000000
_cell_volume 3467.727565
_symmetry_space_group_name_H-M "C 2/M"
_symmetry_group_IT_number 12
_symmetry_cell_setting 'monoclinic'
loop_
_space_group_symop_operation_xyz
x,y,z
-x,y,-z
-x,-y,-z
x,-y,z
1/2+x,1/2+y,z
1/2-x,1/2+y,-z
1/2-x,1/2-y,-z
1/2+x,1/2-y,z
loop_
_atom_site_type_symbol
_atom_site_label
_atom_site_fract_x
_atom_site_fract_y
_atom_site_fract_z
Si Si1 0.790823 0.673421 0.423398
Si Si2 0.533867 0.173763 0.165006
Si Si3 0.274170 0.672753 0.680887
Si Si4 0.835411 0.165722 0.840579
Si Si5 0.044279 0.672218 0.668743
Si Si6 0.959251 0.168350 0.084261
Si Si7 0.078798 0.161908 0.331910
Si Si8 0.788374 0.828690 0.168745
O O1 0.788212 0.500000 0.434792
O O2 0.750000 0.750000 0.500000
O O3 0.751720 0.720219 0.376501
O O4 0.874116 0.733573 0.380947
O O5 0.614234 0.250061 0.131171
O O6 0.484191 0.222758 0.248620
O O7 0.491121 0.224913 0.122759
O O8 0.545540 0.000000 0.157768
O O9 0.261307 0.500000 0.700540
O O10 0.361424 0.711690 0.643348
O O11 0.227698 0.762598 0.754209
O O12 0.877982 0.163616 0.754448
O O13 0.758504 0.250350 0.865315
O O14 0.819653 0.000000 0.872112
O O15 0.043779 0.500000 0.663741
O O16 0.991202 0.731576 0.637638
O O17 0.873407 0.199211 0.113391
O O18 0.972818 0.000000 0.098787
O O19 0.000000 0.206389 0.000000
O O20 0.048428 0.000000 0.361461
O O21 0.767732 0.000000 0.178955
#
# Coordination Sequence:
#
# PCOD8088617 Si02
#       8
#     8   8   8   8   8   8   8   8
#     4  10  21  36  51  70  99 134 170 206 248 297
#     4  10  19  33  56  82 104 130 171 217 257 304
#     4   9  18  34  54  75 101 132 166 207 256 304
#     4   9  17  31  52  78 108 136 164 206 260 309
#     4   9  18  32  51  75 102 129 158 202 255 298
#     4  10  22  38  52  71 105 143 174 210 258 307
#     4   8  15  28  49  75  98 124 160 200 243 296
#     4  10  19  32  54  81 104 131 173 216 252 301
#
# _framework density 18.45589
#
# number of rings (size 3 to 8) (size 9 to 14) (size 15 to 20)
#    0.000    2.625    0.000    2.625    0.000    6.750 
#    0.000    1.250    0.000    3.750    0.000    0.000 
#    0.000    0.000    0.000    0.000    0.000    0.000 
#
# Total GULP energy -396775.101275 kJ/mol
# GULP energy per Si atom -12399.221915 kJ/mol
# Density = 1.841388 g / cm^3
# Si number density = 18.455890 Si / 1000 Ang^3
#
#
#
# Elastic Constant Matrix: (Units=GPa)
#
#
# Indices 1 2 3 4 5 6 
#
# 1 160.9011 58.5361 60.9113 -0.0001 -16.1253 0.0002
# 2 58.5361 76.8345 40.4949 -0.0002 -5.8026 0.0008
# 3 60.9113 40.4949 76.4962 0.0000 -11.4319 -0.0001
# 4 -0.0001 -0.0002 0.0000 22.2041 0.0000 2.6219
# 5 -16.1253 -5.8026 -11.4319 0.0000 4.2572 -0.0002
# 6 0.0002 0.0008 -0.0001 2.6219 -0.0002 37.1270
#
#
#
# Elastic Compliance Matrix: (Units=1/GPa)
#
#
# Indices 1 2 3 4 5 6 
#
# 1 0.012514 -0.006097 -0.001495 0.000000 0.035075 0.000000
# 2 -0.006097 0.021030 -0.009095 0.000000 -0.018854 -0.000001
# 3 -0.001495 -0.009095 0.027357 0.000000 0.055401 0.000001
# 4 0.000000 0.000000 0.000000 0.045415 -0.000001 -0.003207
# 5 0.035075 -0.018854 0.055401 -0.000001 0.490821 0.000003
# 6 0.000000 -0.000001 0.000001 -0.003207 0.000003 0.027161
#
#
# Mechanical properties :
#
#
# Convention : Reuss Voigt Hill
#
# Bulk Modulus (GPa) = 36.32899 70.45738 53.39318
# Shear Modulus (GPa) = 7.49794 23.00364 15.25079
#
# Velocity S-wave (km/s) = 2.01778 3.53429 2.87773
# Velocity P-wave (km/s) = 5.01553 7.41039 6.32730
#
# Compressibility (1/GPa) = 0.02752623
#
# Stress axis : x y z
#
# Youngs Moduli (GPa) = 79.90786 47.55179 36.55305
#
# Poissons Ratio (x) = 0.28992 0.05466
# Poissons Ratio (y) = 0.48720 0.33246
# Poissons Ratio (z) = 0.11950 0.43250
#
# Static dielectric constant tensor:
#      x y z
#    x 3.717780 0.000000 -0.061080 
#    y 0.000000 3.435150 0.000000 
#    z -0.061080 0.000000 3.062580 
# 
# 
# High freq. dielectric constant tensor:
#      x y z
#    x 1.736450 0.000000 -0.002630 
#    y 0.000000 1.716370 0.000000 
#    z -0.002630 0.000000 1.677120 
# 
# From -- ./inp_files/319920.got.cif
#   From: 2010.06.25/outbox.cif.g09.slc.cpg/sg12_160_cif.got.tgz:319920.got - 2010.06.28 00:19:55.
