data_PCOD8088916
_publ_section_title
;
Structure prediction by ZEFSAII (Michael W. Deem and Ramdas Pophale) SiO2 
 PCOD8088916
Probable space group: C 2/M
;
_chemical_formula_sum "Si O2"
_cell_formula_units_Z 56
_cell_length_a 32.622826
_cell_length_b 9.627211
_cell_length_c 11.224809
_cell_angle_alpha 90.000000
_cell_angle_beta 54.600414
_cell_angle_gamma 90.000000
_cell_volume 2873.617520
_symmetry_space_group_name_H-M "C 2/M"
_symmetry_group_IT_number 12
_symmetry_cell_setting 'monoclinic'
loop_
_space_group_symop_operation_xyz
x,y,z
-x,y,-z
-x,-y,-z
x,-y,z
1/2+x,1/2+y,z
1/2-x,1/2+y,-z
1/2-x,1/2-y,-z
1/2+x,1/2-y,z
loop_
_atom_site_type_symbol
_atom_site_label
_atom_site_fract_x
_atom_site_fract_y
_atom_site_fract_z
Si Si1 0.318288 0.839907 0.689489
Si Si2 0.029424 0.337360 0.066081
Si Si3 0.206900 0.845584 0.914777
Si Si4 0.641294 0.157556 0.862923
Si Si5 0.704880 0.844157 0.535347
Si Si6 0.532319 0.838191 0.327429
Si Si7 0.376750 0.342241 0.753850
O O1 0.265044 0.808848 0.844591
O O2 0.313441 0.796011 0.561729
O O3 0.363918 0.743392 0.657025
O O4 0.334562 0.000000 0.679768
O O5 0.032980 0.500000 0.035531
O O6 0.006166 0.310343 0.239913
O O7 0.086025 0.275550 0.971230
O O8 0.000000 0.271705 0.000000
O O9 0.184204 0.739308 0.859595
O O10 0.204995 0.000000 0.860780
O O11 0.175279 0.841571 0.087868
O O12 0.655746 0.165181 0.700390
O O13 0.641680 0.000000 0.911073
O O14 0.750000 0.750000 0.500000
O O15 0.726303 0.000000 0.495258
O O16 0.500000 0.798829 0.500000
O O17 0.580806 0.739675 0.244896
O O18 0.548106 0.000000 0.308180
O O19 0.394485 0.500000 0.696270
#
# Coordination Sequence:
#
# PCOD8088916 Si02
#       7
#     8   8   8   8   8   8   8
#     4  10  21  36  54  80 116 153 191 232 275 327
#     4   9  18  34  57  85 112 138 180 235 285 337
#     4  10  20  35  55  80 111 149 186 227 276 327
#     4  10  19  32  56  84 108 142 185 227 274 331
#     4  10  20  33  52  79 110 147 186 228 276 328
#     4  10  21  38  62  87 110 147 192 237 290 345
#     4  11  23  37  56  83 114 149 190 234 283 336
#
# _framework density 19.487631
#
# number of rings (size 3 to 8) (size 9 to 14) (size 15 to 20)
#    0.000    2.000    2.857    0.857    0.000    3.143 
#    0.000    4.286    0.000    1.714    0.000    0.000 
#    0.000    0.000    0.000    0.000    0.000    0.000 
#
# Total GULP energy -346973.725754 kJ/mol
# GULP energy per Si atom -12391.918777 kJ/mol
# Density = 1.944328 g / cm^3
# Si number density = 19.487631 Si / 1000 Ang^3
#
#
#
# Elastic Constant Matrix: (Units=GPa)
#
#
# Indices 1 2 3 4 5 6 
#
# 1 98.6718 48.0756 22.0926 0.0000 21.6394 0.0000
# 2 48.0756 75.3930 14.8584 0.0000 11.2365 0.0000
# 3 22.0926 14.8584 85.4357 0.0000 17.1162 0.0000
# 4 0.0000 0.0000 0.0000 19.1876 0.0000 -0.8791
# 5 21.6394 11.2365 17.1162 0.0000 28.9901 0.0000
# 6 0.0000 0.0000 0.0000 -0.8791 0.0000 26.1548
#
#
#
# Elastic Compliance Matrix: (Units=1/GPa)
#
#
# Indices 1 2 3 4 5 6 
#
# 1 0.016654 -0.009182 -0.001057 0.000000 -0.008248 0.000000
# 2 -0.009182 0.019320 -0.000974 0.000000 -0.000060 0.000000
# 3 -0.001057 -0.000974 0.013512 0.000000 -0.006811 0.000000
# 4 0.000000 0.000000 0.000000 0.052197 0.000000 0.001754
# 5 -0.008248 -0.000060 -0.006811 0.000000 0.044696 0.000000
# 6 0.000000 0.000000 0.000000 0.001754 0.000000 0.038293
#
#
# Mechanical properties :
#
#
# Convention : Reuss Voigt Hill
#
# Bulk Modulus (GPa) = 36.95519 47.72820 42.34169
# Shear Modulus (GPa) = 23.13560 26.49809 24.81684
#
# Velocity S-wave (km/s) = 3.44931 3.69146 3.57244
# Velocity P-wave (km/s) = 5.90493 6.53559 6.22825
#
# Compressibility (1/GPa) = 0.02705980
#
# Stress axis : x y z
#
# Youngs Moduli (GPa) = 60.04607 51.76080 74.00841
#
# Poissons Ratio (x) = 0.47527 0.07824
# Poissons Ratio (y) = 0.55134 0.07206
# Poissons Ratio (z) = 0.06348 0.05040
#
# Static dielectric constant tensor:
#      x y z
#    x 3.414300 0.000000 0.113170 
#    y 0.000000 3.499490 0.000000 
#    z 0.113170 0.000000 3.776390 
# 
# 
# High freq. dielectric constant tensor:
#      x y z
#    x 1.747260 0.000000 0.010520 
#    y 0.000000 1.738150 0.000000 
#    z 0.010520 0.000000 1.766420 
# 
# From -- ./inp_files/187236.got.cif
#   From: 2010.06.25/outbox.cif.g09.slc.cpg/sg12_94_cif.got.tgz:187236.got - 2010.06.28 00:19:55.
