data_PCOD8088450
_publ_section_title
;
Structure prediction by ZEFSAII (Michael W. Deem and Ramdas Pophale) SiO2 
 PCOD8088450
Probable space group: C 2/M
;
_chemical_formula_sum "Si O2"
_cell_formula_units_Z 56
_cell_length_a 18.006220
_cell_length_b 13.920744
_cell_length_c 12.742071
_cell_angle_alpha 90.000000
_cell_angle_beta 117.789122
_cell_angle_gamma 90.000000
_cell_volume 2825.570042
_symmetry_space_group_name_H-M "C 2/M"
_symmetry_group_IT_number 12
_symmetry_cell_setting 'monoclinic'
loop_
_space_group_symop_operation_xyz
x,y,z
-x,y,-z
-x,-y,-z
x,-y,z
1/2+x,1/2+y,z
1/2-x,1/2+y,-z
1/2-x,1/2-y,-z
1/2+x,1/2-y,z
loop_
_atom_site_type_symbol
_atom_site_label
_atom_site_fract_x
_atom_site_fract_y
_atom_site_fract_z
Si Si1 0.436250 0.895930 0.551909
Si Si2 0.163200 0.736547 0.651747
Si Si3 0.790543 0.612668 0.772695
Si Si4 0.698844 0.610777 0.149243
Si Si5 0.438980 0.248864 0.868643
Si Si6 0.700427 0.109432 0.980650
Si Si7 0.447935 0.212229 0.231757
O O1 0.500000 0.908605 0.500000
O O2 0.372819 0.808512 0.480075
O O3 0.489409 0.872365 0.690584
O O4 0.390672 0.000000 0.539544
O O5 0.214724 0.834158 0.660597
O O6 0.222789 0.654247 0.737315
O O7 0.090367 0.762537 0.689294
O O8 0.789743 0.500000 0.745967
O O9 0.878523 0.659786 0.797172
O O10 0.774625 0.637404 0.884797
O O11 0.692003 0.500000 0.175039
O O12 0.611938 0.659510 0.123860
O O13 0.716817 0.625555 0.036603
O O14 0.493801 0.280899 0.802781
O O15 0.500000 0.210867 0.000000
O O16 0.624074 0.173331 0.891526
O O17 0.669857 0.000000 0.955038
#
# Coordination Sequence:
#
# PCOD8088450 Si02
#       7
#     8   8   8   8   8   8   8
#     4   9  17  32  56  84 107 130 174 228 269 304
#     4   9  19  34  58  77 102 136 181 225 261 302
#     4  10  21  35  51  75 109 145 180 213 257 320
#     4   9  19  34  52  74 104 142 183 219 256 305
#     4  11  22  33  50  77 113 144 167 211 272 324
#     4   9  17  31  53  77 101 140 184 219 255 302
#     4  10  19  32  53  81 110 137 169 218 272 311
#
# _framework density 19.819009000000001
#
# number of rings (size 3 to 8) (size 9 to 14) (size 15 to 20)
#    0.000    2.429    1.429    0.857    2.000    6.857 
#    0.000    3.571    0.000    6.429    0.000    0.000 
#    0.000    0.000    0.000    0.000    0.000    0.000 
#
# Total GULP energy -347004.906008 kJ/mol
# GULP energy per Si atom -12393.032357 kJ/mol
# Density = 1.977390 g / cm^3
# Si number density = 19.819009 Si / 1000 Ang^3
#
#
#
# Elastic Constant Matrix: (Units=GPa)
#
#
# Indices 1 2 3 4 5 6 
#
# 1 107.7830 40.9645 13.9900 0.0000 2.4463 0.0000
# 2 40.9645 98.7117 19.9482 0.0000 16.2907 0.0000
# 3 13.9900 19.9482 36.6700 0.0000 14.6972 0.0000
# 4 0.0000 0.0000 0.0000 3.6418 0.0000 43.9011
# 5 2.4463 16.2907 14.6972 0.0000 23.0837 0.0000
# 6 0.0000 0.0000 0.0000 43.9011 0.0000 -83.5977
#
#
#
# Elastic Compliance Matrix: (Units=1/GPa)
#
#
# Indices 1 2 3 4 5 6 
#
# 1 0.011447 -0.004761 -0.003541 0.000000 0.004402 0.000000
# 2 -0.004761 0.013905 -0.002708 0.000000 -0.007585 0.000000
# 3 -0.003541 -0.002708 0.039175 0.000000 -0.022656 0.000000
# 4 0.000000 0.000000 0.000000 0.037458 0.000000 0.019671
# 5 0.004402 -0.007585 -0.022656 0.000000 0.062632 0.000000
# 6 0.000000 0.000000 0.000000 0.019671 0.000000 -0.001632
#
#
# Mechanical properties :
#
#
# Convention : Reuss Voigt Hill
#
# Bulk Modulus (GPa) = 23.52605 43.66335 33.59470
# Shear Modulus (GPa) = 25.10344 -0.15697 12.47324
#
# Velocity S-wave (km/s) = 3.56284 -0.28173 2.51142
# Velocity P-wave (km/s) = 5.36855 4.68754 5.03956
#
# Compressibility (1/GPa) = 0.04250608
#
# Stress axis : x y z
#
# Youngs Moduli (GPa) = 87.35710 71.91460 25.52654
#
# Poissons Ratio (x) = 0.34241 0.09040
# Poissons Ratio (y) = 0.41593 0.06913
# Poissons Ratio (z) = 0.30936 0.19475
#
# Static dielectric constant tensor:
#      x y z
#    x 3.746020 0.000000 -0.054170 
#    y 0.000000 3.470300 0.000000 
#    z -0.054170 0.000000 3.647330 
# 
# 
# High freq. dielectric constant tensor:
#      x y z
#    x 1.771050 0.000000 0.001210 
#    y 0.000000 1.750660 0.000000 
#    z 0.001210 0.000000 1.757460 
# 
# From -- ./inp_files/156706.got.cif
#   From: 2010.06.25/outbox.cif.g09.slc.cpg/sg12_79_cif.got.tgz:156706.got - 2010.06.28 00:19:55.
