data_PCOD8088760
_publ_section_title
;
Structure prediction by ZEFSAII (Michael W. Deem and Ramdas Pophale) SiO2 
 PCOD8088760
Probable space group: C 2/M
;
_chemical_formula_sum "Si O2"
_cell_formula_units_Z 48
_cell_length_a 19.906865
_cell_length_b 9.089112
_cell_length_c 13.730719
_cell_angle_alpha 90.000000
_cell_angle_beta 74.456102
_cell_angle_gamma 90.000000
_cell_volume 2393.512542
_symmetry_space_group_name_H-M "C 2/M"
_symmetry_group_IT_number 12
_symmetry_cell_setting 'monoclinic'
loop_
_space_group_symop_operation_xyz
x,y,z
-x,y,-z
-x,-y,-z
x,-y,z
1/2+x,1/2+y,z
1/2-x,1/2+y,-z
1/2-x,1/2-y,-z
1/2+x,1/2-y,z
loop_
_atom_site_type_symbol
_atom_site_label
_atom_site_fract_x
_atom_site_fract_y
_atom_site_fract_z
Si Si1 0.162447 0.175369 0.640956
Si Si2 0.922002 0.827278 0.513686
Si Si3 0.214983 0.170924 0.104292
Si Si4 0.075705 0.170938 0.067792
Si Si5 0.712397 0.673577 0.322759
Si Si6 0.076534 0.825474 0.854617
O O1 0.115838 0.233198 0.569112
O O2 0.239675 0.246640 0.614952
O O3 0.125429 0.239602 0.752173
O O4 0.171110 0.000000 0.633802
O O5 0.869208 0.790372 0.623334
O O6 0.000000 0.757804 0.500000
O O7 0.932175 0.000000 0.497047
O O8 0.132353 0.201200 0.128020
O O9 0.233176 0.229495 0.205430
O O10 0.232910 0.000000 0.087136
O O11 0.250000 0.250000 0.000000
O O12 0.001962 0.238076 0.129919
O O13 0.062059 0.000000 0.055600
O O14 0.101885 0.230167 0.951581
O O15 0.724206 0.500000 0.327348
O O16 0.079142 0.000000 0.841722
#
# Coordination Sequence:
#
# PCOD8088760 Si02
#       6
#     8   8   8   8   8   8
#     4  10  19  32  55  79 102 137 178 219 260 310
#     4   9  19  34  54  81 108 134 174 226 270 306
#     4  10  20  32  50  74 104 139 173 212 259 312
#     4   8  14  25  41  66  98 125 160 211 256 293
#     4  10  21  35  52  77 110 144 172 211 268 318
#     4   8  14  24  43  71  96 122 162 212 256 291
#
# _framework density 20.054209
#
# number of rings (size 3 to 8) (size 9 to 14) (size 15 to 20)
#    0.000    2.833    0.000    2.500    2.333    2.000 
#    0.000    0.000    0.000    3.000    0.000    4.667 
#    0.000    0.000    0.000    0.000    0.000    0.000 
#
# Total GULP energy -297313.543073 kJ/mol
# GULP energy per Si atom -12388.064295 kJ/mol
# Density = 2.000856 g / cm^3
# Si number density = 20.054209 Si / 1000 Ang^3
#
#
#
# Elastic Constant Matrix: (Units=GPa)
#
#
# Indices 1 2 3 4 5 6 
#
# 1 125.3776 24.9354 57.8890 0.0000 11.3261 0.0000
# 2 24.9354 21.5815 22.4922 0.0000 2.6283 0.0000
# 3 57.8890 22.4922 107.9441 0.0000 6.4100 0.0000
# 4 0.0000 0.0000 0.0000 17.4434 0.0000 2.3415
# 5 11.3261 2.6283 6.4100 0.0000 33.0381 0.0000
# 6 0.0000 0.0000 0.0000 2.3415 0.0000 20.2224
#
#
#
# Elastic Compliance Matrix: (Units=1/GPa)
#
#
# Indices 1 2 3 4 5 6 
#
# 1 0.012039 -0.008978 -0.004434 0.000000 -0.002553 0.000000
# 2 -0.008978 0.066065 -0.008925 0.000000 -0.000446 0.000000
# 3 -0.004434 -0.008925 0.013525 0.000000 -0.000394 0.000000
# 4 0.000000 0.000000 0.000000 0.058233 0.000000 -0.006743
# 5 -0.002553 -0.000446 -0.000394 0.000000 0.031255 0.000000
# 6 0.000000 0.000000 0.000000 -0.006743 0.000000 0.050231
#
#
# Mechanical properties :
#
#
# Convention : Reuss Voigt Hill
#
# Bulk Modulus (GPa) = 21.29673 51.72627 36.51150
# Shear Modulus (GPa) = 17.14240 24.11323 20.62781
#
# Velocity S-wave (km/s) = 2.92687 3.47133 3.21066
# Velocity P-wave (km/s) = 4.69731 6.47426 5.65601
#
# Compressibility (1/GPa) = 0.04695557
#
# Stress axis : x y z
#
# Youngs Moduli (GPa) = 83.06001 15.13662 73.93674
#
# Poissons Ratio (x) = 0.13590 0.32785
# Poissons Ratio (y) = 0.74573 0.65985
# Poissons Ratio (z) = 0.36831 0.13509
#
# Static dielectric constant tensor:
#      x y z
#    x 4.763920 0.000000 -0.032540 
#    y 0.000000 2.951840 0.000000 
#    z -0.032540 0.000000 3.859210 
# 
# 
# High freq. dielectric constant tensor:
#      x y z
#    x 1.797580 0.000000 -0.001230 
#    y 0.000000 1.706090 0.000000 
#    z -0.001230 0.000000 1.794530 
# 
# From -- ./inp_files/153526.got.cif
#   From: 2010.06.25/outbox.cif.g09.slc.cpg/sg12_77_cif.got.tgz:153526.got - 2010.06.28 00:19:55.
