data_PCOD8088570
_publ_section_title
;
Structure prediction by ZEFSAII (Michael W. Deem and Ramdas Pophale) SiO2 
 PCOD8088570
Probable space group: C 2/M
;
_chemical_formula_sum "Si O2"
_cell_formula_units_Z 64
_cell_length_a 20.743844
_cell_length_b 9.670664
_cell_length_c 17.576440
_cell_angle_alpha 90.000000
_cell_angle_beta 84.705725
_cell_angle_gamma 90.000000
_cell_volume 3510.910439
_symmetry_space_group_name_H-M "C 2/M"
_symmetry_group_IT_number 12
_symmetry_cell_setting 'monoclinic'
loop_
_space_group_symop_operation_xyz
x,y,z
-x,y,-z
-x,-y,-z
x,-y,z
1/2+x,1/2+y,z
1/2-x,1/2+y,-z
1/2-x,1/2-y,-z
1/2+x,1/2-y,z
loop_
_atom_site_type_symbol
_atom_site_label
_atom_site_fract_x
_atom_site_fract_y
_atom_site_fract_z
Si Si1 0.832326 0.347183 0.954324
Si Si2 0.981744 0.344296 0.922622
Si Si3 0.378533 0.835656 0.355838
Si Si4 0.427506 0.836202 0.510105
Si Si5 0.234937 0.656796 0.889652
Si Si6 0.373960 0.164247 0.677754
Si Si7 0.001325 0.334861 0.755409
Si Si8 0.745869 0.161009 0.719053
O O1 0.803252 0.500000 0.945083
O O2 0.905654 0.345036 0.923092
O O3 0.797780 0.246547 0.899827
O O4 0.822118 0.303760 0.044346
O O5 0.010337 0.500000 0.924743
O O6 0.007797 0.275606 0.841441
O O7 0.000000 0.265627 0.000000
O O8 0.387482 0.782291 0.441221
O O9 0.437830 0.776310 0.298710
O O10 0.308517 0.784568 0.334016
O O11 0.381289 0.000000 0.350580
O O12 0.500000 0.773215 0.500000
O O13 0.390631 0.790282 0.589944
O O14 0.433337 0.000000 0.506384
O O15 0.257101 0.500000 0.898361
O O16 0.212696 0.681222 0.805567
O O17 0.433719 0.211981 0.724380
O O18 0.309711 0.246376 0.707448
O O19 0.361335 0.000000 0.685812
O O20 0.001724 0.500000 0.757453
O O21 0.763709 0.000000 0.702707
#
# Coordination Sequence:
#
# PCOD8088570 Si02
#       8
#     8   8   8   8   8   8   8   8
#     4   9  17  30  47  69  93 121 159 203 244 282
#     4   9  17  25  39  66  97 121 148 197 250 283
#     4   9  17  29  47  71 100 130 162 202 244 292
#     4   9  15  28  50  77 100 122 160 206 247 287
#     4   9  18  31  47  65  92 130 164 191 232 292
#     4  10  19  32  54  78  99 126 164 207 246 288
#     4   9  16  27  46  72  96 123 163 206 245 285
#     4  10  21  33  47  72 104 135 163 197 245 296
#
# _framework density 18.22889
#
# number of rings (size 3 to 8) (size 9 to 14) (size 15 to 20)
#    0.000    2.750    1.250    0.750    1.750    2.000 
#    0.000    0.000    0.000    1.500    0.000    0.000 
#    0.000    0.000    0.000    0.000    0.000    0.000 
#
# Total GULP energy -396540.078805 kJ/mol
# GULP energy per Si atom -12391.877463 kJ/mol
# Density = 1.818740 g / cm^3
# Si number density = 18.228890 Si / 1000 Ang^3
#
#
#
# Elastic Constant Matrix: (Units=GPa)
#
#
# Indices 1 2 3 4 5 6 
#
# 1 69.1306 14.6956 29.6278 0.0000 3.2132 0.0000
# 2 14.6956 23.1278 14.2899 0.0000 0.9564 0.0000
# 3 29.6278 14.2899 136.0840 0.0000 9.4233 0.0000
# 4 0.0000 0.0000 0.0000 12.5519 0.0000 0.8464
# 5 3.2132 0.9564 9.4233 0.0000 28.3263 0.0000
# 6 0.0000 0.0000 0.0000 0.8464 0.0000 12.8007
#
#
#
# Elastic Compliance Matrix: (Units=1/GPa)
#
#
# Indices 1 2 3 4 5 6 
#
# 1 0.017723 -0.009494 -0.002809 0.000000 -0.000755 0.000000
# 2 -0.009494 0.051324 -0.003354 0.000000 0.000460 0.000000
# 3 -0.002809 -0.003354 0.008478 0.000000 -0.002388 0.000000
# 4 0.000000 0.000000 0.000000 0.080026 0.000000 -0.005291
# 5 -0.000755 0.000460 -0.002388 0.000000 0.036167 0.000000
# 6 0.000000 0.000000 0.000000 -0.005291 0.000000 0.078471
#
#
# Mechanical properties :
#
#
# Convention : Reuss Voigt Hill
#
# Bulk Modulus (GPa) = 21.64078 38.39655 30.01867
# Shear Modulus (GPa) = 15.67857 22.05107 18.86482
#
# Velocity S-wave (km/s) = 2.93592 3.48181 3.22045
# Velocity P-wave (km/s) = 4.83635 6.10519 5.50743
#
# Compressibility (1/GPa) = 0.04620906
#
# Stress axis : x y z
#
# Youngs Moduli (GPa) = 56.42475 19.48403 117.95745
#
# Poissons Ratio (x) = 0.18498 0.33137
# Poissons Ratio (y) = 0.53571 0.39566
# Poissons Ratio (z) = 0.15851 0.06535
#
# Static dielectric constant tensor:
#      x y z
#    x 3.288820 0.000000 0.043580 
#    y 0.000000 2.856280 0.000000 
#    z 0.043580 0.000000 3.828590 
# 
# 
# High freq. dielectric constant tensor:
#      x y z
#    x 1.702030 0.000000 -0.001050 
#    y 0.000000 1.635490 0.000000 
#    z -0.001050 0.000000 1.731510 
# 
# From -- ./inp_files/276519.got.cif
#   From: 2010.06.25/outbox.cif.g09.slc.cpg/sg12_139_cif.got.tgz:276519.got - 2010.06.28 00:19:55.
