data_PCOD8088860
_publ_section_title
;
Structure prediction by ZEFSAII (Michael W. Deem and Ramdas Pophale) SiO2 
 PCOD8088860
Probable space group: C 2/M
;
_chemical_formula_sum "Si O2"
_cell_formula_units_Z 40
_cell_length_a 15.193196
_cell_length_b 9.178528
_cell_length_c 14.296417
_cell_angle_alpha 90.000000
_cell_angle_beta 91.758085
_cell_angle_gamma 90.000000
_cell_volume 1992.713679
_symmetry_space_group_name_H-M "C 2/M"
_symmetry_group_IT_number 12
_symmetry_cell_setting 'monoclinic'
loop_
_space_group_symop_operation_xyz
x,y,z
-x,y,-z
-x,-y,-z
x,-y,z
1/2+x,1/2+y,z
1/2-x,1/2+y,-z
1/2-x,1/2-y,-z
1/2+x,1/2-y,z
loop_
_atom_site_type_symbol
_atom_site_label
_atom_site_fract_x
_atom_site_fract_y
_atom_site_fract_z
Si Si1 0.264588 0.327248 0.902873
Si Si2 0.143884 0.169010 0.587606
Si Si3 0.089372 0.333350 0.201463
Si Si4 0.848912 0.667448 0.593253
Si Si5 0.895891 0.666980 0.232736
O O1 0.266932 0.500000 0.917097
O O2 0.356879 0.274008 0.863409
O O3 0.185178 0.278057 0.832639
O O4 0.250000 0.250000 0.000000
O O5 0.109900 0.237480 0.489158
O O6 0.246599 0.203406 0.603656
O O7 0.094116 0.239648 0.673216
O O8 0.121761 0.000000 0.585124
O O9 0.120825 0.500000 0.185570
O O10 0.102800 0.289375 0.309822
O O11 0.985710 0.315667 0.175732
O O12 0.863837 0.500000 0.567208
O O13 0.881515 0.500000 0.262244
#
# Coordination Sequence:
#
# PCOD8088860 Si02
#       5
#     8   8   8   8   8
#     4  11  24  42  64  88 115 149 188 239 296 348
#     4  10  19  32  55  85 118 156 196 238 280 332
#     4  10  21  40  63  87 116 153 196 238 283 341
#     4   9  18  33  55  82 115 157 196 233 281 337
#     4  10  22  39  61  87 117 153 193 237 288 344
#
# _framework density 20.073129999999999
#
# number of rings (size 3 to 8) (size 9 to 14) (size 15 to 20)
#    0.000    2.000    2.000    1.200    0.000    4.800 
#    0.000    8.000    0.000    0.000    0.000    0.000 
#    0.000    0.000    0.000    0.000    0.000    0.000 
#
# Total GULP energy -248082.644202 kJ/mol
# GULP energy per Si atom -12404.132210 kJ/mol
# Density = 2.002744 g / cm^3
# Si number density = 20.073130 Si / 1000 Ang^3
#
#
#
# Elastic Constant Matrix: (Units=GPa)
#
#
# Indices 1 2 3 4 5 6 
#
# 1 68.4665 34.3367 37.3664 0.0000 -19.1262 0.0000
# 2 34.3367 91.0399 60.1153 0.0000 -15.7434 0.0000
# 3 37.3664 60.1153 110.7301 0.0000 -19.3651 0.0000
# 4 0.0000 0.0000 0.0000 40.6312 0.0000 -7.2440
# 5 -19.1262 -15.7434 -19.3651 0.0000 15.6868 0.0000
# 6 0.0000 0.0000 0.0000 -7.2440 0.0000 28.6636
#
#
#
# Elastic Compliance Matrix: (Units=1/GPa)
#
#
# Indices 1 2 3 4 5 6 
#
# 1 0.024026 -0.003719 -0.002064 0.000000 0.023013 0.000000
# 2 -0.003719 0.018376 -0.008021 0.000000 0.004006 0.000000
# 3 -0.002064 -0.008021 0.015602 0.000000 0.008695 0.000000
# 4 0.000000 0.000000 0.000000 0.025773 0.000000 0.006513
# 5 0.023013 0.004006 0.008695 0.000000 0.106562 0.000000
# 6 0.000000 0.000000 0.000000 0.006513 0.000000 0.036534
#
#
# Mechanical properties :
#
#
# Convention : Reuss Voigt Hill
#
# Bulk Modulus (GPa) = 32.89782 59.31929 46.10856
# Shear Modulus (GPa) = 18.89557 26.22418 22.55988
#
# Velocity S-wave (km/s) = 3.07145 3.61838 3.35608
# Velocity P-wave (km/s) = 5.38544 6.86095 6.16748
#
# Compressibility (1/GPa) = 0.03039715
#
# Stress axis : x y z
#
# Youngs Moduli (GPa) = 41.62135 54.41928 64.09267
#
# Poissons Ratio (x) = 0.20240 0.13228
# Poissons Ratio (y) = 0.15480 0.51406
# Poissons Ratio (z) = 0.08590 0.43647
#
# Static dielectric constant tensor:
#      x y z
#    x 3.715010 0.000000 0.033200 
#    y 0.000000 3.581610 0.000000 
#    z 0.033200 0.000000 3.587290 
# 
# 
# High freq. dielectric constant tensor:
#      x y z
#    x 1.783380 0.000000 -0.000630 
#    y 0.000000 1.780440 0.000000 
#    z -0.000630 0.000000 1.778980 
# 
# From -- ./inp_files/211176.got.cif
#   From: 2010.06.25/outbox.cif.g09.slc.cpg/sg12_106_cif.got.tgz:211176.got - 2010.06.28 00:19:55.
