data_PCOD8088977
_publ_section_title
;
Structure prediction by ZEFSAII (Michael W. Deem and Ramdas Pophale) SiO2 
 PCOD8088977
Probable space group: C 2/M
;
_chemical_formula_sum "Si O2"
_cell_formula_units_Z 56
_cell_length_a 27.258807
_cell_length_b 16.877349
_cell_length_c 9.218469
_cell_angle_alpha 90.000000
_cell_angle_beta 137.227912
_cell_angle_gamma 90.000000
_cell_volume 2880.004951
_symmetry_space_group_name_H-M "C 2/M"
_symmetry_group_IT_number 12
_symmetry_cell_setting 'monoclinic'
loop_
_space_group_symop_operation_xyz
x,y,z
-x,y,-z
-x,-y,-z
x,-y,z
1/2+x,1/2+y,z
1/2-x,1/2+y,-z
1/2-x,1/2-y,-z
1/2+x,1/2-y,z
loop_
_atom_site_type_symbol
_atom_site_label
_atom_site_fract_x
_atom_site_fract_y
_atom_site_fract_z
Si Si1 0.458391 0.321163 0.049550
Si Si2 0.876765 0.410674 0.012344
Si Si3 0.484674 0.186411 0.630223
Si Si4 0.818277 0.266044 0.745493
Si Si5 0.574320 0.408260 0.740497
Si Si6 0.713253 0.685418 0.023487
Si Si7 0.153547 0.410442 0.722637
O O1 0.509169 0.260063 0.247972
O O2 0.434485 0.391233 0.106276
O O3 0.500000 0.356366 0.000000
O O4 0.388877 0.275815 0.832525
O O5 0.876595 0.500000 0.953952
O O6 0.832168 0.359806 0.797337
O O7 0.958822 0.381523 0.203679
O O8 0.840102 0.403856 0.090148
O O9 0.500000 0.216445 0.500000
O O10 0.405788 0.148523 0.472167
O O11 0.750000 0.250000 0.500000
O O12 0.806637 0.230866 0.876774
O O13 0.500000 0.387158 0.500000
O O14 0.594957 0.500000 0.765051
O O15 0.637889 0.354434 0.805283
O O16 0.769649 0.614974 0.176915
O O17 0.750000 0.750000 0.000000
O O18 0.135397 0.500000 0.635780
#
# Coordination Sequence:
#
# PCOD8088977 Si02
#       7
#     8   8   8   8   8   8   8
#     4  10  22  37  60  83 114 155 199 245 284 348
#     4   9  17  34  55  82 117 148 185 233 287 345
#     4   9  18  32  58  88 115 151 188 235 287 350
#     4  10  22  38  54  81 115 154 195 236 286 344
#     4  10  23  42  63  87 119 155 198 252 301 346
#     4  11  22  37  60  89 117 153 193 243 293 352
#     4  10  19  32  57  90 118 145 184 236 292 348
#
# _framework density 19.444410999999999
#
# number of rings (size 3 to 8) (size 9 to 14) (size 15 to 20)
#    0.000    2.143    1.429    1.286    6.000    2.000 
#    0.000    3.571    0.000    2.143    0.000    0.000 
#    0.000    0.000    0.000    0.000    0.000    0.000 
#
# Total GULP energy -347137.354250 kJ/mol
# GULP energy per Si atom -12397.762652 kJ/mol
# Density = 1.940015 g / cm^3
# Si number density = 19.444411 Si / 1000 Ang^3
#
#
#
# Elastic Constant Matrix: (Units=GPa)
#
#
# Indices 1 2 3 4 5 6 
#
# 1 80.9212 25.4981 19.9237 0.0000 19.1801 0.0000
# 2 25.4981 88.3286 42.4687 0.0000 10.3739 0.0000
# 3 19.9237 42.4687 115.6860 0.0000 21.9495 0.0000
# 4 0.0000 0.0000 0.0000 26.2460 0.0000 5.3766
# 5 19.1801 10.3739 21.9495 0.0000 26.7636 0.0000
# 6 0.0000 0.0000 0.0000 5.3766 0.0000 22.2187
#
#
#
# Elastic Compliance Matrix: (Units=1/GPa)
#
#
# Indices 1 2 3 4 5 6 
#
# 1 0.015825 -0.003625 0.000581 0.000000 -0.010412 0.000000
# 2 -0.003625 0.014623 -0.004928 0.000000 0.000971 0.000000
# 3 0.000581 -0.004928 0.011925 0.000000 -0.008286 0.000000
# 4 0.000000 0.000000 0.000000 0.040088 0.000000 -0.009701
# 5 -0.010412 0.000971 -0.008286 0.000000 0.051245 0.000000
# 6 0.000000 0.000000 0.000000 -0.009701 0.000000 0.047355
#
#
# Mechanical properties :
#
#
# Convention : Reuss Voigt Hill
#
# Bulk Modulus (GPa) = 37.83690 51.19073 44.51382
# Shear Modulus (GPa) = 24.29361 28.18200 26.23780
#
# Velocity S-wave (km/s) = 3.53850 3.81118 3.67737
# Velocity P-wave (km/s) = 6.01630 6.76392 6.40104
#
# Compressibility (1/GPa) = 0.02642923
#
# Stress axis : x y z
#
# Youngs Moduli (GPa) = 63.19234 68.38489 83.85443
#
# Poissons Ratio (x) = 0.24786 -0.04870
# Poissons Ratio (y) = 0.22904 0.41325
# Poissons Ratio (z) = -0.03670 0.33702
#
# Static dielectric constant tensor:
#      x y z
#    x 3.665600 0.000000 0.332070 
#    y 0.000000 3.680990 0.000000 
#    z 0.332070 0.000000 3.449220 
# 
# 
# High freq. dielectric constant tensor:
#      x y z
#    x 1.745250 0.000000 0.020660 
#    y 0.000000 1.761790 0.000000 
#    z 0.020660 0.000000 1.746550 
# 
# From -- ./inp_files/106042.got.cif
#   From: 2010.06.25/outbox.cif.g09.slc.cpg/sg12_54_cif.got.tgz:106042.got - 2010.06.28 00:19:55.
