data_PCOD8088857
_publ_section_title
;
Structure prediction by ZEFSAII (Michael W. Deem and Ramdas Pophale) SiO2 
 PCOD8088857
Probable space group: C 2/M
;
_chemical_formula_sum "Si O2"
_cell_formula_units_Z 64
_cell_length_a 15.165520
_cell_length_b 8.912575
_cell_length_c 30.077678
_cell_angle_alpha 90.000000
_cell_angle_beta 127.435117
_cell_angle_gamma 90.000000
_cell_volume 3228.110531
_symmetry_space_group_name_H-M "C 2/M"
_symmetry_group_IT_number 12
_symmetry_cell_setting 'monoclinic'
loop_
_space_group_symop_operation_xyz
x,y,z
-x,y,-z
-x,-y,-z
x,-y,z
1/2+x,1/2+y,z
1/2-x,1/2+y,-z
1/2-x,1/2-y,-z
1/2+x,1/2-y,z
loop_
_atom_site_type_symbol
_atom_site_label
_atom_site_fract_x
_atom_site_fract_y
_atom_site_fract_z
Si Si1 0.795103 0.821551 0.637048
Si Si2 0.655433 0.178240 0.440805
Si Si3 0.399247 0.827823 0.838611
Si Si4 0.453260 0.822822 0.756013
Si Si5 0.544656 0.176924 0.559807
Si Si6 0.181597 0.827410 0.819111
Si Si7 0.078369 0.175064 0.948166
Si Si8 0.272834 0.825376 0.941318
O O1 0.842943 0.745453 0.607646
O O2 0.865227 0.766741 0.700098
O O3 0.669200 0.765672 0.606930
O O4 0.803343 0.000000 0.634464
O O5 0.750000 0.250000 0.500000
O O6 0.535952 0.223391 0.424636
O O7 0.672376 0.000000 0.444809
O O8 0.433677 0.769154 0.800590
O O9 0.266666 0.807080 0.804194
O O10 0.460582 0.738704 0.896508
O O11 0.433823 0.000000 0.854634
O O12 0.576541 0.778280 0.778304
O O13 0.435832 0.000000 0.744726
O O14 0.500000 0.248558 0.500000
O O15 0.546870 0.000000 0.555004
O O16 0.246765 0.776230 0.883262
O O17 0.141539 0.000000 0.811385
O O18 0.167338 0.223090 0.938229
O O19 0.066366 0.000000 0.950066
O O20 0.116913 0.241226 0.007478
O O21 0.297576 0.000000 0.952791
#
# Coordination Sequence:
#
# PCOD8088857 Si02
#       8
#     8   8   8   8   8   8   8   8
#     4  11  23  41  64  88 118 161 201 242 291 346
#     4  11  21  37  62  93 127 159 197 240 288 344
#     4  10  22  39  61  85 115 153 195 246 300 351
#     4  11  24  42  61  86 119 152 193 249 300 346
#     4   9  18  36  61  89 123 160 196 231 283 348
#     4  10  21  40  63  86 113 155 201 241 293 359
#     4  10  19  32  55  85 116 151 194 241 294 355
#     4   9  18  33  55  82 114 152 194 238 293 358
#
# _framework density 19.825839999999999
#
# number of rings (size 3 to 8) (size 9 to 14) (size 15 to 20)
#    0.000    1.875    2.500    1.500    0.000    3.500 
#    0.000    8.125    0.000    0.000    0.000    0.000 
#    0.000    0.000    0.000    0.000    0.000    0.000 
#
# Total GULP energy -396878.670644 kJ/mol
# GULP energy per Si atom -12402.458458 kJ/mol
# Density = 1.978072 g / cm^3
# Si number density = 19.825840 Si / 1000 Ang^3
#
#
#
# Elastic Constant Matrix: (Units=GPa)
#
#
# Indices 1 2 3 4 5 6 
#
# 1 109.6594 38.8271 51.0865 0.0000 19.8589 0.0000
# 2 38.8271 67.4044 39.3754 0.0000 7.0542 0.0000
# 3 51.0865 39.3754 118.4106 0.0000 17.1787 0.0000
# 4 0.0000 0.0000 0.0000 35.5654 0.0000 1.0450
# 5 19.8589 7.0542 17.1787 0.0000 19.9398 0.0000
# 6 0.0000 0.0000 0.0000 1.0450 0.0000 25.7937
#
#
#
# Elastic Compliance Matrix: (Units=1/GPa)
#
#
# Indices 1 2 3 4 5 6 
#
# 1 0.014145 -0.005449 -0.002888 0.000000 -0.009672 0.000000
# 2 -0.005449 0.020547 -0.004816 0.000000 0.002307 0.000000
# 3 -0.002888 -0.004816 0.012146 0.000000 -0.005885 0.000000
# 4 0.000000 0.000000 0.000000 0.028151 0.000000 -0.001140
# 5 -0.009672 0.002307 -0.005885 0.000000 0.064038 0.000000
# 6 0.000000 0.000000 0.000000 -0.001140 0.000000 0.038815
#
#
# Mechanical properties :
#
#
# Convention : Reuss Voigt Hill
#
# Bulk Modulus (GPa) = 48.70326 61.56138 55.13232
# Shear Modulus (GPa) = 23.69759 27.33881 25.51820
#
# Velocity S-wave (km/s) = 3.46104 3.71745 3.59154
# Velocity P-wave (km/s) = 6.37108 7.03878 6.71323
#
# Compressibility (1/GPa) = 0.02053251
#
# Stress axis : x y z
#
# Youngs Moduli (GPa) = 70.69457 48.66966 82.32985
#
# Poissons Ratio (x) = 0.26521 0.23773
# Poissons Ratio (y) = 0.38522 0.39652
# Poissons Ratio (z) = 0.20413 0.23441
#
# Static dielectric constant tensor:
#      x y z
#    x 3.824230 0.000000 -0.022920 
#    y 0.000000 3.456530 0.000000 
#    z -0.022920 0.000000 3.687630 
# 
# 
# High freq. dielectric constant tensor:
#      x y z
#    x 1.779620 0.000000 0.002510 
#    y 0.000000 1.762030 0.000000 
#    z 0.002510 0.000000 1.771730 
# 
# From -- ./inp_files/375664.got.cif
#   From: 2010.06.25/outbox.cif.g09.slc.cpg/sg12_188_cif.got.tgz:375664.got - 2010.06.28 00:19:55.
