data_PCOD8088358
_publ_section_title
;
Structure prediction by ZEFSAII (Michael W. Deem and Ramdas Pophale) SiO2 
 PCOD8088358
Probable space group: C 2/M
;
_chemical_formula_sum "Si O2"
_cell_formula_units_Z 48
_cell_length_a 23.187383
_cell_length_b 9.021239
_cell_length_c 17.288974
_cell_angle_alpha 90.000000
_cell_angle_beta 47.329476
_cell_angle_gamma 90.000000
_cell_volume 2659.071905
_symmetry_space_group_name_H-M "C 2/M"
_symmetry_group_IT_number 12
_symmetry_cell_setting 'monoclinic'
loop_
_space_group_symop_operation_xyz
x,y,z
-x,y,-z
-x,-y,-z
x,-y,z
1/2+x,1/2+y,z
1/2-x,1/2+y,-z
1/2-x,1/2-y,-z
1/2+x,1/2-y,z
loop_
_atom_site_type_symbol
_atom_site_label
_atom_site_fract_x
_atom_site_fract_y
_atom_site_fract_z
Si Si1 0.229112 0.172746 0.899331
Si Si2 0.961718 0.674158 0.317690
Si Si3 0.578273 0.170059 0.477376
Si Si4 0.802787 0.326582 0.388120
Si Si5 0.869358 0.326567 0.884702
Si Si6 0.268297 0.675216 0.708965
O O1 0.313078 0.203251 0.862812
O O2 0.224866 0.253329 0.821157
O O3 0.214378 0.000000 0.900265
O O4 0.159673 0.237353 0.014622
O O5 0.973206 0.500000 0.317718
O O6 0.936975 0.738267 0.423725
O O7 0.894180 0.714914 0.317477
O O8 0.044891 0.738825 0.213904
O O9 0.500000 0.182802 0.500000
O O10 0.643143 0.267226 0.375713
O O11 0.607673 0.000000 0.454906
O O12 0.789146 0.500000 0.410905
O O13 0.750000 0.250000 0.500000
O O14 0.778655 0.273526 0.324821
O O15 0.871231 0.500000 0.904157
O O16 0.268511 0.500000 0.718771
#
# Coordination Sequence:
#
# PCOD8088358 Si02
#       6
#     8   8   8   8   8   8
#     4  10  20  35  56  80 107 140 175 215 269 324
#     4   9  17  32  54  77 103 136 175 218 263 314
#     4  10  19  32  53  79 106 138 175 216 265 321
#     4  10  20  35  54  76 104 142 183 219 263 314
#     4   9  18  35  58  81 104 134 176 221 265 316
#     4  11  22  34  51  78 109 141 179 220 264 315
#
# _framework density 18.051411000000002
#
# number of rings (size 3 to 8) (size 9 to 14) (size 15 to 20)
#    0.000    2.167    1.667    2.000    0.000    4.333 
#    0.000    2.500    0.000    5.000    0.000    0.000 
#    0.000    0.000    0.000    0.000    0.000    0.000 
#
# Total GULP energy -297653.443224 kJ/mol
# GULP energy per Si atom -12402.226801 kJ/mol
# Density = 1.801033 g / cm^3
# Si number density = 18.051411 Si / 1000 Ang^3
#
#
#
# Elastic Constant Matrix: (Units=GPa)
#
#
# Indices 1 2 3 4 5 6 
#
# 1 85.7946 31.0117 46.7944 0.0012 14.0342 -0.0003
# 2 31.0117 56.3129 41.7093 0.0091 13.2978 -0.0075
# 3 46.7944 41.7093 116.1974 0.0015 13.9912 -0.0013
# 4 0.0012 0.0091 0.0015 31.9978 -0.0016 4.6061
# 5 14.0342 13.2978 13.9912 -0.0016 34.5130 0.0010
# 6 -0.0003 -0.0075 -0.0013 4.6061 0.0010 15.4008
#
#
#
# Elastic Compliance Matrix: (Units=1/GPa)
#
#
# Indices 1 2 3 4 5 6 
#
# 1 0.016374 -0.005046 -0.004431 0.000001 -0.002918 -0.000003
# 2 -0.005046 0.027029 -0.007005 -0.000010 -0.005523 0.000016
# 3 -0.004431 -0.007005 0.012998 0.000002 -0.000768 -0.000003
# 4 0.000001 -0.000010 0.000002 0.032658 0.000004 -0.009767
# 5 -0.002918 -0.005523 -0.000768 0.000004 0.032600 -0.000006
# 6 -0.000003 0.000016 -0.000003 -0.009767 -0.000006 0.067853
#
#
# Mechanical properties :
#
#
# Convention : Reuss Voigt Hill
#
# Bulk Modulus (GPa) = 42.66984 55.25953 48.96469
# Shear Modulus (GPa) = 21.71180 25.63495 23.67337
#
# Velocity S-wave (km/s) = 3.47187 3.77252 3.62531
# Velocity P-wave (km/s) = 6.30564 7.04660 6.68639
#
# Compressibility (1/GPa) = 0.02343576
#
# Stress axis : x y z
#
# Youngs Moduli (GPa) = 61.07249 36.99669 76.93685
#
# Poissons Ratio (x) = 0.18669 0.34094
# Poissons Ratio (y) = 0.30817 0.53896
# Poissons Ratio (z) = 0.27064 0.25917
#
# Static dielectric constant tensor:
#      x y z
#    x 3.470150 0.000000 0.012780 
#    y 0.000000 3.202450 0.000000 
#    z 0.012780 0.000000 3.410360 
# 
# 
# High freq. dielectric constant tensor:
#      x y z
#    x 1.699610 0.000000 0.003370 
#    y 0.000000 1.682910 0.000000 
#    z 0.003370 0.000000 1.702870 
# 
# From -- ./inp_files/287247.got.cif
#   From: 2010.06.25/outbox.cif.g09.slc.cpg/sg12_144_cif.got.tgz:287247.got - 2010.06.28 00:19:55.
