data_PCOD8088580
_publ_section_title
;
Structure prediction by ZEFSAII (Michael W. Deem and Ramdas Pophale) SiO2 
 PCOD8088580
Probable space group: C 2/M
;
_chemical_formula_sum "Si O2"
_cell_formula_units_Z 56
_cell_length_a 29.860547
_cell_length_b 9.393534
_cell_length_c 12.227370
_cell_angle_alpha 90.000000
_cell_angle_beta 105.852248
_cell_angle_gamma 90.000000
_cell_volume 3299.294156
_symmetry_space_group_name_H-M "C 2/M"
_symmetry_group_IT_number 12
_symmetry_cell_setting 'monoclinic'
loop_
_space_group_symop_operation_xyz
x,y,z
-x,y,-z
-x,-y,-z
x,-y,z
1/2+x,1/2+y,z
1/2-x,1/2+y,-z
1/2-x,1/2-y,-z
1/2+x,1/2-y,z
loop_
_atom_site_type_symbol
_atom_site_label
_atom_site_fract_x
_atom_site_fract_y
_atom_site_fract_z
Si Si1 0.950998 0.334515 0.015475
Si Si2 0.043868 0.333103 0.726450
Si Si3 0.292882 0.335511 0.402451
Si Si4 0.893726 0.832608 0.811808
Si Si5 0.548025 0.664862 0.360728
Si Si6 0.204646 0.166175 0.344741
Si Si7 0.107321 0.163726 0.614499
O O1 0.943714 0.500000 0.985046
O O2 0.949470 0.300330 0.141975
O O3 0.909503 0.248343 0.931063
O O4 0.000000 0.280707 0.000000
O O5 0.040361 0.500000 0.700054
O O6 0.088035 0.267807 0.694198
O O7 0.997449 0.259236 0.650351
O O8 0.279467 0.500000 0.386341
O O9 0.249433 0.247099 0.325983
O O10 0.303390 0.291826 0.534419
O O11 0.338150 0.301187 0.360699
O O12 0.926495 0.786925 0.732960
O O13 0.840892 0.786234 0.752223
O O14 0.897203 0.000000 0.834175
O O15 0.533079 0.500000 0.345731
O O16 0.582863 0.693755 0.482946
O O17 0.213781 0.000000 0.337654
O O18 0.099539 0.000000 0.644312
#
# Coordination Sequence:
#
# PCOD8088580 Si02
#       7
#     8   8   8   8   8   8   8
#     4  10  21  37  52  70 101 137 170 213 262 298
#     4  11  23  36  50  72 103 137 175 214 252 299
#     4   9  17  31  51  75 104 136 166 199 248 307
#     4  10  19  32  54  79 103 132 170 211 249 297
#     4  10  19  33  52  75 104 138 169 203 250 301
#     4   9  17  31  50  77 107 131 162 207 253 296
#     4  10  20  35  53  74 105 140 171 205 249 303
#
# _framework density 16.973327999999999
#
# number of rings (size 3 to 8) (size 9 to 14) (size 15 to 20)
#    0.000    2.143    2.857    0.857    0.000    4.857 
#    0.000    0.000    0.000    0.857    0.000    0.000 
#    0.000    0.000    0.000    0.000    0.000    0.000 
#
# Total GULP energy -347292.479949 kJ/mol
# GULP energy per Si atom -12403.302855 kJ/mol
# Density = 1.693470 g / cm^3
# Si number density = 16.973328 Si / 1000 Ang^3
#
#
#
# Elastic Constant Matrix: (Units=GPa)
#
#
# Indices 1 2 3 4 5 6 
#
# 1 117.2070 53.5001 37.6020 0.0000 10.5437 0.0000
# 2 53.5001 60.1931 35.4350 0.0000 3.9794 0.0000
# 3 37.6020 35.4350 57.4699 0.0000 5.8451 0.0000
# 4 0.0000 0.0000 0.0000 29.3537 0.0000 1.4305
# 5 10.5437 3.9794 5.8451 0.0000 27.8552 0.0000
# 6 0.0000 0.0000 0.0000 1.4305 0.0000 32.9590
#
#
#
# Elastic Compliance Matrix: (Units=1/GPa)
#
#
# Indices 1 2 3 4 5 6 
#
# 1 0.014898 -0.011744 -0.002149 0.000000 -0.003510 0.000000
# 2 -0.011744 0.035341 -0.014351 0.000000 0.002408 0.000000
# 3 -0.002149 -0.014351 0.027961 0.000000 -0.003004 0.000000
# 4 0.000000 0.000000 0.000000 0.034140 0.000000 -0.001482
# 5 -0.003510 0.002408 -0.003004 0.000000 0.037515 0.000000
# 6 0.000000 0.000000 0.000000 -0.001482 0.000000 0.030405
#
#
# Mechanical properties :
#
#
# Convention : Reuss Voigt Hill
#
# Bulk Modulus (GPa) = 46.06160 54.21605 50.13882
# Shear Modulus (GPa) = 20.49305 25.25577 22.87441
#
# Velocity S-wave (km/s) = 3.47849 3.86160 3.67504
# Velocity P-wave (km/s) = 6.58253 7.20374 6.90013
#
# Compressibility (1/GPa) = 0.02171006
#
# Stress axis : x y z
#
# Youngs Moduli (GPa) = 67.12370 28.29605 35.76402
#
# Poissons Ratio (x) = 0.33231 0.07687
# Poissons Ratio (y) = 0.78830 0.51326
# Poissons Ratio (z) = 0.14427 0.40609
#
# Static dielectric constant tensor:
#      x y z
#    x 3.273150 0.000000 0.033390 
#    y 0.000000 3.133710 0.000000 
#    z 0.033390 0.000000 3.015300 
# 
# 
# High freq. dielectric constant tensor:
#      x y z
#    x 1.655540 0.000000 0.006250 
#    y 0.000000 1.652760 0.000000 
#    z 0.006250 0.000000 1.637000 
# 
# From -- ./inp_files/186415.got.cif
#   From: 2010.06.25/outbox.cif.g09.slc.cpg/sg12_94_cif.got.tgz:186415.got - 2010.06.28 00:19:55.
