data_PCOD8088690
_publ_section_title
;
Structure prediction by ZEFSAII (Michael W. Deem and Ramdas Pophale) SiO2 
 PCOD8088690
Probable space group: C 2/M
;
_chemical_formula_sum "Si O2"
_cell_formula_units_Z 56
_cell_length_a 29.840182
_cell_length_b 8.775043
_cell_length_c 21.788791
_cell_angle_alpha 90.000000
_cell_angle_beta 146.806319
_cell_angle_gamma 90.000000
_cell_volume 3123.524539
_symmetry_space_group_name_H-M "C 2/M"
_symmetry_group_IT_number 12
_symmetry_cell_setting 'monoclinic'
loop_
_space_group_symop_operation_xyz
x,y,z
-x,y,-z
-x,-y,-z
x,-y,z
1/2+x,1/2+y,z
1/2-x,1/2+y,-z
1/2-x,1/2-y,-z
1/2+x,1/2-y,z
loop_
_atom_site_type_symbol
_atom_site_label
_atom_site_fract_x
_atom_site_fract_y
_atom_site_fract_z
Si Si1 0.748584 0.675742 0.088644
Si Si2 0.648768 0.674408 0.090642
Si Si3 0.120990 0.822873 0.838493
Si Si4 0.016193 0.677822 0.135320
Si Si5 0.210188 0.820846 0.514473
Si Si6 0.170843 0.824370 0.255562
Si Si7 0.460716 0.821377 0.697369
O O1 0.771793 0.500000 0.105016
O O2 0.722494 0.711370 0.128327
O O3 0.828000 0.776218 0.163591
O O4 0.673057 0.721531 0.958284
O O5 0.618688 0.500000 0.047171
O O6 0.684276 0.701500 0.198798
O O7 0.573900 0.786705 0.992274
O O8 0.037130 0.729068 0.743708
O O9 0.099633 0.000000 0.811714
O O10 0.034794 0.500000 0.148043
O O11 0.079496 0.774251 0.167972
O O12 0.024311 0.727408 0.215265
O O13 0.250000 0.750000 0.500000
O O14 0.262681 0.777364 0.633922
O O15 0.118613 0.762813 0.419492
O O16 0.210601 0.000000 0.506583
O O17 0.182849 0.000000 0.287847
O O18 0.446968 0.000000 0.675128
#
# Coordination Sequence:
#
# PCOD8088690 Si02
#       7
#     8   8   8   8   8   8   8
#     4   9  18  33  53  78 112 145 180 222 270 328
#     4  10  21  37  56  80 112 152 188 223 273 332
#     4  10  19  32  54  82 111 143 182 225 275 326
#     4  11  22  34  53  81 114 149 185 226 274 326
#     4  12  24  39  59  81 108 144 186 232 277 322
#     4  11  23  38  57  79 110 150 190 228 272 328
#     4  11  22  36  56  82 113 146 183 226 276 327
#
# _framework density 17.928464000000002
#
# number of rings (size 3 to 8) (size 9 to 14) (size 15 to 20)
#    0.000    1.429    2.857    3.429    0.000    5.143 
#    0.000    0.000    0.000    0.857    0.000    6.000 
#    0.000    0.000    0.000    0.000    0.000    0.000 
#
# Total GULP energy -347372.715696 kJ/mol
# GULP energy per Si atom -12406.168418 kJ/mol
# Density = 1.788766 g / cm^3
# Si number density = 17.928464 Si / 1000 Ang^3
#
#
#
# Elastic Constant Matrix: (Units=GPa)
#
#
# Indices 1 2 3 4 5 6 
#
# 1 124.6888 44.1466 51.3234 0.0000 6.5269 0.0000
# 2 44.1466 88.8275 37.7515 0.0000 4.9253 0.0000
# 3 51.3234 37.7515 77.9226 0.0000 3.6174 0.0000
# 4 0.0000 0.0000 0.0000 31.3360 0.0000 4.5970
# 5 6.5269 4.9253 3.6174 0.0000 25.3746 0.0000
# 6 0.0000 0.0000 0.0000 4.5970 0.0000 26.9779
#
#
#
# Elastic Compliance Matrix: (Units=1/GPa)
#
#
# Indices 1 2 3 4 5 6 
#
# 1 0.011739 -0.003140 -0.006139 0.000000 -0.001535 0.000000
# 2 -0.003140 0.015097 -0.005182 0.000000 -0.001384 0.000000
# 3 -0.006139 -0.005182 0.019396 0.000000 -0.000180 0.000000
# 4 0.000000 0.000000 0.000000 0.032730 0.000000 -0.005577
# 5 -0.001535 -0.001384 -0.000180 0.000000 0.040099 0.000000
# 6 0.000000 0.000000 0.000000 -0.005577 0.000000 0.038018
#
#
# Mechanical properties :
#
#
# Convention : Reuss Voigt Hill
#
# Bulk Modulus (GPa) = 57.77105 61.98687 59.87896
# Shear Modulus (GPa) = 26.07270 27.28552 26.67911
#
# Velocity S-wave (km/s) = 3.81762 3.90540 3.86176
# Velocity P-wave (km/s) = 7.19203 7.41524 7.30449
#
# Compressibility (1/GPa) = 0.01730971
#
# Stress axis : x y z
#
# Youngs Moduli (GPa) = 85.18557 66.23692 51.55738
#
# Poissons Ratio (x) = 0.20798 0.31653
# Poissons Ratio (y) = 0.26747 0.26717
# Poissons Ratio (z) = 0.52299 0.34324
#
# Static dielectric constant tensor:
#      x y z
#    x 3.379360 0.000000 0.026430 
#    y 0.000000 3.390870 0.000000 
#    z 0.026430 0.000000 3.187800 
# 
# 
# High freq. dielectric constant tensor:
#      x y z
#    x 1.694050 0.000000 0.008600 
#    y 0.000000 1.705570 0.000000 
#    z 0.008600 0.000000 1.673960 
# 
# From -- ./inp_files/237782.got.cif
#   From: 2010.06.25/outbox.cif.g09.slc.cpg/sg12_119_cif.got.tgz:237782.got - 2010.06.28 00:19:55.
