data_PCOD8088727
_publ_section_title
;
Structure prediction by ZEFSAII (Michael W. Deem and Ramdas Pophale) SiO2 
 PCOD8088727
Probable space group: C 2/M
;
_chemical_formula_sum "Si O2"
_cell_formula_units_Z 56
_cell_length_a 13.019292
_cell_length_b 18.932513
_cell_length_c 12.383122
_cell_angle_alpha 90.000000
_cell_angle_beta 109.958386
_cell_angle_gamma 90.000000
_cell_volume 2868.971779
_symmetry_space_group_name_H-M "C 2/M"
_symmetry_group_IT_number 12
_symmetry_cell_setting 'monoclinic'
loop_
_space_group_symop_operation_xyz
x,y,z
-x,y,-z
-x,-y,-z
x,-y,z
1/2+x,1/2+y,z
1/2-x,1/2+y,-z
1/2-x,1/2-y,-z
1/2+x,1/2-y,z
loop_
_atom_site_type_symbol
_atom_site_label
_atom_site_fract_x
_atom_site_fract_y
_atom_site_fract_z
Si Si1 0.578468 0.201964 0.290523
Si Si2 0.578239 0.921093 0.129316
Si Si3 0.997779 0.918451 0.118941
Si Si4 0.326862 0.350650 0.688344
Si Si5 0.191606 0.835887 0.560535
Si Si6 0.172737 0.918838 0.771093
Si Si7 0.594496 0.192901 0.603585
O O1 0.542607 0.142105 0.193575
O O2 0.625520 0.274308 0.256094
O O3 0.676479 0.169401 0.398840
O O4 0.465773 0.219682 0.310545
O O5 0.704387 0.908888 0.141543
O O6 0.567048 0.000000 0.178231
O O7 0.500000 0.916178 0.000000
O O8 0.115001 0.909533 0.218473
O O9 0.905445 0.884593 0.164800
O O10 0.969633 0.000000 0.093850
O O11 0.000000 0.882895 0.000000
O O12 0.348965 0.366340 0.569028
O O13 0.197516 0.356600 0.668168
O O14 0.153598 0.882468 0.648108
O O15 0.138694 0.758833 0.550371
O O16 0.141400 0.000000 0.741768
O O17 0.500000 0.152945 0.500000
#
# Coordination Sequence:
#
# PCOD8088727 Si02
#       7
#     8   8   8   8   8   8   8
#     4  10  19  33  53  82 114 140 177 224 268 321
#     4   9  19  36  57  80 107 143 185 227 273 320
#     4  10  23  41  56  75 109 148 186 228 271 321
#     4  11  21  34  57  84 109 147 185 222 270 328
#     4  10  19  32  54  84 111 141 176 220 278 327
#     4   9  19  35  57  80 106 140 182 232 275 319
#     4  11  18  32  54  82 111 146 173 213 271 335
#
# _framework density 19.519188
#
# number of rings (size 3 to 8) (size 9 to 14) (size 15 to 20)
#    0.000    2.000    2.857    1.714    0.000    2.286 
#    0.000    3.571    0.000    7.714    0.000    0.000 
#    0.000    0.000    0.000    0.000    0.000    0.000 
#
# Total GULP energy -347012.216652 kJ/mol
# GULP energy per Si atom -12393.293452 kJ/mol
# Density = 1.947476 g / cm^3
# Si number density = 19.519188 Si / 1000 Ang^3
#
#
#
# Elastic Constant Matrix: (Units=GPa)
#
#
# Indices 1 2 3 4 5 6 
#
# 1 125.0303 8.7736 48.3159 0.0000 -4.5746 0.0000
# 2 8.7736 31.0218 26.0120 0.0000 -4.7770 0.0000
# 3 48.3159 26.0120 117.4312 0.0000 -1.8017 0.0000
# 4 0.0000 0.0000 0.0000 29.5371 0.0000 4.5478
# 5 -4.5746 -4.7770 -1.8017 0.0000 28.8383 0.0000
# 6 0.0000 0.0000 0.0000 4.5478 0.0000 21.1472
#
#
#
# Elastic Compliance Matrix: (Units=1/GPa)
#
#
# Indices 1 2 3 4 5 6 
#
# 1 0.009580 0.000978 -0.004136 0.000000 0.001423 0.000000
# 2 0.000978 0.040759 -0.009334 0.000000 0.006324 0.000000
# 3 -0.004136 -0.009334 0.012263 0.000000 -0.001436 0.000000
# 4 0.000000 0.000000 0.000000 0.035015 0.000000 -0.007530
# 5 0.001423 0.006324 -0.001436 0.000000 0.035860 0.000000
# 6 0.000000 0.000000 0.000000 -0.007530 0.000000 0.048907
#
#
# Mechanical properties :
#
#
# Convention : Reuss Voigt Hill
#
# Bulk Modulus (GPa) = 26.58320 48.85403 37.71862
# Shear Modulus (GPa) = 22.73684 28.59664 25.66674
#
# Velocity S-wave (km/s) = 3.41669 3.83175 3.63016
# Velocity P-wave (km/s) = 5.40496 6.68278 6.07754
#
# Compressibility (1/GPa) = 0.03761774
#
# Stress axis : x y z
#
# Youngs Moduli (GPa) = 104.38482 24.53439 81.54599
#
# Poissons Ratio (x) = -0.02400 0.33731
# Poissons Ratio (y) = -0.10211 0.76114
# Poissons Ratio (z) = 0.43178 0.22900
#
# Static dielectric constant tensor:
#      x y z
#    x 3.845970 0.000000 -0.012950 
#    y 0.000000 3.365490 0.000000 
#    z -0.012950 0.000000 3.530240 
# 
# 
# High freq. dielectric constant tensor:
#      x y z
#    x 1.773380 0.000000 0.005400 
#    y 0.000000 1.727750 0.000000 
#    z 0.005400 0.000000 1.750810 
# 
# From -- ./inp_files/133294.got.cif
#   From: 2010.06.25/outbox.cif.g09.slc.cpg/sg12_67_cif.got.tgz:133294.got - 2010.06.28 00:19:55.
