data_PCOD8088914
_publ_section_title
;
Structure prediction by ZEFSAII (Michael W. Deem and Ramdas Pophale) SiO2 
 PCOD8088914
Probable space group: C 2/M
;
_chemical_formula_sum "Si O2"
_cell_formula_units_Z 56
_cell_length_a 22.582283
_cell_length_b 9.149471
_cell_length_c 16.353744
_cell_angle_alpha 90.000000
_cell_angle_beta 119.646314
_cell_angle_gamma 90.000000
_cell_volume 2936.624821
_symmetry_space_group_name_H-M "C 2/M"
_symmetry_group_IT_number 12
_symmetry_cell_setting 'monoclinic'
loop_
_space_group_symop_operation_xyz
x,y,z
-x,y,-z
-x,-y,-z
x,-y,z
1/2+x,1/2+y,z
1/2-x,1/2+y,-z
1/2-x,1/2-y,-z
1/2+x,1/2-y,z
loop_
_atom_site_type_symbol
_atom_site_label
_atom_site_fract_x
_atom_site_fract_y
_atom_site_fract_z
Si Si1 0.827292 0.331266 0.230815
Si Si2 0.808837 0.327217 0.847129
Si Si3 0.845981 0.332831 0.428234
Si Si4 0.190602 0.830997 0.319965
Si Si5 0.554814 0.173207 0.973722
Si Si6 0.459053 0.828831 0.219289
Si Si7 0.416410 0.672228 0.616613
O O1 0.804698 0.500000 0.215044
O O2 0.760916 0.236758 0.164038
O O3 0.855725 0.290858 0.339942
O O4 0.883929 0.296982 0.202317
O O5 0.802146 0.500000 0.835478
O O6 0.826752 0.265712 0.770289
O O7 0.869359 0.279114 0.949029
O O8 0.867063 0.500000 0.458957
O O9 0.767964 0.304736 0.401560
O O10 0.895668 0.229734 0.513413
O O11 0.141329 0.779257 0.358594
O O12 0.179157 0.000000 0.288868
O O13 0.538572 0.231437 0.871781
O O14 0.549121 0.000000 0.969717
O O15 0.500000 0.239899 0.000000
O O16 0.512183 0.741356 0.309907
O O17 0.476451 0.000000 0.236350
O O18 0.424788 0.500000 0.617983
#
# Coordination Sequence:
#
# PCOD8088914 Si02
#       7
#     8   8   8   8   8   8   8
#     4   9  20  38  56  76 104 140 181 218 257 313
#     4  10  19  32  56  84 107 136 175 220 264 305
#     4   9  18  34  54  74 100 138 181 217 256 317
#     4   9  19  35  53  77 110 142 173 212 261 320
#     4   9  18  33  54  82 110 135 171 216 259 309
#     4  10  21  38  57  74 102 146 184 213 255 316
#     4  11  22  34  51  79 110 137 173 224 272 307
#
# _framework density 19.069512
#
# number of rings (size 3 to 8) (size 9 to 14) (size 15 to 20)
#    0.000    2.429    0.000    3.000    0.000    6.286 
#    0.000    4.286    0.000    3.857    0.000    0.000 
#    0.000    0.000    0.000    0.000    0.000    0.000 
#
# Total GULP energy -347271.570529 kJ/mol
# GULP energy per Si atom -12402.556090 kJ/mol
# Density = 1.902611 g / cm^3
# Si number density = 19.069512 Si / 1000 Ang^3
#
#
#
# Elastic Constant Matrix: (Units=GPa)
#
#
# Indices 1 2 3 4 5 6 
#
# 1 93.5446 33.9354 46.4734 0.0000 -4.3422 0.0000
# 2 33.9354 60.8213 40.3580 0.0000 10.3390 0.0000
# 3 46.4734 40.3580 101.2187 0.0000 16.4576 0.0000
# 4 0.0000 0.0000 0.0000 23.0346 0.0000 3.8948
# 5 -4.3422 10.3390 16.4576 0.0000 27.5169 0.0000
# 6 0.0000 0.0000 0.0000 3.8948 0.0000 27.7766
#
#
#
# Elastic Compliance Matrix: (Units=1/GPa)
#
#
# Indices 1 2 3 4 5 6 
#
# 1 0.016723 -0.006520 -0.006542 0.000000 0.009002 0.000000
# 2 -0.006520 0.025189 -0.005919 0.000000 -0.006953 0.000000
# 3 -0.006542 -0.005919 0.016671 0.000000 -0.008779 0.000000
# 4 0.000000 0.000000 0.000000 0.044467 0.000000 -0.006235
# 5 0.009002 -0.006953 -0.008779 0.000000 0.045625 0.000000
# 6 0.000000 0.000000 0.000000 -0.006235 0.000000 0.036876
#
#
# Mechanical properties :
#
#
# Convention : Reuss Voigt Hill
#
# Bulk Modulus (GPa) = 48.49583 55.23536 51.86559
# Shear Modulus (GPa) = 21.70248 24.65346 23.17797
#
# Velocity S-wave (km/s) = 3.37719 3.59948 3.49011
# Velocity P-wave (km/s) = 6.37915 6.80464 6.59533
#
# Compressibility (1/GPa) = 0.02062033
#
# Stress axis : x y z
#
# Youngs Moduli (GPa) = 59.79629 39.69957 59.98421
#
# Poissons Ratio (x) = 0.25884 0.39244
# Poissons Ratio (y) = 0.38987 0.35507
# Poissons Ratio (z) = 0.39121 0.23500
#
# Static dielectric constant tensor:
#      x y z
#    x 3.555710 0.000000 -0.051380 
#    y 0.000000 3.287210 0.000000 
#    z -0.051380 0.000000 3.485470 
# 
# 
# High freq. dielectric constant tensor:
#      x y z
#    x 1.745490 0.000000 0.000730 
#    y 0.000000 1.723870 0.000000 
#    z 0.000730 0.000000 1.743370 
# 
# From -- ./inp_files/239047.got.cif
#   From: 2010.06.25/outbox.cif.g09.slc.cpg/sg12_120_cif.got.tgz:239047.got - 2010.06.28 00:19:55.
