data_PCOD8088047
_publ_section_title
;
Structure prediction by ZEFSAII (Michael W. Deem and Ramdas Pophale) SiO2 
 PCOD8088047
Probable space group: C 2/M
;
_chemical_formula_sum "Si O2"
_cell_formula_units_Z 56
_cell_length_a 19.796140
_cell_length_b 9.328897
_cell_length_c 16.007335
_cell_angle_alpha 90.000000
_cell_angle_beta 72.300830
_cell_angle_gamma 90.000000
_cell_volume 2816.245184
_symmetry_space_group_name_H-M "C 2/M"
_symmetry_group_IT_number 12
_symmetry_cell_setting 'monoclinic'
loop_
_space_group_symop_operation_xyz
x,y,z
-x,y,-z
-x,-y,-z
x,-y,z
1/2+x,1/2+y,z
1/2-x,1/2+y,-z
1/2-x,1/2-y,-z
1/2+x,1/2-y,z
loop_
_atom_site_type_symbol
_atom_site_label
_atom_site_fract_x
_atom_site_fract_y
_atom_site_fract_z
Si Si1 0.802965 0.836213 0.585341
Si Si2 0.526606 0.167298 0.726613
Si Si3 0.465281 0.163141 0.926835
Si Si4 0.237572 0.844773 0.129021
Si Si5 0.664940 0.332115 0.616495
Si Si6 0.336881 0.654716 0.010842
Si Si7 0.892274 0.167178 0.710969
O O1 0.736452 0.733123 0.629960
O O2 0.834877 0.804933 0.482578
O O3 0.866596 0.806472 0.625988
O O4 0.776039 0.000000 0.602648
O O5 0.517599 0.185465 0.829512
O O6 0.597992 0.249307 0.677822
O O7 0.461098 0.236938 0.701313
O O8 0.531643 0.000000 0.699749
O O9 0.397679 0.261379 0.939272
O O10 0.439271 0.000000 0.943068
O O11 0.500000 0.213567 0.000000
O O12 0.222195 0.869202 0.037273
O O13 0.171202 0.780667 0.204552
O O14 0.258499 0.000000 0.160877
O O15 0.304997 0.737346 0.104289
O O16 0.660317 0.500000 0.640440
O O17 0.364184 0.500000 0.032652
O O18 0.910642 0.000000 0.720596
#
# Coordination Sequence:
#
# PCOD8088047 Si02
#       7
#     8   8   8   8   8   8   8
#     4   9  20  39  63  88 114 150 191 233 280 337
#     4  11  23  38  59  85 115 151 191 237 288 341
#     4  10  22  39  56  75 105 147 190 230 276 332
#     4   9  18  32  52  76 105 141 175 218 273 325
#     4  10  21  39  62  86 117 153 189 231 282 340
#     4  10  19  32  52  77 104 137 180 226 271 320
#     4  10  20  37  60  86 117 150 191 237 284 337
#
# _framework density 19.884632
#
# number of rings (size 3 to 8) (size 9 to 14) (size 15 to 20)
#    0.000    2.143    1.429    1.286    0.000    4.857 
#    0.000    8.571    0.000    0.000    0.000    0.000 
#    0.000    0.000    0.000    0.000    0.000    0.000 
#
# Total GULP energy -347130.267780 kJ/mol
# GULP energy per Si atom -12397.509564 kJ/mol
# Density = 1.983937 g / cm^3
# Si number density = 19.884632 Si / 1000 Ang^3
#
#
#
# Elastic Constant Matrix: (Units=GPa)
#
#
# Indices 1 2 3 4 5 6 
#
# 1 76.6013 58.5098 50.7673 0.0000 -7.6377 0.0000
# 2 58.5098 126.9463 53.2256 0.0000 -19.4180 0.0000
# 3 50.7673 53.2256 76.8247 0.0000 -11.6761 0.0000
# 4 0.0000 0.0000 0.0000 24.9407 0.0000 -8.6877
# 5 -7.6377 -19.4180 -11.6761 0.0000 37.7574 0.0000
# 6 0.0000 0.0000 0.0000 -8.6877 0.0000 32.9726
#
#
#
# Elastic Compliance Matrix: (Units=1/GPa)
#
#
# Indices 1 2 3 4 5 6 
#
# 1 0.027215 -0.007350 -0.013253 0.000000 -0.002373 0.000000
# 2 -0.007350 0.013545 -0.003877 0.000000 0.004280 0.000000
# 3 -0.013253 -0.003877 0.024921 0.000000 0.003032 0.000000
# 4 0.000000 0.000000 0.000000 0.044147 0.000000 0.011632
# 5 -0.002373 0.004280 0.003032 0.000000 0.029144 0.000000
# 6 0.000000 0.000000 0.000000 0.011632 0.000000 0.033393
#
#
# Mechanical properties :
#
#
# Convention : Reuss Voigt Hill
#
# Bulk Modulus (GPa) = 59.80029 67.26421 63.53225
# Shear Modulus (GPa) = 22.03622 26.99212 24.51417
#
# Velocity S-wave (km/s) = 3.33258 3.68834 3.51496
# Velocity P-wave (km/s) = 6.70425 7.21381 6.96370
#
# Compressibility (1/GPa) = 0.01672233
#
# Stress axis : x y z
#
# Youngs Moduli (GPa) = 36.74379 73.82714 40.12648
#
# Poissons Ratio (x) = 0.54263 0.53180
# Poissons Ratio (y) = 0.27007 0.15556
# Poissons Ratio (z) = 0.48697 0.28621
#
# Static dielectric constant tensor:
#      x y z
#    x 3.438550 0.000000 0.012970 
#    y 0.000000 3.992100 0.000000 
#    z 0.012970 0.000000 3.585280 
# 
# 
# High freq. dielectric constant tensor:
#      x y z
#    x 1.758050 0.000000 -0.007270 
#    y 0.000000 1.784150 0.000000 
#    z -0.007270 0.000000 1.773590 
# 
# From -- ./inp_files/275247.got.cif
#   From: 2010.06.25/outbox.cif.g09.slc.cpg/sg12_138_cif.got.tgz:275247.got - 2010.06.28 00:19:55.
