data_PCOD8088166
_publ_section_title
;
Structure prediction by ZEFSAII (Michael W. Deem and Ramdas Pophale) SiO2 
 PCOD8088166
Probable space group: C 2/M
;
_chemical_formula_sum "Si O2"
_cell_formula_units_Z 56
_cell_length_a 20.152335
_cell_length_b 9.127815
_cell_length_c 25.982241
_cell_angle_alpha 90.000000
_cell_angle_beta 39.556188
_cell_angle_gamma 90.000000
_cell_volume 3043.655361
_symmetry_space_group_name_H-M "C 2/M"
_symmetry_group_IT_number 12
_symmetry_cell_setting 'monoclinic'
loop_
_space_group_symop_operation_xyz
x,y,z
-x,y,-z
-x,-y,-z
x,-y,z
1/2+x,1/2+y,z
1/2-x,1/2+y,-z
1/2-x,1/2-y,-z
1/2+x,1/2-y,z
loop_
_atom_site_type_symbol
_atom_site_label
_atom_site_fract_x
_atom_site_fract_y
_atom_site_fract_z
Si Si1 0.311557 0.668934 0.819023
Si Si2 0.391816 0.671074 0.091796
Si Si3 0.568462 0.672155 0.815262
Si Si4 0.655356 0.667244 0.081568
Si Si5 0.671698 0.669928 0.509364
Si Si6 0.007649 0.673434 0.664234
Si Si7 0.156917 0.333113 0.669329
O O1 0.312844 0.500000 0.800682
O O2 0.196558 0.733502 0.882160
O O3 0.346155 0.686143 0.856778
O O4 0.391709 0.761967 0.736741
O O5 0.366858 0.500000 0.099080
O O6 0.395050 0.714767 0.149688
O O7 0.500000 0.712332 0.000000
O O8 0.568080 0.500000 0.806617
O O9 0.452129 0.734406 0.875901
O O10 0.647336 0.739156 0.726634
O O11 0.666599 0.500000 0.057718
O O12 0.750000 0.750000 0.000000
O O13 0.660055 0.500000 0.531937
O O14 0.750000 0.750000 0.500000
O O15 0.560840 0.752011 0.581900
O O16 0.723298 0.684247 0.421844
O O17 0.002937 0.500000 0.658976
O O18 0.074542 0.717580 0.674768
O O19 0.132596 0.500000 0.698146
#
# Coordination Sequence:
#
# PCOD8088166 Si02
#       7
#     8   8   8   8   8   8   8
#     4  11  22  36  56  81 110 142 180 229 276 323
#     4  10  22  40  59  77 105 146 187 226 273 329
#     4  10  20  35  55  78 106 141 181 224 269 322
#     4  10  21  35  53  79 105 136 176 222 275 323
#     4   9  17  29  47  76 112 146 181 220 268 322
#     4  10  19  32  52  80 111 146 183 219 272 327
#     4   9  18  31  50  79 111 143 177 218 269 320
#
# _framework density 18.398928999999999
#
# number of rings (size 3 to 8) (size 9 to 14) (size 15 to 20)
#    0.000    2.143    1.429    3.000    0.000    6.571 
#    0.000    0.000    0.000    0.857    0.000    6.000 
#    0.000    0.000    0.000    0.000    0.000    0.000 
#
# Total GULP energy -347185.456479 kJ/mol
# GULP energy per Si atom -12399.480589 kJ/mol
# Density = 1.835705 g / cm^3
# Si number density = 18.398929 Si / 1000 Ang^3
#
#
#
# Elastic Constant Matrix: (Units=GPa)
#
#
# Indices 1 2 3 4 5 6 
#
# 1 31.1440 20.3150 3.9089 0.0005 -1.8057 -0.0014
# 2 20.3150 86.0896 52.3374 0.0011 -1.4149 -0.0043
# 3 3.9089 52.3374 114.5447 -0.0001 -0.8447 -0.0001
# 4 0.0005 0.0011 -0.0001 40.6637 0.0000 -0.3194
# 5 -1.8057 -1.4149 -0.8447 0.0000 25.7536 0.0004
# 6 -0.0014 -0.0043 -0.0001 -0.3194 0.0004 24.6251
#
#
#
# Elastic Compliance Matrix: (Units=1/GPa)
#
#
# Indices 1 2 3 4 5 6 
#
# 1 0.039363 -0.011693 0.004016 0.000000 0.002249 0.000000
# 2 -0.011693 0.019568 -0.008542 0.000000 -0.000025 0.000003
# 3 0.004016 -0.008542 0.012498 0.000000 0.000222 -0.000001
# 4 0.000000 0.000000 0.000000 0.024594 0.000000 0.000319
# 5 0.002249 -0.000025 0.000222 0.000000 0.038993 -0.000001
# 6 0.000000 0.000003 -0.000001 0.000319 -0.000001 0.040613
#
#
# Mechanical properties :
#
#
# Convention : Reuss Voigt Hill
#
# Bulk Modulus (GPa) = 25.64757 42.76676 34.20717
# Shear Modulus (GPa) = 22.61793 28.55629 25.58711
#
# Velocity S-wave (km/s) = 3.50995 3.94390 3.73323
# Velocity P-wave (km/s) = 5.51329 6.63579 6.10041
#
# Compressibility (1/GPa) = 0.03899005
#
# Stress axis : x y z
#
# Youngs Moduli (GPa) = 25.40480 51.10461 80.01431
#
# Poissons Ratio (x) = 0.59758 -0.32135
# Poissons Ratio (y) = 0.29706 0.68348
# Poissons Ratio (z) = -0.10203 0.43653
#
# Static dielectric constant tensor:
#      x y z
#    x 3.148120 0.000000 0.143900 
#    y 0.000000 3.436870 0.000010 
#    z 0.143900 0.000010 3.865440 
# 
# 
# High freq. dielectric constant tensor:
#      x y z
#    x 1.674920 0.000000 0.001330 
#    y 0.000000 1.717290 0.000000 
#    z 0.001330 0.000000 1.730840 
# 
# From -- ./inp_files/362981.got.cif
#   From: 2010.06.25/outbox.cif.g09.slc.cpg/sg12_182_cif.got.tgz:362981.got - 2010.06.28 00:19:55.
