data_PCOD8088874
_publ_section_title
;
Structure prediction by ZEFSAII (Michael W. Deem and Ramdas Pophale) SiO2 
 PCOD8088874
Probable space group: C 2/M
;
_chemical_formula_sum "Si O2"
_cell_formula_units_Z 48
_cell_length_a 14.126455
_cell_length_b 18.938825
_cell_length_c 9.323892
_cell_angle_alpha 90.000000
_cell_angle_beta 73.873127
_cell_angle_gamma 90.000000
_cell_volume 2396.338595
_symmetry_space_group_name_H-M "C 2/M"
_symmetry_group_IT_number 12
_symmetry_cell_setting 'monoclinic'
loop_
_space_group_symop_operation_xyz
x,y,z
-x,y,-z
-x,-y,-z
x,-y,z
1/2+x,1/2+y,z
1/2-x,1/2+y,-z
1/2-x,1/2-y,-z
1/2+x,1/2-y,z
loop_
_atom_site_type_symbol
_atom_site_label
_atom_site_fract_x
_atom_site_fract_y
_atom_site_fract_z
Si Si1 0.322083 0.079316 0.747961
Si Si2 0.242956 0.674616 0.649842
Si Si3 0.257748 0.917520 0.089911
Si Si4 0.644497 0.579599 0.616300
Si Si5 0.888911 0.292227 0.552192
Si Si6 0.035897 0.916252 0.134501
O O1 0.212583 0.083933 0.728952
O O2 0.393357 0.133840 0.636913
O O3 0.364435 0.000000 0.708489
O O4 0.316475 0.097261 0.918902
O O5 0.197902 0.632037 0.803752
O O6 0.315424 0.625059 0.529718
O O7 0.149533 0.698372 0.594662
O O8 0.311086 0.741186 0.667009
O O9 0.145407 0.891577 0.123481
O O10 0.265348 0.000000 0.128895
O O11 0.637858 0.500000 0.561113
O O12 0.537204 0.608673 0.707556
O O13 0.000000 0.261961 0.500000
O O14 0.030470 0.000000 0.123141
O O15 0.000000 0.882042 0.000000
#
# Coordination Sequence:
#
# PCOD8088874 Si02
#       6
#     8   8   8   8   8   8
#     4   9  18  35  58  80 106 142 183 228 274 320
#     4  10  22  37  57  81 113 142 179 228 274 313
#     4  10  19  32  55  87 116 140 176 230 277 317
#     4   9  16  29  51  80 114 149 180 211 264 333
#     4  10  23  42  58  76 107 148 188 221 268 333
#     4   9  15  25  45  79 118 149 177 208 257 332
#
# _framework density 20.030559
#
# number of rings (size 3 to 8) (size 9 to 14) (size 15 to 20)
#    0.000    2.500    1.667    0.500    2.333    1.667 
#    0.000    3.333    0.000    2.000    0.000    0.000 
#    0.000    0.000    0.000    0.000    0.000    0.000 
#
# Total GULP energy -297552.738583 kJ/mol
# GULP energy per Si atom -12398.030774 kJ/mol
# Density = 1.998497 g / cm^3
# Si number density = 20.030559 Si / 1000 Ang^3
#
#
#
# Elastic Constant Matrix: (Units=GPa)
#
#
# Indices 1 2 3 4 5 6 
#
# 1 67.5306 17.2492 14.2308 0.0000 -1.0773 0.0000
# 2 17.2492 75.4723 35.8186 0.0000 10.1566 0.0000
# 3 14.2308 35.8186 75.0006 0.0000 13.9827 0.0000
# 4 0.0000 0.0000 0.0000 19.9629 0.0000 10.2718
# 5 -1.0773 10.1566 13.9827 0.0000 19.9508 0.0000
# 6 0.0000 0.0000 0.0000 10.2718 0.0000 15.4685
#
#
#
# Elastic Compliance Matrix: (Units=1/GPa)
#
#
# Indices 1 2 3 4 5 6 
#
# 1 0.016167 -0.003140 -0.002334 0.000000 0.004107 0.000000
# 2 -0.003140 0.017950 -0.007180 0.000000 -0.004276 0.000000
# 3 -0.002334 -0.007180 0.019034 0.000000 -0.009811 0.000000
# 4 0.000000 0.000000 0.000000 0.076093 0.000000 -0.050529
# 5 0.004107 -0.004276 -0.009811 0.000000 0.059398 0.000000
# 6 0.000000 0.000000 0.000000 -0.050529 0.000000 0.098202
#
#
# Mechanical properties :
#
#
# Convention : Reuss Voigt Hill
#
# Bulk Modulus (GPa) = 35.91349 39.17784 37.54566
# Shear Modulus (GPa) = 15.55532 21.12342 18.33937
#
# Velocity S-wave (km/s) = 2.78974 3.25092 3.02912
# Velocity P-wave (km/s) = 5.32402 5.80455 5.56947
#
# Compressibility (1/GPa) = 0.02784469
#
# Stress axis : x y z
#
# Youngs Moduli (GPa) = 61.85250 55.70886 52.53754
#
# Poissons Ratio (x) = 0.17494 0.12261
# Poissons Ratio (y) = 0.19423 0.37720
# Poissons Ratio (z) = 0.14434 0.39997
#
# Static dielectric constant tensor:
#      x y z
#    x 3.381120 0.000000 0.105810 
#    y 0.000000 3.604390 0.000000 
#    z 0.105810 0.000000 3.538120 
# 
# 
# High freq. dielectric constant tensor:
#      x y z
#    x 1.754870 0.000000 0.007180 
#    y 0.000000 1.768680 0.000000 
#    z 0.007180 0.000000 1.774790 
# 
# From -- ./inp_files/63342.got.cif
#   From: 2010.06.25/outbox.cif.g09.slc.cpg/sg12_32_cif.got.tgz:63342.got - 2010.06.28 00:19:55.
