data_PCOD8088832
_publ_section_title
;
Structure prediction by ZEFSAII (Michael W. Deem and Ramdas Pophale) SiO2 
 PCOD8088832
Probable space group: C 2/M
;
_chemical_formula_sum "Si O2"
_cell_formula_units_Z 48
_cell_length_a 20.635990
_cell_length_b 8.744371
_cell_length_c 15.181579
_cell_angle_alpha 90.000000
_cell_angle_beta 68.198074
_cell_angle_gamma 90.000000
_cell_volume 2543.549930
_symmetry_space_group_name_H-M "C 2/M"
_symmetry_group_IT_number 12
_symmetry_cell_setting 'monoclinic'
loop_
_space_group_symop_operation_xyz
x,y,z
-x,y,-z
-x,-y,-z
x,-y,z
1/2+x,1/2+y,z
1/2-x,1/2+y,-z
1/2-x,1/2-y,-z
1/2+x,1/2-y,z
loop_
_atom_site_type_symbol
_atom_site_label
_atom_site_fract_x
_atom_site_fract_y
_atom_site_fract_z
Si Si1 0.324397 0.818365 0.184978
Si Si2 0.420778 0.181348 0.782367
Si Si3 0.177080 0.320034 0.010218
Si Si4 0.322345 0.181017 0.495387
Si Si5 0.921602 0.318924 0.288941
Si Si6 0.827565 0.181248 0.680126
O O1 0.380842 0.750041 0.224801
O O2 0.247523 0.757777 0.249114
O O3 0.324221 0.000000 0.190791
O O4 0.344079 0.762361 0.076770
O O5 0.382633 0.230778 0.891778
O O6 0.499650 0.243111 0.749594
O O7 0.386237 0.265869 0.718050
O O8 0.416962 0.000000 0.768962
O O9 0.187153 0.500000 0.004974
O O10 0.250000 0.250000 0.000000
O O11 0.250000 0.250000 0.500000
O O12 0.382419 0.232322 0.397249
O O13 0.345306 0.245031 0.577663
O O14 0.314504 0.000000 0.503009
O O15 0.922769 0.500000 0.280246
O O16 0.828310 0.000000 0.670491
#
# Coordination Sequence:
#
# PCOD8088832 Si02
#       6
#     8   8   8   8   8   8
#     4   9  17  32  55  81 107 142 181 221 272 327
#     4  10  21  36  56  84 113 144 185 230 277 330
#     4  10  19  32  55  84 110 141 183 228 273 328
#     4  11  21  36  59  85 112 146 189 232 276 329
#     4   9  19  36  56  80 113 146 180 228 282 330
#     4  11  21  36  58  82 112 148 187 230 278 330
#
# _framework density 18.871264
#
# number of rings (size 3 to 8) (size 9 to 14) (size 15 to 20)
#    0.000    2.000    3.333    1.000    0.000    1.333 
#    0.000    8.333    0.000    0.000    0.000    2.333 
#    0.000    0.000    0.000    0.000    0.000    0.000 
#
# Total GULP energy -297618.015997 kJ/mol
# GULP energy per Si atom -12400.750667 kJ/mol
# Density = 1.882831 g / cm^3
# Si number density = 18.871264 Si / 1000 Ang^3
#
#
#
# Elastic Constant Matrix: (Units=GPa)
#
#
# Indices 1 2 3 4 5 6 
#
# 1 177.6077 29.1678 106.7666 0.0000 -0.8063 0.0000
# 2 29.1678 36.1964 39.5093 0.0000 0.1850 0.0000
# 3 106.7666 39.5093 198.3442 0.0000 9.7125 0.0000
# 4 0.0000 0.0000 0.0000 22.9040 0.0000 3.2738
# 5 -0.8063 0.1850 9.7125 0.0000 41.0596 0.0000
# 6 0.0000 0.0000 0.0000 3.2738 0.0000 27.4533
#
#
#
# Elastic Compliance Matrix: (Units=1/GPa)
#
#
# Indices 1 2 3 4 5 6 
#
# 1 0.008534 -0.002308 -0.004191 0.000000 0.001169 0.000000
# 2 -0.002308 0.036021 -0.005992 0.000000 0.001210 0.000000
# 3 -0.004191 -0.005992 0.008594 0.000000 -0.002088 0.000000
# 4 0.000000 0.000000 0.000000 0.044418 0.000000 -0.005297
# 5 0.001169 0.001210 -0.002088 0.000000 0.024866 0.000000
# 6 0.000000 0.000000 0.000000 -0.005297 0.000000 0.037057
#
#
# Mechanical properties :
#
#
# Convention : Reuss Voigt Hill
#
# Bulk Modulus (GPa) = 35.50355 84.78175 60.14265
# Shear Modulus (GPa) = 25.79145 34.06367 29.92756
#
# Velocity S-wave (km/s) = 3.70091 4.25320 3.98663
# Velocity P-wave (km/s) = 6.09235 8.31526 7.28904
#
# Compressibility (1/GPa) = 0.02816620
#
# Stress axis : x y z
#
# Youngs Moduli (GPa) = 117.17280 27.76135 116.36240
#
# Poissons Ratio (x) = 0.06407 0.48773
# Poissons Ratio (y) = 0.27044 0.69726
# Poissons Ratio (z) = 0.49113 0.16635
#
# Static dielectric constant tensor:
#      x y z
#    x 3.564630 0.000000 -0.001440 
#    y 0.000000 3.232000 0.000000 
#    z -0.001440 0.000000 3.821140 
# 
# 
# High freq. dielectric constant tensor:
#      x y z
#    x 1.736390 0.000000 0.006980 
#    y 0.000000 1.700820 0.000000 
#    z 0.006980 0.000000 1.751460 
# 
# From -- ./inp_files/229871.got.cif
#   From: 2010.06.25/outbox.cif.g09.slc.cpg/sg12_115_cif.got.tgz:229871.got - 2010.06.28 00:19:55.
