data_PCOD8088067
_publ_section_title
;
Structure prediction by ZEFSAII (Michael W. Deem and Ramdas Pophale) SiO2 
 PCOD8088067
Probable space group: C 2/M
;
_chemical_formula_sum "Si O2"
_cell_formula_units_Z 56
_cell_length_a 29.287409
_cell_length_b 9.127211
_cell_length_c 21.092446
_cell_angle_alpha 90.000000
_cell_angle_beta 150.287286
_cell_angle_gamma 90.000000
_cell_volume 2794.617225
_symmetry_space_group_name_H-M "C 2/M"
_symmetry_group_IT_number 12
_symmetry_cell_setting 'monoclinic'
loop_
_space_group_symop_operation_xyz
x,y,z
-x,y,-z
-x,-y,-z
x,-y,z
1/2+x,1/2+y,z
1/2-x,1/2+y,-z
1/2-x,1/2-y,-z
1/2+x,1/2-y,z
loop_
_atom_site_type_symbol
_atom_site_label
_atom_site_fract_x
_atom_site_fract_y
_atom_site_fract_z
Si Si1 0.800725 0.666859 0.752746
Si Si2 0.159976 0.669303 0.063659
Si Si3 0.469121 0.174188 0.392832
Si Si4 0.226473 0.324574 0.903930
Si Si5 0.870506 0.667444 0.501995
Si Si6 0.034967 0.672421 0.130519
Si Si7 0.343834 0.832815 0.609840
O O1 0.792164 0.500000 0.719011
O O2 0.774868 0.679715 0.795781
O O3 0.727525 0.758095 0.625570
O O4 0.906665 0.717757 0.862441
O O5 0.152477 0.500000 0.030658
O O6 0.194633 0.772107 0.049181
O O7 0.066073 0.738263 0.979481
O O8 0.500000 0.232748 0.500000
O O9 0.370466 0.228381 0.245335
O O10 0.547009 0.237022 0.439446
O O11 0.465958 0.000000 0.390110
O O12 0.228902 0.500000 0.915191
O O13 0.250000 0.250000 0.000000
O O14 0.858083 0.500000 0.466446
O O15 0.897049 0.685011 0.607410
O O16 0.018369 0.500000 0.110084
O O17 0.091381 0.731808 0.258336
O O18 0.250000 0.750000 0.500000
O O19 0.320581 0.000000 0.595958
#
# Coordination Sequence:
#
# PCOD8088067 Si02
#       7
#     8   8   8   8   8   8   8
#     4  10  19  34  56  85 116 149 185 228 283 340
#     4  10  21  37  60  84 111 148 192 235 278 335
#     4   9  19  37  61  85 110 147 194 238 284 345
#     4  11  24  42  64  88 118 153 194 244 295 347
#     4  10  20  33  55  83 108 142 188 234 283 338
#     4   9  18  33  55  80 110 149 190 227 271 335
#     4  10  19  32  52  77 107 143 185 230 277 331
#
# _framework density 20.038520999999999
#
# number of rings (size 3 to 8) (size 9 to 14) (size 15 to 20)
#    0.000    2.143    1.429    1.714    2.000    3.429 
#    0.000    2.857    0.000    5.571    0.000    0.000 
#    0.000    0.000    0.000    0.000    0.000    0.000 
#
# Total GULP energy -346896.130657 kJ/mol
# GULP energy per Si atom -12389.147523 kJ/mol
# Density = 1.999291 g / cm^3
# Si number density = 20.038521 Si / 1000 Ang^3
#
#
#
# Elastic Constant Matrix: (Units=GPa)
#
#
# Indices 1 2 3 4 5 6 
#
# 1 149.3930 33.9653 44.0068 0.0000 -1.4658 0.0000
# 2 33.9653 43.9046 23.4467 0.0000 -2.6942 0.0000
# 3 44.0068 23.4467 84.8119 0.0000 0.6331 0.0000
# 4 0.0000 0.0000 0.0000 25.1216 0.0000 0.9644
# 5 -1.4658 -2.6942 0.6331 0.0000 35.3571 0.0000
# 6 0.0000 0.0000 0.0000 0.9644 0.0000 27.9978
#
#
#
# Elastic Compliance Matrix: (Units=1/GPa)
#
#
# Indices 1 2 3 4 5 6 
#
# 1 0.008783 -0.005114 -0.003144 0.000000 0.000031 0.000000
# 2 -0.005114 0.029867 -0.005620 0.000000 0.002164 0.000000
# 3 -0.003144 -0.005620 0.014982 0.000000 -0.000827 0.000000
# 4 0.000000 0.000000 0.000000 0.039859 0.000000 -0.001373
# 5 0.000031 0.002164 -0.000827 0.000000 0.028464 0.000000
# 6 0.000000 0.000000 0.000000 -0.001373 0.000000 0.035764
#
#
# Mechanical properties :
#
#
# Convention : Reuss Voigt Hill
#
# Bulk Modulus (GPa) = 38.64419 53.43860 46.04139
# Shear Modulus (GPa) = 25.76021 29.47469 27.61745
#
# Velocity S-wave (km/s) = 3.58932 3.83939 3.71646
# Velocity P-wave (km/s) = 6.04189 6.81032 6.43758
#
# Compressibility (1/GPa) = 0.02587711
#
# Stress axis : x y z
#
# Youngs Moduli (GPa) = 113.86003 33.48227 66.74817
#
# Poissons Ratio (x) = 0.17122 0.20983
# Poissons Ratio (y) = 0.58225 0.37509
# Poissons Ratio (z) = 0.35794 0.18816
#
# Static dielectric constant tensor:
#      x y z
#    x 4.219380 0.000000 -0.237880 
#    y 0.000000 3.144880 0.000000 
#    z -0.237880 0.000000 3.889490 
# 
# 
# High freq. dielectric constant tensor:
#      x y z
#    x 1.803390 0.000000 -0.007280 
#    y 0.000000 1.733790 0.000000 
#    z -0.007280 0.000000 1.788880 
# 
# From -- ./inp_files/329731.got.cif
#   From: 2010.06.25/outbox.cif.g09.slc.cpg/sg12_165_cif.got.tgz:329731.got - 2010.06.28 00:19:55.
