data_PCOD8088277
_publ_section_title
;
Structure prediction by ZEFSAII (Michael W. Deem and Ramdas Pophale) SiO2 
 PCOD8088277
Probable space group: C 2/M
;
_chemical_formula_sum "Si O2"
_cell_formula_units_Z 56
_cell_length_a 9.288928
_cell_length_b 28.665573
_cell_length_c 19.852595
_cell_angle_alpha 90.000000
_cell_angle_beta 35.274539
_cell_angle_gamma 90.000000
_cell_volume 3052.752919
_symmetry_space_group_name_H-M "C 2/M"
_symmetry_group_IT_number 12
_symmetry_cell_setting 'monoclinic'
loop_
_space_group_symop_operation_xyz
x,y,z
-x,y,-z
-x,-y,-z
x,-y,z
1/2+x,1/2+y,z
1/2-x,1/2+y,-z
1/2-x,1/2-y,-z
1/2+x,1/2-y,z
loop_
_atom_site_type_symbol
_atom_site_label
_atom_site_fract_x
_atom_site_fract_y
_atom_site_fract_z
Si Si1 0.225735 0.274916 0.079006
Si Si2 0.195073 0.221279 0.680556
Si Si3 0.056893 0.357387 0.772021
Si Si4 0.765941 0.050542 0.681823
Si Si5 0.451955 0.698310 0.414291
Si Si6 0.315765 0.948310 0.445432
Si Si7 0.019200 0.648122 0.351892
O O1 0.053203 0.245943 0.196283
O O2 0.107193 0.326533 0.114095
O O3 0.500000 0.281106 0.000000
O O4 0.250000 0.250000 0.000000
O O5 0.437922 0.254186 0.595965
O O6 0.248347 0.173403 0.700855
O O7 0.150740 0.208556 0.620649
O O8 0.083098 0.411202 0.785955
O O9 0.340608 0.340977 0.664504
O O10 0.928345 0.353630 0.747784
O O11 0.740203 0.054509 0.611822
O O12 0.059358 0.057563 0.585599
O O13 0.677110 0.000000 0.742144
O O14 0.230638 0.678902 0.544878
O O15 0.493739 0.904034 0.394342
O O16 0.432510 0.000000 0.417826
#
# Coordination Sequence:
#
# PCOD8088277 Si02
#       7
#     8   8   8   8   8   8   8
#     4  11  22  38  52  66  92 127 170 222 259 291
#     4  11  23  35  50  71  95 131 174 204 252 302
#     4  10  19  32  53  77  98 131 171 200 247 300
#     4   8  13  25  46  75 105 131 161 196 233 293
#     4  11  21  34  47  72 106 134 162 196 242 299
#     4   8  14  25  45  73 106 140 163 184 230 290
#     4  11  19  31  50  76 108 135 159 196 236 296
#
# _framework density 18.344097999999999
#
# number of rings (size 3 to 8) (size 9 to 14) (size 15 to 20)
#    0.000    2.000    1.429    6.429    0.000    2.286 
#    0.000    0.000    0.000    3.000    0.000    1.000 
#    0.000    2.286    0.000    0.000    0.000    0.000 
#
# Total GULP energy -346977.908398 kJ/mol
# GULP energy per Si atom -12392.068157 kJ/mol
# Density = 1.830235 g / cm^3
# Si number density = 18.344098 Si / 1000 Ang^3
#
#
#
# Elastic Constant Matrix: (Units=GPa)
#
#
# Indices 1 2 3 4 5 6 
#
# 1 45.9485 18.9544 -4.7424 0.0000 -1.2421 -0.0001
# 2 18.9544 155.7910 34.0871 0.0000 -8.5922 0.0000
# 3 -4.7424 34.0871 52.5254 0.0001 -5.4373 -0.0001
# 4 0.0000 0.0000 0.0001 27.4640 -0.0001 -3.4838
# 5 -1.2421 -8.5922 -5.4373 -0.0001 24.0905 0.0001
# 6 -0.0001 0.0000 -0.0001 -3.4838 0.0001 18.0902
#
#
#
# Elastic Compliance Matrix: (Units=1/GPa)
#
#
# Indices 1 2 3 4 5 6 
#
# 1 0.023892 -0.003903 0.004785 0.000000 0.000920 0.000000
# 2 -0.003903 0.008180 -0.005509 0.000000 0.001473 0.000000
# 3 0.004785 -0.005509 0.023415 0.000000 0.003567 0.000000
# 4 0.000000 0.000000 0.000000 0.037323 0.000000 0.007188
# 5 0.000920 0.001473 0.003567 0.000000 0.042888 0.000000
# 6 0.000000 0.000000 0.000000 0.007188 0.000000 0.056663
#
#
# Mechanical properties :
#
#
# Convention : Reuss Voigt Hill
#
# Bulk Modulus (GPa) = 21.62888 38.98478 30.30683
# Shear Modulus (GPa) = 23.03879 27.66001 25.34940
#
# Velocity S-wave (km/s) = 3.54775 3.88731 3.72140
# Velocity P-wave (km/s) = 5.34773 6.43788 5.91796
#
# Compressibility (1/GPa) = 0.04623447
#
# Stress axis : x y z
#
# Youngs Moduli (GPa) = 41.85435 122.24541 42.70841
#
# Poissons Ratio (x) = 0.47715 -0.20438
# Poissons Ratio (y) = 0.16337 0.23526
# Poissons Ratio (z) = -0.20029 0.67340
#
# Static dielectric constant tensor:
#      x y z
#    x 3.175770 0.000000 -0.108780 
#    y 0.000000 3.916170 0.000000 
#    z -0.108780 0.000000 3.200710 
# 
# 
# High freq. dielectric constant tensor:
#      x y z
#    x 1.689730 0.000000 -0.008080 
#    y 0.000000 1.727760 0.000000 
#    z -0.008080 0.000000 1.667730 
# 
# From -- ./inp_files/260091.got.cif
#   From: 2010.06.25/outbox.cif.g09.slc.cpg/sg12_131_cif.got.tgz:260091.got - 2010.06.28 00:19:55.
