data_PCOD8088349
_publ_section_title
;
Structure prediction by ZEFSAII (Michael W. Deem and Ramdas Pophale) SiO2 
 PCOD8088349
Probable space group: C 2/M
;
_chemical_formula_sum "Si O2"
_cell_formula_units_Z 64
_cell_length_a 19.631635
_cell_length_b 9.270232
_cell_length_c 23.672053
_cell_angle_alpha 90.000000
_cell_angle_beta 53.094607
_cell_angle_gamma 90.000000
_cell_volume 3444.855961
_symmetry_space_group_name_H-M "C 2/M"
_symmetry_group_IT_number 12
_symmetry_cell_setting 'monoclinic'
loop_
_space_group_symop_operation_xyz
x,y,z
-x,y,-z
-x,-y,-z
x,-y,z
1/2+x,1/2+y,z
1/2-x,1/2+y,-z
1/2-x,1/2-y,-z
1/2+x,1/2-y,z
loop_
_atom_site_type_symbol
_atom_site_label
_atom_site_fract_x
_atom_site_fract_y
_atom_site_fract_z
Si Si1 0.505005 0.328311 0.335099
Si Si2 0.404058 0.671415 0.277523
Si Si3 0.933997 0.828585 0.487398
Si Si4 0.176706 0.171658 0.000979
Si Si5 0.767804 0.837023 0.631870
Si Si6 0.012023 0.170708 0.878888
Si Si7 0.307347 0.663154 0.740641
Si Si8 0.834556 0.169808 0.122900
O O1 0.503859 0.500000 0.338540
O O2 0.459542 0.269889 0.301836
O O3 0.456484 0.265836 0.414319
O O4 0.602344 0.274852 0.283282
O O5 0.400119 0.500000 0.278002
O O6 0.309760 0.728457 0.332798
O O7 0.445923 0.732924 0.199250
O O8 0.837874 0.783954 0.551647
O O9 0.000000 0.762967 0.500000
O O10 0.942168 0.000000 0.483835
O O11 0.183068 0.218247 0.932338
O O12 0.186355 0.000000 0.003707
O O13 0.250000 0.250000 0.000000
O O14 0.084362 0.228919 0.067576
O O15 0.810815 0.831174 0.671596
O O16 0.737057 0.000000 0.634017
O O17 0.070713 0.216975 0.903223
O O18 0.006764 0.000000 0.878520
O O19 0.292360 0.500000 0.769564
O O20 0.233284 0.761094 0.801738
O O21 0.825228 0.000000 0.133762
#
# Coordination Sequence:
#
# PCOD8088349 Si02
#       8
#     8   8   8   8   8   8   8   8
#     4   9  18  31  50  77 103 135 181 220 256 310
#     4  10  20  34  53  77 105 138 173 213 259 309
#     4   9  15  28  50  75 103 135 174 220 263 307
#     4  10  22  38  57  82 109 138 173 214 259 307
#     4  10  19  32  53  79 105 135 173 219 266 308
#     4   9  18  35  57  76 100 139 179 210 246 305
#     4  10  19  32  54  81 104 132 177 225 260 299
#     4  10  20  36  57  79 104 140 179 211 254 312
#
# _framework density 18.578424999999999
#
# number of rings (size 3 to 8) (size 9 to 14) (size 15 to 20)
#    0.000    2.375    2.500    0.375    1.750    2.500 
#    0.000    1.875    0.000    2.625    0.000    0.000 
#    0.000    0.000    0.000    0.000    0.000    0.000 
#
# Total GULP energy -396733.190931 kJ/mol
# GULP energy per Si atom -12397.912217 kJ/mol
# Density = 1.853614 g / cm^3
# Si number density = 18.578425 Si / 1000 Ang^3
#
#
#
# Elastic Constant Matrix: (Units=GPa)
#
#
# Indices 1 2 3 4 5 6 
#
# 1 141.4265 26.8908 58.4842 0.0000 -1.7395 -0.0001
# 2 26.8908 17.7344 23.7601 -0.0001 0.4190 -0.0005
# 3 58.4842 23.7601 115.0485 0.0000 -8.3141 0.0000
# 4 0.0000 -0.0001 0.0000 21.4799 0.0000 -5.0581
# 5 -1.7395 0.4190 -8.3141 0.0000 30.8258 0.0000
# 6 -0.0001 -0.0005 0.0000 -5.0581 0.0000 22.9669
#
#
#
# Elastic Compliance Matrix: (Units=1/GPa)
#
#
# Indices 1 2 3 4 5 6 
#
# 1 0.010572 -0.012207 -0.002854 0.000000 -0.000007 0.000000
# 2 -0.012207 0.092981 -0.013400 0.000001 -0.005567 0.000002
# 3 -0.002854 -0.013400 0.013168 0.000000 0.003573 0.000000
# 4 0.000000 0.000001 0.000000 0.049102 0.000000 0.010814
# 5 -0.000007 -0.005567 0.003573 0.000000 0.033479 0.000000
# 6 0.000000 0.000002 0.000000 0.010814 0.000000 0.045923
#
#
# Mechanical properties :
#
#
# Convention : Reuss Voigt Hill
#
# Bulk Modulus (GPa) = 16.72221 54.71994 35.72107
# Shear Modulus (GPa) = 15.52420 26.05947 20.79184
#
# Velocity S-wave (km/s) = 2.89382 3.74929 3.34898
# Velocity P-wave (km/s) = 4.49288 6.94697 5.85006
#
# Compressibility (1/GPa) = 0.05980072
#
# Stress axis : x y z
#
# Youngs Moduli (GPa) = 94.59168 10.75491 75.94074
#
# Poissons Ratio (x) = 0.13128 0.21671
# Poissons Ratio (y) = 1.15464 1.01759
# Poissons Ratio (z) = 0.26993 0.14411
#
# Static dielectric constant tensor:
#      x y z
#    x 3.645230 0.000000 0.102950 
#    y 0.000000 2.936210 0.000000 
#    z 0.102950 0.000000 3.640430 
# 
# 
# High freq. dielectric constant tensor:
#      x y z
#    x 1.731470 0.000000 -0.001690 
#    y 0.000000 1.668110 0.000000 
#    z -0.001690 0.000000 1.735000 
# 
# From -- ./inp_files/276561.got.cif
#   From: 2010.06.25/outbox.cif.g09.slc.cpg/sg12_139_cif.got.tgz:276561.got - 2010.06.28 00:19:55.
