data_PCOD8088552
_publ_section_title
;
Structure prediction by ZEFSAII (Michael W. Deem and Ramdas Pophale) SiO2 
 PCOD8088552
Probable space group: C 2/M
;
_chemical_formula_sum "Si O2"
_cell_formula_units_Z 64
_cell_length_a 18.834037
_cell_length_b 8.855890
_cell_length_c 21.010151
_cell_angle_alpha 90.000000
_cell_angle_beta 86.394892
_cell_angle_gamma 90.000000
_cell_volume 3497.393843
_symmetry_space_group_name_H-M "C 2/M"
_symmetry_group_IT_number 12
_symmetry_cell_setting 'monoclinic'
loop_
_space_group_symop_operation_xyz
x,y,z
-x,y,-z
-x,-y,-z
x,-y,z
1/2+x,1/2+y,z
1/2-x,1/2+y,-z
1/2-x,1/2-y,-z
1/2+x,1/2-y,z
loop_
_atom_site_type_symbol
_atom_site_label
_atom_site_fract_x
_atom_site_fract_y
_atom_site_fract_z
Si Si1 0.738682 0.824937 0.850122
Si Si2 0.621572 0.825370 0.958896
Si Si3 0.373856 0.823173 0.895663
Si Si4 0.782578 0.322605 0.560315
Si Si5 0.136930 0.174999 0.761090
Si Si6 0.159817 0.321226 0.630161
Si Si7 0.577582 0.822812 0.510047
Si Si8 0.980840 0.825478 0.128169
O O1 0.693719 0.793395 0.916469
O O2 0.817695 0.767061 0.856868
O O3 0.706962 0.735391 0.792292
O O4 0.739498 0.000000 0.832106
O O5 0.558091 0.725216 0.934290
O O6 0.598368 0.000000 0.955640
O O7 0.634348 0.774879 0.030363
O O8 0.450399 0.776667 0.864957
O O9 0.361334 0.000000 0.887240
O O10 0.768106 0.500000 0.561891
O O11 0.750000 0.250000 0.500000
O O12 0.740644 0.246490 0.621597
O O13 0.867900 0.289430 0.552069
O O14 0.123735 0.264717 0.696793
O O15 0.068685 0.205281 0.808557
O O16 0.147805 0.000000 0.745404
O O17 0.165943 0.500000 0.629335
O O18 0.110987 0.260902 0.574373
O O19 0.500000 0.748488 0.500000
O O20 0.567443 0.000000 0.519358
O O21 0.002035 0.000000 0.120486
#
# Coordination Sequence:
#
# PCOD8088552 Si02
#       8
#     8   8   8   8   8   8   8   8
#     4  10  20  35  54  75 101 131 168 215 262 308
#     4   9  19  34  52  75 102 133 168 210 261 317
#     4  11  21  33  51  76 105 134 167 209 262 319
#     4   9  16  28  49  75 104 135 167 206 247 291
#     4  10  21  38  56  73  98 134 176 217 259 309
#     4  10  19  32  54  78 100 133 174 211 250 303
#     4   8  15  29  50  78 108 134 163 202 246 290
#     4  10  21  35  52  74 101 135 174 216 261 311
#
# _framework density 18.299340000000001
#
# number of rings (size 3 to 8) (size 9 to 14) (size 15 to 20)
#    0.000    2.375    0.000    3.750    0.000    4.500 
#    0.000    1.250    0.000   18.000    0.000    0.000 
#    0.000    0.000    0.000    0.000    0.000    0.000 
#
# Total GULP energy -396766.986312 kJ/mol
# GULP energy per Si atom -12398.968322 kJ/mol
# Density = 1.825769 g / cm^3
# Si number density = 18.299340 Si / 1000 Ang^3
#
#
#
# Elastic Constant Matrix: (Units=GPa)
#
#
# Indices 1 2 3 4 5 6 
#
# 1 112.1562 31.9954 32.0925 0.0000 6.2093 0.0000
# 2 31.9954 64.9731 28.1322 0.0000 -2.9749 0.0000
# 3 32.0925 28.1322 81.7581 0.0000 2.1712 0.0000
# 4 0.0000 0.0000 0.0000 30.2617 0.0000 -1.6573
# 5 6.2093 -2.9749 2.1712 0.0000 14.1541 0.0000
# 6 0.0000 0.0000 0.0000 -1.6573 0.0000 29.9626
#
#
#
# Elastic Compliance Matrix: (Units=1/GPa)
#
#
# Indices 1 2 3 4 5 6 
#
# 1 0.011324 -0.004663 -0.002693 0.000000 -0.005535 0.000000
# 2 -0.004663 0.020333 -0.005356 0.000000 0.007141 0.000000
# 3 -0.002693 -0.005356 0.015192 0.000000 -0.002274 0.000000
# 4 0.000000 0.000000 0.000000 0.033145 0.000000 0.001833
# 5 -0.005535 0.007141 -0.002274 0.000000 0.074929 0.000000
# 6 0.000000 0.000000 0.000000 0.001833 0.000000 0.033476
#
#
# Mechanical properties :
#
#
# Convention : Reuss Voigt Hill
#
# Bulk Modulus (GPa) = 46.67680 49.25862 47.96771
# Shear Modulus (GPa) = 22.62803 25.98684 24.30743
#
# Velocity S-wave (km/s) = 3.52027 3.77251 3.64857
# Velocity P-wave (km/s) = 6.48736 6.77882 6.63469
#
# Compressibility (1/GPa) = 0.02142392
#
# Stress axis : x y z
#
# Youngs Moduli (GPa) = 88.31151 49.18039 65.82601
#
# Poissons Ratio (x) = 0.22935 0.17728
# Poissons Ratio (y) = 0.41184 0.35254
# Poissons Ratio (z) = 0.23784 0.26339
#
# Static dielectric constant tensor:
#      x y z
#    x 3.609000 0.000000 -0.158530 
#    y 0.000000 3.395640 0.000000 
#    z -0.158530 0.000000 3.291460 
# 
# 
# High freq. dielectric constant tensor:
#      x y z
#    x 1.709600 0.000000 -0.011480 
#    y 0.000000 1.710630 0.000000 
#    z -0.011480 0.000000 1.690660 
# 
# From -- ./inp_files/319146.got.cif
#   From: 2010.06.25/outbox.cif.g09.slc.cpg/sg12_160_cif.got.tgz:319146.got - 2010.06.28 00:19:55.
