data_PCOD8088974
_publ_section_title
;
Structure prediction by ZEFSAII (Michael W. Deem and Ramdas Pophale) SiO2 
 PCOD8088974
Probable space group: C 2/M
;
_chemical_formula_sum "Si O2"
_cell_formula_units_Z 64
_cell_length_a 24.136192
_cell_length_b 8.817739
_cell_length_c 19.865943
_cell_angle_alpha 90.000000
_cell_angle_beta 54.725683
_cell_angle_gamma 90.000000
_cell_volume 3451.726123
_symmetry_space_group_name_H-M "C 2/M"
_symmetry_group_IT_number 12
_symmetry_cell_setting 'monoclinic'
loop_
_space_group_symop_operation_xyz
x,y,z
-x,y,-z
-x,-y,-z
x,-y,z
1/2+x,1/2+y,z
1/2-x,1/2+y,-z
1/2-x,1/2-y,-z
1/2+x,1/2-y,z
loop_
_atom_site_type_symbol
_atom_site_label
_atom_site_fract_x
_atom_site_fract_y
_atom_site_fract_z
Si Si1 0.079788 0.327216 0.747250
Si Si2 0.175052 0.677974 0.290767
Si Si3 0.444236 0.675182 0.880690
Si Si4 0.422803 0.675822 0.533694
Si Si5 0.449614 0.176204 0.380783
Si Si6 0.427032 0.821028 0.028173
Si Si7 0.183389 0.675665 0.786498
Si Si8 0.910959 0.177685 0.755628
O O1 0.054572 0.500000 0.775999
O O2 0.090711 0.293886 0.660533
O O3 0.150221 0.299615 0.736255
O O4 0.022742 0.219887 0.818452
O O5 0.168935 0.500000 0.283617
O O6 0.125317 0.727824 0.384916
O O7 0.251171 0.719933 0.256881
O O8 0.156409 0.763709 0.234280
O O9 0.440396 0.500000 0.900909
O O10 0.404284 0.713031 0.839664
O O11 0.408420 0.764056 0.966572
O O12 0.500000 0.706899 0.500000
O O13 0.403267 0.500000 0.553803
O O14 0.410849 0.730956 0.465737
O O15 0.526334 0.233613 0.320648
O O16 0.451119 0.000000 0.399118
O O17 0.369160 0.766672 0.120037
O O18 0.430880 0.000000 0.024916
O O19 0.500000 0.753891 0.000000
O O20 0.203107 0.500000 0.783768
O O21 0.922255 0.000000 0.734301
#
# Coordination Sequence:
#
# PCOD8088974 Si02
#       8
#     8   8   8   8   8   8   8   8
#     4   9  18  35  57  82 114 151 188 226 278 338
#     4  12  25  39  58  84 114 147 189 238 282 331
#     4  10  20  32  54  86 117 145 183 238 283 325
#     4  11  22  37  59  84 114 150 188 229 278 339
#     4  10  19  32  57  89 115 141 184 239 281 321
#     4  10  19  35  59  85 113 149 193 232 275 336
#     4  10  21  39  60  81 114 155 189 225 279 344
#     4  10  20  36  55  80 114 152 188 224 282 343
#
# _framework density 18.541449
#
# number of rings (size 3 to 8) (size 9 to 14) (size 15 to 20)
#    0.000    1.750    2.500    2.625    0.000    3.750 
#    0.000    1.250    0.000    0.000    0.000    0.000 
#    0.000    0.000    0.000    0.000    0.000    0.000 
#
# Total GULP energy -396896.490059 kJ/mol
# GULP energy per Si atom -12403.015314 kJ/mol
# Density = 1.849925 g / cm^3
# Si number density = 18.541449 Si / 1000 Ang^3
#
#
#
# Elastic Constant Matrix: (Units=GPa)
#
#
# Indices 1 2 3 4 5 6 
#
# 1 106.8618 26.0096 49.4348 0.0006 12.0331 0.0002
# 2 26.0096 36.7356 29.3117 0.0043 2.5594 -0.0035
# 3 49.4348 29.3117 88.0218 0.0008 14.0363 -0.0015
# 4 0.0006 0.0043 0.0008 30.1598 -0.0011 3.8724
# 5 12.0331 2.5594 14.0363 -0.0011 29.9499 0.0012
# 6 0.0002 -0.0035 -0.0015 3.8724 0.0012 26.5683
#
#
#
# Elastic Compliance Matrix: (Units=1/GPa)
#
#
# Indices 1 2 3 4 5 6 
#
# 1 0.013360 -0.004915 -0.005488 0.000001 -0.002376 -0.000001
# 2 -0.004915 0.039103 -0.010854 -0.000006 0.003720 0.000005
# 3 -0.005488 -0.010854 0.018976 0.000001 -0.005761 0.000000
# 4 0.000001 -0.000006 0.000001 0.033789 0.000001 -0.004925
# 5 -0.002376 0.003720 -0.005761 0.000001 0.036726 -0.000002
# 6 -0.000001 0.000005 0.000000 -0.004925 -0.000002 0.038357
#
#
# Mechanical properties :
#
#
# Convention : Reuss Voigt Hill
#
# Bulk Modulus (GPa) = 34.57210 49.01461 41.79335
# Shear Modulus (GPa) = 21.50837 25.79312 23.65075
#
# Velocity S-wave (km/s) = 3.40959 3.73380 3.57537
# Velocity P-wave (km/s) = 5.84695 6.71423 6.29554
#
# Compressibility (1/GPa) = 0.02892506
#
# Stress axis : x y z
#
# Youngs Moduli (GPa) = 74.84768 25.57334 52.69783
#
# Poissons Ratio (x) = 0.12570 0.28920
# Poissons Ratio (y) = 0.36789 0.57200
# Poissons Ratio (z) = 0.41075 0.27758
#
# Static dielectric constant tensor:
#      x y z
#    x 3.492180 0.000000 0.281320 
#    y 0.000000 3.411900 0.000000 
#    z 0.281320 0.000000 3.403860 
# 
# 
# High freq. dielectric constant tensor:
#      x y z
#    x 1.713710 0.000000 0.026680 
#    y 0.000000 1.724000 0.000000 
#    z 0.026680 0.000000 1.708800 
# 
# From -- ./inp_files/324136.got.cif
#   From: 2010.06.25/outbox.cif.g09.slc.cpg/sg12_163_cif.got.tgz:324136.got - 2010.06.28 00:19:55.
