data_PCOD8088635
_publ_section_title
;
Structure prediction by ZEFSAII (Michael W. Deem and Ramdas Pophale) SiO2 
 PCOD8088635
Probable space group: C 2/M
;
_chemical_formula_sum "Si O2"
_cell_formula_units_Z 64
_cell_length_a 14.337859
_cell_length_b 8.696547
_cell_length_c 27.297520
_cell_angle_alpha 90.000000
_cell_angle_beta 74.648383
_cell_angle_gamma 90.000000
_cell_volume 3282.276842
_symmetry_space_group_name_H-M "C 2/M"
_symmetry_group_IT_number 12
_symmetry_cell_setting 'monoclinic'
loop_
_space_group_symop_operation_xyz
x,y,z
-x,y,-z
-x,-y,-z
x,-y,z
1/2+x,1/2+y,z
1/2-x,1/2+y,-z
1/2-x,1/2-y,-z
1/2+x,1/2-y,z
loop_
_atom_site_type_symbol
_atom_site_label
_atom_site_fract_x
_atom_site_fract_y
_atom_site_fract_z
Si Si1 0.628631 0.178438 0.886745
Si Si2 0.525815 0.181851 0.442467
Si Si3 0.396333 0.181387 0.712534
Si Si4 0.114871 0.169574 0.986926
Si Si5 0.782134 0.318821 0.635431
Si Si6 0.926660 0.182331 0.364186
Si Si7 0.077597 0.180507 0.097065
Si Si8 0.813308 0.320237 0.828421
O O1 0.653098 0.213155 0.940548
O O2 0.520915 0.223811 0.886840
O O3 0.700273 0.276540 0.842275
O O4 0.645238 0.000000 0.874600
O O5 0.500000 0.242592 0.500000
O O6 0.636048 0.231225 0.415182
O O7 0.452579 0.257889 0.414417
O O8 0.512706 0.000000 0.439924
O O9 0.315869 0.237989 0.684563
O O10 0.498285 0.261394 0.687354
O O11 0.361960 0.230308 0.770942
O O12 0.411674 0.000000 0.705503
O O13 0.159068 0.000000 0.970274
O O14 0.138817 0.225262 0.039221
O O15 0.000000 0.159719 0.000000
O O16 0.771076 0.500000 0.637366
O O17 0.678524 0.247682 0.635425
O O18 0.925837 0.000000 0.364993
O O19 0.140073 0.220093 0.135271
O O20 0.052459 0.000000 0.098996
O O21 0.827518 0.500000 0.836473
#
# Coordination Sequence:
#
# PCOD8088635 Si02
#       8
#     8   8   8   8   8   8   8   8
#     4  11  22  36  56  82 111 142 177 220 271 331
#     4   9  18  34  54  76 109 151 186 217 258 312
#     4   9  20  39  57  74 102 139 178 220 265 319
#     4   8  16  33  55  77 104 140 179 218 265 323
#     4   8  16  33  54  76 104 139 177 214 262 316
#     4  10  19  32  54  81 107 138 177 223 270 315
#     4  10  21  38  58  80 109 143 179 223 273 327
#     4  11  23  38  57  81 108 141 182 228 278 329
#
# _framework density 19.498659
#
# number of rings (size 3 to 8) (size 9 to 14) (size 15 to 20)
#    0.000    2.500    0.000    3.750    0.000    6.000 
#    0.000    6.250    0.000    0.000    0.000    0.000 
#    0.000    0.000    0.000    0.000    0.000    0.000 
#
# Total GULP energy -396754.361791 kJ/mol
# GULP energy per Si atom -12398.573806 kJ/mol
# Density = 1.945428 g / cm^3
# Si number density = 19.498659 Si / 1000 Ang^3
#
#
#
# Elastic Constant Matrix: (Units=GPa)
#
#
# Indices 1 2 3 4 5 6 
#
# 1 105.6153 17.9882 38.3261 0.0000 -5.8956 0.0000
# 2 17.9882 51.0934 29.6884 0.0000 -1.5963 0.0000
# 3 38.3261 29.6884 118.1297 0.0000 -5.9331 0.0000
# 4 0.0000 0.0000 0.0000 26.7578 0.0000 1.1208
# 5 -5.8956 -1.5963 -5.9331 0.0000 18.5250 0.0000
# 6 0.0000 0.0000 0.0000 1.1208 0.0000 28.5964
#
#
#
# Elastic Compliance Matrix: (Units=1/GPa)
#
#
# Indices 1 2 3 4 5 6 
#
# 1 0.011022 -0.002105 -0.002927 0.000000 0.002389 0.000000
# 2 -0.002105 0.023321 -0.005194 0.000000 -0.000324 0.000000
# 3 -0.002927 -0.005194 0.010825 0.000000 0.002088 0.000000
# 4 0.000000 0.000000 0.000000 0.037434 0.000000 -0.001467
# 5 0.002389 -0.000324 0.002088 0.000000 0.055382 0.000000
# 6 0.000000 0.000000 0.000000 -0.001467 0.000000 0.035027
#
#
# Mechanical properties :
#
#
# Convention : Reuss Voigt Hill
#
# Bulk Modulus (GPa) = 40.46006 49.64931 45.05468
# Shear Modulus (GPa) = 24.78883 27.36487 26.07685
#
# Velocity S-wave (km/s) = 3.56941 3.75029 3.66097
# Velocity P-wave (km/s) = 6.14677 6.65366 6.40523
#
# Compressibility (1/GPa) = 0.02471573
#
# Stress axis : x y z
#
# Youngs Moduli (GPa) = 90.72417 42.87925 92.37661
#
# Poissons Ratio (x) = 0.09027 0.27039
# Poissons Ratio (y) = 0.19099 0.47984
# Poissons Ratio (z) = 0.26556 0.22273
#
# Static dielectric constant tensor:
#      x y z
#    x 3.637790 0.000000 -0.018440 
#    y 0.000000 3.331160 0.000000 
#    z -0.018440 0.000000 3.767960 
# 
# 
# High freq. dielectric constant tensor:
#      x y z
#    x 1.759400 0.000000 -0.002190 
#    y 0.000000 1.745810 0.000000 
#    z -0.002190 0.000000 1.759830 
# 
# From -- ./inp_files/359755.got.cif
#   From: 2010.06.25/outbox.cif.g09.slc.cpg/sg12_180_cif.got.tgz:359755.got - 2010.06.28 00:19:55.
