data_PCOD8088451
_publ_section_title
;
Structure prediction by ZEFSAII (Michael W. Deem and Ramdas Pophale) SiO2 
 PCOD8088451
Probable space group: C 2/M
;
_chemical_formula_sum "Si O2"
_cell_formula_units_Z 64
_cell_length_a 24.901194
_cell_length_b 9.271453
_cell_length_c 15.235426
_cell_angle_alpha 90.000000
_cell_angle_beta 71.898422
_cell_angle_gamma 90.000000
_cell_volume 3343.320216
_symmetry_space_group_name_H-M "C 2/M"
_symmetry_group_IT_number 12
_symmetry_cell_setting 'monoclinic'
loop_
_space_group_symop_operation_xyz
x,y,z
-x,y,-z
-x,-y,-z
x,-y,z
1/2+x,1/2+y,z
1/2-x,1/2+y,-z
1/2-x,1/2-y,-z
1/2+x,1/2-y,z
loop_
_atom_site_type_symbol
_atom_site_label
_atom_site_fract_x
_atom_site_fract_y
_atom_site_fract_z
Si Si1 0.690352 0.840374 0.304749
Si Si2 0.231582 0.162146 0.131499
Si Si3 0.790408 0.831675 0.543221
Si Si4 0.508873 0.665744 0.269377
Si Si5 0.081135 0.836893 0.550514
Si Si6 0.168048 0.837389 0.980298
Si Si7 0.939764 0.340595 0.600702
Si Si8 0.961592 0.828889 0.939143
O O1 0.693164 0.765026 0.209599
O O2 0.722665 0.735574 0.355307
O O3 0.626911 0.855400 0.368054
O O4 0.718302 0.000000 0.287577
O O5 0.197939 0.159901 0.058535
O O6 0.236714 0.000000 0.166297
O O7 0.295005 0.228149 0.096845
O O8 0.750000 0.750000 0.500000
O O9 0.853448 0.797877 0.477820
O O10 0.776639 0.000000 0.552314
O O11 0.529458 0.500000 0.259498
O O12 0.444600 0.680416 0.338212
O O13 0.547338 0.751059 0.318501
O O14 0.514416 0.728070 0.167316
O O15 0.045299 0.736484 0.500758
O O16 0.073496 0.000000 0.519575
O O17 0.103592 0.779029 0.017452
O O18 0.168490 0.000000 0.940489
O O19 0.967759 0.500000 0.590215
O O20 0.965331 0.000000 0.937975
O O21 0.000000 0.766719 0.000000
#
# Coordination Sequence:
#
# PCOD8088451 Si02
#       8
#     8   8   8   8   8   8   8   8
#     4  10  20  34  52  77 106 138 177 217 263 321
#     4  10  19  32  53  81 110 137 172 221 277 331
#     4  10  20  36  54  74 105 142 179 218 262 310
#     4  10  19  33  54  78 105 139 179 220 262 312
#     4   9  19  34  52  77 108 141 178 217 261 315
#     4   9  18  33  53  78 107 140 175 221 276 326
#     4  10  20  32  51  80 112 140 171 214 268 322
#     4   9  18  34  55  78 104 139 187 230 265 311
#
# _framework density 19.142647
#
# number of rings (size 3 to 8) (size 9 to 14) (size 15 to 20)
#    0.000    2.375    0.000    2.625    0.000    5.500 
#    2.250    0.625    0.000    1.500    0.000    0.000 
#    0.000    0.000    0.000    0.000    0.000    0.000 
#
# Total GULP energy -396625.241122 kJ/mol
# GULP energy per Si atom -12394.538785 kJ/mol
# Density = 1.909908 g / cm^3
# Si number density = 19.142647 Si / 1000 Ang^3
#
#
#
# Elastic Constant Matrix: (Units=GPa)
#
#
# Indices 1 2 3 4 5 6 
#
# 1 85.1475 35.4166 27.0598 0.0000 2.9353 0.0000
# 2 35.4166 99.6956 27.5602 0.0000 4.1333 0.0000
# 3 27.0598 27.5602 87.5983 0.0000 3.7060 0.0000
# 4 0.0000 0.0000 0.0000 24.4019 0.0000 -0.6242
# 5 2.9353 4.1333 3.7060 0.0000 26.2855 0.0000
# 6 0.0000 0.0000 0.0000 -0.6242 0.0000 25.2858
#
#
#
# Elastic Compliance Matrix: (Units=1/GPa)
#
#
# Indices 1 2 3 4 5 6 
#
# 1 0.014534 -0.004279 -0.003122 0.000000 -0.000510 0.000000
# 2 -0.004279 0.012287 -0.002497 0.000000 -0.001102 0.000000
# 3 -0.003122 -0.002497 0.013213 0.000000 -0.001122 0.000000
# 4 0.000000 0.000000 0.000000 0.041006 0.000000 0.001012
# 5 -0.000510 -0.001102 -0.001122 0.000000 0.038432 0.000000
# 6 0.000000 0.000000 0.000000 0.001012 0.000000 0.039573
#
#
# Mechanical properties :
#
#
# Convention : Reuss Voigt Hill
#
# Bulk Modulus (GPa) = 49.41248 50.27937 49.84593
# Shear Modulus (GPa) = 26.94157 27.35497 27.14827
#
# Velocity S-wave (km/s) = 3.75562 3.78432 3.77000
# Velocity P-wave (km/s) = 6.68394 6.73925 6.71165
#
# Compressibility (1/GPa) = 0.02023780
#
# Stress axis : x y z
#
# Youngs Moduli (GPa) = 68.80506 81.38917 75.68185
#
# Poissons Ratio (x) = 0.34826 0.23626
# Poissons Ratio (y) = 0.29441 0.18899
# Poissons Ratio (z) = 0.21479 0.20325
#
# Static dielectric constant tensor:
#      x y z
#    x 3.451320 0.000000 -0.204630 
#    y 0.000000 3.871360 0.000000 
#    z -0.204630 0.000000 3.555440 
# 
# 
# High freq. dielectric constant tensor:
#      x y z
#    x 1.732900 0.000000 -0.013800 
#    y 0.000000 1.738320 0.000000 
#    z -0.013800 0.000000 1.742890 
# 
# From -- ./inp_files/243747.got.cif
#   From: 2010.06.25/outbox.cif.g09.slc.cpg/sg12_122_cif.got.tgz:243747.got - 2010.06.28 00:19:55.
