data_PCOD8088487
_publ_section_title
;
Structure prediction by ZEFSAII (Michael W. Deem and Ramdas Pophale) SiO2 
 PCOD8088487
Probable space group: C 2/M
;
_chemical_formula_sum "Si O2"
_cell_formula_units_Z 64
_cell_length_a 20.066358
_cell_length_b 8.715491
_cell_length_c 20.344709
_cell_angle_alpha 90.000000
_cell_angle_beta 78.015326
_cell_angle_gamma 90.000000
_cell_volume 3480.494625
_symmetry_space_group_name_H-M "C 2/M"
_symmetry_group_IT_number 12
_symmetry_cell_setting 'monoclinic'
loop_
_space_group_symop_operation_xyz
x,y,z
-x,y,-z
-x,-y,-z
x,-y,z
1/2+x,1/2+y,z
1/2-x,1/2+y,-z
1/2-x,1/2-y,-z
1/2+x,1/2-y,z
loop_
_atom_site_type_symbol
_atom_site_label
_atom_site_fract_x
_atom_site_fract_y
_atom_site_fract_z
Si Si1 0.777232 0.677423 0.304661
Si Si2 0.256100 0.318535 0.927205
Si Si3 0.101794 0.181276 0.653186
Si Si4 0.376230 0.322978 0.673265
Si Si5 0.998900 0.679339 0.424700
Si Si6 0.032653 0.181025 0.799952
Si Si7 0.884160 0.182201 0.821142
Si Si8 0.167370 0.819106 0.837342
O O1 0.793517 0.500000 0.286957
O O2 0.823891 0.740715 0.354474
O O3 0.698770 0.698294 0.342397
O O4 0.789741 0.770876 0.235172
O O5 0.258062 0.500000 0.931737
O O6 0.324495 0.250592 0.879235
O O7 0.191545 0.268056 0.897293
O O8 0.250000 0.250000 0.000000
O O9 0.055758 0.240250 0.723529
O O10 0.064901 0.233028 0.594440
O O11 0.112323 0.000000 0.651158
O O12 0.400168 0.500000 0.666190
O O13 0.429089 0.223073 0.621648
O O14 0.373996 0.263008 0.748581
O O15 0.986514 0.500000 0.418541
O O16 0.000000 0.729522 0.500000
O O17 0.088040 0.229122 0.843292
O O18 0.957378 0.245158 0.832325
O O19 0.028448 0.000000 0.796016
O O20 0.880180 0.000000 0.824945
O O21 0.175348 0.000000 0.845890
#
# Coordination Sequence:
#
# PCOD8088487 Si02
#       8
#     8   8   8   8   8   8   8   8
#     4  10  19  33  55  85 117 146 181 232 285 328
#     4  11  22  37  56  78 110 149 184 228 282 336
#     4  10  19  34  57  83 111 146 188 230 276 336
#     4  10  19  35  59  84 110 145 190 231 275 333
#     4  11  24  39  55  81 117 151 184 230 286 338
#     4   8  15  29  53  81 105 131 175 228 266 313
#     4   9  16  32  56  81 106 137 181 230 274 321
#     4  10  19  32  53  82 111 143 183 226 276 335
#
# _framework density 18.388190999999999
#
# number of rings (size 3 to 8) (size 9 to 14) (size 15 to 20)
#    0.000    2.125    2.500    2.625    0.000    2.000 
#    0.000    1.250    0.000    3.750    0.000    0.000 
#    0.000    0.000    0.000    0.000    0.000    0.000 
#
# Total GULP energy -396761.641859 kJ/mol
# GULP energy per Si atom -12398.801308 kJ/mol
# Density = 1.834634 g / cm^3
# Si number density = 18.388191 Si / 1000 Ang^3
#
#
#
# Elastic Constant Matrix: (Units=GPa)
#
#
# Indices 1 2 3 4 5 6 
#
# 1 141.5679 31.8230 57.9450 0.0000 13.9105 0.0000
# 2 31.8230 49.7443 25.7840 0.0000 3.7136 0.0000
# 3 57.9450 25.7840 103.8515 0.0000 7.5653 0.0000
# 4 0.0000 0.0000 0.0000 27.3605 0.0000 3.8163
# 5 13.9105 3.7136 7.5653 0.0000 27.1440 0.0000
# 6 0.0000 0.0000 0.0000 3.8163 0.0000 29.9236
#
#
#
# Elastic Compliance Matrix: (Units=1/GPa)
#
#
# Indices 1 2 3 4 5 6 
#
# 1 0.010081 -0.003911 -0.004406 0.000000 -0.003403 0.000000
# 2 -0.003911 0.024657 -0.003919 0.000000 -0.000277 0.000000
# 3 -0.004406 -0.003919 0.013123 0.000000 -0.000864 0.000000
# 4 0.000000 0.000000 0.000000 0.037211 0.000000 -0.004746
# 5 -0.003403 -0.000277 -0.000864 0.000000 0.038863 0.000000
# 6 0.000000 0.000000 0.000000 -0.004746 0.000000 0.034024
#
#
# Mechanical properties :
#
#
# Convention : Reuss Voigt Hill
#
# Bulk Modulus (GPa) = 42.75587 58.47420 50.61504
# Shear Modulus (GPa) = 26.28435 28.85972 27.57203
#
# Velocity S-wave (km/s) = 3.78486 3.96595 3.87646
# Velocity P-wave (km/s) = 6.51172 7.26915 6.90084
#
# Compressibility (1/GPa) = 0.02338860
#
# Stress axis : x y z
#
# Youngs Moduli (GPa) = 99.20050 40.55626 76.20050
#
# Poissons Ratio (x) = 0.15863 0.33571
# Poissons Ratio (y) = 0.38800 0.29865
# Poissons Ratio (z) = 0.43704 0.15895
#
# Static dielectric constant tensor:
#      x y z
#    x 4.270040 0.000000 -0.094630 
#    y 0.000000 3.241460 0.000000 
#    z -0.094630 0.000000 3.229260 
# 
# 
# High freq. dielectric constant tensor:
#      x y z
#    x 1.732110 0.000000 0.010040 
#    y 0.000000 1.699900 0.000000 
#    z 0.010040 0.000000 1.682580 
# 
# From -- ./inp_files/319123.got.cif
#   From: 2010.06.25/outbox.cif.g09.slc.cpg/sg12_160_cif.got.tgz:319123.got - 2010.06.28 00:19:55.
