data_PCOD8088139
_publ_section_title
;
Structure prediction by ZEFSAII (Michael W. Deem and Ramdas Pophale) SiO2 
 PCOD8088139
Probable space group: C 2/M
;
_chemical_formula_sum "Si O2"
_cell_formula_units_Z 56
_cell_length_a 20.187597
_cell_length_b 8.925375
_cell_length_c 29.981980
_cell_angle_alpha 90.000000
_cell_angle_beta 149.636101
_cell_angle_gamma 90.000000
_cell_volume 2730.763928
_symmetry_space_group_name_H-M "C 2/M"
_symmetry_group_IT_number 12
_symmetry_cell_setting 'monoclinic'
loop_
_space_group_symop_operation_xyz
x,y,z
-x,y,-z
-x,-y,-z
x,-y,z
1/2+x,1/2+y,z
1/2-x,1/2+y,-z
1/2-x,1/2-y,-z
1/2+x,1/2-y,z
loop_
_atom_site_type_symbol
_atom_site_label
_atom_site_fract_x
_atom_site_fract_y
_atom_site_fract_z
Si Si1 0.431663 0.823725 0.274219
Si Si2 0.502800 0.825877 0.091338
Si Si3 0.200242 0.826388 0.723885
Si Si4 0.413247 0.673014 0.128352
Si Si5 0.220539 0.176178 0.078944
Si Si6 0.349243 0.325260 0.404926
Si Si7 0.371433 0.672227 0.672400
O O1 0.404738 0.765673 0.308307
O O2 0.309211 0.773632 0.172179
O O3 0.566506 0.753058 0.334624
O O4 0.449161 0.000000 0.284452
O O5 0.656067 0.797656 0.172098
O O6 0.456541 0.726290 0.105482
O O7 0.474929 0.000000 0.084256
O O8 0.418671 0.764832 0.000135
O O9 0.193847 0.769360 0.669239
O O10 0.160789 0.000000 0.703276
O O11 0.369418 0.500000 0.101702
O O12 0.292479 0.773875 0.075056
O O13 0.536007 0.698191 0.231730
O O14 0.194595 0.000000 0.063542
O O15 0.500000 0.286354 0.500000
O O16 0.319319 0.500000 0.392674
O O17 0.268994 0.240985 0.396794
O O18 0.352684 0.500000 0.649063
#
# Coordination Sequence:
#
# PCOD8088139 Si02
#       7
#     8   8   8   8   8   8   8
#     4  10  22  39  60  83 115 158 199 238 283 340
#     4  11  21  33  52  78 112 152 193 239 287 336
#     4  10  22  39  59  85 117 152 190 237 290 343
#     4  10  19  32  52  79 111 149 192 238 286 335
#     4  10  21  35  51  76 111 152 196 241 283 331
#     4  10  21  40  66  93 120 149 185 232 288 349
#     4  10  20  36  61  89 118 152 191 238 287 341
#
# _framework density 20.507082
#
# number of rings (size 3 to 8) (size 9 to 14) (size 15 to 20)
#    0.000    1.857    1.429    2.571    0.000    5.429 
#    0.000    3.571    0.000    0.000    0.000    0.000 
#    0.000    0.000    0.000    0.000    0.000    0.000 
#
# Total GULP energy -347290.924117 kJ/mol
# GULP energy per Si atom -12403.247290 kJ/mol
# Density = 2.046041 g / cm^3
# Si number density = 20.507082 Si / 1000 Ang^3
#
#
#
# Elastic Constant Matrix: (Units=GPa)
#
#
# Indices 1 2 3 4 5 6 
#
# 1 109.7879 39.3377 33.0056 0.0000 17.6585 0.0000
# 2 39.3377 74.1458 39.3993 -0.0001 14.8626 0.0003
# 3 33.0056 39.3993 56.6347 -0.0003 19.4614 -0.0002
# 4 0.0000 -0.0001 -0.0003 24.7854 0.0000 4.1198
# 5 17.6585 14.8626 19.4614 0.0000 19.5411 -0.0001
# 6 0.0000 0.0003 -0.0002 4.1198 -0.0001 34.8427
#
#
#
# Elastic Compliance Matrix: (Units=1/GPa)
#
#
# Indices 1 2 3 4 5 6 
#
# 1 0.012174 -0.004108 -0.002326 0.000000 -0.005560 0.000000
# 2 -0.004108 0.022845 -0.013384 0.000000 -0.000334 0.000000
# 3 -0.002326 -0.013384 0.036644 0.000000 -0.024213 0.000000
# 4 0.000000 0.000000 0.000000 0.041155 0.000000 -0.004866
# 5 -0.005560 -0.000334 -0.024213 0.000000 0.080566 0.000000
# 6 0.000000 0.000000 0.000000 -0.004866 0.000000 0.029276
#
#
# Mechanical properties :
#
#
# Convention : Reuss Voigt Hill
#
# Bulk Modulus (GPa) = 31.22448 51.56153 41.39301
# Shear Modulus (GPa) = 18.31681 24.42221 21.36951
#
# Velocity S-wave (km/s) = 2.99188 3.45471 3.23159
# Velocity P-wave (km/s) = 5.21482 6.41180 5.84404
#
# Compressibility (1/GPa) = 0.03202615
#
# Stress axis : x y z
#
# Youngs Moduli (GPa) = 82.14159 43.77232 27.28968
#
# Poissons Ratio (x) = 0.17983 0.06348
# Poissons Ratio (y) = 0.33746 0.36525
# Poissons Ratio (z) = 0.19109 0.58585
#
# Static dielectric constant tensor:
#      x y z
#    x 3.569620 0.000000 0.086700 
#    y 0.000000 3.636050 0.000000 
#    z 0.086700 0.000000 3.756150 
# 
# 
# High freq. dielectric constant tensor:
#      x y z
#    x 1.796970 0.000000 0.009060 
#    y 0.000000 1.803290 0.000000 
#    z 0.009060 0.000000 1.788160 
# 
# From -- ./inp_files/380749.got.cif
#   From: 2010.06.25/outbox.cif.g09.slc.cpg/sg12_191_cif.got.tgz:380749.got - 2010.06.28 00:19:55.
