data_PCOD8088703
_publ_section_title
;
Structure prediction by ZEFSAII (Michael W. Deem and Ramdas Pophale) SiO2 
 PCOD8088703
Probable space group: C 2/M
;
_chemical_formula_sum "Si O2"
_cell_formula_units_Z 64
_cell_length_a 24.650334
_cell_length_b 12.634357
_cell_length_c 24.564120
_cell_angle_alpha 90.000000
_cell_angle_beta 26.691150
_cell_angle_gamma 90.000000
_cell_volume 3436.359105
_symmetry_space_group_name_H-M "C 2/M"
_symmetry_group_IT_number 12
_symmetry_cell_setting 'monoclinic'
loop_
_space_group_symop_operation_xyz
x,y,z
-x,y,-z
-x,-y,-z
x,-y,z
1/2+x,1/2+y,z
1/2-x,1/2+y,-z
1/2-x,1/2-y,-z
1/2+x,1/2-y,z
loop_
_atom_site_type_symbol
_atom_site_label
_atom_site_fract_x
_atom_site_fract_y
_atom_site_fract_z
Si Si1 0.974700 0.782433 0.457975
Si Si2 0.713455 0.125296 0.665661
Si Si3 0.711608 0.616017 0.209397
Si Si4 0.377212 0.221644 0.362109
Si Si5 0.408952 0.371343 0.856705
Si Si6 0.973857 0.378889 0.677335
Si Si7 0.901413 0.380739 0.126249
Si Si8 0.249723 0.239247 0.918044
O O1 0.842733 0.822325 0.560147
O O2 0.992898 0.671959 0.410654
O O3 0.000000 0.770922 0.500000
O O4 0.070115 0.860997 0.343991
O O5 0.647445 0.153634 0.669309
O O6 0.620593 0.169860 0.794878
O O7 0.731351 0.000000 0.654546
O O8 0.723002 0.500000 0.173052
O O9 0.770641 0.621156 0.215618
O O10 0.785759 0.696211 0.104255
O O11 0.250000 0.250000 0.500000
O O12 0.458052 0.326235 0.276998
O O13 0.436820 0.149098 0.353989
O O14 0.412240 0.500000 0.855156
O O15 0.310963 0.328528 0.901574
O O16 0.366179 0.319844 0.952467
O O17 0.982363 0.500000 0.656369
O O18 0.841515 0.351731 0.817932
O O19 0.950199 0.500000 0.091127
O O20 0.000000 0.319831 0.000000
#
# Coordination Sequence:
#
# PCOD8088703 Si02
#       8
#     8   8   8   8   8   8   8   8
#     4  11  21  36  57  85 114 149 199 242 288 352
#     4  11  22  37  58  84 117 152 191 242 297 350
#     4  10  19  32  54  82 114 148 181 230 292 348
#     4  11  23  40  56  86 116 154 197 238 291 349
#     4  10  21  38  60  83 115 151 192 243 292 347
#     4  10  21  39  59  80 116 154 192 241 290 344
#     4   9  19  33  51  79 111 146 181 224 291 347
#     4   9  20  36  57  88 111 143 193 236 293 350
#
# _framework density 18.624362000000001
#
# number of rings (size 3 to 8) (size 9 to 14) (size 15 to 20)
#    0.000    1.875    2.500    1.500    1.750    1.750 
#    0.000    1.250    0.000    0.000    0.000    0.875 
#    0.000    0.000    0.000    0.000    0.000    0.000 
#
# Total GULP energy -396520.859608 kJ/mol
# GULP energy per Si atom -12391.276863 kJ/mol
# Density = 1.858197 g / cm^3
# Si number density = 18.624362 Si / 1000 Ang^3
#
#
#
# Elastic Constant Matrix: (Units=GPa)
#
#
# Indices 1 2 3 4 5 6 
#
# 1 80.4139 31.5065 17.6107 0.0002 13.2688 0.0000
# 2 31.5065 113.7528 40.5367 -0.0001 4.6897 0.0000
# 3 17.6107 40.5367 111.1338 0.0003 10.5119 -0.0001
# 4 0.0002 -0.0001 0.0003 16.1943 -0.0002 1.9470
# 5 13.2688 4.6897 10.5119 -0.0002 29.2745 0.0001
# 6 0.0000 0.0000 -0.0001 1.9470 0.0001 21.0538
#
#
#
# Elastic Compliance Matrix: (Units=1/GPa)
#
#
# Indices 1 2 3 4 5 6 
#
# 1 0.014997 -0.003749 -0.000438 0.000000 -0.006040 0.000000
# 2 -0.003749 0.011044 -0.003548 0.000000 0.001204 0.000000
# 3 -0.000438 -0.003548 0.010651 0.000000 -0.003058 0.000000
# 4 0.000000 0.000000 0.000000 0.062444 0.000001 -0.005775
# 5 -0.006040 0.001204 -0.003058 0.000001 0.037802 0.000000
# 6 0.000000 0.000000 0.000000 -0.005775 0.000000 0.048031
#
#
# Mechanical properties :
#
#
# Convention : Reuss Voigt Hill
#
# Bulk Modulus (GPa) = 47.12001 53.84539 50.48270
# Shear Modulus (GPa) = 24.09482 27.68095 25.88788
#
# Velocity S-wave (km/s) = 3.60074 3.85941 3.73232
# Velocity P-wave (km/s) = 6.53010 6.98814 6.76300
#
# Compressibility (1/GPa) = 0.02122241
#
# Stress axis : x y z
#
# Youngs Moduli (GPa) = 66.68044 90.54602 93.88786
#
# Poissons Ratio (x) = 0.33943 0.04111
# Poissons Ratio (y) = 0.24997 0.33314
# Poissons Ratio (z) = 0.02919 0.32128
#
# Static dielectric constant tensor:
#      x y z
#    x 3.421610 0.000000 0.220490 
#    y 0.000000 3.220880 0.000000 
#    z 0.220490 0.000000 3.656310 
# 
# 
# High freq. dielectric constant tensor:
#      x y z
#    x 1.726330 0.000000 0.011520 
#    y 0.000000 1.697540 0.000000 
#    z 0.011520 0.000000 1.739620 
# 
# From -- ./inp_files/349338.got.cif
#   From: 2010.06.25/outbox.cif.g09.slc.cpg/sg12_175_cif.got.tgz:349338.got - 2010.06.28 00:19:55.
