data_PCOD8088175
_publ_section_title
;
Structure prediction by ZEFSAII (Michael W. Deem and Ramdas Pophale) SiO2 
 PCOD8088175
Probable space group: C 2/M
;
_chemical_formula_sum "Si O2"
_cell_formula_units_Z 56
_cell_length_a 35.016609
_cell_length_b 8.933030
_cell_length_c 23.327268
_cell_angle_alpha 90.000000
_cell_angle_beta 157.606305
_cell_angle_gamma 90.000000
_cell_volume 2779.879553
_symmetry_space_group_name_H-M "C 2/M"
_symmetry_group_IT_number 12
_symmetry_cell_setting 'monoclinic'
loop_
_space_group_symop_operation_xyz
x,y,z
-x,y,-z
-x,-y,-z
x,-y,z
1/2+x,1/2+y,z
1/2-x,1/2+y,-z
1/2-x,1/2-y,-z
1/2+x,1/2-y,z
loop_
_atom_site_type_symbol
_atom_site_label
_atom_site_fract_x
_atom_site_fract_y
_atom_site_fract_z
Si Si1 0.405500 0.826981 0.431115
Si Si2 0.204995 0.176744 0.815438
Si Si3 0.608595 0.173294 0.779873
Si Si4 0.499686 0.329405 0.273566
Si Si5 0.609216 0.672797 0.988774
Si Si6 0.806023 0.827994 0.392213
Si Si7 0.583747 0.173368 0.073102
O O1 0.393777 0.733798 0.356029
O O2 0.510354 0.793335 0.606133
O O3 0.318223 0.776523 0.353636
O O4 0.392698 0.000000 0.397358
O O5 0.198829 0.239171 0.872517
O O6 0.210008 0.000000 0.824730
O O7 0.299328 0.239255 0.912288
O O8 0.584938 0.232766 0.810690
O O9 0.636970 0.000000 0.823293
O O10 0.481360 0.500000 0.266991
O O11 0.485123 0.308419 0.185433
O O12 0.614025 0.280848 0.447675
O O13 0.640052 0.500000 0.038597
O O14 0.575642 0.738176 0.002642
O O15 0.691700 0.804238 0.254056
O O16 0.823425 0.000000 0.397595
O O17 0.563771 0.000000 0.031445
O O18 0.500000 0.237055 0.000000
#
# Coordination Sequence:
#
# PCOD8088175 Si02
#       7
#     8   8   8   8   8   8   8
#     4  10  19  32  52  80 113 146 188 239 285 327
#     4  12  23  34  52  78 112 153 195 236 283 338
#     4  10  21  35  53  80 113 151 193 239 282 325
#     4   9  20  38  58  81 112 153 196 234 278 332
#     4  11  23  39  59  83 114 149 189 239 288 335
#     4   9  17  34  59  83 111 150 190 227 275 336
#     4  10  21  38  62  91 118 145 182 229 283 345
#
# _framework density 20.144757999999999
#
# number of rings (size 3 to 8) (size 9 to 14) (size 15 to 20)
#    0.000    1.857    1.429    3.000    0.000    5.429 
#    0.000    0.714    0.000    0.000    0.000    0.000 
#    0.000    0.000    0.000    0.000    0.000    0.000 
#
# Total GULP energy -347179.842175 kJ/mol
# GULP energy per Si atom -12399.280078 kJ/mol
# Density = 2.009891 g / cm^3
# Si number density = 20.144758 Si / 1000 Ang^3
#
#
#
# Elastic Constant Matrix: (Units=GPa)
#
#
# Indices 1 2 3 4 5 6 
#
# 1 127.2547 52.6627 43.5486 0.0000 6.2902 0.0000
# 2 52.6627 108.2454 23.9425 0.0000 1.7304 0.0000
# 3 43.5486 23.9425 51.4084 0.0000 -1.0635 0.0000
# 4 0.0000 0.0000 0.0000 21.6624 0.0000 -2.6582
# 5 6.2902 1.7304 -1.0635 0.0000 30.0294 0.0000
# 6 0.0000 0.0000 0.0000 -2.6582 0.0000 29.4540
#
#
#
# Elastic Compliance Matrix: (Units=1/GPa)
#
#
# Indices 1 2 3 4 5 6 
#
# 1 0.012791 -0.004203 -0.008935 0.000000 -0.002754 0.000000
# 2 -0.004203 0.011698 -0.001885 0.000000 0.000140 0.000000
# 3 -0.008935 -0.001885 0.027961 0.000000 0.002970 0.000000
# 4 0.000000 0.000000 0.000000 0.046680 0.000000 0.004213
# 5 -0.002754 0.000140 0.002970 0.000000 0.033975 0.000000
# 6 0.000000 0.000000 0.000000 0.004213 0.000000 0.034331
#
#
# Mechanical properties :
#
#
# Convention : Reuss Voigt Hill
#
# Bulk Modulus (GPa) = 44.63553 58.57959 51.60756
# Shear Modulus (GPa) = 24.39623 27.34613 25.87118
#
# Velocity S-wave (km/s) = 3.48378 3.68840 3.58755
# Velocity P-wave (km/s) = 6.19579 6.87615 6.54482
#
# Compressibility (1/GPa) = 0.02240368
#
# Stress axis : x y z
#
# Youngs Moduli (GPa) = 78.17706 85.48721 35.76462
#
# Poissons Ratio (x) = 0.35929 0.31957
# Poissons Ratio (y) = 0.32856 0.06741
# Poissons Ratio (z) = 0.69854 0.16113
#
# Static dielectric constant tensor:
#      x y z
#    x 3.575580 0.000000 -0.139110 
#    y 0.000000 3.625500 0.000000 
#    z -0.139110 0.000000 3.901570 
# 
# 
# High freq. dielectric constant tensor:
#      x y z
#    x 1.763500 0.000000 -0.010960 
#    y 0.000000 1.785760 0.000000 
#    z -0.010960 0.000000 1.796470 
# 
# From -- ./inp_files/277090.got.cif
#   From: 2010.06.25/outbox.cif.g09.slc.cpg/sg12_139_cif.got.tgz:277090.got - 2010.06.28 00:19:55.
