data_PCOD8088603
_publ_section_title
;
Structure prediction by ZEFSAII (Michael W. Deem and Ramdas Pophale) SiO2 
 PCOD8088603
Probable space group: C 2/M
;
_chemical_formula_sum "Si O2"
_cell_formula_units_Z 64
_cell_length_a 20.541763
_cell_length_b 9.296448
_cell_length_c 18.012587
_cell_angle_alpha 90.000000
_cell_angle_beta 73.555989
_cell_angle_gamma 90.000000
_cell_volume 3299.083432
_symmetry_space_group_name_H-M "C 2/M"
_symmetry_group_IT_number 12
_symmetry_cell_setting 'monoclinic'
loop_
_space_group_symop_operation_xyz
x,y,z
-x,y,-z
-x,-y,-z
x,-y,z
1/2+x,1/2+y,z
1/2-x,1/2+y,-z
1/2-x,1/2-y,-z
1/2+x,1/2-y,z
loop_
_atom_site_type_symbol
_atom_site_label
_atom_site_fract_x
_atom_site_fract_y
_atom_site_fract_z
Si Si1 0.467632 0.157011 0.188160
Si Si2 0.183129 0.167888 0.003061
Si Si3 0.861780 0.167175 0.683930
Si Si4 0.378252 0.158550 0.358864
Si Si5 0.365455 0.666234 0.141335
Si Si6 0.505934 0.166021 0.410716
Si Si7 0.905609 0.836713 0.829024
Si Si8 0.228181 0.168632 0.687875
O O1 0.411435 0.140540 0.268464
O O2 0.435639 0.250181 0.132382
O O3 0.531373 0.233402 0.204840
O O4 0.488641 0.000000 0.150888
O O5 0.128683 0.209248 0.083013
O O6 0.199085 0.000000 0.998358
O O7 0.250000 0.250000 0.000000
O O8 0.159493 0.220790 0.930231
O O9 0.933503 0.233179 0.636281
O O10 0.854914 0.181808 0.775560
O O11 0.800714 0.252922 0.665097
O O12 0.858664 0.000000 0.660843
O O13 0.434109 0.219145 0.398906
O O14 0.315284 0.268193 0.367660
O O15 0.352177 0.000000 0.393465
O O16 0.384915 0.500000 0.133308
O O17 0.308392 0.697041 0.221644
O O18 0.500000 0.180756 0.500000
O O19 0.519393 0.000000 0.382147
O O20 0.932165 0.000000 0.824517
O O21 0.239362 0.000000 0.669946
#
# Coordination Sequence:
#
# PCOD8088603 Si02
#       8
#     8   8   8   8   8   8   8   8
#     4  10  19  32  54  80 105 139 181 228 274 323
#     4  10  21  36  52  72 102 142 184 228 280 329
#     4  11  22  36  57  85 116 147 185 232 276 329
#     4   9  18  35  57  83 113 144 181 224 274 329
#     4   9  19  35  53  75 107 145 184 229 280 329
#     4  10  21  39  63  88 115 146 180 224 278 334
#     4  10  21  35  53  77 107 144 183 225 275 329
#     4  10  20  34  57  84 111 148 191 232 275 326
#
# _framework density 19.399328000000001
#
# number of rings (size 3 to 8) (size 9 to 14) (size 15 to 20)
#    0.000    2.125    1.250    1.875    0.000    3.750 
#    0.000    3.125    0.000    0.000    0.000    0.000 
#    0.000    0.000    0.000    0.000    0.000    0.000 
#
# Total GULP energy -396759.729507 kJ/mol
# GULP energy per Si atom -12398.741547 kJ/mol
# Density = 1.935517 g / cm^3
# Si number density = 19.399328 Si / 1000 Ang^3
#
#
#
# Elastic Constant Matrix: (Units=GPa)
#
#
# Indices 1 2 3 4 5 6 
#
# 1 128.7350 73.1344 35.0426 0.0000 33.3903 0.0000
# 2 73.1344 105.8888 29.6458 0.0000 13.8488 0.0000
# 3 35.0426 29.6458 68.8348 0.0000 22.0793 0.0000
# 4 0.0000 0.0000 0.0000 19.8321 0.0000 4.1948
# 5 33.3903 13.8488 22.0793 0.0000 28.2017 0.0000
# 6 0.0000 0.0000 0.0000 4.1948 0.0000 39.1512
#
#
#
# Elastic Compliance Matrix: (Units=1/GPa)
#
#
# Indices 1 2 3 4 5 6 
#
# 1 0.017655 -0.010240 0.000687 0.000000 -0.016413 0.000000
# 2 -0.010240 0.016781 -0.004353 0.000000 0.007291 0.000000
# 3 0.000687 -0.004353 0.020869 0.000000 -0.015013 0.000000
# 4 0.000000 0.000000 0.000000 0.051592 0.000000 -0.005528
# 5 -0.016413 0.007291 -0.015013 0.000000 0.063065 0.000000
# 6 0.000000 0.000000 0.000000 -0.005528 0.000000 0.026134
#
#
# Mechanical properties :
#
#
# Convention : Reuss Voigt Hill
#
# Bulk Modulus (GPa) = 36.37369 64.34490 50.35929
# Shear Modulus (GPa) = 21.45252 28.47939 24.96596
#
# Velocity S-wave (km/s) = 3.32902 3.83568 3.59130
# Velocity P-wave (km/s) = 5.79372 7.27030 6.57360
#
# Compressibility (1/GPa) = 0.02749240
#
# Stress axis : x y z
#
# Youngs Moduli (GPa) = 56.64104 59.59034 47.91907
#
# Poissons Ratio (x) = 0.61018 -0.03290
# Poissons Ratio (y) = 0.57998 0.20860
# Poissons Ratio (z) = -0.03889 0.25941
#
# Static dielectric constant tensor:
#      x y z
#    x 3.440720 0.000000 0.233280 
#    y 0.000000 3.727010 0.000000 
#    z 0.233280 0.000000 3.709210 
# 
# 
# High freq. dielectric constant tensor:
#      x y z
#    x 1.753560 0.000000 0.019410 
#    y 0.000000 1.759180 0.000000 
#    z 0.019410 0.000000 1.741010 
# 
# From -- ./inp_files/281342.got.cif
#   From: 2010.06.25/outbox.cif.g09.slc.cpg/sg12_141_cif.got.tgz:281342.got - 2010.06.28 00:19:55.
