data_PCOD8088059
_publ_section_title
;
Structure prediction by ZEFSAII (Michael W. Deem and Ramdas Pophale) SiO2 
 PCOD8088059
Probable space group: C 2/M
;
_chemical_formula_sum "Si O2"
_cell_formula_units_Z 48
_cell_length_a 27.461782
_cell_length_b 9.332049
_cell_length_c 14.664065
_cell_angle_alpha 90.000000
_cell_angle_beta 139.315787
_cell_angle_gamma 90.000000
_cell_volume 2449.819457
_symmetry_space_group_name_H-M "C 2/M"
_symmetry_group_IT_number 12
_symmetry_cell_setting 'monoclinic'
loop_
_space_group_symop_operation_xyz
x,y,z
-x,y,-z
-x,-y,-z
x,-y,z
1/2+x,1/2+y,z
1/2-x,1/2+y,-z
1/2-x,1/2-y,-z
1/2+x,1/2-y,z
loop_
_atom_site_type_symbol
_atom_site_label
_atom_site_fract_x
_atom_site_fract_y
_atom_site_fract_z
Si Si1 0.232213 0.835265 0.065999
Si Si2 0.502601 0.168967 0.653814
Si Si3 0.607893 0.836849 0.650433
Si Si4 0.865754 0.832481 0.912212
Si Si5 0.522262 0.666271 0.199771
Si Si6 0.182884 0.829189 0.352113
O O1 0.304243 0.819016 0.233134
O O2 0.167058 0.769275 0.038345
O O3 0.217385 0.000000 0.017077
O O4 0.250000 0.750000 0.000000
O O5 0.431019 0.227416 0.494709
O O6 0.575834 0.222701 0.701316
O O7 0.502601 0.248267 0.748103
O O8 0.501253 0.000000 0.672465
O O9 0.580961 0.000000 0.613239
O O10 0.822419 0.775165 0.760707
O O11 0.848993 0.000000 0.892510
O O12 0.955100 0.804081 0.031398
O O13 0.525253 0.500000 0.228439
O O14 0.603027 0.717486 0.280309
O O15 0.250000 0.750000 0.500000
O O16 0.195146 0.000000 0.376417
#
# Coordination Sequence:
#
# PCOD8088059 Si02
#       6
#     8   8   8   8   8   8
#     4  10  19  32  52  77 105 140 181 220 261 315
#     4   9  17  31  52  76 104 142 181 218 263 317
#     4   8  16  30  48  73 105 140 181 220 257 311
#     4   9  19  36  58  79 106 148 185 213 264 333
#     4  10  20  35  55  80 109 138 176 223 271 320
#     4  10  22  39  59  82 108 140 181 228 272 321
#
# _framework density 19.59328
#
# number of rings (size 3 to 8) (size 9 to 14) (size 15 to 20)
#    0.000    2.667    0.000    2.500    2.333    2.667 
#    0.000    4.167    0.000    2.000    0.000    0.000 
#    0.000    0.000    0.000    0.000    0.000    0.000 
#
# Total GULP energy -297313.151488 kJ/mol
# GULP energy per Si atom -12388.047979 kJ/mol
# Density = 1.954868 g / cm^3
# Si number density = 19.593280 Si / 1000 Ang^3
#
#
#
# Elastic Constant Matrix: (Units=GPa)
#
#
# Indices 1 2 3 4 5 6 
#
# 1 111.1613 28.8806 62.0299 0.0000 2.1975 0.0000
# 2 28.8806 30.8229 30.1218 0.0000 -1.3872 0.0000
# 3 62.0299 30.1218 113.9525 0.0000 2.5380 0.0000
# 4 0.0000 0.0000 0.0000 23.5253 0.0000 -1.3002
# 5 2.1975 -1.3872 2.5380 0.0000 38.1126 0.0000
# 6 0.0000 0.0000 0.0000 -1.3002 0.0000 26.0277
#
#
#
# Elastic Compliance Matrix: (Units=1/GPa)
#
#
# Indices 1 2 3 4 5 6 
#
# 1 0.014189 -0.007814 -0.005642 0.000000 -0.000727 0.000000
# 2 -0.007814 0.048260 -0.008565 0.000000 0.002777 0.000000
# 3 -0.005642 -0.008565 0.014132 0.000000 -0.000928 0.000000
# 4 0.000000 0.000000 0.000000 0.042625 0.000000 0.002129
# 5 -0.000727 0.002777 -0.000928 0.000000 0.026443 0.000000
# 6 0.000000 0.000000 0.000000 0.002129 0.000000 0.038527
#
#
# Mechanical properties :
#
#
# Convention : Reuss Voigt Hill
#
# Bulk Modulus (GPa) = 30.73290 55.33350 43.03320
# Shear Modulus (GPa) = 20.91492 26.52675 23.72084
#
# Velocity S-wave (km/s) = 3.27074 3.68349 3.48323
# Velocity P-wave (km/s) = 5.47568 6.81125 6.17965
#
# Compressibility (1/GPa) = 0.03253842
#
# Stress axis : x y z
#
# Youngs Moduli (GPa) = 70.47879 20.72094 70.76337
#
# Poissons Ratio (x) = 0.16191 0.39924
# Poissons Ratio (y) = 0.55070 0.60612
# Poissons Ratio (z) = 0.39764 0.17748
#
# Static dielectric constant tensor:
#      x y z
#    x 3.712260 0.000000 0.103350 
#    y 0.000000 3.123900 0.000000 
#    z 0.103350 0.000000 3.776710 
# 
# 
# High freq. dielectric constant tensor:
#      x y z
#    x 1.772850 0.000000 0.005050 
#    y 0.000000 1.711200 0.000000 
#    z 0.005050 0.000000 1.778860 
# 
# From -- ./inp_files/244855.got.cif
#   From: 2010.06.25/outbox.cif.g09.slc.cpg/sg12_123_cif.got.tgz:244855.got - 2010.06.28 00:19:55.
