data_PCOD8088099
_publ_section_title
;
Structure prediction by ZEFSAII (Michael W. Deem and Ramdas Pophale) SiO2 
 PCOD8088099
Probable space group: C 2/M
;
_chemical_formula_sum "Si O2"
_cell_formula_units_Z 36
_cell_length_a 16.307951
_cell_length_b 16.278121
_cell_length_c 17.586383
_cell_angle_alpha 90.000000
_cell_angle_beta 155.077727
_cell_angle_gamma 90.000000
_cell_volume 1967.264506
_symmetry_space_group_name_H-M "C 2/M"
_symmetry_group_IT_number 12
_symmetry_cell_setting 'monoclinic'
loop_
_space_group_symop_operation_xyz
x,y,z
-x,y,-z
-x,-y,-z
x,-y,z
1/2+x,1/2+y,z
1/2-x,1/2+y,-z
1/2-x,1/2-y,-z
1/2+x,1/2-y,z
loop_
_atom_site_type_symbol
_atom_site_label
_atom_site_fract_x
_atom_site_fract_y
_atom_site_fract_z
Si Si1 0.631905 0.166867 0.406597
Si Si2 0.502121 0.408631 0.681729
Si Si3 0.079883 0.594912 0.913576
Si Si4 0.581976 0.744438 0.651168
Si Si5 0.500000 0.182323 0.000000
O O1 0.750000 0.250000 0.500000
O O2 0.799451 0.097520 0.558888
O O3 0.507150 0.149928 0.226419
O O4 0.484022 0.177865 0.352528
O O5 0.519901 0.500000 0.661572
O O6 0.498270 0.343249 0.609761
O O7 0.686701 0.391529 0.891358
O O8 0.023982 0.500000 0.853475
O O9 0.990960 0.623681 0.918938
O O10 0.500000 0.762275 0.500000
O O11 0.815000 0.742220 0.846397
#
# Coordination Sequence:
#
# PCOD8088099 Si02
#       5
#     8   8   8   8   4
#     4  10  20  33  51  74 104 140 173 205 248 301
#     4   9  19  34  54  78 101 131 170 211 256 305
#     4  10  20  34  54  79 105 134 168 208 256 307
#     4  10  21  33  49  77 106 136 171 206 252 303
#     4  10  19  32  52  78 109 134 162 206 257 310
#
# _framework density 18.299522
#
# number of rings (size 3 to 8) (size 9 to 14) (size 15 to 20)
#    0.000    2.222    0.000    3.667    0.000   11.111 
#    0.000    0.000    0.000    2.667    0.000    6.222 
#    0.000    0.000    0.000    0.000    0.000    0.000 
#
# Total GULP energy -223107.225816 kJ/mol
# GULP energy per Si atom -12394.845879 kJ/mol
# Density = 1.825787 g / cm^3
# Si number density = 18.299522 Si / 1000 Ang^3
#
#
#
# Elastic Constant Matrix: (Units=GPa)
#
#
# Indices 1 2 3 4 5 6 
#
# 1 124.2234 55.0295 83.5779 -0.0005 -1.6553 0.0066
# 2 55.0295 44.8372 42.0076 0.0042 -10.4129 0.0060
# 3 83.5779 42.0076 125.9054 0.0136 -4.7346 0.0139
# 4 -0.0005 0.0042 0.0136 27.3499 0.0012 1.1086
# 5 -1.6553 -10.4129 -4.7346 0.0012 42.4874 0.0070
# 6 0.0066 0.0060 0.0139 1.1086 0.0070 22.9119
#
#
#
# Elastic Compliance Matrix: (Units=1/GPa)
#
#
# Indices 1 2 3 4 5 6 
#
# 1 0.023431 -0.022200 -0.008352 0.000008 -0.005459 0.000005
# 2 -0.022200 0.055543 -0.003330 -0.000007 0.012377 -0.000009
# 3 -0.008352 -0.003330 0.014616 -0.000007 0.000487 -0.000005
# 4 0.000008 -0.000007 -0.000007 0.036635 -0.000003 -0.001773
# 5 -0.005459 0.012377 0.000487 -0.000003 0.026411 -0.000010
# 6 0.000005 -0.000009 -0.000005 -0.001773 -0.000010 0.043731
#
#
# Mechanical properties :
#
#
# Convention : Reuss Voigt Hill
#
# Bulk Modulus (GPa) = 38.71974 72.91067 55.81520
# Shear Modulus (GPa) = 18.06755 26.17324 22.12040
#
# Velocity S-wave (km/s) = 3.14558 3.78599 3.48055
# Velocity P-wave (km/s) = 5.86496 7.68382 6.83516
#
# Compressibility (1/GPa) = 0.02582662
#
# Stress axis : x y z
#
# Youngs Moduli (GPa) = 42.67873 18.00413 68.41793
#
# Poissons Ratio (x) = 0.39969 0.57144
# Poissons Ratio (y) = 0.94745 0.22781
# Poissons Ratio (z) = 0.35646 0.05995
#
# Static dielectric constant tensor:
#      x y z
#    x 3.768280 0.000060 0.433660 
#    y 0.000060 3.504230 0.000010 
#    z 0.433660 0.000010 3.629950 
# 
# 
# High freq. dielectric constant tensor:
#      x y z
#    x 1.693530 0.000000 0.018740 
#    y 0.000000 1.687720 0.000000 
#    z 0.018740 0.000000 1.727520 
# 
# From -- ./inp_files/58453.got.cif
#   From: 2010.06.25/outbox.cif.g09.slc.cpg/sg12_30_cif.got.tgz:58453.got - 2010.06.28 00:19:55.
