data_PCOD8088759
_publ_section_title
;
Structure prediction by ZEFSAII (Michael W. Deem and Ramdas Pophale) SiO2 
 PCOD8088759
Probable space group: C 2/M
;
_chemical_formula_sum "Si O2"
_cell_formula_units_Z 64
_cell_length_a 14.879182
_cell_length_b 16.145242
_cell_length_c 16.240821
_cell_angle_alpha 90.000000
_cell_angle_beta 120.108676
_cell_angle_gamma 90.000000
_cell_volume 3375.091816
_symmetry_space_group_name_H-M "C 2/M"
_symmetry_group_IT_number 12
_symmetry_cell_setting 'monoclinic'
loop_
_space_group_symop_operation_xyz
x,y,z
-x,y,-z
-x,-y,-z
x,-y,z
1/2+x,1/2+y,z
1/2-x,1/2+y,-z
1/2-x,1/2-y,-z
1/2+x,1/2-y,z
loop_
_atom_site_type_symbol
_atom_site_label
_atom_site_fract_x
_atom_site_fract_y
_atom_site_fract_z
Si Si1 0.337280 0.664091 0.817826
Si Si2 0.223602 0.331919 0.298319
Si Si3 0.609669 0.230558 0.014596
Si Si4 0.546026 0.815110 0.330476
Si Si5 0.884739 0.262946 0.468759
Si Si6 0.136814 0.593673 0.666117
Si Si7 0.763103 0.906187 0.147401
Si Si8 0.043477 0.181738 0.826371
O O1 0.299082 0.747751 0.758874
O O2 0.246084 0.596698 0.766349
O O3 0.445493 0.636118 0.824966
O O4 0.354858 0.685404 0.921829
O O5 0.119171 0.361492 0.297410
O O6 0.312713 0.313339 0.406791
O O7 0.256261 0.397618 0.243816
O O8 0.600965 0.254633 0.915061
O O9 0.500000 0.199456 0.000000
O O10 0.687998 0.154627 0.062406
O O11 0.622071 0.780720 0.437201
O O12 0.459152 0.878847 0.320971
O O13 0.490129 0.735009 0.267568
O O14 0.856022 0.349191 0.410851
O O15 0.000000 0.234346 0.500000
O O16 0.117349 0.500000 0.628452
O O17 0.880189 0.888750 0.171652
O O18 0.733932 0.000000 0.111069
#
# Coordination Sequence:
#
# PCOD8088759 Si02
#       8
#     8   8   8   8   8   8   8   8
#     4   8  17  34  56  77  96 129 172 213 252 297
#     4   9  18  34  52  74 102 134 175 211 247 298
#     4   9  18  36  58  76  98 132 175 217 254 297
#     4  10  19  32  55  78  99 136 178 216 250 296
#     4   9  17  31  54  78  99 131 176 219 256 297
#     4  10  20  33  50  77 110 134 159 207 267 313
#     4  11  22  34  51  77 110 140 166 206 261 316
#     4  10  19  35  57  76  99 135 178 215 248 295
#
# _framework density 18.962447999999998
#
# number of rings (size 3 to 8) (size 9 to 14) (size 15 to 20)
#    0.000    2.500    0.000    4.500    0.000    3.500 
#    0.000    2.500    0.000    5.625    0.000    0.000 
#    0.000    0.000    0.000    0.000    0.000    0.000 
#
# Total GULP energy -396708.182981 kJ/mol
# GULP energy per Si atom -12397.130718 kJ/mol
# Density = 1.891929 g / cm^3
# Si number density = 18.962448 Si / 1000 Ang^3
#
#
#
# Elastic Constant Matrix: (Units=GPa)
#
#
# Indices 1 2 3 4 5 6 
#
# 1 84.8688 29.8105 35.2901 0.0000 4.7625 0.0000
# 2 29.8105 60.8054 29.1023 0.0000 -1.1163 0.0000
# 3 35.2901 29.1023 89.1179 0.0000 4.2419 0.0000
# 4 0.0000 0.0000 0.0000 11.6886 0.0000 -1.5939
# 5 4.7625 -1.1163 4.2419 0.0000 31.3622 0.0000
# 6 0.0000 0.0000 0.0000 -1.5939 0.0000 8.4113
#
#
#
# Elastic Compliance Matrix: (Units=1/GPa)
#
#
# Indices 1 2 3 4 5 6 
#
# 1 0.015657 -0.005679 -0.004250 0.000000 -0.002005 0.000000
# 2 -0.005679 0.021629 -0.004924 0.000000 0.002298 0.000000
# 3 -0.004250 -0.004924 0.014584 0.000000 -0.001502 0.000000
# 4 0.000000 0.000000 0.000000 0.087823 0.000000 0.016642
# 5 -0.002005 0.002298 -0.001502 0.000000 0.032475 0.000000
# 6 0.000000 0.000000 0.000000 0.016642 0.000000 0.122041
#
#
# Mechanical properties :
#
#
# Convention : Reuss Voigt Hill
#
# Bulk Modulus (GPa) = 45.11796 47.02199 46.06997
# Shear Modulus (GPa) = 15.09193 19.66503 17.37848
#
# Velocity S-wave (km/s) = 2.82420 3.22382 3.03061
# Velocity P-wave (km/s) = 5.87195 6.22163 6.04932
#
# Compressibility (1/GPa) = 0.02216412
#
# Stress axis : x y z
#
# Youngs Moduli (GPa) = 63.86724 46.23484 68.57017
#
# Poissons Ratio (x) = 0.26256 0.29145
# Poissons Ratio (y) = 0.36269 0.33762
# Poissons Ratio (z) = 0.27146 0.22765
#
# Static dielectric constant tensor:
#      x y z
#    x 3.713470 0.000000 0.139780 
#    y 0.000000 2.967640 0.000000 
#    z 0.139780 0.000000 3.908940 
# 
# 
# High freq. dielectric constant tensor:
#      x y z
#    x 1.752630 0.000000 0.005960 
#    y 0.000000 1.683700 0.000000 
#    z 0.005960 0.000000 1.747550 
# 
# From -- ./inp_files/216385.got.cif
#   From: 2010.06.25/outbox.cif.g09.slc.cpg/sg12_109_cif.got.tgz:216385.got - 2010.06.28 00:19:55.
