data_PCOD8088985
_publ_section_title
;
Structure prediction by ZEFSAII (Michael W. Deem and Ramdas Pophale) SiO2 
 PCOD8088985
Probable space group: C 2/M
;
_chemical_formula_sum "Si O2"
_cell_formula_units_Z 56
_cell_length_a 21.868705
_cell_length_b 23.550512
_cell_length_c 15.874984
_cell_angle_alpha 90.000000
_cell_angle_beta 158.164007
_cell_angle_gamma 90.000000
_cell_volume 3041.042472
_symmetry_space_group_name_H-M "C 2/M"
_symmetry_group_IT_number 12
_symmetry_cell_setting 'monoclinic'
loop_
_space_group_symop_operation_xyz
x,y,z
-x,y,-z
-x,-y,-z
x,-y,z
1/2+x,1/2+y,z
1/2-x,1/2+y,-z
1/2-x,1/2-y,-z
1/2+x,1/2-y,z
loop_
_atom_site_type_symbol
_atom_site_label
_atom_site_fract_x
_atom_site_fract_y
_atom_site_fract_z
Si Si1 0.014526 0.326760 0.265256
Si Si2 0.010407 0.215173 0.151858
Si Si3 0.629169 0.340124 0.559771
Si Si4 0.785582 0.500000 0.638464
Si Si5 0.236457 0.278157 0.670320
Si Si6 0.284367 0.386158 0.163922
Si Si7 0.676250 0.000000 0.113861
Si Si8 0.780956 0.879374 0.496860
O O1 0.991560 0.262338 0.200704
O O2 0.116120 0.327756 0.483041
O O3 0.108444 0.365195 0.318091
O O4 0.845742 0.360015 0.068501
O O5 0.143626 0.237696 0.254764
O O6 0.068033 0.155017 0.266318
O O7 0.838333 0.203554 0.883290
O O8 0.608395 0.272660 0.524656
O O9 0.463158 0.377686 0.351153
O O10 0.734287 0.346298 0.778527
O O11 0.741013 0.362034 0.627800
O O12 0.756515 0.500000 0.703407
O O13 0.696011 0.447339 0.477064
O O14 0.979474 0.500000 0.865322
O O15 0.249453 0.449139 0.151348
#
# Coordination Sequence:
#
# PCOD8088985 Si02
#       8
#     8   8   8   4   8   8   4   8
#     4  11  19  34  57  80 108 148 183 230 274 333
#     4  10  19  32  58  82 112 142 179 239 275 328
#     4  11  21  34  52  82 115 146 182 220 270 340
#     4  11  22  33  62  81 107 144 196 238 265 338
#     4  10  19  33  54  83 111 145 178 220 287 328
#     4  11  24  34  52  80 118 151 179 227 274 329
#     4  11  22  38  53  83 113 152 182 232 286 323
#     4  11  20  36  55  83 105 146 189 226 273 324
#
# _framework density 18.414736999999999
#
# number of rings (size 3 to 8) (size 9 to 14) (size 15 to 20)
#    0.000    1.286    7.143    0.857    0.000    2.857 
#    0.000    0.000    0.000    7.714    0.000    0.000 
#    0.000    2.286    0.000    0.000    0.000    0.000 
#
# Total GULP energy -346901.747066 kJ/mol
# GULP energy per Si atom -12389.348110 kJ/mol
# Density = 1.837282 g / cm^3
# Si number density = 18.414737 Si / 1000 Ang^3
#
#
#
# Elastic Constant Matrix: (Units=GPa)
#
#
# Indices 1 2 3 4 5 6 
#
# 1 31.0909 25.1310 14.2995 0.0000 -8.8859 0.0000
# 2 25.1310 124.2610 45.8445 0.0000 -1.0133 0.0000
# 3 14.2995 45.8445 94.4047 0.0000 -10.0050 0.0000
# 4 0.0000 0.0000 0.0000 27.8532 0.0000 -2.8115
# 5 -8.8859 -1.0133 -10.0050 0.0000 18.6430 0.0000
# 6 0.0000 0.0000 0.0000 -2.8115 0.0000 19.1603
#
#
#
# Elastic Compliance Matrix: (Units=1/GPa)
#
#
# Indices 1 2 3 4 5 6 
#
# 1 0.045537 -0.008913 -0.000340 0.000000 0.021037 0.000000
# 2 -0.008913 0.011630 -0.004963 0.000000 -0.006279 0.000000
# 3 -0.000340 -0.004963 0.013793 0.000000 0.006971 0.000000
# 4 0.000000 0.000000 0.000000 0.036442 0.000000 0.005347
# 5 0.021037 -0.006279 0.006971 0.000000 0.067066 0.000000
# 6 0.000000 0.000000 0.000000 0.005347 0.000000 0.052976
#
#
# Mechanical properties :
#
#
# Convention : Reuss Voigt Hill
#
# Bulk Modulus (GPa) = 23.51363 46.70074 35.10719
# Shear Modulus (GPa) = 18.51500 24.09674 21.30587
#
# Velocity S-wave (km/s) = 3.17431 3.62132 3.40516
# Velocity P-wave (km/s) = 5.12169 6.54988 5.87931
#
# Compressibility (1/GPa) = 0.04252852
#
# Stress axis : x y z
#
# Youngs Moduli (GPa) = 21.96035 85.98447 72.49987
#
# Poissons Ratio (x) = 0.76634 0.02464
# Poissons Ratio (y) = 0.19572 0.35983
# Poissons Ratio (z) = 0.00746 0.42676
#
# Static dielectric constant tensor:
#      x y z
#    x 3.296810 0.000000 -0.135400 
#    y 0.000000 3.375930 0.000000 
#    z -0.135400 0.000000 3.401570 
# 
# 
# High freq. dielectric constant tensor:
#      x y z
#    x 1.695110 0.000000 -0.001190 
#    y 0.000000 1.700960 0.000000 
#    z -0.001190 0.000000 1.708380 
# 
# From -- ./inp_files/291056.got.cif
#   From: 2010.06.25/outbox.cif.g09.slc.cpg/sg12_146_cif.got.tgz:291056.got - 2010.06.28 00:19:55.
