data_PCOD8088618
_publ_section_title
;
Structure prediction by ZEFSAII (Michael W. Deem and Ramdas Pophale) SiO2 
 PCOD8088618
Probable space group: C 2/M
;
_chemical_formula_sum "Si O2"
_cell_formula_units_Z 56
_cell_length_a 18.542986
_cell_length_b 8.955030
_cell_length_c 26.576704
_cell_angle_alpha 90.000000
_cell_angle_beta 42.342198
_cell_angle_gamma 90.000000
_cell_volume 2972.502515
_symmetry_space_group_name_H-M "C 2/M"
_symmetry_group_IT_number 12
_symmetry_cell_setting 'monoclinic'
loop_
_space_group_symop_operation_xyz
x,y,z
-x,y,-z
-x,-y,-z
x,-y,z
1/2+x,1/2+y,z
1/2-x,1/2+y,-z
1/2-x,1/2-y,-z
1/2+x,1/2-y,z
loop_
_atom_site_type_symbol
_atom_site_label
_atom_site_fract_x
_atom_site_fract_y
_atom_site_fract_z
Si Si1 0.989382 0.822815 0.426800
Si Si2 0.397713 0.335817 0.017351
Si Si3 0.407834 0.177028 0.270038
Si Si4 0.217456 0.329009 0.841996
Si Si5 0.968697 0.172667 0.705346
Si Si6 0.053496 0.823056 0.854091
Si Si7 0.168918 0.822549 0.408429
O O1 0.883115 0.769554 0.511596
O O2 0.985297 0.766606 0.371572
O O3 0.095419 0.761457 0.400631
O O4 0.997525 0.000000 0.422736
O O5 0.344475 0.500000 0.039945
O O6 0.311940 0.223663 0.086073
O O7 0.500000 0.347041 0.000000
O O8 0.442623 0.280317 0.940182
O O9 0.482283 0.223103 0.277593
O O10 0.455663 0.248958 0.195358
O O11 0.288410 0.241393 0.341336
O O12 0.407700 0.000000 0.264200
O O13 0.182665 0.500000 0.853952
O O14 0.342145 0.306602 0.769457
O O15 0.157011 0.235521 0.830543
O O16 0.999509 0.000000 0.699176
O O17 0.064933 0.000000 0.843264
O O18 0.172356 0.000000 0.405239
#
# Coordination Sequence:
#
# PCOD8088618 Si02
#       7
#     8   8   8   8   8   8   8
#     4   8  14  29  53  75  99 132 167 206 254 305
#     4   8  16  31  51  76 103 131 165 207 256 307
#     4  11  22  34  50  75 105 136 175 217 254 298
#     4  10  19  32  54  81 105 131 170 215 253 299
#     4  10  21  35  50  73 106 142 175 206 250 306
#     4  10  20  35  55  77 103 135 170 209 257 311
#     4   8  15  29  51  78 101 126 167 214 255 298
#
# _framework density 18.839344000000001
#
# number of rings (size 3 to 8) (size 9 to 14) (size 15 to 20)
#    0.000    2.714    0.000    3.857    0.000    7.143 
#    0.000    0.714    0.000    0.857    0.000    6.000 
#    0.000    0.000    0.000    0.000    0.000    0.000 
#
# Total GULP energy -347091.558597 kJ/mol
# GULP energy per Si atom -12396.127093 kJ/mol
# Density = 1.879646 g / cm^3
# Si number density = 18.839344 Si / 1000 Ang^3
#
#
#
# Elastic Constant Matrix: (Units=GPa)
#
#
# Indices 1 2 3 4 5 6 
#
# 1 78.6734 30.5305 42.9349 0.0000 32.2790 -0.0002
# 2 30.5305 60.1961 36.2462 -0.0001 12.4243 -0.0007
# 3 42.9349 36.2462 110.2638 0.0000 40.6217 0.0001
# 4 0.0000 -0.0001 0.0000 15.5025 0.0000 2.3649
# 5 32.2790 12.4243 40.6217 0.0000 26.4296 0.0000
# 6 -0.0002 -0.0007 0.0001 2.3649 0.0000 20.9908
#
#
#
# Elastic Compliance Matrix: (Units=1/GPa)
#
#
# Indices 1 2 3 4 5 6 
#
# 1 0.031464 -0.011586 0.008547 0.000000 -0.046118 0.000000
# 2 -0.011586 0.025011 -0.010586 0.000000 0.018663 0.000001
# 3 0.008547 -0.010586 0.025897 0.000000 -0.045265 0.000000
# 4 0.000000 0.000000 0.000000 0.065634 -0.000001 -0.007395
# 5 -0.046118 0.018663 -0.045265 -0.000001 0.154959 0.000000
# 6 0.000000 0.000001 0.000000 -0.007395 0.000000 0.048473
#
#
# Mechanical properties :
#
#
# Convention : Reuss Voigt Hill
#
# Bulk Modulus (GPa) = 18.14148 52.06186 35.10167
# Shear Modulus (GPa) = 12.59251 21.87936 17.23593
#
# Velocity S-wave (km/s) = 2.58818 3.41158 3.02800
# Velocity P-wave (km/s) = 4.31069 6.57367 5.55856
#
# Compressibility (1/GPa) = 0.05512231
#
# Stress axis : x y z
#
# Youngs Moduli (GPa) = 31.78197 39.98288 38.61493
#
# Poissons Ratio (x) = 0.46325 -0.33004
# Poissons Ratio (y) = 0.36823 0.40877
# Poissons Ratio (z) = -0.27164 0.42325
#
# Static dielectric constant tensor:
#      x y z
#    x 3.283490 0.000000 0.242150 
#    y 0.000000 3.252410 0.000000 
#    z 0.242150 0.000000 4.028890 
# 
# 
# High freq. dielectric constant tensor:
#      x y z
#    x 1.709330 0.000000 0.013310 
#    y 0.000000 1.705370 0.000000 
#    z 0.013310 0.000000 1.750070 
# 
# From -- ./inp_files/362901.got.cif
#   From: 2010.06.25/outbox.cif.g09.slc.cpg/sg12_182_cif.got.tgz:362901.got - 2010.06.28 00:19:55.
