data_PCOD8088316
_publ_section_title
;
Structure prediction by ZEFSAII (Michael W. Deem and Ramdas Pophale) SiO2 
 PCOD8088316
Probable space group: C 2/M
;
_chemical_formula_sum "Si O2"
_cell_formula_units_Z 40
_cell_length_a 19.494530
_cell_length_b 8.577440
_cell_length_c 22.998472
_cell_angle_alpha 90.000000
_cell_angle_beta 146.023132
_cell_angle_gamma 90.000000
_cell_volume 2149.171289
_symmetry_space_group_name_H-M "C 2/M"
_symmetry_group_IT_number 12
_symmetry_cell_setting 'monoclinic'
loop_
_space_group_symop_operation_xyz
x,y,z
-x,y,-z
-x,-y,-z
x,-y,z
1/2+x,1/2+y,z
1/2-x,1/2+y,-z
1/2-x,1/2-y,-z
1/2+x,1/2-y,z
loop_
_atom_site_type_symbol
_atom_site_label
_atom_site_fract_x
_atom_site_fract_y
_atom_site_fract_z
Si Si1 0.958415 0.683582 0.791548
Si Si2 0.692241 0.819106 0.015918
Si Si3 0.577740 0.317143 0.760869
Si Si4 0.509250 0.181405 0.592899
Si Si5 0.684796 0.683104 0.626108
O O1 0.961270 0.500000 0.778713
O O2 0.823432 0.740321 0.713801
O O3 0.002110 0.778055 0.765890
O O4 0.046470 0.720302 0.910165
O O5 0.777103 0.764617 0.130115
O O6 0.714053 0.000000 0.027069
O O7 0.750000 0.750000 0.000000
O O8 0.565100 0.500000 0.738109
O O9 0.520857 0.219175 0.668685
O O10 0.394361 0.276275 0.486413
O O11 0.633144 0.228895 0.646296
O O12 0.483419 0.000000 0.565899
O O13 0.678458 0.500000 0.633723
#
# Coordination Sequence:
#
# PCOD8088316 Si02
#       5
#     8   8   8   8   8
#     4   9  18  33  54  79 104 130 163 206 252 297
#     4   8  15  29  49  74 102 131 162 198 245 295
#     4  10  19  32  53  78 104 134 168 205 244 293
#     4  11  22  36  53  72 100 135 170 209 251 297
#     4  10  20  36  56  75  99 131 167 207 253 304
#
# _framework density 18.611825
#
# number of rings (size 3 to 8) (size 9 to 14) (size 15 to 20)
#    0.000    2.400    0.000    4.200    0.000    3.200 
#    0.000    1.000    0.000    6.000    0.000    0.000 
#    0.000    0.000    0.000    0.000    0.000    0.000 
#
# Total GULP energy -247792.268187 kJ/mol
# GULP energy per Si atom -12389.613409 kJ/mol
# Density = 1.856946 g / cm^3
# Si number density = 18.611825 Si / 1000 Ang^3
#
#
#
# Elastic Constant Matrix: (Units=GPa)
#
#
# Indices 1 2 3 4 5 6 
#
# 1 41.5261 9.6860 28.6287 0.0000 21.2374 0.0000
# 2 9.6860 34.3470 7.1693 0.0000 2.6762 0.0000
# 3 28.6287 7.1693 80.8223 0.0000 32.1845 0.0000
# 4 0.0000 0.0000 0.0000 19.7178 0.0000 -2.7331
# 5 21.2374 2.6762 32.1845 0.0000 27.4017 0.0000
# 6 0.0000 0.0000 0.0000 -2.7331 0.0000 27.3673
#
#
#
# Elastic Compliance Matrix: (Units=1/GPa)
#
#
# Indices 1 2 3 4 5 6 
#
# 1 0.043133 -0.009299 -0.002824 0.000000 -0.029205 0.000000
# 2 -0.009299 0.031670 -0.002167 0.000000 0.006660 0.000000
# 3 -0.002824 -0.002167 0.023690 0.000000 -0.025424 0.000000
# 4 0.000000 0.000000 0.000000 0.051428 0.000000 0.005136
# 5 -0.029205 0.006660 -0.025424 0.000000 0.088340 0.000000
# 6 0.000000 0.000000 0.000000 0.005136 0.000000 0.037053
#
#
# Mechanical properties :
#
#
# Convention : Reuss Voigt Hill
#
# Bulk Modulus (GPa) = 14.30349 27.51814 20.91081
# Shear Modulus (GPa) = 15.28125 22.31146 18.79636
#
# Velocity S-wave (km/s) = 2.86851 3.46609 3.18136
# Velocity P-wave (km/s) = 4.32122 5.55300 4.97538
#
# Compressibility (1/GPa) = 0.06991303
#
# Stress axis : x y z
#
# Youngs Moduli (GPa) = 23.18406 31.57521 42.21263
#
# Poissons Ratio (x) = 0.29361 0.11920
# Poissons Ratio (y) = 0.21558 0.09150
# Poissons Ratio (z) = 0.06547 0.06844
#
# Static dielectric constant tensor:
#      x y z
#    x 3.113790 0.000000 0.165020 
#    y 0.000000 3.495220 0.000000 
#    z 0.165020 0.000000 4.134830 
# 
# 
# High freq. dielectric constant tensor:
#      x y z
#    x 1.685920 0.000000 0.004900 
#    y 0.000000 1.726340 0.000000 
#    z 0.004900 0.000000 1.744210 
# 
# From -- ./inp_files/162504.got.cif
#   From: 2010.06.25/outbox.cif.g09.slc.cpg/sg12_82_cif.got.tgz:162504.got - 2010.06.28 00:19:55.
