data_PCOD8088783
_publ_section_title
;
Structure prediction by ZEFSAII (Michael W. Deem and Ramdas Pophale) SiO2 
 PCOD8088783
Probable space group: C 2/M
;
_chemical_formula_sum "Si O2"
_cell_formula_units_Z 64
_cell_length_a 15.583568
_cell_length_b 9.125457
_cell_length_c 24.824373
_cell_angle_alpha 90.000000
_cell_angle_beta 72.397442
_cell_angle_gamma 90.000000
_cell_volume 3364.909918
_symmetry_space_group_name_H-M "C 2/M"
_symmetry_group_IT_number 12
_symmetry_cell_setting 'monoclinic'
loop_
_space_group_symop_operation_xyz
x,y,z
-x,y,-z
-x,-y,-z
x,-y,z
1/2+x,1/2+y,z
1/2-x,1/2+y,-z
1/2-x,1/2-y,-z
1/2+x,1/2-y,z
loop_
_atom_site_type_symbol
_atom_site_label
_atom_site_fract_x
_atom_site_fract_y
_atom_site_fract_z
Si Si1 0.375295 0.668931 0.935321
Si Si2 0.132922 0.328239 0.565408
Si Si3 0.799680 0.166021 0.061759
Si Si4 0.330714 0.668964 0.176377
Si Si5 0.503940 0.173713 0.167086
Si Si6 0.694854 0.171736 0.435111
Si Si7 0.869280 0.674045 0.760551
Si Si8 0.563930 0.174587 0.366830
O O1 0.390907 0.500000 0.917201
O O2 0.281591 0.720540 0.927297
O O3 0.456825 0.763478 0.896169
O O4 0.372127 0.692089 0.000533
O O5 0.141115 0.500000 0.574486
O O6 0.208705 0.249936 0.586843
O O7 0.145239 0.290050 0.500305
O O8 0.036095 0.266588 0.601910
O O9 0.848714 0.188926 0.109247
O O10 0.760111 0.000000 0.065738
O O11 0.340593 0.500000 0.191831
O O12 0.403630 0.764181 0.194867
O O13 0.231967 0.730155 0.210112
O O14 0.565609 0.231150 0.204512
O O15 0.500236 0.000000 0.164852
O O16 0.632529 0.233400 0.399073
O O17 0.711750 0.000000 0.425932
O O18 0.870195 0.500000 0.760649
O O19 0.904649 0.735646 0.696939
O O20 0.563239 0.000000 0.368350
#
# Coordination Sequence:
#
# PCOD8088783 Si02
#       8
#     8   8   8   8   8   8   8   8
#     4  10  19  32  55  82 106 135 171 210 259 315
#     4   9  17  30  50  77 108 137 168 210 258 307
#     4   9  18  34  55  79 108 138 167 209 262 316
#     4  10  20  37  57  76 101 136 174 212 261 314
#     4  11  22  37  55  77 105 137 174 217 265 311
#     4   9  17  30  50  77 107 136 170 212 255 304
#     4   9  19  36  55  73 101 138 175 217 262 307
#     4   9  17  31  53  76  98 136 182 213 249 306
#
# _framework density 19.019825000000001
#
# number of rings (size 3 to 8) (size 9 to 14) (size 15 to 20)
#    0.000    2.500    1.250    1.125    0.000    4.000 
#    0.000    3.125    0.000    6.000    0.000    0.000 
#    0.000    0.000    0.000    0.000    0.000    0.000 
#
# Total GULP energy -396825.855865 kJ/mol
# GULP energy per Si atom -12400.807996 kJ/mol
# Density = 1.897654 g / cm^3
# Si number density = 19.019825 Si / 1000 Ang^3
#
#
#
# Elastic Constant Matrix: (Units=GPa)
#
#
# Indices 1 2 3 4 5 6 
#
# 1 168.7163 45.4246 81.6226 0.0000 -11.6587 0.0000
# 2 45.4246 49.7188 31.4706 0.0000 -2.6479 0.0000
# 3 81.6226 31.4706 119.6555 0.0000 -7.0879 0.0000
# 4 0.0000 0.0000 0.0000 15.7993 0.0000 -2.5392
# 5 -11.6587 -2.6479 -7.0879 0.0000 16.5762 0.0000
# 6 0.0000 0.0000 0.0000 -2.5392 0.0000 33.8094
#
#
#
# Elastic Compliance Matrix: (Units=1/GPa)
#
#
# Indices 1 2 3 4 5 6 
#
# 1 0.010344 -0.005903 -0.005262 0.000000 0.004083 0.000000
# 2 -0.005903 0.027521 -0.003280 0.000000 -0.001158 0.000000
# 3 -0.005262 -0.003280 0.012886 0.000000 0.001285 0.000000
# 4 0.000000 0.000000 0.000000 0.064067 0.000000 0.004812
# 5 0.004083 -0.001158 0.001285 0.000000 0.063563 0.000000
# 6 0.000000 0.000000 0.000000 0.004812 0.000000 0.029939
#
#
# Mechanical properties :
#
#
# Convention : Reuss Voigt Hill
#
# Bulk Modulus (GPa) = 45.74449 72.79179 59.26814
# Shear Modulus (GPa) = 20.45022 25.20850 22.82936
#
# Velocity S-wave (km/s) = 3.28259 3.64453 3.46828
# Velocity P-wave (km/s) = 6.20245 7.48764 6.87514
#
# Compressibility (1/GPa) = 0.02186056
#
# Stress axis : x y z
#
# Youngs Moduli (GPa) = 96.67398 36.33645 77.60613
#
# Poissons Ratio (x) = 0.21448 0.40835
# Poissons Ratio (y) = 0.57063 0.25458
# Poissons Ratio (z) = 0.50869 0.11920
#
# Static dielectric constant tensor:
#      x y z
#    x 3.509240 0.000000 -0.021790 
#    y 0.000000 3.189600 0.000000 
#    z -0.021790 0.000000 3.625300 
# 
# 
# High freq. dielectric constant tensor:
#      x y z
#    x 1.741350 0.000000 -0.003100 
#    y 0.000000 1.707820 0.000000 
#    z -0.003100 0.000000 1.738870 
# 
# From -- ./inp_files/359724.got.cif
#   From: 2010.06.25/outbox.cif.g09.slc.cpg/sg12_180_cif.got.tgz:359724.got - 2010.06.28 00:19:55.
