data_PCOD8088968
_publ_section_title
;
Structure prediction by ZEFSAII (Michael W. Deem and Ramdas Pophale) SiO2 
 PCOD8088968
Probable space group: C 2/M
;
_chemical_formula_sum "Si O2"
_cell_formula_units_Z 64
_cell_length_a 15.529997
_cell_length_b 8.915341
_cell_length_c 28.403631
_cell_angle_alpha 90.000000
_cell_angle_beta 56.184400
_cell_angle_gamma 90.000000
_cell_volume 3267.359472
_symmetry_space_group_name_H-M "C 2/M"
_symmetry_group_IT_number 12
_symmetry_cell_setting 'monoclinic'
loop_
_space_group_symop_operation_xyz
x,y,z
-x,y,-z
-x,-y,-z
x,-y,z
1/2+x,1/2+y,z
1/2-x,1/2+y,-z
1/2-x,1/2-y,-z
1/2+x,1/2-y,z
loop_
_atom_site_type_symbol
_atom_site_label
_atom_site_fract_x
_atom_site_fract_y
_atom_site_fract_z
Si Si1 0.888889 0.325653 0.362799
Si Si2 0.742182 0.676641 0.169498
Si Si3 0.508110 0.677767 0.242376
Si Si4 0.106291 0.171043 0.062237
Si Si5 0.217505 0.827724 0.936230
Si Si6 0.470824 0.177667 0.440623
Si Si7 0.648886 0.322327 0.438869
Si Si8 0.404835 0.673251 0.178502
O O1 0.905461 0.500000 0.347407
O O2 0.934189 0.281260 0.399645
O O3 0.768640 0.281770 0.395742
O O4 0.950443 0.231185 0.306143
O O5 0.743472 0.500000 0.170240
O O6 0.625267 0.740401 0.206132
O O7 0.801263 0.731712 0.104751
O O8 0.801130 0.736857 0.197598
O O9 0.510889 0.500000 0.240669
O O10 0.449666 0.738034 0.213749
O O11 0.175258 0.282972 0.071715
O O12 0.987124 0.198306 0.111386
O O13 0.138905 0.000000 0.065237
O O14 0.123004 0.200676 0.001524
O O15 0.223680 0.000000 0.919098
O O16 0.583893 0.250233 0.415551
O O17 0.388037 0.249624 0.501174
O O18 0.475819 0.000000 0.447453
O O19 0.630093 0.500000 0.446394
O O20 0.375407 0.500000 0.192874
#
# Coordination Sequence:
#
# PCOD8088968 Si02
#       8
#     8   8   8   8   8   8   8   8
#     4  10  23  39  58  84 116 150 191 237 280 330
#     4  11  23  40  59  83 114 148 188 239 288 340
#     4  10  23  42  61  79 110 152 192 236 288 335
#     4   9  18  35  57  82 117 148 181 231 285 343
#     4  10  19  32  57  87 112 148 186 226 285 346
#     4  10  20  36  58  87 120 154 188 229 276 331
#     4  10  20  36  58  87 120 153 186 230 280 330
#     4  10  21  40  61  82 110 148 190 234 285 344
#
# _framework density 19.587682000000001
#
# number of rings (size 3 to 8) (size 9 to 14) (size 15 to 20)
#    0.000    2.000    1.250    2.625    0.000    6.000 
#    0.000    7.500    0.000    0.000    0.000    0.000 
#    0.000    0.000    0.000    0.000    0.000    0.000 
#
# Total GULP energy -396865.304673 kJ/mol
# GULP energy per Si atom -12402.040771 kJ/mol
# Density = 1.954310 g / cm^3
# Si number density = 19.587682 Si / 1000 Ang^3
#
#
#
# Elastic Constant Matrix: (Units=GPa)
#
#
# Indices 1 2 3 4 5 6 
#
# 1 140.0486 45.9101 58.7945 0.0000 4.2512 0.0000
# 2 45.9101 64.3568 34.5971 -0.0001 0.4796 -0.0001
# 3 58.7945 34.5971 96.7557 0.0000 1.3371 0.0000
# 4 0.0000 -0.0001 0.0000 32.7031 0.0000 4.2601
# 5 4.2512 0.4796 1.3371 0.0000 14.4971 0.0000
# 6 0.0000 -0.0001 0.0000 4.2601 0.0000 31.0033
#
#
#
# Elastic Compliance Matrix: (Units=1/GPa)
#
#
# Indices 1 2 3 4 5 6 
#
# 1 0.010918 -0.005227 -0.004730 0.000000 -0.002593 0.000000
# 2 -0.005227 0.021738 -0.004614 0.000000 0.001239 0.000000
# 3 -0.004730 -0.004614 0.014857 0.000000 0.000169 0.000000
# 4 0.000000 0.000000 0.000000 0.031135 0.000000 -0.004278
# 5 -0.002593 0.001239 0.000169 0.000000 0.069683 0.000000
# 6 0.000000 0.000000 0.000000 -0.004278 0.000000 0.032843
#
#
# Mechanical properties :
#
#
# Convention : Reuss Voigt Hill
#
# Bulk Modulus (GPa) = 54.43003 64.41827 59.42415
# Shear Modulus (GPa) = 23.10120 26.43131 24.76625
#
# Velocity S-wave (km/s) = 3.43793 3.67738 3.55967
# Velocity P-wave (km/s) = 6.60358 7.14068 6.87738
#
# Compressibility (1/GPa) = 0.01837221
#
# Stress axis : x y z
#
# Youngs Moduli (GPa) = 91.59128 46.00218 67.30893
#
# Poissons Ratio (x) = 0.24044 0.31835
# Poissons Ratio (y) = 0.47872 0.31056
# Poissons Ratio (z) = 0.43320 0.21226
#
# Static dielectric constant tensor:
#      x y z
#    x 3.689570 0.000000 0.013340 
#    y 0.000000 3.518760 0.000000 
#    z 0.013340 0.000000 3.527470 
# 
# 
# High freq. dielectric constant tensor:
#      x y z
#    x 1.768080 0.000000 0.002710 
#    y 0.000000 1.761770 0.000000 
#    z 0.002710 0.000000 1.759330 
# 
# From -- ./inp_files/375026.got.cif
#   From: 2010.06.25/outbox.cif.g09.slc.cpg/sg12_188_cif.got.tgz:375026.got - 2010.06.28 00:19:55.
