data_PCOD8088021
_publ_section_title
;
Structure prediction by ZEFSAII (Michael W. Deem and Ramdas Pophale) SiO2 
 PCOD8088021
Probable space group: C 2/M
;
_chemical_formula_sum "Si O2"
_cell_formula_units_Z 56
_cell_length_a 23.556350
_cell_length_b 8.932323
_cell_length_c 19.106100
_cell_angle_alpha 90.000000
_cell_angle_beta 126.701084
_cell_angle_gamma 90.000000
_cell_volume 3223.229275
_symmetry_space_group_name_H-M "C 2/M"
_symmetry_group_IT_number 12
_symmetry_cell_setting 'monoclinic'
loop_
_space_group_symop_operation_xyz
x,y,z
-x,y,-z
-x,-y,-z
x,-y,z
1/2+x,1/2+y,z
1/2-x,1/2+y,-z
1/2-x,1/2-y,-z
1/2+x,1/2-y,z
loop_
_atom_site_type_symbol
_atom_site_label
_atom_site_fract_x
_atom_site_fract_y
_atom_site_fract_z
Si Si1 0.202705 0.677186 0.171822
Si Si2 0.560621 0.835934 0.487800
Si Si3 0.308248 0.824750 0.995849
Si Si4 0.844530 0.677344 0.320442
Si Si5 0.451585 0.823000 0.902099
Si Si6 0.035840 0.823812 0.683805
Si Si7 0.039918 0.676098 0.834623
O O1 0.213127 0.500000 0.187367
O O2 0.265523 0.761480 0.257414
O O3 0.129147 0.733057 0.151617
O O4 0.202527 0.728096 0.091274
O O5 0.500000 0.852908 0.500000
O O6 0.629462 0.779886 0.581668
O O7 0.536244 0.719582 0.410600
O O8 0.574180 0.000000 0.463516
O O9 0.385072 0.775312 0.078487
O O10 0.298812 0.000000 0.995138
O O11 0.250000 0.750000 0.000000
O O12 0.846813 0.500000 0.310436
O O13 0.894420 0.749233 0.297848
O O14 0.480946 0.777001 0.847901
O O15 0.453279 0.000000 0.912935
O O16 0.500000 0.753213 0.000000
O O17 0.025223 0.770197 0.754740
O O18 0.046347 0.000000 0.688841
O O19 0.037307 0.500000 0.815569
#
# Coordination Sequence:
#
# PCOD8088021 Si02
#       7
#     8   8   8   8   8   8   8
#     4  10  19  32  52  77 102 130 170 218 255 292
#     4   8  16  32  52  73 100 134 169 203 247 309
#     4  10  20  31  46  70 100 133 166 203 247 296
#     4  10  20  34  52  76 106 138 169 203 252 313
#     4   9  16  32  56  76  96 130 179 220 252 296
#     4  11  21  32  50  78 108 134 166 211 257 302
#     4  10  19  33  53  73  99 137 174 209 251 304
#
# _framework density 17.373881000000001
#
# number of rings (size 3 to 8) (size 9 to 14) (size 15 to 20)
#    0.000    2.286    1.429    3.429    0.000    6.571 
#    0.000    0.714    0.000    1.714    0.000    0.000 
#    0.000    0.000    0.000    0.000    0.000    0.000 
#
# Total GULP energy -347151.159526 kJ/mol
# GULP energy per Si atom -12398.255697 kJ/mol
# Density = 1.733434 g / cm^3
# Si number density = 17.373881 Si / 1000 Ang^3
#
#
#
# Elastic Constant Matrix: (Units=GPa)
#
#
# Indices 1 2 3 4 5 6 
#
# 1 122.0257 40.0131 64.9696 0.0000 21.4855 0.0000
# 2 40.0131 64.2819 52.5360 0.0000 4.8482 0.0000
# 3 64.9696 52.5360 140.4830 0.0000 24.3712 0.0000
# 4 0.0000 0.0000 0.0000 22.6443 0.0000 2.7610
# 5 21.4855 4.8482 24.3712 0.0000 8.5463 0.0000
# 6 0.0000 0.0000 0.0000 2.7610 0.0000 20.1010
#
#
#
# Elastic Compliance Matrix: (Units=1/GPa)
#
#
# Indices 1 2 3 4 5 6 
#
# 1 0.019478 -0.012436 0.005766 0.000000 -0.058357 0.000000
# 2 -0.012436 0.032679 -0.017173 0.000000 0.061697 0.000000
# 3 0.005766 -0.017173 0.023152 0.000000 -0.070778 0.000000
# 4 0.000000 0.000000 0.000000 0.044913 0.000000 -0.006169
# 5 -0.058357 0.061697 -0.070778 0.000000 0.430556 0.000000
# 6 0.000000 0.000000 0.000000 -0.006169 0.000000 0.050596
#
#
# Mechanical properties :
#
#
# Convention : Reuss Voigt Hill
#
# Bulk Modulus (GPa) = 36.19973 71.31423 53.75698
# Shear Modulus (GPa) = 7.59569 21.54310 14.56940
#
# Velocity S-wave (km/s) = 2.09318 3.52514 2.89897
# Velocity P-wave (km/s) = 5.16941 7.59636 6.49721
#
# Compressibility (1/GPa) = 0.02762451
#
# Stress axis : x y z
#
# Youngs Moduli (GPa) = 51.34096 30.60061 43.19225
#
# Poissons Ratio (x) = 0.38054 -0.24907
# Poissons Ratio (y) = 0.63846 0.74174
# Poissons Ratio (z) = -0.29606 0.52551
#
# Static dielectric constant tensor:
#      x y z
#    x 3.180960 0.000000 0.095060 
#    y 0.000000 3.045920 0.000000 
#    z 0.095060 0.000000 3.623640 
# 
# 
# High freq. dielectric constant tensor:
#      x y z
#    x 1.651510 0.000000 0.004740 
#    y 0.000000 1.654000 0.000000 
#    z 0.004740 0.000000 1.681270 
# 
# From -- ./inp_files/288478.got.cif
#   From: 2010.06.25/outbox.cif.g09.slc.cpg/sg12_145_cif.got.tgz:288478.got - 2010.06.28 00:19:55.
