data_PCOD8088871
_publ_section_title
;
Structure prediction by ZEFSAII (Michael W. Deem and Ramdas Pophale) SiO2 
 PCOD8088871
Probable space group: C 2/M
;
_chemical_formula_sum "Si O2"
_cell_formula_units_Z 48
_cell_length_a 15.854626
_cell_length_b 26.537204
_cell_length_c 12.461123
_cell_angle_alpha 90.000000
_cell_angle_beta 26.921644
_cell_angle_gamma 90.000000
_cell_volume 2373.818383
_symmetry_space_group_name_H-M "C 2/M"
_symmetry_group_IT_number 12
_symmetry_cell_setting 'monoclinic'
loop_
_space_group_symop_operation_xyz
x,y,z
-x,y,-z
-x,-y,-z
x,-y,z
1/2+x,1/2+y,z
1/2-x,1/2+y,-z
1/2-x,1/2-y,-z
1/2+x,1/2-y,z
loop_
_atom_site_type_symbol
_atom_site_label
_atom_site_fract_x
_atom_site_fract_y
_atom_site_fract_z
Si Si1 0.289095 0.789943 0.365799
Si Si2 0.500000 0.384081 0.500000
Si Si3 0.558056 0.443464 0.649752
Si Si4 0.664114 0.848575 0.993773
Si Si5 0.000000 0.219286 0.000000
Si Si6 0.014171 0.555605 0.861401
Si Si7 0.449743 0.343110 0.841485
O O1 0.250000 0.750000 0.500000
O O2 0.486503 0.816040 0.165355
O O3 0.320163 0.755846 0.223498
O O4 0.116054 0.828660 0.566647
O O5 0.511754 0.421988 0.585729
O O6 0.317440 0.348201 0.722973
O O7 0.474862 0.500000 0.759611
O O8 0.470503 0.403599 0.835135
O O9 0.777728 0.445803 0.417984
O O10 0.602236 0.906699 0.081330
O O11 0.756306 0.829564 0.000857
O O12 0.043621 0.184738 0.053003
O O13 0.923374 0.500000 0.957578
O O14 0.000000 0.575577 0.000000
#
# Coordination Sequence:
#
# PCOD8088871 Si02
#       7
#     8   4   8   8   4   8   8
#     4  10  23  42  63  83 117 157 202 253 299 353
#     4  10  21  30  54  96 132 154 192 240 307 370
#     4  10  19  33  58  87 124 161 196 238 297 369
#     4  11  22  36  61  89 127 155 199 242 299 373
#     4  10  24  42  65  80 119 156 204 260 298 340
#     4  10  19  32  55  86 124 163 191 232 298 369
#     4  10  23  43  61  92 119 157 201 249 301 361
#
# _framework density 20.220586000000001
#
# number of rings (size 3 to 8) (size 9 to 14) (size 15 to 20)
#    0.000    1.833    3.333    0.250    5.833    5.333 
#    0.000    7.083    0.000    0.000    0.000    2.333 
#    0.000    0.000    0.000    0.000    0.000    0.000 
#
# Total GULP energy -297341.060159 kJ/mol
# GULP energy per Si atom -12389.210840 kJ/mol
# Density = 2.017456 g / cm^3
# Si number density = 20.220586 Si / 1000 Ang^3
#
#
#
# Elastic Constant Matrix: (Units=GPa)
#
#
# Indices 1 2 3 4 5 6 
#
# 1 88.3695 45.2133 33.8189 -0.0032 -2.2462 0.0018
# 2 45.2133 134.5497 47.7689 -0.0025 1.7116 0.0014
# 3 33.8189 47.7689 81.4256 -0.0095 -8.1603 0.0044
# 4 -0.0032 -0.0025 -0.0095 13.0368 -0.0058 7.7591
# 5 -2.2462 1.7116 -8.1603 -0.0058 33.4671 0.0010
# 6 0.0018 0.0014 0.0044 7.7591 0.0010 21.0814
#
#
#
# Elastic Compliance Matrix: (Units=1/GPa)
#
#
# Indices 1 2 3 4 5 6 
#
# 1 0.014647 -0.003500 -0.004012 0.000000 0.000184 0.000000
# 2 -0.003500 0.010339 -0.004806 -0.000005 -0.001935 0.000002
# 3 -0.004012 -0.004806 0.017184 0.000018 0.004167 -0.000010
# 4 0.000000 -0.000005 0.000018 0.098222 0.000023 -0.036151
# 5 0.000184 -0.001935 0.004167 0.000023 0.031007 -0.000011
# 6 0.000000 0.000002 -0.000010 -0.036151 -0.000011 0.060741
#
#
# Mechanical properties :
#
#
# Convention : Reuss Voigt Hill
#
# Bulk Modulus (GPa) = 57.02761 61.99408 59.51085
# Shear Modulus (GPa) = 19.03895 25.35330 22.19613
#
# Velocity S-wave (km/s) = 3.07182 3.54480 3.31675
# Velocity P-wave (km/s) = 6.39104 6.89054 6.64549
#
# Compressibility (1/GPa) = 0.01753536
#
# Stress axis : x y z
#
# Youngs Moduli (GPa) = 68.27465 96.71999 58.19267
#
# Poissons Ratio (x) = 0.33851 0.23345
# Poissons Ratio (y) = 0.23895 0.27967
# Poissons Ratio (z) = 0.27389 0.46482
#
# Static dielectric constant tensor:
#      x y z
#    x 3.327090 0.000060 -0.201210 
#    y 0.000060 4.199940 -0.000060 
#    z -0.201210 -0.000060 4.024450 
# 
# 
# High freq. dielectric constant tensor:
#      x y z
#    x 1.756400 0.000000 -0.023080 
#    y 0.000000 1.812120 0.000000 
#    z -0.023080 0.000000 1.778450 
# 
# From -- ./inp_files/150221.got.cif
#   From: 2010.06.25/outbox.cif.g09.slc.cpg/sg12_76_cif.got.tgz:150221.got - 2010.06.28 00:19:55.
