data_PCOD8088600
_publ_section_title
;
Structure prediction by ZEFSAII (Michael W. Deem and Ramdas Pophale) SiO2 
 PCOD8088600
Probable space group: C 2/M
;
_chemical_formula_sum "Si O2"
_cell_formula_units_Z 48
_cell_length_a 5.213713
_cell_length_b 18.457492
_cell_length_c 27.087454
_cell_angle_alpha 90.000000
_cell_angle_beta 70.842077
_cell_angle_gamma 90.000000
_cell_volume 2462.317451
_symmetry_space_group_name_H-M "C 2/M"
_symmetry_group_IT_number 12
_symmetry_cell_setting 'monoclinic'
loop_
_space_group_symop_operation_xyz
x,y,z
-x,y,-z
-x,-y,-z
x,-y,z
1/2+x,1/2+y,z
1/2-x,1/2+y,-z
1/2-x,1/2-y,-z
1/2+x,1/2-y,z
loop_
_atom_site_type_symbol
_atom_site_label
_atom_site_fract_x
_atom_site_fract_y
_atom_site_fract_z
Si Si1 0.175248 0.916747 0.112975
Si Si2 0.394386 0.204349 0.560853
Si Si3 0.055447 0.583985 0.176415
Si Si4 0.664786 0.280558 0.058528
Si Si5 0.725391 0.914372 0.355078
Si Si6 0.661486 0.914575 0.707924
O O1 0.394121 0.886959 0.138656
O O2 0.206598 0.867177 0.061816
O O3 0.876745 0.903750 0.153785
O O4 0.222854 0.000000 0.094202
O O5 0.500000 0.184616 0.500000
O O6 0.613490 0.251837 0.576525
O O7 0.348065 0.127792 0.590458
O O8 0.981121 0.500000 0.182715
O O9 0.943419 0.620332 0.233890
O O10 0.350344 0.260390 0.087552
O O11 0.750000 0.250000 0.000000
O O12 0.522819 0.886179 0.325356
O O13 0.027629 0.892828 0.319508
O O14 0.697568 0.000000 0.367430
O O15 0.623467 0.000000 0.712866
#
# Coordination Sequence:
#
# PCOD8088600 Si02
#       6
#     8   8   8   8   8   8
#     4  10  19  33  56  82 104 134 180 222 250 295
#     4  10  21  37  55  74 101 141 181 218 269 323
#     4   9  17  30  52  81 109 136 171 217 260 304
#     4  10  21  38  56  76 105 142 171 204 265 320
#     4  10  19  32  54  80 105 136 175 220 263 311
#     4   9  17  30  50  79 110 137 168 210 267 319
#
# _framework density 19.493831
#
# number of rings (size 3 to 8) (size 9 to 14) (size 15 to 20)
#    0.000    2.333    0.000    3.000    0.000    4.333 
#    0.000    3.333    0.000   26.000    0.000    0.000 
#    0.000    0.000    0.000    0.000    0.000    0.000 
#
# Total GULP energy -297460.129160 kJ/mol
# GULP energy per Si atom -12394.172048 kJ/mol
# Density = 1.944946 g / cm^3
# Si number density = 19.493831 Si / 1000 Ang^3
#
#
#
# Elastic Constant Matrix: (Units=GPa)
#
#
# Indices 1 2 3 4 5 6 
#
# 1 150.1925 30.1918 21.6952 0.0000 17.7277 0.0000
# 2 30.1918 76.2164 48.9728 0.0000 12.3095 0.0000
# 3 21.6952 48.9728 83.6549 0.0000 9.9110 0.0000
# 4 0.0000 0.0000 0.0000 20.6787 0.0000 6.2126
# 5 17.7277 12.3095 9.9110 0.0000 17.9832 0.0000
# 6 0.0000 0.0000 0.0000 6.2126 0.0000 18.0139
#
#
#
# Elastic Compliance Matrix: (Units=1/GPa)
#
#
# Indices 1 2 3 4 5 6 
#
# 1 0.007819 -0.002018 -0.000103 0.000000 -0.006269 0.000000
# 2 -0.002018 0.022729 -0.011956 0.000000 -0.006980 0.000000
# 3 -0.000103 -0.011956 0.019255 0.000000 -0.002326 0.000000
# 4 0.000000 0.000000 0.000000 0.053949 0.000000 -0.018606
# 5 -0.006269 -0.006980 -0.002326 0.000000 0.067847 0.000000
# 6 0.000000 0.000000 0.000000 -0.018606 0.000000 0.061929
#
#
# Mechanical properties :
#
#
# Convention : Reuss Voigt Hill
#
# Bulk Modulus (GPa) = 46.19254 56.86482 51.52868
# Shear Modulus (GPa) = 18.59426 25.28210 21.93818
#
# Velocity S-wave (km/s) = 3.09180 3.60520 3.35832
# Velocity P-wave (km/s) = 6.04095 6.82378 6.44426
#
# Compressibility (1/GPa) = 0.02164852
#
# Stress axis : x y z
#
# Youngs Moduli (GPa) = 127.89778 43.99570 51.93333
#
# Poissons Ratio (x) = 0.08880 0.00537
# Poissons Ratio (y) = 0.25813 0.62091
# Poissons Ratio (z) = 0.01323 0.52601
#
# Static dielectric constant tensor:
#      x y z
#    x 3.814040 0.000000 0.206630 
#    y 0.000000 3.279260 0.000000 
#    z 0.206630 0.000000 3.437700 
# 
# 
# High freq. dielectric constant tensor:
#      x y z
#    x 1.790950 0.000000 0.005520 
#    y 0.000000 1.727400 0.000000 
#    z 0.005520 0.000000 1.742680 
# 
# From -- ./inp_files/331050.got.cif
#   From: 2010.06.25/outbox.cif.g09.slc.cpg/sg12_166_cif.got.tgz:331050.got - 2010.06.28 00:19:55.
