data_PCOD8088903
_publ_section_title
;
Structure prediction by ZEFSAII (Michael W. Deem and Ramdas Pophale) SiO2 
 PCOD8088903
Probable space group: C 2/M
;
_chemical_formula_sum "Si O2"
_cell_formula_units_Z 56
_cell_length_a 19.543811
_cell_length_b 19.253844
_cell_length_c 9.057488
_cell_angle_alpha 90.000000
_cell_angle_beta 109.584015
_cell_angle_gamma 90.000000
_cell_volume 3211.108539
_symmetry_space_group_name_H-M "C 2/M"
_symmetry_group_IT_number 12
_symmetry_cell_setting 'monoclinic'
loop_
_space_group_symop_operation_xyz
x,y,z
-x,y,-z
-x,-y,-z
x,-y,z
1/2+x,1/2+y,z
1/2-x,1/2+y,-z
1/2-x,1/2-y,-z
1/2+x,1/2-y,z
loop_
_atom_site_type_symbol
_atom_site_label
_atom_site_fract_x
_atom_site_fract_y
_atom_site_fract_z
Si Si1 0.696464 0.820227 0.616105
Si Si2 0.218977 0.921505 0.789979
Si Si3 0.581257 0.809236 0.109853
Si Si4 0.081457 0.080166 0.508658
Si Si5 0.145665 0.200767 0.375728
Si Si6 0.655320 0.080459 0.342610
Si Si7 0.202211 0.317112 0.956412
O O1 0.782887 0.822138 0.660268
O O2 0.665978 0.746634 0.534443
O O3 0.659794 0.884992 0.506350
O O4 0.675811 0.830577 0.771221
O O5 0.135607 0.905896 0.685832
O O6 0.267228 0.905424 0.679741
O O7 0.229629 0.000000 0.848409
O O8 0.245426 0.878092 0.948645
O O9 0.597044 0.745150 0.229155
O O10 0.592695 0.882282 0.202510
O O11 0.500000 0.803289 0.000000
O O12 0.631078 0.807436 0.002102
O O13 0.101221 0.132147 0.389992
O O14 0.000000 0.096182 0.500000
O O15 0.089643 0.000000 0.460639
O O16 0.635530 0.000000 0.343740
O O17 0.250000 0.250000 0.000000
#
# Coordination Sequence:
#
# PCOD8088903 Si02
#       7
#     8   8   8   8   8   8   8
#     4  10  19  32  56  82 105 134 184 233 272 317
#     4   9  18  33  52  75 105 139 182 222 266 327
#     4  10  22  37  54  81 115 146 182 222 282 336
#     4  10  20  34  55  80 109 147 187 229 278 333
#     4  10  19  35  53  78 106 142 183 228 270 326
#     4   9  18  35  59  80 104 145 185 222 270 329
#     4  11  20  33  55  81 107 142 179 230 275 323
#
# _framework density 17.439461000000001
#
# number of rings (size 3 to 8) (size 9 to 14) (size 15 to 20)
#    0.000    2.143    2.857    0.857    0.000    3.143 
#    0.000    2.143    0.000    1.286    0.000    0.000 
#    0.000    0.000    0.000    0.000    0.000    0.000 
#
# Total GULP energy -347225.485137 kJ/mol
# GULP energy per Si atom -12400.910183 kJ/mol
# Density = 1.739977 g / cm^3
# Si number density = 17.439461 Si / 1000 Ang^3
#
#
#
# Elastic Constant Matrix: (Units=GPa)
#
#
# Indices 1 2 3 4 5 6 
#
# 1 99.2935 54.4652 65.1802 0.0000 12.1888 0.0000
# 2 54.4652 119.5822 57.6415 0.0000 -7.1987 0.0000
# 3 65.1802 57.6415 129.3595 0.0000 -7.0124 0.0000
# 4 0.0000 0.0000 0.0000 22.0207 0.0000 -4.5857
# 5 12.1888 -7.1987 -7.0124 0.0000 30.0461 0.0000
# 6 0.0000 0.0000 0.0000 -4.5857 0.0000 23.9332
#
#
#
# Elastic Compliance Matrix: (Units=1/GPa)
#
#
# Indices 1 2 3 4 5 6 
#
# 1 0.020012 -0.005913 -0.008068 0.000000 -0.011418 0.000000
# 2 -0.005913 0.012461 -0.002310 0.000000 0.004845 0.000000
# 3 -0.008068 -0.002310 0.013138 0.000000 0.005786 0.000000
# 4 0.000000 0.000000 0.000000 0.047299 0.000000 0.009063
# 5 -0.011418 0.004845 0.005786 0.000000 0.040425 0.000000
# 6 0.000000 0.000000 0.000000 0.009063 0.000000 0.043519
#
#
# Mechanical properties :
#
#
# Convention : Reuss Voigt Hill
#
# Bulk Modulus (GPa) = 76.75029 78.08988 77.42008
# Shear Modulus (GPa) = 23.38840 26.59657 24.99248
#
# Velocity S-wave (km/s) = 3.66610 3.90946 3.78974
# Velocity P-wave (km/s) = 7.87563 8.07796 7.97744
#
# Compressibility (1/GPa) = 0.01302927
#
# Stress axis : x y z
#
# Youngs Moduli (GPa) = 49.96917 80.24975 76.11237
#
# Poissons Ratio (x) = 0.47455 0.61404
# Poissons Ratio (y) = 0.29549 0.17584
# Poissons Ratio (z) = 0.40313 0.18540
#
# Static dielectric constant tensor:
#      x y z
#    x 3.032970 0.000000 0.046900 
#    y 0.000000 3.178320 0.000000 
#    z 0.046900 0.000000 3.216830 
# 
# 
# High freq. dielectric constant tensor:
#      x y z
#    x 1.655870 0.000000 0.006230 
#    y 0.000000 1.684510 0.000000 
#    z 0.006230 0.000000 1.670110 
# 
# From -- ./inp_files/76815.got.cif
#   From: 2010.06.25/outbox.cif.g09.slc.cpg/sg12_39_cif.got.tgz:76815.got - 2010.06.28 00:19:55.
