data_PCOD8088869
_publ_section_title
;
Structure prediction by ZEFSAII (Michael W. Deem and Ramdas Pophale) SiO2 
 PCOD8088869
Probable space group: C 2/M
;
_chemical_formula_sum "Si O2"
_cell_formula_units_Z 64
_cell_length_a 27.010913
_cell_length_b 16.930609
_cell_length_c 21.335255
_cell_angle_alpha 90.000000
_cell_angle_beta 159.846805
_cell_angle_gamma 90.000000
_cell_volume 3361.541877
_symmetry_space_group_name_H-M "C 2/M"
_symmetry_group_IT_number 12
_symmetry_cell_setting 'monoclinic'
loop_
_space_group_symop_operation_xyz
x,y,z
-x,y,-z
-x,-y,-z
x,-y,z
1/2+x,1/2+y,z
1/2-x,1/2+y,-z
1/2-x,1/2-y,-z
1/2+x,1/2-y,z
loop_
_atom_site_type_symbol
_atom_site_label
_atom_site_fract_x
_atom_site_fract_y
_atom_site_fract_z
Si Si1 0.137192 0.782099 0.814780
Si Si2 0.551344 0.911893 0.990520
Si Si3 0.198929 0.317694 0.357283
Si Si4 0.153141 0.278084 0.571600
Si Si5 0.741540 0.221868 0.179459
Si Si6 0.009027 0.095346 0.278805
Si Si7 0.517216 0.321490 0.168988
Si Si8 0.137754 0.909074 0.203136
O O1 0.205127 0.790682 0.827557
O O2 0.002022 0.722534 0.647053
O O3 0.076314 0.868463 0.763286
O O4 0.250000 0.750000 0.000000
O O5 0.425082 0.881945 0.795979
O O6 0.590640 0.000000 0.017562
O O7 0.500000 0.905927 0.000000
O O8 0.695423 0.862823 0.150804
O O9 0.236967 0.279052 0.335091
O O10 0.331887 0.368148 0.541096
O O11 0.134609 0.247660 0.326028
O O12 0.140525 0.252372 0.629924
O O13 0.216775 0.365953 0.645777
O O14 0.607566 0.282139 0.021194
O O15 0.937408 0.133317 0.131534
O O16 0.007283 0.000000 0.280107
O O17 0.601779 0.389285 0.232124
O O18 0.171963 0.000000 0.234908
O O19 0.000000 0.881476 0.000000
#
# Coordination Sequence:
#
# PCOD8088869 Si02
#       8
#     8   8   8   8   8   8   8   8
#     4  11  24  42  59  80 110 159 209 248 278 339
#     4  10  19  32  55  86 119 147 178 235 298 346
#     4   9  19  33  58  85 117 146 191 229 291 357
#     4  10  20  37  62  85 111 154 198 236 288 351
#     4  11  20  37  60  83 113 150 202 237 281 346
#     4  11  22  38  57  82 116 155 195 245 297 342
#     4  10  19  33  60  85 117 152 191 229 295 355
#     4  10  19  33  58  92 125 146 180 242 305 356
#
# _framework density 19.038882000000001
#
# number of rings (size 3 to 8) (size 9 to 14) (size 15 to 20)
#    0.000    1.750    3.750    1.500    0.000    0.500 
#    0.000    0.625    0.000    3.000    0.000    0.000 
#    0.000    0.000    0.000    0.000    0.000    0.000 
#
# Total GULP energy -396561.350416 kJ/mol
# GULP energy per Si atom -12392.542201 kJ/mol
# Density = 1.899555 g / cm^3
# Si number density = 19.038882 Si / 1000 Ang^3
#
#
#
# Elastic Constant Matrix: (Units=GPa)
#
#
# Indices 1 2 3 4 5 6 
#
# 1 103.3707 49.2545 18.9487 0.0005 1.9216 0.0007
# 2 49.2545 124.7502 49.7212 0.0004 2.5121 0.0012
# 3 18.9487 49.7212 99.8546 0.0008 -1.3548 0.0002
# 4 0.0005 0.0004 0.0008 18.2314 0.0001 -0.6238
# 5 1.9216 2.5121 -1.3548 0.0001 22.2665 0.0007
# 6 0.0007 0.0012 0.0002 -0.6238 0.0007 22.7787
#
#
#
# Elastic Compliance Matrix: (Units=1/GPa)
#
#
# Indices 1 2 3 4 5 6 
#
# 1 0.011922 -0.004732 0.000087 0.000000 -0.000490 0.000000
# 2 -0.004732 0.011925 -0.005057 0.000000 -0.001245 0.000000
# 3 0.000087 -0.005057 0.012534 0.000000 0.001326 0.000000
# 4 0.000000 0.000000 0.000000 0.054902 0.000000 0.001504
# 5 -0.000490 -0.001245 0.001326 0.000000 0.045174 -0.000001
# 6 0.000000 0.000000 0.000000 0.001504 -0.000001 0.043942
#
#
# Mechanical properties :
#
#
# Convention : Reuss Voigt Hill
#
# Bulk Modulus (GPa) = 58.90099 62.64714 60.77406
# Shear Modulus (GPa) = 24.33566 26.65874 25.49720
#
# Velocity S-wave (km/s) = 3.57908 3.74602 3.66350
# Velocity P-wave (km/s) = 6.93427 7.18933 7.06295
#
# Compressibility (1/GPa) = 0.01697764
#
# Stress axis : x y z
#
# Youngs Moduli (GPa) = 83.88061 83.85885 79.78347
#
# Poissons Ratio (x) = 0.39681 -0.00696
# Poissons Ratio (y) = 0.39691 0.40344
# Poissons Ratio (z) = -0.00732 0.42405
#
# Static dielectric constant tensor:
#      x y z
#    x 3.435050 0.000000 -0.044950 
#    y 0.000000 3.401770 0.000000 
#    z -0.044950 0.000000 3.461950 
# 
# 
# High freq. dielectric constant tensor:
#      x y z
#    x 1.738050 0.000000 -0.008350 
#    y 0.000000 1.730540 0.000000 
#    z -0.008350 0.000000 1.734510 
# 
# From -- ./inp_files/328659.got.cif
#   From: 2010.06.25/outbox.cif.g09.slc.cpg/sg12_165_cif.got.tgz:328659.got - 2010.06.28 00:19:55.
