data_PCOD8088630
_publ_section_title
;
Structure prediction by ZEFSAII (Michael W. Deem and Ramdas Pophale) SiO2 
 PCOD8088630
Probable space group: C 2/M
;
_chemical_formula_sum "Si O2"
_cell_formula_units_Z 64
_cell_length_a 15.499768
_cell_length_b 9.010005
_cell_length_c 23.980621
_cell_angle_alpha 90.000000
_cell_angle_beta 89.140407
_cell_angle_gamma 90.000000
_cell_volume 3348.588468
_symmetry_space_group_name_H-M "C 2/M"
_symmetry_group_IT_number 12
_symmetry_cell_setting 'monoclinic'
loop_
_space_group_symop_operation_xyz
x,y,z
-x,y,-z
-x,-y,-z
x,-y,z
1/2+x,1/2+y,z
1/2-x,1/2+y,-z
1/2-x,1/2-y,-z
1/2+x,1/2-y,z
loop_
_atom_site_type_symbol
_atom_site_label
_atom_site_fract_x
_atom_site_fract_y
_atom_site_fract_z
Si Si1 0.410288 0.674892 0.364566
Si Si2 0.599375 0.832850 0.748754
Si Si3 0.251363 0.825253 0.559350
Si Si4 0.004781 0.676556 0.062701
Si Si5 0.089354 0.677263 0.367184
Si Si6 0.659225 0.824642 0.867331
Si Si7 0.099840 0.333169 0.244921
Si Si8 0.332161 0.177370 0.869863
O O1 0.425118 0.500000 0.364861
O O2 0.382770 0.723402 0.302741
O O3 0.333445 0.723535 0.406232
O O4 0.497369 0.753821 0.385408
O O5 0.653408 0.781327 0.801979
O O6 0.500660 0.828585 0.769015
O O7 0.624026 0.000000 0.729950
O O8 0.250000 0.750000 0.500000
O O9 0.337392 0.771620 0.590626
O O10 0.253950 0.000000 0.551234
O O11 0.003529 0.500000 0.063028
O O12 0.923185 0.736810 0.098320
O O13 0.092855 0.734610 0.089840
O O14 0.000000 0.739217 0.000000
O O15 0.077717 0.500000 0.364948
O O16 0.115883 0.740904 0.305533
O O17 0.742661 0.744686 0.892342
O O18 0.667882 0.000000 0.874759
O O19 0.134069 0.500000 0.248993
O O20 0.149714 0.257391 0.192849
O O21 0.328799 0.000000 0.869494
#
# Coordination Sequence:
#
# PCOD8088630 Si02
#       8
#     8   8   8   8   8   8   8   8
#     4  10  21  36  56  85 113 139 177 229 276 312
#     4   9  17  33  55  77 107 146 181 215 266 331
#     4  10  23  40  58  80 109 146 185 221 266 322
#     4   9  18  35  57  77 104 147 192 224 258 321
#     4   9  19  37  58  79 107 147 184 217 266 327
#     4  10  20  34  53  80 110 141 180 226 273 320
#     4   8  14  29  54  76 100 137 180 216 253 316
#     4  10  19  32  54  81 106 141 183 223 270 321
#
# _framework density 19.112531000000001
#
# number of rings (size 3 to 8) (size 9 to 14) (size 15 to 20)
#    0.000    2.625    1.250    1.125    1.750    3.000 
#    0.000    5.625    0.000    0.750    0.000    0.000 
#    0.000    0.000    0.000    0.000    0.000    0.000 
#
# Total GULP energy -396700.037772 kJ/mol
# GULP energy per Si atom -12396.876180 kJ/mol
# Density = 1.906903 g / cm^3
# Si number density = 19.112531 Si / 1000 Ang^3
#
#
#
# Elastic Constant Matrix: (Units=GPa)
#
#
# Indices 1 2 3 4 5 6 
#
# 1 157.8488 36.9715 89.1063 0.0000 12.2944 0.0000
# 2 36.9715 31.6605 33.1074 0.0000 0.1740 0.0000
# 3 89.1063 33.1074 132.8569 0.0000 9.4965 0.0000
# 4 0.0000 0.0000 0.0000 17.8126 0.0000 0.5085
# 5 12.2944 0.1740 9.4965 0.0000 26.4924 0.0000
# 6 0.0000 0.0000 0.0000 0.5085 0.0000 30.6058
#
#
#
# Elastic Compliance Matrix: (Units=1/GPa)
#
#
# Indices 1 2 3 4 5 6 
#
# 1 0.011536 -0.007585 -0.005612 0.000000 -0.003292 0.000000
# 2 -0.007585 0.048046 -0.007302 0.000000 0.005822 0.000000
# 3 -0.005612 -0.007302 0.013260 0.000000 -0.002101 0.000000
# 4 0.000000 0.000000 0.000000 0.056167 0.000000 -0.000933
# 5 -0.003292 0.005822 -0.002101 0.000000 0.039989 0.000000
# 6 0.000000 0.000000 0.000000 -0.000933 0.000000 0.032689
#
#
# Mechanical properties :
#
#
# Convention : Reuss Voigt Hill
#
# Bulk Modulus (GPa) = 31.40165 71.19296 51.29731
# Shear Modulus (GPa) = 19.73950 25.86088 22.80019
#
# Velocity S-wave (km/s) = 3.21721 3.68242 3.45765
# Velocity P-wave (km/s) = 5.50147 7.44382 6.54510
#
# Compressibility (1/GPa) = 0.03184546
#
# Stress axis : x y z
#
# Youngs Moduli (GPa) = 86.68573 20.81343 75.41276
#
# Poissons Ratio (x) = 0.15787 0.42319
# Poissons Ratio (y) = 0.65750 0.55065
# Poissons Ratio (z) = 0.48645 0.15198
#
# Static dielectric constant tensor:
#      x y z
#    x 3.555840 0.000000 0.020920 
#    y 0.000000 3.082150 0.000000 
#    z 0.020920 0.000000 3.613170 
# 
# 
# High freq. dielectric constant tensor:
#      x y z
#    x 1.750080 0.000000 0.002770 
#    y 0.000000 1.703710 0.000000 
#    z 0.002770 0.000000 1.745860 
# 
# From -- ./inp_files/338688.got.cif
#   From: 2010.06.25/outbox.cif.g09.slc.cpg/sg12_170_cif.got.tgz:338688.got - 2010.06.28 00:19:55.
