data_PCOD8088224
_publ_section_title
;
Structure prediction by ZEFSAII (Michael W. Deem and Ramdas Pophale) SiO2 
 PCOD8088224
Probable space group: C 2/M
;
_chemical_formula_sum "Si O2"
_cell_formula_units_Z 52
_cell_length_a 20.534325
_cell_length_b 17.690398
_cell_length_c 10.927792
_cell_angle_alpha 90.000000
_cell_angle_beta 42.617617
_cell_angle_gamma 90.000000
_cell_volume 2687.848117
_symmetry_space_group_name_H-M "C 2/M"
_symmetry_group_IT_number 12
_symmetry_cell_setting 'monoclinic'
loop_
_space_group_symop_operation_xyz
x,y,z
-x,y,-z
-x,-y,-z
x,-y,z
1/2+x,1/2+y,z
1/2-x,1/2+y,-z
1/2-x,1/2-y,-z
1/2+x,1/2-y,z
loop_
_atom_site_type_symbol
_atom_site_label
_atom_site_fract_x
_atom_site_fract_y
_atom_site_fract_z
Si Si1 0.697147 0.583075 0.819665
Si Si2 0.603143 0.912020 0.821561
Si Si3 0.381267 0.411846 0.814361
Si Si4 0.814365 0.692659 0.491641
Si Si5 0.439834 0.323563 0.340934
Si Si6 0.207940 0.087010 0.315094
Si Si7 0.500000 0.629303 0.000000
O O1 0.743932 0.500000 0.729647
O O2 0.753430 0.653245 0.683311
O O3 0.587957 0.577457 0.921542
O O4 0.692575 0.598219 0.971496
O O5 0.641283 0.874456 0.646838
O O6 0.678280 0.896546 0.828156
O O7 0.593289 0.000000 0.805466
O O8 0.500000 0.877302 0.000000
O O9 0.415067 0.500000 0.758450
O O10 0.472328 0.355942 0.700862
O O11 0.326658 0.383091 0.768732
O O12 0.750000 0.750000 0.500000
O O13 0.903852 0.739361 0.427570
O O14 0.347727 0.376522 0.493520
O O15 0.464924 0.319663 0.162222
O O16 0.184656 0.000000 0.358051
#
# Coordination Sequence:
#
# PCOD8088224 Si02
#       7
#     8   8   8   8   8   8   4
#     4  10  20  35  55  81 112 149 194 239 288 341
#     4  10  22  38  61  85 108 148 200 240 277 331
#     4   9  20  37  62  89 116 148 186 236 293 348
#     4  12  22  36  55  80 117 154 189 234 293 335
#     4  11  21  33  54  86 119 152 184 227 290 349
#     4  10  19  37  62  87 117 150 188 238 287 344
#     4  10  19  32  52  84 115 144 186 242 293 340
#
# _framework density 19.346332
#
# number of rings (size 3 to 8) (size 9 to 14) (size 15 to 20)
#    0.000    1.692    3.077    1.615    1.077    4.308 
#    0.000    0.769    3.385    0.000    0.000    5.385 
#    0.000    0.000    0.000    0.000    0.000    0.000 
#
# Total GULP energy -322260.959516 kJ/mol
# GULP energy per Si atom -12394.652289 kJ/mol
# Density = 1.930230 g / cm^3
# Si number density = 19.346332 Si / 1000 Ang^3
#
#
#
# Elastic Constant Matrix: (Units=GPa)
#
#
# Indices 1 2 3 4 5 6 
#
# 1 96.4834 47.8061 58.5046 0.0000 -4.7101 0.0000
# 2 47.8061 84.2935 54.9856 0.0000 -4.4816 0.0000
# 3 58.5046 54.9856 127.2663 0.0000 -0.2467 0.0000
# 4 0.0000 0.0000 0.0000 32.5670 0.0000 -3.0004
# 5 -4.7101 -4.4816 -0.2467 0.0000 21.7774 0.0000
# 6 0.0000 0.0000 0.0000 -3.0004 0.0000 17.1448
#
#
#
# Elastic Compliance Matrix: (Units=1/GPa)
#
#
# Indices 1 2 3 4 5 6 
#
# 1 0.016449 -0.005957 -0.004983 0.000000 0.002275 0.000000
# 2 -0.005957 0.018920 -0.005431 0.000000 0.002544 0.000000
# 3 -0.004983 -0.005431 0.012491 0.000000 -0.002054 0.000000
# 4 0.000000 0.000000 0.000000 0.031209 0.000000 0.005462
# 5 0.002275 0.002544 -0.002054 0.000000 0.046911 0.000000
# 6 0.000000 0.000000 0.000000 0.005462 0.000000 0.059283
#
#
# Mechanical properties :
#
#
# Convention : Reuss Voigt Hill
#
# Bulk Modulus (GPa) = 66.15200 70.07066 68.11133
# Shear Modulus (GPa) = 22.41704 24.08096 23.24900
#
# Velocity S-wave (km/s) = 3.40770 3.53190 3.47035
# Velocity P-wave (km/s) = 7.05344 7.27531 7.16523
#
# Compressibility (1/GPa) = 0.01511670
#
# Stress axis : x y z
#
# Youngs Moduli (GPa) = 60.79378 52.85503 80.05851
#
# Poissons Ratio (x) = 0.31487 0.39897
# Poissons Ratio (y) = 0.36216 0.43478
# Poissons Ratio (z) = 0.30296 0.28705
#
# Static dielectric constant tensor:
#      x y z
#    x 3.646120 0.000000 -0.051990 
#    y 0.000000 3.505160 0.000000 
#    z -0.051990 0.000000 3.682230 
# 
# 
# High freq. dielectric constant tensor:
#      x y z
#    x 1.735010 0.000000 0.002680 
#    y 0.000000 1.745730 0.000000 
#    z 0.002680 0.000000 1.756410 
# 
# From -- ./inp_files/168702.got.cif
#   From: 2010.06.25/outbox.cif.g09.slc.cpg/sg12_85_cif.got.tgz:168702.got - 2010.06.28 00:19:55.
