data_PCOD8088107
_publ_section_title
;
Structure prediction by ZEFSAII (Michael W. Deem and Ramdas Pophale) SiO2 
 PCOD8088107
Probable space group: C 2/M
;
_chemical_formula_sum "Si O2"
_cell_formula_units_Z 64
_cell_length_a 20.205460
_cell_length_b 9.024176
_cell_length_c 20.079958
_cell_angle_alpha 90.000000
_cell_angle_beta 97.044315
_cell_angle_gamma 90.000000
_cell_volume 3633.694683
_symmetry_space_group_name_H-M "C 2/M"
_symmetry_group_IT_number 12
_symmetry_cell_setting 'monoclinic'
loop_
_space_group_symop_operation_xyz
x,y,z
-x,y,-z
-x,-y,-z
x,-y,z
1/2+x,1/2+y,z
1/2-x,1/2+y,-z
1/2-x,1/2-y,-z
1/2+x,1/2-y,z
loop_
_atom_site_type_symbol
_atom_site_label
_atom_site_fract_x
_atom_site_fract_y
_atom_site_fract_z
Si Si1 0.695196 0.671437 0.948992
Si Si2 0.444938 0.325740 0.543145
Si Si3 0.163833 0.325679 0.668331
Si Si4 0.325914 0.328169 0.200085
Si Si5 0.457592 0.673638 0.059582
Si Si6 0.490874 0.167352 0.333847
Si Si7 0.193854 0.823972 0.536631
Si Si8 0.039253 0.329055 0.812880
O O1 0.699329 0.500000 0.966676
O O2 0.714457 0.700820 0.873595
O O3 0.619755 0.725922 0.957263
O O4 0.750000 0.750000 0.000000
O O5 0.500000 0.258543 0.500000
O O6 0.450991 0.500000 0.547256
O O7 0.457450 0.266375 0.618875
O O8 0.374059 0.274589 0.507341
O O9 0.175977 0.500000 0.662967
O O10 0.200299 0.268280 0.740469
O O11 0.197211 0.241219 0.611081
O O12 0.085642 0.284345 0.662398
O O13 0.323931 0.500000 0.220192
O O14 0.400540 0.281740 0.192721
O O15 0.461191 0.500000 0.077147
O O16 0.493633 0.768266 0.123139
O O17 0.500000 0.713145 0.000000
O O18 0.508979 0.183714 0.257546
O O19 0.500617 0.000000 0.359171
O O20 0.250000 0.750000 0.500000
O O21 0.202547 0.000000 0.540797
O O22 0.063130 0.500000 0.823091
#
# Coordination Sequence:
#
# PCOD8088107 Si02
#       8
#     8   8   8   8   8   8   8   8
#     4   9  18  31  50  76 103 132 167 208 254 300
#     4  10  20  34  53  79 104 130 170 213 253 302
#     4  10  19  32  52  79 105 133 171 214 259 305
#     4   9  17  30  49  74 102 134 173 211 252 300
#     4   9  18  33  52  74 101 135 174 209 249 303
#     4   9  18  30  49  77 106 132 164 211 260 302
#     4  11  23  38  55  76 105 139 174 212 257 310
#     4   9  17  29  46  75 106 132 168 209 256 303
#
# _framework density 17.612928
#
# number of rings (size 3 to 8) (size 9 to 14) (size 15 to 20)
#    0.000    2.500    1.250    3.000    0.000    6.500 
#    0.000    0.000    2.750    0.000    0.000    0.000 
#    0.000    0.000    0.000    0.000    0.000    0.000 
#
# Total GULP energy -396620.953405 kJ/mol
# GULP energy per Si atom -12394.404794 kJ/mol
# Density = 1.757284 g / cm^3
# Si number density = 17.612928 Si / 1000 Ang^3
#
#
#
# Elastic Constant Matrix: (Units=GPa)
#
#
# Indices 1 2 3 4 5 6 
#
# 1 71.8085 36.5377 58.2963 0.0000 -4.0699 0.0000
# 2 36.5377 58.9519 56.7925 0.0000 2.3340 0.0000
# 3 58.2963 56.7925 155.4835 0.0000 -2.8114 0.0000
# 4 0.0000 0.0000 0.0000 38.3883 0.0000 1.7444
# 5 -4.0699 2.3340 -2.8114 0.0000 24.9306 0.0000
# 6 0.0000 0.0000 0.0000 1.7444 0.0000 23.3574
#
#
#
# Elastic Compliance Matrix: (Units=1/GPa)
#
#
# Indices 1 2 3 4 5 6 
#
# 1 0.023204 -0.009620 -0.005112 0.000000 0.004112 0.000000
# 2 -0.009620 0.030476 -0.007620 0.000000 -0.005283 0.000000
# 3 -0.005112 -0.007620 0.011152 0.000000 0.001137 0.000000
# 4 0.000000 0.000000 0.000000 0.026138 0.000000 -0.001952
# 5 0.004112 -0.005283 0.001137 0.000000 0.041405 0.000000
# 6 0.000000 0.000000 0.000000 -0.001952 0.000000 0.042959
#
#
# Mechanical properties :
#
#
# Convention : Reuss Voigt Hill
#
# Bulk Modulus (GPa) = 49.68278 65.49966 57.59122
# Shear Modulus (GPa) = 22.05106 26.30974 24.18040
#
# Velocity S-wave (km/s) = 3.54217 3.86913 3.70926
# Velocity P-wave (km/s) = 6.70811 7.56501 7.14941
#
# Compressibility (1/GPa) = 0.02012770
#
# Stress axis : x y z
#
# Youngs Moduli (GPa) = 43.09690 32.81324 89.66866
#
# Poissons Ratio (x) = 0.31565 0.45837
# Poissons Ratio (y) = 0.41457 0.68331
# Poissons Ratio (z) = 0.22030 0.25005
#
# Static dielectric constant tensor:
#      x y z
#    x 2.956690 0.000000 -0.032140 
#    y 0.000000 3.294710 0.000000 
#    z -0.032140 0.000000 3.622080 
# 
# 
# High freq. dielectric constant tensor:
#      x y z
#    x 1.628710 0.000000 0.002070 
#    y 0.000000 1.687950 0.000000 
#    z 0.002070 0.000000 1.700450 
# 
# From -- ./inp_files/314056.got.cif
#   From: 2010.06.25/outbox.cif.g09.slc.cpg/sg12_158_cif.got.tgz:314056.got - 2010.06.28 00:19:55.
