data_PCOD8088794
_publ_section_title
;
Structure prediction by ZEFSAII (Michael W. Deem and Ramdas Pophale) SiO2 
 PCOD8088794
Probable space group: C 2/M
;
_chemical_formula_sum "Si O2"
_cell_formula_units_Z 56
_cell_length_a 28.247392
_cell_length_b 9.124208
_cell_length_c 17.451998
_cell_angle_alpha 90.000000
_cell_angle_beta 136.446788
_cell_angle_gamma 90.000000
_cell_volume 3099.242285
_symmetry_space_group_name_H-M "C 2/M"
_symmetry_group_IT_number 12
_symmetry_cell_setting 'monoclinic'
loop_
_space_group_symop_operation_xyz
x,y,z
-x,y,-z
-x,-y,-z
x,-y,z
1/2+x,1/2+y,z
1/2-x,1/2+y,-z
1/2-x,1/2-y,-z
1/2+x,1/2-y,z
loop_
_atom_site_type_symbol
_atom_site_label
_atom_site_fract_x
_atom_site_fract_y
_atom_site_fract_z
Si Si1 0.560806 0.827012 0.918218
Si Si2 0.310849 0.170716 0.341745
Si Si3 0.591357 0.170904 0.229795
Si Si4 0.035676 0.831908 0.739726
Si Si5 0.331489 0.173632 0.826643
Si Si6 0.574550 0.667714 0.616543
Si Si7 0.103649 0.669195 0.413905
O O1 0.486925 0.769864 0.862515
O O2 0.576124 0.751777 0.854622
O O3 0.558859 0.000000 0.902537
O O4 0.618780 0.780305 0.045900
O O5 0.241234 0.254618 0.242467
O O6 0.368936 0.226588 0.352567
O O7 0.332903 0.202132 0.455553
O O8 0.299502 0.000000 0.313507
O O9 0.636356 0.240567 0.214208
O O10 0.626094 0.206481 0.352861
O O11 0.588388 0.000000 0.208981
O O12 0.079848 0.816576 0.714372
O O13 0.960504 0.766227 0.635841
O O14 0.026325 0.000000 0.752603
O O15 0.321614 0.000000 0.810775
O O16 0.500000 0.718943 0.500000
O O17 0.588096 0.500000 0.606642
O O18 0.080272 0.500000 0.391676
#
# Coordination Sequence:
#
# PCOD8088794 Si02
#       7
#     8   8   8   8   8   8   8
#     4   9  18  34  56  80 106 137 178 221 259 306
#     4  11  23  35  51  78 112 143 173 215 266 314
#     4   8  15  31  56  80 101 134 182 221 252 304
#     4  10  19  32  55  83 106 131 168 218 268 310
#     4  10  20  35  55  76 104 146 184 215 255 306
#     4  10  20  36  57  80 105 134 173 216 259 317
#     4   9  18  33  52  77 108 139 173 214 260 311
#
# _framework density 18.068933000000001
#
# number of rings (size 3 to 8) (size 9 to 14) (size 15 to 20)
#    0.000    2.429    1.429    2.143    0.000    4.857 
#    0.000    3.571    0.000    4.286    0.000    0.000 
#    0.000    0.000    0.000    0.000    0.000    0.000 
#
# Total GULP energy -347186.980730 kJ/mol
# GULP energy per Si atom -12399.535026 kJ/mol
# Density = 1.802781 g / cm^3
# Si number density = 18.068933 Si / 1000 Ang^3
#
#
#
# Elastic Constant Matrix: (Units=GPa)
#
#
# Indices 1 2 3 4 5 6 
#
# 1 98.6117 32.8546 59.9017 0.0000 -4.4634 0.0000
# 2 32.8546 47.9953 36.3303 0.0000 -2.9233 0.0000
# 3 59.9017 36.3303 96.0518 0.0000 0.1051 0.0000
# 4 0.0000 0.0000 0.0000 25.5126 0.0000 -2.4212
# 5 -4.4634 -2.9233 0.1051 0.0000 24.6505 0.0000
# 6 0.0000 0.0000 0.0000 -2.4212 0.0000 21.3464
#
#
#
# Elastic Compliance Matrix: (Units=1/GPa)
#
#
# Indices 1 2 3 4 5 6 
#
# 1 0.017339 -0.004938 -0.008948 0.000000 0.002592 0.000000
# 2 -0.004938 0.030907 -0.008614 0.000000 0.002808 0.000000
# 3 -0.008948 -0.008614 0.019253 0.000000 -0.002724 0.000000
# 4 0.000000 0.000000 0.000000 0.039623 0.000000 0.004494
# 5 0.002592 0.002808 -0.002724 0.000000 0.041381 0.000000
# 6 0.000000 0.000000 0.000000 0.004494 0.000000 0.047356
#
#
# Mechanical properties :
#
#
# Convention : Reuss Voigt Hill
#
# Bulk Modulus (GPa) = 44.44754 55.64800 50.04777
# Shear Modulus (GPa) = 20.13226 21.87338 21.00282
#
# Velocity S-wave (km/s) = 3.34157 3.48307 3.41306
# Velocity P-wave (km/s) = 6.28812 6.85859 6.57954
#
# Compressibility (1/GPa) = 0.02249843
#
# Stress axis : x y z
#
# Youngs Moduli (GPa) = 57.67354 32.35551 51.94083
#
# Poissons Ratio (x) = 0.15976 0.46479
# Poissons Ratio (y) = 0.28478 0.44740
# Poissons Ratio (z) = 0.51609 0.27870
#
# Static dielectric constant tensor:
#      x y z
#    x 3.355320 0.000000 -0.218430 
#    y 0.000000 3.187520 0.000000 
#    z -0.218430 0.000000 3.369710 
# 
# 
# High freq. dielectric constant tensor:
#      x y z
#    x 1.695690 0.000000 -0.017330 
#    y 0.000000 1.684960 0.000000 
#    z -0.017330 0.000000 1.696930 
# 
# From -- ./inp_files/288243.got.cif
#   From: 2010.06.25/outbox.cif.g09.slc.cpg/sg12_145_cif.got.tgz:288243.got - 2010.06.28 00:19:55.
