data_PCOD8088136
_publ_section_title
;
Structure prediction by ZEFSAII (Michael W. Deem and Ramdas Pophale) SiO2 
 PCOD8088136
Probable space group: C 2/M
;
_chemical_formula_sum "Si O2"
_cell_formula_units_Z 56
_cell_length_a 20.553106
_cell_length_b 8.793845
_cell_length_c 17.796654
_cell_angle_alpha 90.000000
_cell_angle_beta 116.004155
_cell_angle_gamma 90.000000
_cell_volume 2890.942477
_symmetry_space_group_name_H-M "C 2/M"
_symmetry_group_IT_number 12
_symmetry_cell_setting 'monoclinic'
loop_
_space_group_symop_operation_xyz
x,y,z
-x,y,-z
-x,-y,-z
x,-y,z
1/2+x,1/2+y,z
1/2-x,1/2+y,-z
1/2-x,1/2-y,-z
1/2+x,1/2-y,z
loop_
_atom_site_type_symbol
_atom_site_label
_atom_site_fract_x
_atom_site_fract_y
_atom_site_fract_z
Si Si1 0.171607 0.680703 0.463268
Si Si2 0.420512 0.180487 0.443461
Si Si3 0.402158 0.819726 0.724334
Si Si4 0.814642 0.320207 0.823689
Si Si5 0.423306 0.320227 0.993772
Si Si6 0.938176 0.321610 0.159150
Si Si7 0.841593 0.678069 0.253516
O O1 0.177064 0.500000 0.464340
O O2 0.250000 0.750000 0.500000
O O3 0.133172 0.740081 0.519190
O O4 0.126618 0.743449 0.369377
O O5 0.500000 0.249557 0.500000
O O6 0.391225 0.234867 0.347873
O O7 0.425371 0.000000 0.447969
O O8 0.350060 0.760665 0.764195
O O9 0.482974 0.758102 0.778281
O O10 0.403508 0.000000 0.722701
O O11 0.820581 0.500000 0.833605
O O12 0.731859 0.271522 0.783687
O O13 0.856985 0.247188 0.914030
O O14 0.419749 0.500000 0.987418
O O15 0.411531 0.267194 0.072753
O O16 0.500000 0.259461 0.000000
O O17 0.941184 0.500000 0.142500
O O18 0.883227 0.285001 0.198127
O O19 0.824000 0.500000 0.252365
#
# Coordination Sequence:
#
# PCOD8088136 Si02
#       7
#     8   8   8   8   8   8   8
#     4  10  19  32  52  79 111 144 182 229 274 321
#     4   9  17  32  56  83 111 148 191 231 273 323
#     4   9  18  33  55  81 106 142 190 230 269 323
#     4  11  22  37  59  82 113 153 187 226 276 338
#     4  11  23  39  60  87 114 139 177 233 286 332
#     4  10  20  37  60  82 109 146 188 229 271 330
#     4  10  21  36  56  85 117 148 187 235 279 322
#
# _framework density 19.370844000000002
#
# number of rings (size 3 to 8) (size 9 to 14) (size 15 to 20)
#    0.000    2.000    1.429    2.571    0.000    5.143 
#    0.000    1.429    0.000    3.429    0.000    0.000 
#    0.000    0.000    0.000    0.000    0.000    0.000 
#
# Total GULP energy -347280.407556 kJ/mol
# GULP energy per Si atom -12402.871698 kJ/mol
# Density = 1.932676 g / cm^3
# Si number density = 19.370844 Si / 1000 Ang^3
#
#
#
# Elastic Constant Matrix: (Units=GPa)
#
#
# Indices 1 2 3 4 5 6 
#
# 1 128.6763 28.6814 49.5869 0.0000 -3.1932 0.0000
# 2 28.6814 37.0143 29.0819 0.0000 -2.5870 0.0000
# 3 49.5869 29.0819 144.0649 0.0000 -6.6142 0.0000
# 4 0.0000 0.0000 0.0000 14.6941 0.0000 4.0712
# 5 -3.1932 -2.5870 -6.6142 0.0000 37.6035 0.0000
# 6 0.0000 0.0000 0.0000 4.0712 0.0000 28.0698
#
#
#
# Elastic Compliance Matrix: (Units=1/GPa)
#
#
# Indices 1 2 3 4 5 6 
#
# 1 0.009959 -0.005969 -0.002221 0.000000 0.000044 0.000000
# 2 -0.005969 0.035730 -0.005110 0.000000 0.001052 0.000000
# 3 -0.002221 -0.005110 0.008783 0.000000 0.001005 0.000000
# 4 0.000000 0.000000 0.000000 0.070904 0.000000 -0.010284
# 5 0.000044 0.001052 0.001005 0.000000 0.026846 0.000000
# 6 0.000000 0.000000 0.000000 -0.010284 0.000000 0.037117
#
#
# Mechanical properties :
#
#
# Convention : Reuss Voigt Hill
#
# Bulk Modulus (GPa) = 35.87696 58.27289 47.07492
# Shear Modulus (GPa) = 22.19960 29.56718 25.88339
#
# Velocity S-wave (km/s) = 3.38898 3.91112 3.65938
# Velocity P-wave (km/s) = 5.82022 7.10943 6.49688
#
# Compressibility (1/GPa) = 0.02787304
#
# Stress axis : x y z
#
# Youngs Moduli (GPa) = 100.41388 27.98769 113.85118
#
# Poissons Ratio (x) = 0.16705 0.25285
# Poissons Ratio (y) = 0.59935 0.58177
# Poissons Ratio (z) = 0.22301 0.14302
#
# Static dielectric constant tensor:
#      x y z
#    x 3.632870 0.000000 -0.017530 
#    y 0.000000 3.182950 0.000000 
#    z -0.017530 0.000000 3.758000 
# 
# 
# High freq. dielectric constant tensor:
#      x y z
#    x 1.765580 0.000000 -0.001390 
#    y 0.000000 1.718720 0.000000 
#    z -0.001390 0.000000 1.773260 
# 
# From -- ./inp_files/275638.got.cif
#   From: 2010.06.25/outbox.cif.g09.slc.cpg/sg12_138_cif.got.tgz:275638.got - 2010.06.28 00:19:55.
