data_PCOD8088796
_publ_section_title
;
Structure prediction by ZEFSAII (Michael W. Deem and Ramdas Pophale) SiO2 
 PCOD8088796
Probable space group: C 2/M
;
_chemical_formula_sum "Si O2"
_cell_formula_units_Z 64
_cell_length_a 20.635888
_cell_length_b 8.860931
_cell_length_c 18.977215
_cell_angle_alpha 90.000000
_cell_angle_beta 89.689846
_cell_angle_gamma 90.000000
_cell_volume 3469.993264
_symmetry_space_group_name_H-M "C 2/M"
_symmetry_group_IT_number 12
_symmetry_cell_setting 'monoclinic'
loop_
_space_group_symop_operation_xyz
x,y,z
-x,y,-z
-x,-y,-z
x,-y,z
1/2+x,1/2+y,z
1/2-x,1/2+y,-z
1/2-x,1/2-y,-z
1/2+x,1/2-y,z
loop_
_atom_site_type_symbol
_atom_site_label
_atom_site_fract_x
_atom_site_fract_y
_atom_site_fract_z
Si Si1 0.941055 0.322486 0.711106
Si Si2 0.053878 0.322902 0.448006
Si Si3 0.376358 0.678346 0.085227
Si Si4 0.743244 0.173812 0.844439
Si Si5 0.799972 0.679188 0.553663
Si Si6 0.306337 0.674317 0.698721
Si Si7 0.992802 0.820973 0.841934
Si Si8 0.132217 0.179551 0.072732
O O1 0.929864 0.500000 0.720130
O O2 0.965624 0.284363 0.632126
O O3 0.874056 0.237576 0.727002
O O4 0.993738 0.260142 0.765783
O O5 0.054676 0.500000 0.460862
O O6 0.126747 0.263268 0.463854
O O7 0.000000 0.247761 0.500000
O O8 0.374766 0.500000 0.081759
O O9 0.319920 0.733114 0.136324
O O10 0.444223 0.734125 0.116472
O O11 0.368088 0.744977 0.006608
O O12 0.754334 0.193277 0.761115
O O13 0.803910 0.239706 0.888167
O O14 0.732324 0.000000 0.864493
O O15 0.795390 0.500000 0.550459
O O16 0.750000 0.750000 0.500000
O O17 0.780658 0.732833 0.631933
O O18 0.315268 0.500000 0.677725
O O19 0.931178 0.761783 0.886273
O O20 0.991730 0.000000 0.830710
O O21 0.130825 0.000000 0.072653
#
# Coordination Sequence:
#
# PCOD8088796 Si02
#       8
#     8   8   8   8   8   8   8   8
#     4  10  19  32  55  83 106 136 178 225 267 313
#     4   8  16  33  55  78 104 135 174 213 255 312
#     4  10  21  34  53  79 108 140 176 226 275 317
#     4  10  20  35  55  77 106 141 178 222 272 328
#     4  10  20  35  57  84 113 143 180 223 265 316
#     4  10  19  35  58  80 105 144 186 222 265 321
#     4  10  19  35  55  76 106 142 180 219 264 323
#     4   9  17  34  57  78  99 138 187 220 262 327
#
# _framework density 18.443840999999999
#
# number of rings (size 3 to 8) (size 9 to 14) (size 15 to 20)
#    0.000    2.375    1.250    2.625    0.000    3.000 
#    2.250    0.625    0.000   14.250    0.000    0.000 
#    0.000    0.000    0.000    0.000    0.000    0.000 
#
# Total GULP energy -396800.680219 kJ/mol
# GULP energy per Si atom -12400.021257 kJ/mol
# Density = 1.840186 g / cm^3
# Si number density = 18.443841 Si / 1000 Ang^3
#
#
#
# Elastic Constant Matrix: (Units=GPa)
#
#
# Indices 1 2 3 4 5 6 
#
# 1 115.1242 29.0318 64.8048 0.0000 0.0373 0.0000
# 2 29.0318 41.7059 33.6429 0.0000 5.0441 0.0000
# 3 64.8048 33.6429 126.1937 0.0000 5.5237 0.0000
# 4 0.0000 0.0000 0.0000 28.7999 0.0000 1.6697
# 5 0.0373 5.0441 5.5237 0.0000 32.0287 0.0000
# 6 0.0000 0.0000 0.0000 1.6697 0.0000 25.0516
#
#
#
# Elastic Compliance Matrix: (Units=1/GPa)
#
#
# Indices 1 2 3 4 5 6 
#
# 1 0.012971 -0.004842 -0.005444 0.000000 0.001686 0.000000
# 2 -0.004842 0.032733 -0.006061 0.000000 -0.004104 0.000000
# 3 -0.005444 -0.006061 0.012387 0.000000 -0.001176 0.000000
# 4 0.000000 0.000000 0.000000 0.034857 0.000000 -0.002323
# 5 0.001686 -0.004104 -0.001176 0.000000 0.032069 0.000000
# 6 0.000000 0.000000 0.000000 -0.002323 0.000000 0.040072
#
#
# Mechanical properties :
#
#
# Convention : Reuss Voigt Hill
#
# Bulk Modulus (GPa) = 39.37206 59.77588 49.57397
# Shear Modulus (GPa) = 24.24249 27.54565 25.89407
#
# Velocity S-wave (km/s) = 3.62939 3.86876 3.75099
# Velocity P-wave (km/s) = 6.24153 7.24130 6.75992
#
# Compressibility (1/GPa) = 0.02539872
#
# Stress axis : x y z
#
# Youngs Moduli (GPa) = 77.09313 30.55025 80.72775
#
# Poissons Ratio (x) = 0.14791 0.43950
# Poissons Ratio (y) = 0.37326 0.48925
# Poissons Ratio (z) = 0.41972 0.18515
#
# Static dielectric constant tensor:
#      x y z
#    x 3.439590 0.000000 -0.003320 
#    y 0.000000 3.144300 0.000000 
#    z -0.003320 0.000000 3.589060 
# 
# 
# High freq. dielectric constant tensor:
#      x y z
#    x 1.708150 0.000000 0.002430 
#    y 0.000000 1.692410 0.000000 
#    z 0.002430 0.000000 1.727160 
# 
# From -- ./inp_files/281239.got.cif
#   From: 2010.06.25/outbox.cif.g09.slc.cpg/sg12_141_cif.got.tgz:281239.got - 2010.06.28 00:19:55.
