data_PCOD8088206
_publ_section_title
;
Structure prediction by ZEFSAII (Michael W. Deem and Ramdas Pophale) SiO2 
 PCOD8088206
Probable space group: C 2/M
;
_chemical_formula_sum "Si O2"
_cell_formula_units_Z 56
_cell_length_a 20.678869
_cell_length_b 8.857543
_cell_length_c 30.380074
_cell_angle_alpha 90.000000
_cell_angle_beta 146.747551
_cell_angle_gamma 90.000000
_cell_volume 3051.195772
_symmetry_space_group_name_H-M "C 2/M"
_symmetry_group_IT_number 12
_symmetry_cell_setting 'monoclinic'
loop_
_space_group_symop_operation_xyz
x,y,z
-x,y,-z
-x,-y,-z
x,-y,z
1/2+x,1/2+y,z
1/2-x,1/2+y,-z
1/2-x,1/2-y,-z
1/2+x,1/2-y,z
loop_
_atom_site_type_symbol
_atom_site_label
_atom_site_fract_x
_atom_site_fract_y
_atom_site_fract_z
Si Si1 0.073576 0.674972 0.922010
Si Si2 0.284411 0.175683 0.084955
Si Si3 0.663330 0.321140 0.232974
Si Si4 0.597674 0.820818 0.674936
Si Si5 0.047311 0.320651 0.742827
Si Si6 0.575105 0.822952 0.499713
Si Si7 0.185028 0.678749 0.340727
O O1 0.046806 0.500000 0.913835
O O2 0.125905 0.708529 0.903719
O O3 0.952895 0.766871 0.858640
O O4 0.164522 0.730407 0.011000
O O5 0.347219 0.233006 0.165120
O O6 0.251209 0.000000 0.067788
O O7 0.663372 0.500000 0.237693
O O8 0.775002 0.262996 0.268523
O O9 0.670948 0.251767 0.285361
O O10 0.569488 0.752140 0.706966
O O11 0.497553 0.767006 0.584003
O O12 0.598379 0.000000 0.677162
O O13 0.046824 0.500000 0.741092
O O14 0.921846 0.263323 0.689457
O O15 0.500000 0.783336 0.500000
O O16 0.695265 0.729688 0.567847
O O17 0.604622 0.000000 0.514984
O O18 0.182085 0.500000 0.333201
#
# Coordination Sequence:
#
# PCOD8088206 Si02
#       7
#     8   8   8   8   8   8   8
#     4  10  19  32  52  82 110 137 174 222 270 309
#     4   9  17  32  53  78 106 139 177 218 263 315
#     4  11  20  34  56  82 106 140 184 220 261 315
#     4   9  19  35  56  77 105 143 181 221 263 313
#     4   9  18  35  55  78 108 141 178 220 267 315
#     4  10  19  35  55  80 108 140 181 222 263 311
#     4  11  21  34  55  82 109 139 176 223 273 315
#
# _framework density 18.353460999999999
#
# number of rings (size 3 to 8) (size 9 to 14) (size 15 to 20)
#    0.000    2.143    2.857    1.286    0.000    1.429 
#    0.000    0.714    0.000   11.143    0.000    0.000 
#    0.000    0.000    0.000    0.000    0.000    0.000 
#
# Total GULP energy -347244.145254 kJ/mol
# GULP energy per Si atom -12401.576616 kJ/mol
# Density = 1.831169 g / cm^3
# Si number density = 18.353461 Si / 1000 Ang^3
#
#
#
# Elastic Constant Matrix: (Units=GPa)
#
#
# Indices 1 2 3 4 5 6 
#
# 1 141.4817 37.8459 88.4781 0.0000 0.2174 0.0000
# 2 37.8459 48.8070 37.5651 -0.0001 6.6452 0.0003
# 3 88.4781 37.5651 164.9762 0.0000 3.4994 0.0000
# 4 0.0000 -0.0001 0.0000 31.7204 0.0000 4.8443
# 5 0.2174 6.6452 3.4994 0.0000 33.6388 0.0000
# 6 0.0000 0.0003 0.0000 4.8443 0.0000 17.3620
#
#
#
# Elastic Compliance Matrix: (Units=1/GPa)
#
#
# Indices 1 2 3 4 5 6 
#
# 1 0.011669 -0.005350 -0.005072 0.000000 0.001509 0.000000
# 2 -0.005350 0.027941 -0.003384 0.000000 -0.005133 -0.000001
# 3 -0.005072 -0.003384 0.009558 0.000000 -0.000293 0.000000
# 4 0.000000 0.000000 0.000000 0.032929 0.000000 -0.009188
# 5 0.001509 -0.005133 -0.000293 0.000000 0.030762 0.000000
# 6 0.000000 -0.000001 0.000000 -0.009188 0.000000 0.060161
#
#
# Mechanical properties :
#
#
# Convention : Reuss Voigt Hill
#
# Bulk Modulus (GPa) = 46.39049 75.89369 61.14209
# Shear Modulus (GPa) = 24.05976 29.30261 26.68118
#
# Velocity S-wave (km/s) = 3.62458 4.00005 3.81693
# Velocity P-wave (km/s) = 6.54582 7.92305 7.26714
#
# Compressibility (1/GPa) = 0.02155614
#
# Stress axis : x y z
#
# Youngs Moduli (GPa) = 85.70057 35.79000 104.62138
#
# Poissons Ratio (x) = 0.19147 0.53062
# Poissons Ratio (y) = 0.45849 0.35404
# Poissons Ratio (z) = 0.43465 0.12111
#
# Static dielectric constant tensor:
#      x y z
#    x 3.502140 0.000000 0.041580 
#    y 0.000000 3.142230 0.000000 
#    z 0.041580 0.000000 3.673580 
# 
# 
# High freq. dielectric constant tensor:
#      x y z
#    x 1.698570 0.000000 0.006950 
#    y 0.000000 1.687680 0.000000 
#    z 0.006950 0.000000 1.728510 
# 
# From -- ./inp_files/275492.got.cif
#   From: 2010.06.25/outbox.cif.g09.slc.cpg/sg12_138_cif.got.tgz:275492.got - 2010.06.28 00:19:55.
