data_PCOD8088804
_publ_section_title
;
Structure prediction by ZEFSAII (Michael W. Deem and Ramdas Pophale) SiO2 
 PCOD8088804
Probable space group: C 2/M
;
_chemical_formula_sum "Si O2"
_cell_formula_units_Z 56
_cell_length_a 16.197208
_cell_length_b 8.977289
_cell_length_c 19.909750
_cell_angle_alpha 90.000000
_cell_angle_beta 101.650217
_cell_angle_gamma 90.000000
_cell_volume 2835.376061
_symmetry_space_group_name_H-M "C 2/M"
_symmetry_group_IT_number 12
_symmetry_cell_setting 'monoclinic'
loop_
_space_group_symop_operation_xyz
x,y,z
-x,y,-z
-x,-y,-z
x,-y,z
1/2+x,1/2+y,z
1/2-x,1/2+y,-z
1/2-x,1/2-y,-z
1/2+x,1/2-y,z
loop_
_atom_site_type_symbol
_atom_site_label
_atom_site_fract_x
_atom_site_fract_y
_atom_site_fract_z
Si Si1 0.061519 0.671363 0.352142
Si Si2 0.764147 0.676147 0.210244
Si Si3 0.984738 0.676452 0.071458
Si Si4 0.202224 0.324187 0.931492
Si Si5 0.233148 0.177815 0.426076
Si Si6 0.376763 0.176436 0.346368
Si Si7 0.598845 0.829748 0.209631
O O1 0.079203 0.500000 0.376206
O O2 0.141399 0.769747 0.385916
O O3 0.045416 0.681577 0.269321
O O4 0.974028 0.731505 0.372174
O O5 0.760843 0.500000 0.207559
O O6 0.765897 0.739001 0.134676
O O7 0.844231 0.728773 0.267481
O O8 0.682431 0.735199 0.234780
O O9 0.993649 0.500000 0.069938
O O10 0.048946 0.739471 0.137794
O O11 0.893671 0.725814 0.080347
O O12 0.000000 0.745786 0.000000
O O13 0.213656 0.500000 0.939207
O O14 0.250000 0.250000 0.000000
O O15 0.250000 0.250000 0.500000
O O16 0.310401 0.234767 0.391401
O O17 0.232174 0.000000 0.430516
O O18 0.378259 0.000000 0.349660
O O19 0.623345 0.000000 0.198504
#
# Coordination Sequence:
#
# PCOD8088804 Si02
#       7
#     8   8   8   8   8   8   8
#     4  10  20  37  61  88 115 149 196 241 284 341
#     4  10  19  34  55  79 109 147 187 228 283 347
#     4   9  17  30  48  72 103 140 182 227 278 331
#     4  10  20  33  51  74 104 141 184 233 283 338
#     4  11  23  41  63  88 121 156 190 235 289 347
#     4   9  19  37  61  85 115 155 194 231 284 350
#     4  10  19  32  55  83 109 140 185 240 284 328
#
# _framework density 19.750465999999999
#
# number of rings (size 3 to 8) (size 9 to 14) (size 15 to 20)
#    0.000    2.143    1.429    2.143    0.000    5.714 
#    0.000    5.714    0.000    6.000    0.000    0.000 
#    0.000    0.000    0.000    0.000    0.000    0.000 
#
# Total GULP energy -347045.339366 kJ/mol
# GULP energy per Si atom -12394.476406 kJ/mol
# Density = 1.970551 g / cm^3
# Si number density = 19.750466 Si / 1000 Ang^3
#
#
#
# Elastic Constant Matrix: (Units=GPa)
#
#
# Indices 1 2 3 4 5 6 
#
# 1 151.1353 28.5377 61.4963 0.0000 -4.3205 0.0000
# 2 28.5377 31.3379 32.7142 0.0000 -0.5405 0.0000
# 3 61.4963 32.7142 128.4883 0.0000 0.0186 0.0000
# 4 0.0000 0.0000 0.0000 24.6733 0.0000 0.7009
# 5 -4.3205 -0.5405 0.0186 0.0000 31.7854 0.0000
# 6 0.0000 0.0000 0.0000 0.7009 0.0000 23.4188
#
#
#
# Elastic Compliance Matrix: (Units=1/GPa)
#
#
# Indices 1 2 3 4 5 6 
#
# 1 0.008773 -0.004885 -0.002955 0.000000 0.001111 0.000000
# 2 -0.004885 0.046200 -0.009425 0.000000 0.000127 0.000000
# 3 -0.002955 -0.009425 0.011597 0.000000 -0.000569 0.000000
# 4 0.000000 0.000000 0.000000 0.040564 0.000000 -0.001214
# 5 0.001111 0.000127 -0.000569 0.000000 0.031615 0.000000
# 6 0.000000 0.000000 0.000000 -0.001214 0.000000 0.042737
#
#
# Mechanical properties :
#
#
# Convention : Reuss Voigt Hill
#
# Bulk Modulus (GPa) = 31.21146 61.82864 46.52005
# Shear Modulus (GPa) = 22.05599 28.52307 25.28953
#
# Velocity S-wave (km/s) = 3.34538 3.80435 3.58222
# Velocity P-wave (km/s) = 5.54611 7.11831 6.38081
#
# Compressibility (1/GPa) = 0.03203952
#
# Stress axis : x y z
#
# Youngs Moduli (GPa) = 113.98228 21.64522 86.22894
#
# Poissons Ratio (x) = 0.10574 0.25484
# Poissons Ratio (y) = 0.55680 0.81269
# Poissons Ratio (z) = 0.33687 0.20400
#
# Static dielectric constant tensor:
#      x y z
#    x 3.769070 0.000000 -0.116140 
#    y 0.000000 3.256320 0.000000 
#    z -0.116140 0.000000 3.849040 
# 
# 
# High freq. dielectric constant tensor:
#      x y z
#    x 1.781510 0.000000 -0.001150 
#    y 0.000000 1.726140 0.000000 
#    z -0.001150 0.000000 1.782780 
# 
# From -- ./inp_files/309024.got.cif
#   From: 2010.06.25/outbox.cif.g09.slc.cpg/sg12_155_cif.got.tgz:309024.got - 2010.06.28 00:19:55.
