data_PCOD8088665
_publ_section_title
;
Structure prediction by ZEFSAII (Michael W. Deem and Ramdas Pophale) SiO2 
 PCOD8088665
Probable space group: C 2/M
;
_chemical_formula_sum "Si O2"
_cell_formula_units_Z 56
_cell_length_a 24.329973
_cell_length_b 8.965239
_cell_length_c 14.039664
_cell_angle_alpha 90.000000
_cell_angle_beta 82.085443
_cell_angle_gamma 90.000000
_cell_volume 3033.217248
_symmetry_space_group_name_H-M "C 2/M"
_symmetry_group_IT_number 12
_symmetry_cell_setting 'monoclinic'
loop_
_space_group_symop_operation_xyz
x,y,z
-x,y,-z
-x,-y,-z
x,-y,z
1/2+x,1/2+y,z
1/2-x,1/2+y,-z
1/2-x,1/2-y,-z
1/2+x,1/2-y,z
loop_
_atom_site_type_symbol
_atom_site_label
_atom_site_fract_x
_atom_site_fract_y
_atom_site_fract_z
Si Si1 0.301800 0.327765 0.036902
Si Si2 0.205164 0.674244 0.301528
Si Si3 0.031967 0.826120 0.301931
Si Si4 0.081098 0.675129 0.665101
Si Si5 0.185527 0.323835 0.765565
Si Si6 0.900214 0.674937 0.554589
Si Si7 0.638257 0.330534 0.162692
O O1 0.287450 0.500000 0.061295
O O2 0.318454 0.247377 0.129621
O O3 0.250000 0.250000 0.000000
O O4 0.354244 0.313423 0.952511
O O5 0.218022 0.500000 0.297605
O O6 0.262126 0.762084 0.306538
O O7 0.161111 0.718345 0.393622
O O8 0.181455 0.721138 0.204264
O O9 0.052641 0.757854 0.396578
O O10 0.075490 0.789427 0.207048
O O11 0.974068 0.754825 0.284325
O O12 0.023584 0.000000 0.319305
O O13 0.070964 0.500000 0.670548
O O14 0.130855 0.723754 0.721656
O O15 0.095599 0.727822 0.554904
O O16 0.191305 0.500000 0.774160
O O17 0.910924 0.500000 0.564363
O O18 0.651992 0.500000 0.191847
#
# Coordination Sequence:
#
# PCOD8088665 Si02
#       7
#     8   8   8   8   8   8   8
#     4  11  21  35  58  84 109 140 178 220 270 325
#     4  10  19  32  54  82 108 138 179 225 270 320
#     4  10  20  35  57  84 109 137 179 227 271 318
#     4  10  22  39  55  74 108 152 186 219 268 322
#     4  11  23  37  53  77 112 148 181 221 271 324
#     4   9  19  36  57  80 107 142 184 224 268 323
#     4   9  19  35  55  80 110 139 171 219 275 322
#
# _framework density 18.462244999999999
#
# number of rings (size 3 to 8) (size 9 to 14) (size 15 to 20)
#    0.000    2.000    1.429    2.143    0.000    5.714 
#    0.000    0.714    0.000    4.286    0.000    0.000 
#    0.000    0.000    0.000    0.000    0.000    0.000 
#
# Total GULP energy -347273.360665 kJ/mol
# GULP energy per Si atom -12402.620024 kJ/mol
# Density = 1.842022 g / cm^3
# Si number density = 18.462245 Si / 1000 Ang^3
#
#
#
# Elastic Constant Matrix: (Units=GPa)
#
#
# Indices 1 2 3 4 5 6 
#
# 1 153.9200 61.6133 62.2306 0.0000 5.6374 0.0000
# 2 61.6133 72.7517 30.2836 0.0000 4.5015 0.0000
# 3 62.2306 30.2836 79.9561 0.0000 -1.1514 0.0000
# 4 0.0000 0.0000 0.0000 25.9167 0.0000 -2.2047
# 5 5.6374 4.5015 -1.1514 0.0000 23.0917 0.0000
# 6 0.0000 0.0000 0.0000 -2.2047 0.0000 33.0310
#
#
#
# Elastic Compliance Matrix: (Units=1/GPa)
#
#
# Indices 1 2 3 4 5 6 
#
# 1 0.012294 -0.007481 -0.006763 0.000000 -0.001880 0.000000
# 2 -0.007481 0.021156 -0.002225 0.000000 -0.002409 0.000000
# 3 -0.006763 -0.002225 0.018656 0.000000 0.003015 0.000000
# 4 0.000000 0.000000 0.000000 0.038806 0.000000 0.002590
# 5 -0.001880 -0.002409 0.003015 0.000000 0.044385 0.000000
# 6 0.000000 0.000000 0.000000 0.002590 0.000000 0.030447
#
#
# Mechanical properties :
#
#
# Convention : Reuss Voigt Hill
#
# Bulk Modulus (GPa) = 52.16537 68.32030 60.24284
# Shear Modulus (GPa) = 24.38171 26.57457 25.47814
#
# Velocity S-wave (km/s) = 3.63798 3.79806 3.71888
# Velocity P-wave (km/s) = 6.77961 7.50463 7.15131
#
# Compressibility (1/GPa) = 0.01916980
#
# Stress axis : x y z
#
# Youngs Moduli (GPa) = 81.33792 47.26747 53.60073
#
# Poissons Ratio (x) = 0.35360 0.36248
# Poissons Ratio (y) = 0.60847 0.11928
# Poissons Ratio (z) = 0.55005 0.10518
#
# Static dielectric constant tensor:
#      x y z
#    x 3.458060 0.000000 -0.228170 
#    y 0.000000 3.443290 0.000000 
#    z -0.228170 0.000000 3.488310 
# 
# 
# High freq. dielectric constant tensor:
#      x y z
#    x 1.713950 0.000000 -0.020290 
#    y 0.000000 1.723720 0.000000 
#    z -0.020290 0.000000 1.709700 
# 
# From -- ./inp_files/230871.got.cif
#   From: 2010.06.25/outbox.cif.g09.slc.cpg/sg12_116_cif.got.tgz:230871.got - 2010.06.28 00:19:55.
