data_PCOD8088325
_publ_section_title
;
Structure prediction by ZEFSAII (Michael W. Deem and Ramdas Pophale) SiO2 
 PCOD8088325
Probable space group: C 2/M
;
_chemical_formula_sum "Si O2"
_cell_formula_units_Z 64
_cell_length_a 29.884677
_cell_length_b 9.407523
_cell_length_c 17.093174
_cell_angle_alpha 90.000000
_cell_angle_beta 43.848698
_cell_angle_gamma 90.000000
_cell_volume 3329.101994
_symmetry_space_group_name_H-M "C 2/M"
_symmetry_group_IT_number 12
_symmetry_cell_setting 'monoclinic'
loop_
_space_group_symop_operation_xyz
x,y,z
-x,y,-z
-x,-y,-z
x,-y,z
1/2+x,1/2+y,z
1/2-x,1/2+y,-z
1/2-x,1/2-y,-z
1/2+x,1/2-y,z
loop_
_atom_site_type_symbol
_atom_site_label
_atom_site_fract_x
_atom_site_fract_y
_atom_site_fract_z
Si Si1 0.874634 0.167341 0.334874
Si Si2 0.715341 0.843238 0.951128
Si Si3 0.162440 0.335223 0.180318
Si Si4 0.620001 0.157266 0.933691
Si Si5 0.703439 0.168657 0.684909
Si Si6 0.075614 0.831904 0.403280
Si Si7 0.002719 0.165147 0.087314
Si Si8 0.154116 0.833529 0.455357
O O1 0.813916 0.250388 0.373713
O O2 0.940387 0.221324 0.211679
O O3 0.880664 0.204837 0.418941
O O4 0.863081 0.000000 0.336050
O O5 0.769277 0.723320 0.875090
O O6 0.681149 0.845073 0.911963
O O7 0.746550 0.000000 0.927424
O O8 0.663269 0.811456 0.085463
O O9 0.155309 0.500000 0.212592
O O10 0.104124 0.246907 0.291523
O O11 0.646745 0.211100 0.816643
O O12 0.590213 0.000000 0.962231
O O13 0.566270 0.258081 0.039507
O O14 0.772167 0.223569 0.632495
O O15 0.706787 0.000000 0.664723
O O16 0.112603 0.771916 0.434578
O O17 0.000000 0.793723 0.500000
O O18 0.085864 0.000000 0.380726
O O19 0.011931 0.000000 0.090135
O O20 0.000000 0.205954 0.000000
O O21 0.156298 0.000000 0.439775
#
# Coordination Sequence:
#
# PCOD8088325 Si02
#       8
#     8   8   8   8   8   8   8   8
#     4  10  20  35  54  74 105 144 178 217 263 314
#     4   9  19  36  56  81 112 144 180 222 272 328
#     4  10  20  35  57  83 111 142 177 224 280 329
#     4  10  20  33  53  78 105 142 180 217 259 312
#     4  10  19  32  53  78 105 136 174 220 264 308
#     4  10  21  38  60  81 106 144 187 227 273 332
#     4  10  20  34  50  73 107 142 172 214 266 310
#     4   9  19  36  56  79 104 135 178 223 266 315
#
# _framework density 19.224405000000001
#
# number of rings (size 3 to 8) (size 9 to 14) (size 15 to 20)
#    0.000    2.250    1.250    1.500    0.000    5.000 
#    0.000    3.750    0.000    0.000    0.000    0.000 
#    0.000    0.000    0.000    0.000    0.000    0.000 
#
# Total GULP energy -396700.264932 kJ/mol
# GULP energy per Si atom -12396.883279 kJ/mol
# Density = 1.918065 g / cm^3
# Si number density = 19.224405 Si / 1000 Ang^3
#
#
#
# Elastic Constant Matrix: (Units=GPa)
#
#
# Indices 1 2 3 4 5 6 
#
# 1 58.0972 20.3033 20.6219 -0.0003 -4.9777 -0.0001
# 2 20.3033 47.0789 36.6752 0.0039 -3.3696 -0.0004
# 3 20.6219 36.6752 115.1139 0.0016 -9.1976 -0.0003
# 4 -0.0003 0.0039 0.0016 25.6783 0.0002 -2.3413
# 5 -4.9777 -3.3696 -9.1976 0.0002 24.7769 0.0001
# 6 -0.0001 -0.0004 -0.0003 -2.3413 0.0001 24.4446
#
#
#
# Elastic Compliance Matrix: (Units=1/GPa)
#
#
# Indices 1 2 3 4 5 6 
#
# 1 0.020551 -0.007940 -0.000936 0.000002 0.002701 0.000000
# 2 -0.007940 0.031328 -0.008601 -0.000004 -0.000527 0.000000
# 3 -0.000936 -0.008601 0.011837 0.000001 0.003037 0.000000
# 4 0.000002 -0.000004 0.000001 0.039287 0.000000 0.003763
# 5 0.002701 -0.000527 0.003037 0.000000 0.041958 0.000000
# 6 0.000000 0.000000 0.000000 0.003763 0.000000 0.041269
#
#
# Mechanical properties :
#
#
# Convention : Reuss Voigt Hill
#
# Bulk Modulus (GPa) = 34.76781 41.72121 38.24451
# Shear Modulus (GPa) = 21.66642 24.49261 23.07951
#
# Velocity S-wave (km/s) = 3.36076 3.57324 3.46863
# Velocity P-wave (km/s) = 5.76057 6.22683 5.99823
#
# Compressibility (1/GPa) = 0.02876224
#
# Stress axis : x y z
#
# Youngs Moduli (GPa) = 48.65900 31.92070 84.47738
#
# Poissons Ratio (x) = 0.25347 0.07907
# Poissons Ratio (y) = 0.38638 0.72656
# Poissons Ratio (z) = 0.04554 0.27454
#
# Static dielectric constant tensor:
#      x y z
#    x 3.477960 0.000000 0.068250 
#    y 0.000000 3.365250 0.000000 
#    z 0.068250 0.000000 3.619570 
# 
# 
# High freq. dielectric constant tensor:
#      x y z
#    x 1.740120 0.000000 0.005160 
#    y 0.000000 1.727650 0.000000 
#    z 0.005160 0.000000 1.757930 
# 
# From -- ./inp_files/295593.got.cif
#   From: 2010.06.25/outbox.cif.g09.slc.cpg/sg12_148_cif.got.tgz:295593.got - 2010.06.28 00:19:55.
