data_PCOD8088753
_publ_section_title
;
Structure prediction by ZEFSAII (Michael W. Deem and Ramdas Pophale) SiO2 
 PCOD8088753
Probable space group: C 2/M
;
_chemical_formula_sum "Si O2"
_cell_formula_units_Z 56
_cell_length_a 12.659521
_cell_length_b 21.836103
_cell_length_c 10.518083
_cell_angle_alpha 90.000000
_cell_angle_beta 86.400943
_cell_angle_gamma 90.000000
_cell_volume 2901.827709
_symmetry_space_group_name_H-M "C 2/M"
_symmetry_group_IT_number 12
_symmetry_cell_setting 'monoclinic'
loop_
_space_group_symop_operation_xyz
x,y,z
-x,y,-z
-x,-y,-z
x,-y,z
1/2+x,1/2+y,z
1/2-x,1/2+y,-z
1/2-x,1/2-y,-z
1/2+x,1/2-y,z
loop_
_atom_site_type_symbol
_atom_site_label
_atom_site_fract_x
_atom_site_fract_y
_atom_site_fract_z
Si Si1 0.821446 0.866030 0.314021
Si Si2 0.444573 0.070498 0.375543
Si Si3 0.228167 0.859944 0.387901
Si Si4 0.972270 0.068067 0.649370
Si Si5 0.619342 0.184419 0.023499
Si Si6 0.360372 0.930037 0.820489
Si Si7 0.251154 0.245407 0.202734
O O1 0.796543 0.853745 0.462445
O O2 0.733229 0.912914 0.269435
O O3 0.824310 0.802393 0.237704
O O4 0.936962 0.894770 0.283641
O O5 0.500000 0.093889 0.500000
O O6 0.343135 0.111657 0.353941
O O7 0.526388 0.078908 0.254816
O O8 0.408627 0.000000 0.394554
O O9 0.141591 0.901168 0.322239
O O10 0.219438 0.792087 0.330227
O O11 0.000000 0.065375 0.500000
O O12 0.967162 0.000000 0.707589
O O13 0.640621 0.113214 0.055645
O O14 0.647324 0.227154 0.142210
O O15 0.500000 0.198325 0.000000
O O16 0.689940 0.199810 0.896911
O O17 0.344864 0.000000 0.865935
#
# Coordination Sequence:
#
# PCOD8088753 Si02
#       7
#     8   8   8   8   8   8   8
#     4  10  20  36  57  86 117 153 189 234 291 350
#     4  10  19  32  54  87 121 152 177 222 291 348
#     4  11  20  35  56  88 121 150 188 235 287 353
#     4   9  19  33  53  81 116 155 186 224 278 340
#     4  10  22  41  59  78 108 153 195 242 288 328
#     4  10  20  36  61  87 114 148 191 237 288 352
#     4  10  23  38  57  83 110 151 199 237 289 339
#
# _framework density 19.298181
#
# number of rings (size 3 to 8) (size 9 to 14) (size 15 to 20)
#    0.000    2.000    1.429    2.143    2.000    1.429 
#    0.000    2.143    0.000    0.000    0.000    4.000 
#    0.000    0.000    0.000    0.000    0.000    0.000 
#
# Total GULP energy -347272.780921 kJ/mol
# GULP energy per Si atom -12402.599319 kJ/mol
# Density = 1.925426 g / cm^3
# Si number density = 19.298181 Si / 1000 Ang^3
#
#
#
# Elastic Constant Matrix: (Units=GPa)
#
#
# Indices 1 2 3 4 5 6 
#
# 1 135.5096 68.4399 39.0852 0.0000 24.9542 0.0000
# 2 68.4399 150.7873 55.7399 0.0000 9.8761 0.0000
# 3 39.0852 55.7399 62.5194 0.0000 11.6868 0.0000
# 4 0.0000 0.0000 0.0000 29.2714 0.0000 -0.0034
# 5 24.9542 9.8761 11.6868 0.0000 23.5674 0.0000
# 6 0.0000 0.0000 0.0000 -0.0034 0.0000 26.6288
#
#
#
# Elastic Compliance Matrix: (Units=1/GPa)
#
#
# Indices 1 2 3 4 5 6 
#
# 1 0.011759 -0.003960 -0.001987 0.000000 -0.009805 0.000000
# 2 -0.003960 0.011227 -0.008198 0.000000 0.003554 0.000000
# 3 -0.001987 -0.008198 0.025913 0.000000 -0.007310 0.000000
# 4 0.000000 0.000000 0.000000 0.034163 0.000000 0.000004
# 5 -0.009805 0.003554 -0.007310 0.000000 0.054950 0.000000
# 6 0.000000 0.000000 0.000000 0.000004 0.000000 0.037553
#
#
# Mechanical properties :
#
#
# Convention : Reuss Voigt Hill
#
# Bulk Modulus (GPa) = 48.52656 75.03850 61.78253
# Shear Modulus (GPa) = 23.72757 28.26361 25.99559
#
# Velocity S-wave (km/s) = 3.51026 3.83113 3.67420
# Velocity P-wave (km/s) = 6.45209 7.65102 7.07699
#
# Compressibility (1/GPa) = 0.02060727
#
# Stress axis : x y z
#
# Youngs Moduli (GPa) = 85.04460 89.07058 38.59037
#
# Poissons Ratio (x) = 0.35273 0.07670
# Poissons Ratio (y) = 0.33678 0.31637
# Poissons Ratio (z) = 0.16903 0.73022
#
# Static dielectric constant tensor:
#      x y z
#    x 3.572680 0.000000 0.196170 
#    y 0.000000 3.608750 0.000000 
#    z 0.196170 0.000000 3.371000 
# 
# 
# High freq. dielectric constant tensor:
#      x y z
#    x 1.755390 0.000000 0.016220 
#    y 0.000000 1.759280 0.000000 
#    z 0.016220 0.000000 1.733710 
# 
# From -- ./inp_files/133137.got.cif
#   From: 2010.06.25/outbox.cif.g09.slc.cpg/sg12_67_cif.got.tgz:133137.got - 2010.06.28 00:19:55.
