data_PCOD8088404
_publ_section_title
;
Structure prediction by ZEFSAII (Michael W. Deem and Ramdas Pophale) SiO2 
 PCOD8088404
Probable space group: C 2/M
;
_chemical_formula_sum "Si O2"
_cell_formula_units_Z 64
_cell_length_a 25.756497
_cell_length_b 9.263009
_cell_length_c 32.003904
_cell_angle_alpha 90.000000
_cell_angle_beta 154.076003
_cell_angle_gamma 90.000000
_cell_volume 3338.110018
_symmetry_space_group_name_H-M "C 2/M"
_symmetry_group_IT_number 12
_symmetry_cell_setting 'monoclinic'
loop_
_space_group_symop_operation_xyz
x,y,z
-x,y,-z
-x,-y,-z
x,-y,z
1/2+x,1/2+y,z
1/2-x,1/2+y,-z
1/2-x,1/2-y,-z
1/2+x,1/2-y,z
loop_
_atom_site_type_symbol
_atom_site_label
_atom_site_fract_x
_atom_site_fract_y
_atom_site_fract_z
Si Si1 0.538133 0.669180 0.706941
Si Si2 0.478746 0.331148 0.400270
Si Si3 0.017155 0.832391 0.060811
Si Si4 0.427203 0.827809 0.702892
Si Si5 0.266305 0.172148 0.739213
Si Si6 0.757994 0.841995 0.889926
Si Si7 0.839158 0.654574 0.089327
Si Si8 0.719314 0.328356 0.611588
O O1 0.540462 0.500000 0.719302
O O2 0.492353 0.700547 0.627212
O O3 0.448493 0.748189 0.674114
O O4 0.673017 0.728450 0.805279
O O5 0.471822 0.500000 0.403695
O O6 0.352854 0.267134 0.324488
O O7 0.587838 0.266447 0.506399
O O8 0.120918 0.738759 0.156068
O O9 0.046244 0.000000 0.089870
O O10 0.000000 0.796691 0.000000
O O11 0.892284 0.784170 0.990907
O O12 0.528847 0.780441 0.809932
O O13 0.305716 0.776109 0.636609
O O14 0.432346 0.000000 0.698472
O O15 0.262787 0.225351 0.688427
O O16 0.276373 0.000000 0.749648
O O17 0.710248 0.867222 0.900854
O O18 0.757540 0.000000 0.866392
O O19 0.846431 0.500000 0.071467
O O20 0.750000 0.750000 0.000000
O O21 0.717259 0.500000 0.609995
#
# Coordination Sequence:
#
# PCOD8088404 Si02
#       8
#     8   8   8   8   8   8   8   8
#     4  10  19  32  53  80 108 138 175 223 268 308
#     4   9  18  33  54  81 109 136 174 223 272 316
#     4  10  21  36  54  77 108 145 177 209 260 320
#     4   9  19  35  52  74 106 141 179 216 258 319
#     4  10  20  34  57  84 107 136 178 225 266 311
#     4   9  19  35  51  71 102 140 175 208 253 313
#     4   9  18  30  46  68  96 129 165 204 247 299
#     4   9  18  34  56  79 107 143 177 216 267 321
#
# _framework density 19.172525
#
# number of rings (size 3 to 8) (size 9 to 14) (size 15 to 20)
#    0.000    2.625    0.000    2.250    1.750    4.750 
#    0.000    1.250    0.000    4.500    0.000    0.000 
#    0.000    0.000    0.000    0.000    0.000    0.000 
#
# Total GULP energy -396570.156576 kJ/mol
# GULP energy per Si atom -12392.817393 kJ/mol
# Density = 1.912889 g / cm^3
# Si number density = 19.172525 Si / 1000 Ang^3
#
#
#
# Elastic Constant Matrix: (Units=GPa)
#
#
# Indices 1 2 3 4 5 6 
#
# 1 87.6732 33.3847 61.2811 -0.0004 12.8825 0.0004
# 2 33.3847 48.8708 36.6451 -0.0018 -5.6338 -0.0006
# 3 61.2811 36.6451 142.3639 -0.0049 5.6429 -0.0020
# 4 -0.0004 -0.0018 -0.0049 20.1449 -0.0003 0.2635
# 5 12.8825 -5.6338 5.6429 -0.0003 34.7182 -0.0002
# 6 0.0004 -0.0006 -0.0020 0.2635 -0.0002 23.3833
#
#
#
# Elastic Compliance Matrix: (Units=1/GPa)
#
#
# Indices 1 2 3 4 5 6 
#
# 1 0.020899 -0.010872 -0.005858 -0.000002 -0.008567 -0.000001
# 2 -0.010872 0.031983 -0.003944 0.000002 0.009865 0.000001
# 3 -0.005858 -0.003944 0.010568 0.000002 -0.000184 0.000001
# 4 -0.000002 0.000002 0.000002 0.049648 0.000001 -0.000560
# 5 -0.008567 0.009865 -0.000184 0.000001 0.033613 0.000001
# 6 -0.000001 0.000001 0.000001 -0.000560 0.000001 0.042772
#
#
# Mechanical properties :
#
#
# Convention : Reuss Voigt Hill
#
# Bulk Modulus (GPa) = 45.24178 60.16995 52.70587
# Shear Modulus (GPa) = 20.99088 25.48909 23.23999
#
# Velocity S-wave (km/s) = 3.31243 3.65013 3.48537
# Velocity P-wave (km/s) = 6.18692 7.01542 6.61416
#
# Compressibility (1/GPa) = 0.02210346
#
# Stress axis : x y z
#
# Youngs Moduli (GPa) = 47.84863 31.26634 94.62164
#
# Poissons Ratio (x) = 0.33992 0.55431
# Poissons Ratio (y) = 0.52019 0.37318
# Poissons Ratio (z) = 0.28031 0.12331
#
# Static dielectric constant tensor:
#      x y z
#    x 3.686900 -0.000010 0.262530 
#    y -0.000010 3.269680 0.000000 
#    z 0.262530 0.000000 3.525700 
# 
# 
# High freq. dielectric constant tensor:
#      x y z
#    x 1.752610 0.000000 0.008720 
#    y 0.000000 1.709790 0.000000 
#    z 0.008720 0.000000 1.752240 
# 
# From -- ./inp_files/382427.got.cif
#   From: 2010.06.25/outbox.cif.g09.slc.cpg/sg12_192_cif.got.tgz:382427.got - 2010.06.28 00:19:55.
