data_PCOD8088304
_publ_section_title
;
Structure prediction by ZEFSAII (Michael W. Deem and Ramdas Pophale) SiO2 
 PCOD8088304
Probable space group: C 2/M
;
_chemical_formula_sum "Si O2"
_cell_formula_units_Z 64
_cell_length_a 22.240040
_cell_length_b 9.393041
_cell_length_c 24.099079
_cell_angle_alpha 90.000000
_cell_angle_beta 46.630020
_cell_angle_gamma 90.000000
_cell_volume 3659.633122
_symmetry_space_group_name_H-M "C 2/M"
_symmetry_group_IT_number 12
_symmetry_cell_setting 'monoclinic'
loop_
_space_group_symop_operation_xyz
x,y,z
-x,y,-z
-x,-y,-z
x,-y,z
1/2+x,1/2+y,z
1/2-x,1/2+y,-z
1/2-x,1/2-y,-z
1/2+x,1/2-y,z
loop_
_atom_site_type_symbol
_atom_site_label
_atom_site_fract_x
_atom_site_fract_y
_atom_site_fract_z
Si Si1 0.070905 0.339802 0.797641
Si Si2 0.253210 0.259652 0.668857
Si Si3 0.715217 0.658830 0.571773
Si Si4 0.083156 0.671409 0.295107
Si Si5 0.567634 0.658963 0.411672
Si Si6 0.529030 0.334796 0.718337
Si Si7 0.759416 0.843692 0.205516
Si Si8 0.061271 0.169217 0.911593
O O1 0.034886 0.500000 0.817689
O O2 0.170638 0.355174 0.728534
O O3 0.032337 0.240381 0.775251
O O4 0.036873 0.263316 0.874377
O O5 0.253664 0.192141 0.607545
O O6 0.339617 0.342384 0.621423
O O7 0.246511 0.146258 0.723330
O O8 0.741455 0.500000 0.540532
O O9 0.750000 0.750000 0.500000
O O10 0.617109 0.677688 0.632915
O O11 0.074623 0.500000 0.297696
O O12 0.049925 0.725695 0.375252
O O13 0.178161 0.730406 0.231325
O O14 0.036578 0.746703 0.275070
O O15 0.500000 0.699060 0.500000
O O16 0.551421 0.500000 0.398562
O O17 0.502794 0.500000 0.741686
O O18 0.846161 0.776458 0.130442
O O19 0.757449 0.000000 0.182161
O O20 0.060977 0.000000 0.897375
O O21 0.000000 0.206330 0.000000
#
# Coordination Sequence:
#
# PCOD8088304 Si02
#       8
#     8   8   8   8   8   8   8   8
#     4  10  19  32  53  78 103 133 169 210 252 296
#     4   9  18  33  50  70  95 131 168 207 250 303
#     4  10  22  35  50  70  95 128 165 213 265 308
#     4  10  20  34  52  74  99 130 170 214 253 297
#     4  10  21  34  49  69  96 130 165 209 258 305
#     4  10  21  37  53  71  98 134 174 212 253 306
#     4   8  15  30  52  75 101 130 164 203 246 294
#     4   9  17  31  54  83 112 139 165 197 244 303
#
# _framework density 17.488092000000002
#
# number of rings (size 3 to 8) (size 9 to 14) (size 15 to 20)
#    0.000    2.500    0.000    1.875    1.750    7.000 
#    0.000    0.625    0.000    0.750    0.000    0.000 
#    0.000    0.000    0.000    0.000    0.000    0.000 
#
# Total GULP energy -396445.773218 kJ/mol
# GULP energy per Si atom -12388.930413 kJ/mol
# Density = 1.744829 g / cm^3
# Si number density = 17.488092 Si / 1000 Ang^3
#
#
#
# Elastic Constant Matrix: (Units=GPa)
#
#
# Indices 1 2 3 4 5 6 
#
# 1 113.3333 50.1799 54.6115 0.0000 6.1182 0.0001
# 2 50.1799 118.3124 54.3457 0.0000 10.2461 0.0005
# 3 54.6115 54.3457 121.3436 0.0000 5.8474 0.0000
# 4 0.0000 0.0000 0.0000 21.0227 0.0000 4.6607
# 5 6.1182 10.2461 5.8474 0.0000 16.6260 0.0000
# 6 0.0001 0.0005 0.0000 4.6607 0.0000 25.8182
#
#
#
# Elastic Compliance Matrix: (Units=1/GPa)
#
#
# Indices 1 2 3 4 5 6 
#
# 1 0.012256 -0.003266 -0.004001 0.000000 -0.001090 0.000000
# 2 -0.003266 0.011931 -0.003639 0.000000 -0.004871 0.000000
# 3 -0.004001 -0.003639 0.011690 0.000000 -0.000397 0.000000
# 4 0.000000 0.000000 0.000000 0.049551 0.000000 -0.008945
# 5 -0.001090 -0.004871 -0.000397 0.000000 0.063689 0.000000
# 6 0.000000 0.000000 0.000000 -0.008945 0.000000 0.040347
#
#
# Mechanical properties :
#
#
# Convention : Reuss Voigt Hill
#
# Bulk Modulus (GPa) = 71.09187 74.58483 72.83835
# Shear Modulus (GPa) = 23.15201 25.61689 24.38445
#
# Velocity S-wave (km/s) = 3.64245 3.83145 3.73815
# Velocity P-wave (km/s) = 7.64394 7.89397 7.76996
#
# Compressibility (1/GPa) = 0.01406631
#
# Stress axis : x y z
#
# Youngs Moduli (GPa) = 81.59052 83.81737 85.54061
#
# Poissons Ratio (x) = 0.27376 0.34222
# Poissons Ratio (y) = 0.26649 0.31125
# Poissons Ratio (z) = 0.32642 0.30498
#
# Static dielectric constant tensor:
#      x y z
#    x 3.361940 0.000000 -0.150020 
#    y 0.000000 3.225790 0.000000 
#    z -0.150020 0.000000 3.127480 
# 
# 
# High freq. dielectric constant tensor:
#      x y z
#    x 1.675410 0.000000 -0.003830 
#    y 0.000000 1.674340 0.000000 
#    z -0.003830 0.000000 1.656810 
# 
# From -- ./inp_files/345990.got.cif
#   From: 2010.06.25/outbox.cif.g09.slc.cpg/sg12_173_cif.got.tgz:345990.got - 2010.06.28 00:19:55.
