data_PCOD8088009
_publ_section_title
;
Structure prediction by ZEFSAII (Michael W. Deem and Ramdas Pophale) SiO2 
 PCOD8088009
Probable space group: C 2/M
;
_chemical_formula_sum "Si O2"
_cell_formula_units_Z 56
_cell_length_a 10.110498
_cell_length_b 18.643154
_cell_length_c 22.202181
_cell_angle_alpha 90.000000
_cell_angle_beta 47.552497
_cell_angle_gamma 90.000000
_cell_volume 3088.038807
_symmetry_space_group_name_H-M "C 2/M"
_symmetry_group_IT_number 12
_symmetry_cell_setting 'monoclinic'
loop_
_space_group_symop_operation_xyz
x,y,z
-x,y,-z
-x,-y,-z
x,-y,z
1/2+x,1/2+y,z
1/2-x,1/2+y,-z
1/2-x,1/2-y,-z
1/2+x,1/2-y,z
loop_
_atom_site_type_symbol
_atom_site_label
_atom_site_fract_x
_atom_site_fract_y
_atom_site_fract_z
Si Si1 0.778260 0.156030 0.298104
Si Si2 0.825644 0.922024 0.170270
Si Si3 0.862599 0.664494 0.404182
Si Si4 0.793323 0.679588 0.553717
Si Si5 0.551587 0.787928 0.811793
Si Si6 0.641650 0.282246 0.906704
Si Si7 0.594778 0.080073 0.721999
O O1 0.870760 0.097264 0.226269
O O2 0.575359 0.164849 0.339749
O O3 0.785037 0.132180 0.366536
O O4 0.874367 0.232449 0.260187
O O5 0.909854 0.862167 0.100655
O O6 0.614012 0.924747 0.227724
O O7 0.910750 0.000000 0.129497
O O8 0.773847 0.638647 0.495401
O O9 0.809327 0.746061 0.411329
O O10 0.800987 0.612453 0.368638
O O11 0.000000 0.698210 0.500000
O O12 0.629066 0.772479 0.854409
O O13 0.336566 0.781610 0.876857
O O14 0.620230 0.867216 0.771380
O O15 0.500000 0.257603 0.000000
O O16 0.669944 0.000000 0.712979
#
# Coordination Sequence:
#
# PCOD8088009 Si02
#       7
#     8   8   8   8   8   8   8
#     4   9  16  27  46  69  95 125 163 204 239 282
#     4   8  16  29  46  70  97 125 158 197 240 289
#     4   9  16  27  42  69  96 125 164 202 246 277
#     4   9  16  25  42  68  94 124 161 204 245 281
#     4  10  19  32  52  76  98 126 165 199 245 285
#     4  10  20  33  52  77 102 125 155 201 247 292
#     4   9  16  29  48  68  94 126 166 203 234 282
#
# _framework density 18.134487
#
# number of rings (size 3 to 8) (size 9 to 14) (size 15 to 20)
#    0.000    2.857    1.429    1.286    0.000    0.286 
#    0.000    0.714    0.000    8.571    0.000    0.000 
#    0.000    0.000    0.000    0.000    0.000    0.000 
#
# Total GULP energy -346878.033874 kJ/mol
# GULP energy per Si atom -12388.501210 kJ/mol
# Density = 1.809321 g / cm^3
# Si number density = 18.134487 Si / 1000 Ang^3
#
#
#
# Elastic Constant Matrix: (Units=GPa)
#
#
# Indices 1 2 3 4 5 6 
#
# 1 29.1901 12.2209 8.8332 -0.0001 16.4070 -0.0002
# 2 12.2209 101.8383 19.5948 -0.0002 15.0212 0.0001
# 3 8.8332 19.5948 70.8329 -0.0004 22.4064 0.0005
# 4 -0.0001 -0.0002 -0.0004 16.7254 -0.0003 1.9533
# 5 16.4070 15.0212 22.4064 -0.0003 22.8057 0.0002
# 6 -0.0002 0.0001 0.0005 1.9533 0.0002 16.0809
#
#
#
# Elastic Compliance Matrix: (Units=1/GPa)
#
#
# Indices 1 2 3 4 5 6 
#
# 1 0.061542 -0.001437 0.009328 0.000000 -0.052493 0.000001
# 2 -0.001437 0.010967 -0.001301 0.000000 -0.004911 0.000000
# 3 0.009328 -0.001301 0.022005 0.000000 -0.027474 0.000000
# 4 0.000000 0.000000 0.000000 0.060650 0.000001 -0.007367
# 5 -0.052493 -0.004911 -0.027474 0.000001 0.111841 -0.000001
# 6 0.000001 0.000000 0.000000 -0.007367 -0.000001 0.063081
#
#
# Mechanical properties :
#
#
# Convention : Reuss Voigt Hill
#
# Bulk Modulus (GPa) = 9.28563 31.46213 20.37388
# Shear Modulus (GPa) = 14.17219 21.86989 18.02104
#
# Velocity S-wave (km/s) = 2.79857 3.47649 3.15579
# Velocity P-wave (km/s) = 3.94642 5.78806 4.95358
#
# Compressibility (1/GPa) = 0.10769324
#
# Stress axis : x y z
#
# Youngs Moduli (GPa) = 16.24899 91.18530 45.44409
#
# Poissons Ratio (x) = 0.13107 -0.42390
# Poissons Ratio (y) = 0.02336 0.05912
# Poissons Ratio (z) = -0.15157 0.11864
#
# Static dielectric constant tensor:
#      x y z
#    x 3.232420 0.000000 0.284830 
#    y 0.000000 3.595970 0.000010 
#    z 0.284830 0.000010 3.450580 
# 
# 
# High freq. dielectric constant tensor:
#      x y z
#    x 1.679180 0.000000 0.020980 
#    y 0.000000 1.674320 0.000000 
#    z 0.020980 0.000000 1.703900 
# 
# From -- ./inp_files/305813.got.cif
#   From: 2010.06.25/outbox.cif.g09.slc.cpg/sg12_153_cif.got.tgz:305813.got - 2010.06.28 00:19:55.
