data_PCOD8088377
_publ_section_title
;
Structure prediction by ZEFSAII (Michael W. Deem and Ramdas Pophale) SiO2 
 PCOD8088377
Probable space group: C 2/M
;
_chemical_formula_sum "Si O2"
_cell_formula_units_Z 28
_cell_length_a 5.136613
_cell_length_b 26.657211
_cell_length_c 11.738468
_cell_angle_alpha 90.000000
_cell_angle_beta 101.815542
_cell_angle_gamma 90.000000
_cell_volume 1573.266187
_symmetry_space_group_name_H-M "C 2/M"
_symmetry_group_IT_number 12
_symmetry_cell_setting 'monoclinic'
loop_
_space_group_symop_operation_xyz
x,y,z
-x,y,-z
-x,-y,-z
x,-y,z
1/2+x,1/2+y,z
1/2-x,1/2+y,-z
1/2-x,1/2-y,-z
1/2+x,1/2-y,z
loop_
_atom_site_type_symbol
_atom_site_label
_atom_site_fract_x
_atom_site_fract_y
_atom_site_fract_z
Si Si1 0.378657 0.382643 0.227723
Si Si2 0.646388 0.057045 0.783016
Si Si3 0.500000 0.407408 0.000000
Si Si4 0.546231 0.281788 0.633942
O O1 0.650002 0.413089 0.282545
O O2 0.365555 0.329598 0.287003
O O3 0.135943 0.416215 0.248259
O O4 0.368983 0.373646 0.089142
O O5 0.613022 0.000000 0.739029
O O6 0.769821 0.058096 0.922424
O O7 0.500000 0.298609 0.500000
O O8 0.277767 0.259494 0.663221
#
# Coordination Sequence:
#
# PCOD8088377 Si02
#       4
#     8   8   4   8
#     4  10  20  33  52  80 109 131 178 217 255 302
#     4  10  19  32  53  79 110 144 175 204 248 309
#     4   8  21  30  52  78 110 140 174 206 253 304
#     4  10  21  39  61  78  96 133 181 222 263 309
#
# _framework density 17.797370999999998
#
# number of rings (size 3 to 8) (size 9 to 14) (size 15 to 20)
#    1.714    0.571    0.000    3.857    0.000    1.143 
#    0.000    1.429    0.000    5.143    0.000    0.000 
#    0.000    0.000    0.000    0.000    0.000    0.000 
#
# Total GULP energy -173464.617223 kJ/mol
# GULP energy per Si atom -12390.329802 kJ/mol
# Density = 1.775686 g / cm^3
# Si number density = 17.797371 Si / 1000 Ang^3
#
#
#
# Elastic Constant Matrix: (Units=GPa)
#
#
# Indices 1 2 3 4 5 6 
#
# 1 118.0886 27.3014 13.9216 0.0000 4.1533 0.0000
# 2 27.3014 100.3540 35.5498 0.0000 -5.0004 0.0000
# 3 13.9216 35.5498 26.3166 0.0000 -3.4959 0.0000
# 4 0.0000 0.0000 0.0000 72.9236 0.0000 11.6359
# 5 4.1533 -5.0004 -3.4959 0.0000 13.5752 0.0000
# 6 0.0000 0.0000 0.0000 11.6359 0.0000 25.7391
#
#
#
# Elastic Compliance Matrix: (Units=1/GPa)
#
#
# Indices 1 2 3 4 5 6 
#
# 1 0.009385 -0.001547 -0.003451 0.000000 -0.004330 0.000000
# 2 -0.001547 0.019366 -0.025194 0.000000 0.001119 0.000000
# 3 -0.003451 -0.025194 0.075342 0.000000 0.011178 0.000000
# 4 0.000000 0.000000 0.000000 0.014779 0.000000 -0.006681
# 5 -0.004330 0.001119 0.011178 0.000000 0.078279 0.000000
# 6 0.000000 0.000000 0.000000 -0.006681 0.000000 0.041872
#
#
# Mechanical properties :
#
#
# Convention : Reuss Voigt Hill
#
# Bulk Modulus (GPa) = 22.87750 44.25610 33.56680
# Shear Modulus (GPa) = 15.92480 33.64665 24.78572
#
# Velocity S-wave (km/s) = 2.99454 4.35275 3.73589
# Velocity P-wave (km/s) = 4.98384 7.08397 6.12459
#
# Compressibility (1/GPa) = 0.04371107
#
# Stress axis : x y z
#
# Youngs Moduli (GPa) = 106.55486 51.63690 13.27276
#
# Poissons Ratio (x) = 0.07986 0.04580
# Poissons Ratio (y) = 0.16479 0.33439
# Poissons Ratio (z) = 0.36768 1.30093
#
# Static dielectric constant tensor:
#      x y z
#    x 3.422950 0.000000 0.012400 
#    y 0.000000 3.012570 0.000000 
#    z 0.012400 0.000000 2.996900 
# 
# 
# High freq. dielectric constant tensor:
#      x y z
#    x 1.709470 0.000000 0.003650 
#    y 0.000000 1.675150 0.000000 
#    z 0.003650 0.000000 1.651520 
# 
# From -- ./inp_files/115148.got.cif
#   From: 2010.06.25/outbox.cif.g09.slc.cpg/sg12_58_cif.got.tgz:115148.got - 2010.06.28 00:19:55.
