data_PCOD8088633
_publ_section_title
;
Structure prediction by ZEFSAII (Michael W. Deem and Ramdas Pophale) SiO2 
 PCOD8088633
Probable space group: C 2/M
;
_chemical_formula_sum "Si O2"
_cell_formula_units_Z 64
_cell_length_a 14.899294
_cell_length_b 9.301129
_cell_length_c 24.714016
_cell_angle_alpha 90.000000
_cell_angle_beta 74.391925
_cell_angle_gamma 90.000000
_cell_volume 3298.581224
_symmetry_space_group_name_H-M "C 2/M"
_symmetry_group_IT_number 12
_symmetry_cell_setting 'monoclinic'
loop_
_space_group_symop_operation_xyz
x,y,z
-x,y,-z
-x,-y,-z
x,-y,z
1/2+x,1/2+y,z
1/2-x,1/2+y,-z
1/2-x,1/2-y,-z
1/2+x,1/2-y,z
loop_
_atom_site_type_symbol
_atom_site_label
_atom_site_fract_x
_atom_site_fract_y
_atom_site_fract_z
Si Si1 0.376506 0.167762 0.438215
Si Si2 0.470592 0.335218 0.842638
Si Si3 0.647720 0.330548 0.240506
Si Si4 0.045852 0.832246 0.365746
Si Si5 0.834445 0.834752 0.549619
Si Si6 0.676713 0.336373 0.942730
Si Si7 0.678474 0.664301 0.820318
Si Si8 0.385350 0.836073 0.950754
O O1 0.451741 0.242055 0.387514
O O2 0.275542 0.196986 0.428300
O O3 0.382708 0.236163 0.496776
O O4 0.398663 0.000000 0.439572
O O5 0.445063 0.500000 0.860457
O O6 0.408657 0.277652 0.803095
O O7 0.578441 0.321811 0.807569
O O8 0.455216 0.242216 0.898673
O O9 0.662741 0.500000 0.237863
O O10 0.591589 0.281731 0.302399
O O11 0.748625 0.257421 0.225408
O O12 0.119556 0.796506 0.400802
O O13 0.019820 0.000000 0.369188
O O14 0.852461 0.000000 0.530219
O O15 0.640906 0.500000 0.952381
O O16 0.669496 0.277321 0.883034
O O17 0.782780 0.322820 0.943440
O O18 0.610595 0.239376 0.991257
O O19 0.713665 0.500000 0.815706
O O20 0.417219 0.000000 0.952392
#
# Coordination Sequence:
#
# PCOD8088633 Si02
#       8
#     8   8   8   8   8   8   8   8
#     4  10  20  34  55  85 114 141 180 225 265 310
#     4  10  21  37  57  79 107 141 176 219 273 322
#     4  10  22  39  57  79 107 141 183 228 266 310
#     4  10  21  37  56  78 109 148 184 217 266 324
#     4   9  19  36  56  79 113 151 179 213 267 323
#     4   9  18  33  53  77 106 139 173 213 267 325
#     4  10  21  38  58  79 105 141 180 219 269 326
#     4  10  19  32  54  81 107 137 175 217 264 321
#
# _framework density 19.402280999999999
#
# number of rings (size 3 to 8) (size 9 to 14) (size 15 to 20)
#    0.000    2.250    1.250    1.125    0.000    6.000 
#    0.000    2.500    0.000    0.000    0.000    0.000 
#    0.000    0.000    0.000    0.000    0.000    0.000 
#
# Total GULP energy -396934.902906 kJ/mol
# GULP energy per Si atom -12404.215716 kJ/mol
# Density = 1.935812 g / cm^3
# Si number density = 19.402281 Si / 1000 Ang^3
#
#
#
# Elastic Constant Matrix: (Units=GPa)
#
#
# Indices 1 2 3 4 5 6 
#
# 1 59.4734 34.3342 37.9457 0.0000 -18.8330 0.0000
# 2 34.3342 79.7628 55.6458 0.0000 -19.1822 0.0000
# 3 37.9457 55.6458 120.4576 0.0000 -25.7946 0.0000
# 4 0.0000 0.0000 0.0000 31.7285 0.0000 -9.8365
# 5 -18.8330 -19.1822 -25.7946 0.0000 24.1139 0.0000
# 6 0.0000 0.0000 0.0000 -9.8365 0.0000 28.3535
#
#
#
# Elastic Compliance Matrix: (Units=1/GPa)
#
#
# Indices 1 2 3 4 5 6 
#
# 1 0.026148 -0.006443 -0.002575 0.000000 0.012542 0.000000
# 2 -0.006443 0.021112 -0.006751 0.000000 0.004541 0.000000
# 3 -0.002575 -0.006751 0.013815 0.000000 0.007397 0.000000
# 4 0.000000 0.000000 0.000000 0.035316 0.000000 0.012252
# 5 0.012542 0.004541 0.007397 0.000000 0.062791 0.000000
# 6 0.000000 0.000000 0.000000 0.012252 0.000000 0.039520
#
#
# Mechanical properties :
#
#
# Convention : Reuss Voigt Hill
#
# Bulk Modulus (GPa) = 33.85410 57.28281 45.56845
# Shear Modulus (GPa) = 20.82589 25.62370 23.22479
#
# Velocity S-wave (km/s) = 3.27979 3.63802 3.46354
# Velocity P-wave (km/s) = 5.64173 6.87276 6.28744
#
# Compressibility (1/GPa) = 0.02953852
#
# Stress axis : x y z
#
# Youngs Moduli (GPa) = 38.24336 47.36556 72.38298
#
# Poissons Ratio (x) = 0.30518 0.18638
# Poissons Ratio (y) = 0.24640 0.48865
# Poissons Ratio (z) = 0.09847 0.31976
#
# Static dielectric constant tensor:
#      x y z
#    x 3.514120 0.000000 0.022010 
#    y 0.000000 3.501230 0.000000 
#    z 0.022010 0.000000 3.478380 
# 
# 
# High freq. dielectric constant tensor:
#      x y z
#    x 1.759120 0.000000 -0.002170 
#    y 0.000000 1.749720 0.000000 
#    z -0.002170 0.000000 1.748230 
# 
# From -- ./inp_files/359725.got.cif
#   From: 2010.06.25/outbox.cif.g09.slc.cpg/sg12_180_cif.got.tgz:359725.got - 2010.06.28 00:19:55.
