data_PCOD8088698
_publ_section_title
;
Structure prediction by ZEFSAII (Michael W. Deem and Ramdas Pophale) SiO2 
 PCOD8088698
Probable space group: C 2/M
;
_chemical_formula_sum "Si O2"
_cell_formula_units_Z 56
_cell_length_a 29.945112
_cell_length_b 8.667684
_cell_length_c 12.328469
_cell_angle_alpha 90.000000
_cell_angle_beta 74.173584
_cell_angle_gamma 90.000000
_cell_volume 3078.611758
_symmetry_space_group_name_H-M "C 2/M"
_symmetry_group_IT_number 12
_symmetry_cell_setting 'monoclinic'
loop_
_space_group_symop_operation_xyz
x,y,z
-x,y,-z
-x,-y,-z
x,-y,z
1/2+x,1/2+y,z
1/2-x,1/2+y,-z
1/2-x,1/2-y,-z
1/2+x,1/2-y,z
loop_
_atom_site_type_symbol
_atom_site_label
_atom_site_fract_x
_atom_site_fract_y
_atom_site_fract_z
Si Si1 0.607961 0.322596 0.406560
Si Si2 0.042234 0.178184 0.254078
Si Si3 0.947541 0.679621 0.363756
Si Si4 0.197293 0.322075 0.410880
Si Si5 0.048851 0.319909 0.018259
Si Si6 0.699763 0.677353 0.638012
Si Si7 0.395553 0.322167 0.199295
O O1 0.602066 0.500000 0.444680
O O2 0.584661 0.289171 0.306801
O O3 0.585793 0.218345 0.514671
O O4 0.662309 0.278846 0.360985
O O5 0.995036 0.225664 0.345994
O O6 0.039625 0.000000 0.221775
O O7 0.050385 0.281380 0.143499
O O8 0.959623 0.500000 0.356132
O O9 0.923507 0.719826 0.266329
O O10 0.185839 0.500000 0.398283
O O11 0.250331 0.281491 0.342158
O O12 0.189554 0.285431 0.542582
O O13 0.056919 0.500000 0.996004
O O14 0.089989 0.228335 0.930769
O O15 0.000000 0.266322 0.000000
O O16 0.700122 0.500000 0.597015
O O17 0.659706 0.705409 0.753151
O O18 0.408287 0.500000 0.211455
#
# Coordination Sequence:
#
# PCOD8088698 Si02
#       7
#     8   8   8   8   8   8   8
#     4  11  23  38  55  80 113 149 187 225 272 332
#     4  11  24  40  58  78 107 150 191 226 272 330
#     4  12  23  35  54  83 114 146 184 225 274 326
#     4  10  19  32  54  82 112 145 181 224 276 327
#     4  11  23  38  57  82 111 142 183 234 277 318
#     4   9  19  34  53  81 113 145 181 224 274 329
#     4  11  21  35  58  82 112 148 183 224 273 326
#
# _framework density 18.190017000000001
#
# number of rings (size 3 to 8) (size 9 to 14) (size 15 to 20)
#    0.000    1.286    2.857    3.857    0.000    5.714 
#    0.000    0.000    0.000    0.857    0.000    0.000 
#    0.000    0.000    0.000    0.000    0.000    0.000 
#
# Total GULP energy -347339.880604 kJ/mol
# GULP energy per Si atom -12404.995736 kJ/mol
# Density = 1.814862 g / cm^3
# Si number density = 18.190017 Si / 1000 Ang^3
#
#
#
# Elastic Constant Matrix: (Units=GPa)
#
#
# Indices 1 2 3 4 5 6 
#
# 1 132.6588 36.6866 43.2765 0.0000 -6.4879 0.0000
# 2 36.6866 55.1090 25.0215 0.0000 -1.7628 0.0000
# 3 43.2765 25.0215 69.3258 0.0000 -5.8153 0.0000
# 4 0.0000 0.0000 0.0000 24.2167 0.0000 -2.2924
# 5 -6.4879 -1.7628 -5.8153 0.0000 28.3970 0.0000
# 6 0.0000 0.0000 0.0000 -2.2924 0.0000 28.6164
#
#
#
# Elastic Compliance Matrix: (Units=1/GPa)
#
#
# Indices 1 2 3 4 5 6 
#
# 1 0.010451 -0.004786 -0.004702 0.000000 0.001128 0.000000
# 2 -0.004786 0.023896 -0.005702 0.000000 -0.000778 0.000000
# 3 -0.004702 -0.005702 0.019635 0.000000 0.002593 0.000000
# 4 0.000000 0.000000 0.000000 0.041609 0.000000 0.003333
# 5 0.001128 -0.000778 0.002593 0.000000 0.035955 0.000000
# 6 0.000000 0.000000 0.000000 0.003333 0.000000 0.035212
#
#
# Mechanical properties :
#
#
# Convention : Reuss Voigt Hill
#
# Bulk Modulus (GPa) = 42.36970 51.89587 47.13279
# Shear Modulus (GPa) = 24.38943 26.38662 25.38802
#
# Velocity S-wave (km/s) = 3.66568 3.81282 3.73998
# Velocity P-wave (km/s) = 6.42337 6.92642 6.67963
#
# Compressibility (1/GPa) = 0.02360177
#
# Stress axis : x y z
#
# Youngs Moduli (GPa) = 95.68669 41.84747 50.92873
#
# Poissons Ratio (x) = 0.20030 0.23946
# Poissons Ratio (y) = 0.45799 0.29041
# Poissons Ratio (z) = 0.44990 0.23862
#
# Static dielectric constant tensor:
#      x y z
#    x 3.569680 0.000000 -0.164290 
#    y 0.000000 3.429030 0.000000 
#    z -0.164290 0.000000 3.147370 
# 
# 
# High freq. dielectric constant tensor:
#      x y z
#    x 1.706310 0.000000 -0.012560 
#    y 0.000000 1.718850 0.000000 
#    z -0.012560 0.000000 1.678420 
# 
# From -- ./inp_files/186382.got.cif
#   From: 2010.06.25/outbox.cif.g09.slc.cpg/sg12_94_cif.got.tgz:186382.got - 2010.06.28 00:19:55.
