data_PCOD8088506
_publ_section_title
;
Structure prediction by ZEFSAII (Michael W. Deem and Ramdas Pophale) SiO2 
 PCOD8088506
Probable space group: C 2/M
;
_chemical_formula_sum "Si O2"
_cell_formula_units_Z 40
_cell_length_a 23.717890
_cell_length_b 12.416520
_cell_length_c 9.902828
_cell_angle_alpha 90.000000
_cell_angle_beta 128.724435
_cell_angle_gamma 90.000000
_cell_volume 2275.206982
_symmetry_space_group_name_H-M "C 2/M"
_symmetry_group_IT_number 12
_symmetry_cell_setting 'monoclinic'
loop_
_space_group_symop_operation_xyz
x,y,z
-x,y,-z
-x,-y,-z
x,-y,z
1/2+x,1/2+y,z
1/2-x,1/2+y,-z
1/2-x,1/2-y,-z
1/2+x,1/2-y,z
loop_
_atom_site_type_symbol
_atom_site_label
_atom_site_fract_x
_atom_site_fract_y
_atom_site_fract_z
Si Si1 0.660420 0.695186 0.453409
Si Si2 0.956675 0.624167 0.065971
Si Si3 0.010248 0.789772 0.360459
Si Si4 0.887853 0.000000 0.782275
Si Si5 0.034737 0.000000 0.837906
Si Si6 0.187366 0.624426 0.292262
O O1 0.594923 0.688288 0.460362
O O2 0.654381 0.607522 0.324043
O O3 0.735264 0.669078 0.644146
O O4 0.662979 0.813004 0.390895
O O5 0.976563 0.500000 0.121331
O O6 0.981092 0.689703 0.232128
O O7 0.871212 0.641020 0.914112
O O8 0.000000 0.667945 0.000000
O O9 0.000000 0.760181 0.500000
O O10 0.963347 0.895094 0.253925
O O11 0.964440 0.000000 0.824335
O O12 0.896715 0.000000 0.958074
O O13 0.191913 0.500000 0.340444
#
# Coordination Sequence:
#
# PCOD8088506 Si02
#       6
#     8   8   8   4   4   8
#     4  10  19  32  53  83 110 138 178 226 274 322
#     4  10  20  36  58  81 107 142 186 235 273 317
#     4  11  22  36  54  82 116 149 184 219 272 333
#     4   9  16  30  52  80 107 134 181 227 264 317
#     4   9  19  30  52  78 110 148 175 220 267 319
#     4  10  19  33  55  82 108 137 178 232 278 314
#
# _framework density 17.580819000000002
#
# number of rings (size 3 to 8) (size 9 to 14) (size 15 to 20)
#    0.000    2.000    3.000    1.500    2.800    0.400 
#    0.000    1.000    0.000    0.000    0.000    0.000 
#    0.000    0.000    0.000    0.000    0.000    0.000 
#
# Total GULP energy -248015.056781 kJ/mol
# GULP energy per Si atom -12400.752839 kJ/mol
# Density = 1.754080 g / cm^3
# Si number density = 17.580819 Si / 1000 Ang^3
#
#
#
# Elastic Constant Matrix: (Units=GPa)
#
#
# Indices 1 2 3 4 5 6 
#
# 1 80.3665 35.4412 59.9221 0.0000 1.4625 0.0000
# 2 35.4412 102.8130 51.8264 0.0000 -8.1397 0.0000
# 3 59.9221 51.8264 115.7684 0.0000 -6.9833 0.0000
# 4 0.0000 0.0000 0.0000 25.1174 0.0000 5.0112
# 5 1.4625 -8.1397 -6.9833 0.0000 29.0989 0.0000
# 6 0.0000 0.0000 0.0000 5.0112 0.0000 17.0922
#
#
#
# Elastic Compliance Matrix: (Units=1/GPa)
#
#
# Indices 1 2 3 4 5 6 
#
# 1 0.021140 -0.002552 -0.010052 0.000000 -0.004189 0.000000
# 2 -0.002552 0.013009 -0.004339 0.000000 0.002726 0.000000
# 3 -0.010052 -0.004339 0.015972 0.000000 0.003125 0.000000
# 4 0.000000 0.000000 0.000000 0.042287 0.000000 -0.012398
# 5 -0.004189 0.002726 0.003125 0.000000 0.036089 0.000000
# 6 0.000000 0.000000 0.000000 -0.012398 0.000000 0.062141
#
#
# Mechanical properties :
#
#
# Convention : Reuss Voigt Hill
#
# Bulk Modulus (GPa) = 61.59425 65.92527 63.75976
# Shear Modulus (GPa) = 21.74550 24.37892 23.06221
#
# Velocity S-wave (km/s) = 3.52076 3.72785 3.62578
# Velocity P-wave (km/s) = 7.18600 7.49059 7.33988
#
# Compressibility (1/GPa) = 0.01623528
#
# Stress axis : x y z
#
# Youngs Moduli (GPa) = 47.30479 76.87132 62.61049
#
# Poissons Ratio (x) = 0.19614 0.62938
# Poissons Ratio (y) = 0.12070 0.27164
# Poissons Ratio (z) = 0.47552 0.33351
#
# Static dielectric constant tensor:
#      x y z
#    x 3.073810 0.000000 0.379780 
#    y 0.000000 3.416240 0.000000 
#    z 0.379780 0.000000 3.294120 
# 
# 
# High freq. dielectric constant tensor:
#      x y z
#    x 1.646280 0.000000 0.032790 
#    y 0.000000 1.698120 0.000000 
#    z 0.032790 0.000000 1.669230 
# 
# From -- ./inp_files/83503.got.cif
#   From: 2010.06.25/outbox.cif.g09.slc.cpg/sg12_42_cif.got.tgz:83503.got - 2010.06.28 00:19:55.
