data_PCOD8088833
_publ_section_title
;
Structure prediction by ZEFSAII (Michael W. Deem and Ramdas Pophale) SiO2 
 PCOD8088833
Probable space group: C 2/M
;
_chemical_formula_sum "Si O2"
_cell_formula_units_Z 56
_cell_length_a 20.497038
_cell_length_b 8.739991
_cell_length_c 32.507143
_cell_angle_alpha 90.000000
_cell_angle_beta 150.608747
_cell_angle_gamma 90.000000
_cell_volume 2857.982464
_symmetry_space_group_name_H-M "C 2/M"
_symmetry_group_IT_number 12
_symmetry_cell_setting 'monoclinic'
loop_
_space_group_symop_operation_xyz
x,y,z
-x,y,-z
-x,-y,-z
x,-y,z
1/2+x,1/2+y,z
1/2-x,1/2+y,-z
1/2-x,1/2-y,-z
1/2+x,1/2-y,z
loop_
_atom_site_type_symbol
_atom_site_label
_atom_site_fract_x
_atom_site_fract_y
_atom_site_fract_z
Si Si1 0.882170 0.181737 0.054194
Si Si2 0.614640 0.823595 0.769656
Si Si3 0.646992 0.319577 0.339988
Si Si4 0.622240 0.681830 0.041294
Si Si5 0.608526 0.176502 0.671160
Si Si6 0.640868 0.318384 0.243169
Si Si7 0.328401 0.320344 0.505004
O O1 0.008287 0.246501 0.148638
O O2 0.875091 0.000000 0.052462
O O3 0.750000 0.250000 0.000000
O O4 0.894132 0.239684 0.014082
O O5 0.488407 0.721785 0.711283
O O6 0.738745 0.758990 0.863743
O O7 0.650156 0.805208 0.741369
O O8 0.582931 0.000000 0.762963
O O9 0.667517 0.500000 0.352804
O O10 0.644759 0.258143 0.292025
O O11 0.770607 0.241075 0.430432
O O12 0.619887 0.500000 0.042958
O O13 0.500000 0.751412 0.000000
O O14 0.729681 0.239509 0.710169
O O15 0.482468 0.279153 0.591357
O O16 0.575310 0.000000 0.642722
O O17 0.636432 0.500000 0.239243
O O18 0.308443 0.500000 0.496277
O O19 0.250000 0.250000 0.500000
#
# Coordination Sequence:
#
# PCOD8088833 Si02
#       7
#     8   8   8   8   8   8   8
#     4  10  19  34  56  81 114 153 193 234 280 332
#     4  10  19  32  55  84 111 144 190 241 287 331
#     4  11  22  37  58  82 113 149 190 234 278 335
#     4   9  17  30  52  82 111 143 189 240 281 326
#     4  10  20  37  60  83 113 151 193 236 280 333
#     4   9  20  37  57  83 114 155 196 232 279 338
#     4  12  24  40  61  87 115 144 184 229 284 343
#
# _framework density 19.594244
#
# number of rings (size 3 to 8) (size 9 to 14) (size 15 to 20)
#    0.000    1.857    1.429    3.429    0.000    4.000 
#    0.000    5.714    0.000    3.429    0.000    0.000 
#    0.000    0.000    0.000    0.000    0.000    0.000 
#
# Total GULP energy -347301.441686 kJ/mol
# GULP energy per Si atom -12403.622917 kJ/mol
# Density = 1.954965 g / cm^3
# Si number density = 19.594244 Si / 1000 Ang^3
#
#
#
# Elastic Constant Matrix: (Units=GPa)
#
#
# Indices 1 2 3 4 5 6 
#
# 1 141.3306 29.1505 60.5305 0.0002 -2.4038 -0.0004
# 2 29.1505 60.5388 36.6003 0.0008 -3.9226 -0.0009
# 3 60.5305 36.6003 163.0210 0.0001 -7.6884 -0.0003
# 4 0.0002 0.0008 0.0001 25.3254 -0.0001 4.0710
# 5 -2.4038 -3.9226 -7.6884 -0.0001 39.5001 0.0001
# 6 -0.0004 -0.0009 -0.0003 4.0710 0.0001 19.2165
#
#
#
# Elastic Compliance Matrix: (Units=1/GPa)
#
#
# Indices 1 2 3 4 5 6 
#
# 1 0.008757 -0.002615 -0.002676 0.000000 -0.000248 0.000000
# 2 -0.002615 0.019938 -0.003451 -0.000001 0.001149 0.000001
# 3 -0.002676 -0.003451 0.007952 0.000000 0.001042 0.000000
# 4 0.000000 -0.000001 0.000000 0.040878 0.000000 -0.008660
# 5 -0.000248 0.001149 0.001042 0.000000 0.025618 0.000000
# 6 0.000000 0.000001 0.000000 -0.008660 0.000000 0.053873
#
#
# Mechanical properties :
#
#
# Convention : Reuss Voigt Hill
#
# Bulk Modulus (GPa) = 52.18459 68.60588 60.39524
# Shear Modulus (GPa) = 27.64130 32.71567 30.17849
#
# Velocity S-wave (km/s) = 3.75998 4.09058 3.92876
# Velocity P-wave (km/s) = 6.74836 7.57626 7.17426
#
# Compressibility (1/GPa) = 0.01916274
#
# Stress axis : x y z
#
# Youngs Moduli (GPa) = 114.19634 50.15440 125.75677
#
# Poissons Ratio (x) = 0.13114 0.33654
# Poissons Ratio (y) = 0.29859 0.43403
# Poissons Ratio (z) = 0.30560 0.17310
#
# Static dielectric constant tensor:
#      x y z
#    x 3.683730 0.000000 -0.061780 
#    y 0.000000 3.241940 0.000000 
#    z -0.061780 0.000000 3.838280 
# 
# 
# High freq. dielectric constant tensor:
#      x y z
#    x 1.772330 0.000000 -0.002700 
#    y 0.000000 1.728250 0.000000 
#    z -0.002700 0.000000 1.782880 
# 
# From -- ./inp_files/380770.got.cif
#   From: 2010.06.25/outbox.cif.g09.slc.cpg/sg12_191_cif.got.tgz:380770.got - 2010.06.28 00:19:55.
