data_PCOD8088492
_publ_section_title
;
Structure prediction by ZEFSAII (Michael W. Deem and Ramdas Pophale) SiO2 
 PCOD8088492
Probable space group: C 2/M
;
_chemical_formula_sum "Si O2"
_cell_formula_units_Z 56
_cell_length_a 28.410985
_cell_length_b 8.724817
_cell_length_c 17.613059
_cell_angle_alpha 90.000000
_cell_angle_beta 136.399652
_cell_angle_gamma 90.000000
_cell_volume 3010.854288
_symmetry_space_group_name_H-M "C 2/M"
_symmetry_group_IT_number 12
_symmetry_cell_setting 'monoclinic'
loop_
_space_group_symop_operation_xyz
x,y,z
-x,y,-z
-x,-y,-z
x,-y,z
1/2+x,1/2+y,z
1/2-x,1/2+y,-z
1/2-x,1/2-y,-z
1/2+x,1/2-y,z
loop_
_atom_site_type_symbol
_atom_site_label
_atom_site_fract_x
_atom_site_fract_y
_atom_site_fract_z
Si Si1 0.189490 0.816664 0.142380
Si Si2 0.421508 0.317574 0.292111
Si Si3 0.109085 0.175980 0.906700
Si Si4 0.836424 0.181274 0.337453
Si Si5 0.064640 0.679670 0.430678
Si Si6 0.453412 0.323816 0.747464
Si Si7 0.570666 0.681602 0.114376
O O1 0.259068 0.733272 0.242345
O O2 0.135004 0.760292 0.141318
O O3 0.198210 0.000000 0.153835
O O4 0.163636 0.754621 0.029744
O O5 0.427116 0.500000 0.294710
O O6 0.388147 0.250887 0.174828
O O7 0.376007 0.260507 0.308670
O O8 0.498037 0.255782 0.390366
O O9 0.034158 0.197297 0.854265
O O10 0.127884 0.000000 0.920104
O O11 0.868931 0.258865 0.448948
O O12 0.841238 0.000000 0.350836
O O13 0.058823 0.500000 0.434058
O O14 0.073563 0.719837 0.352528
O O15 0.436659 0.500000 0.707827
O O16 0.417934 0.270503 0.784312
O O17 0.565021 0.500000 0.101837
O O18 0.500000 0.753567 0.000000
#
# Coordination Sequence:
#
# PCOD8088492 Si02
#       7
#     8   8   8   8   8   8   8
#     4  10  19  32  53  82 113 141 177 219 259 309
#     4   9  19  36  58  80 103 139 182 219 261 319
#     4   8  14  28  52  80 107 136 171 212 258 310
#     4  11  23  38  53  73 107 148 184 217 264 321
#     4  11  22  36  56  81 106 134 178 228 272 313
#     4   9  16  31  56  83 110 139 175 216 262 315
#     4   9  15  28  56  88 109 137 179 216 255 315
#
# _framework density 18.599371999999999
#
# number of rings (size 3 to 8) (size 9 to 14) (size 15 to 20)
#    0.000    2.429    1.429    3.000    0.000    3.429 
#    0.000    4.286    0.000    0.857    0.000    0.000 
#    0.000    0.000    0.000    0.000    0.000    0.000 
#
# Total GULP energy -347121.009889 kJ/mol
# GULP energy per Si atom -12397.178925 kJ/mol
# Density = 1.855704 g / cm^3
# Si number density = 18.599372 Si / 1000 Ang^3
#
#
#
# Elastic Constant Matrix: (Units=GPa)
#
#
# Indices 1 2 3 4 5 6 
#
# 1 81.6195 19.9341 62.7273 0.0000 -9.6861 0.0000
# 2 19.9341 36.8677 25.5203 0.0000 -3.6689 0.0000
# 3 62.7273 25.5203 133.5677 0.0000 -0.8742 0.0000
# 4 0.0000 0.0000 0.0000 24.5370 0.0000 5.3941
# 5 -9.6861 -3.6689 -0.8742 0.0000 19.9456 0.0000
# 6 0.0000 0.0000 0.0000 5.3941 0.0000 17.1315
#
#
#
# Elastic Compliance Matrix: (Units=1/GPa)
#
#
# Indices 1 2 3 4 5 6 
#
# 1 0.021472 -0.004325 -0.009197 0.000000 0.009229 0.000000
# 2 -0.004325 0.032742 -0.004200 0.000000 0.003738 0.000000
# 3 -0.009197 -0.004200 0.012578 0.000000 -0.004688 0.000000
# 4 0.000000 0.000000 0.000000 0.043786 0.000000 -0.013787
# 5 0.009229 0.003738 -0.004688 0.000000 0.055100 0.000000
# 6 0.000000 0.000000 0.000000 -0.013787 0.000000 0.062713
#
#
# Mechanical properties :
#
#
# Convention : Reuss Voigt Hill
#
# Bulk Modulus (GPa) = 31.90085 52.04648 41.97367
# Shear Modulus (GPa) = 18.22931 21.91436 20.07184
#
# Velocity S-wave (km/s) = 3.13406 3.43626 3.28863
# Velocity P-wave (km/s) = 5.50320 6.61721 6.08575
#
# Compressibility (1/GPa) = 0.03134713
#
# Stress axis : x y z
#
# Youngs Moduli (GPa) = 46.57309 30.54174 79.50468
#
# Poissons Ratio (x) = 0.13209 0.73120
# Poissons Ratio (y) = 0.20142 0.33395
# Poissons Ratio (z) = 0.42833 0.12829
#
# Static dielectric constant tensor:
#      x y z
#    x 3.567320 0.000000 -0.262210 
#    y 0.000000 3.041380 0.000000 
#    z -0.262210 0.000000 3.525700 
# 
# 
# High freq. dielectric constant tensor:
#      x y z
#    x 1.718840 0.000000 -0.018200 
#    y 0.000000 1.685580 0.000000 
#    z -0.018200 0.000000 1.726650 
# 
# From -- ./inp_files/295164.got.cif
#   From: 2010.06.25/outbox.cif.g09.slc.cpg/sg12_148_cif.got.tgz:295164.got - 2010.06.28 00:19:55.
