data_PCOD8088002
_publ_section_title
;
Structure prediction by ZEFSAII (Michael W. Deem and Ramdas Pophale) SiO2 
 PCOD8088002
Probable space group: C 2/M
;
_chemical_formula_sum "Si O2"
_cell_formula_units_Z 64
_cell_length_a 24.132980
_cell_length_b 9.058865
_cell_length_c 30.768759
_cell_angle_alpha 90.000000
_cell_angle_beta 29.341024
_cell_angle_gamma 90.000000
_cell_volume 3296.072583
_symmetry_space_group_name_H-M "C 2/M"
_symmetry_group_IT_number 12
_symmetry_cell_setting 'monoclinic'
loop_
_space_group_symop_operation_xyz
x,y,z
-x,y,-z
-x,-y,-z
x,-y,z
1/2+x,1/2+y,z
1/2-x,1/2+y,-z
1/2-x,1/2-y,-z
1/2+x,1/2-y,z
loop_
_atom_site_type_symbol
_atom_site_label
_atom_site_fract_x
_atom_site_fract_y
_atom_site_fract_z
Si Si1 0.624701 0.825513 0.428993
Si Si2 0.690819 0.672962 0.473535
Si Si3 0.824591 0.668150 0.013351
Si Si4 0.594256 0.831704 0.618147
Si Si5 0.465310 0.672893 0.850592
Si Si6 0.603144 0.170393 0.184847
Si Si7 0.461206 0.833487 0.071739
Si Si8 0.326280 0.329208 0.231126
O O1 0.500000 0.773212 0.500000
O O2 0.666297 0.750057 0.444578
O O3 0.706845 0.779056 0.333003
O O4 0.629838 0.000000 0.433412
O O5 0.674504 0.500000 0.477764
O O6 0.602435 0.729211 0.570235
O O7 0.816106 0.713586 0.405428
O O8 0.794401 0.500000 0.020978
O O9 0.853869 0.763421 0.950665
O O10 0.931662 0.673627 0.970824
O O11 0.719911 0.741389 0.110008
O O12 0.467066 0.814143 0.722684
O O13 0.618950 0.000000 0.587154
O O14 0.448562 0.500000 0.854616
O O15 0.474962 0.757061 0.798653
O O16 0.579042 0.710283 0.798285
O O17 0.627292 0.000000 0.157277
O O18 0.353855 0.752994 0.167069
O O19 0.421356 0.000000 0.089787
O O20 0.500000 0.757349 0.000000
O O21 0.326486 0.500000 0.219337
#
# Coordination Sequence:
#
# PCOD8088002 Si02
#       8
#     8   8   8   8   8   8   8   8
#     4  10  21  38  58  81 115 151 183 226 282 336
#     4  10  20  36  59  83 107 139 185 232 273 322
#     4  10  20  34  51  73 105 139 174 215 263 317
#     4   9  20  37  56  79 109 146 181 221 275 334
#     4  10  19  32  52  76 105 137 176 221 263 310
#     4  11  21  33  50  76 108 140 175 211 261 320
#     4   9  19  37  58  78 103 139 177 220 272 317
#     4   9  19  35  56  82 105 137 184 223 261 316
#
# _framework density 19.417048999999999
#
# number of rings (size 3 to 8) (size 9 to 14) (size 15 to 20)
#    0.000    2.250    0.000    2.625    0.000    3.500 
#    2.250    0.000    0.000    0.000    0.000    0.000 
#    0.000    0.000    0.000    0.000    0.000    0.000 
#
# Total GULP energy -396785.258668 kJ/mol
# GULP energy per Si atom -12399.539333 kJ/mol
# Density = 1.937285 g / cm^3
# Si number density = 19.417049 Si / 1000 Ang^3
#
#
#
# Elastic Constant Matrix: (Units=GPa)
#
#
# Indices 1 2 3 4 5 6 
#
# 1 51.3620 25.8200 38.2682 0.0134 14.8547 -0.0187
# 2 25.8200 83.2631 51.3090 0.0384 6.9962 -0.0586
# 3 38.2682 51.3090 147.0594 -0.0022 6.7327 0.0004
# 4 0.0134 0.0384 -0.0022 30.4270 -0.0024 8.6411
# 5 14.8547 6.9962 6.7327 -0.0024 29.3550 0.0083
# 6 -0.0187 -0.0586 0.0004 8.6411 0.0083 25.7230
#
#
#
# Elastic Compliance Matrix: (Units=1/GPa)
#
#
# Indices 1 2 3 4 5 6 
#
# 1 0.029561 -0.004745 -0.005461 -0.000014 -0.012576 0.000020
# 2 -0.004745 0.016237 -0.004410 -0.000031 -0.000457 0.000044
# 3 -0.005461 -0.004410 0.009687 0.000014 0.001593 -0.000020
# 4 -0.000014 -0.000031 0.000014 0.036332 0.000018 -0.012205
# 5 -0.012576 -0.000457 0.001593 0.000018 0.040173 -0.000029
# 6 0.000020 0.000044 -0.000020 -0.012205 -0.000029 0.042976
#
#
# Mechanical properties :
#
#
# Convention : Reuss Voigt Hill
#
# Bulk Modulus (GPa) = 38.08986 56.94210 47.51598
# Shear Modulus (GPa) = 23.47992 28.18681 25.83336
#
# Velocity S-wave (km/s) = 3.48119 3.81419 3.65149
# Velocity P-wave (km/s) = 5.98477 6.98476 6.50401
#
# Compressibility (1/GPa) = 0.02625371
#
# Stress axis : x y z
#
# Youngs Moduli (GPa) = 33.82843 61.58673 103.23463
#
# Poissons Ratio (x) = 0.29222 0.56379
# Poissons Ratio (y) = 0.16051 0.45522
# Poissons Ratio (z) = 0.18474 0.27157
#
# Static dielectric constant tensor:
#      x y z
#    x 3.329050 -0.000060 0.077930 
#    y -0.000060 3.625860 0.000030 
#    z 0.077930 0.000030 3.723140 
# 
# 
# High freq. dielectric constant tensor:
#      x y z
#    x 1.737540 0.000000 0.005450 
#    y 0.000000 1.757360 0.000000 
#    z 0.005450 0.000000 1.765050 
# 
# From -- ./inp_files/382317.got.cif
#   From: 2010.06.25/outbox.cif.g09.slc.cpg/sg12_192_cif.got.tgz:382317.got - 2010.06.28 00:19:55.
