data_PCOD8088576
_publ_section_title
;
Structure prediction by ZEFSAII (Michael W. Deem and Ramdas Pophale) SiO2 
 PCOD8088576
Probable space group: C 2/M
;
_chemical_formula_sum "Si O2"
_cell_formula_units_Z 64
_cell_length_a 22.655336
_cell_length_b 10.289279
_cell_length_c 17.721172
_cell_angle_alpha 90.000000
_cell_angle_beta 122.416436
_cell_angle_gamma 90.000000
_cell_volume 3487.224905
_symmetry_space_group_name_H-M "C 2/M"
_symmetry_group_IT_number 12
_symmetry_cell_setting 'monoclinic'
loop_
_space_group_symop_operation_xyz
x,y,z
-x,y,-z
-x,-y,-z
x,-y,z
1/2+x,1/2+y,z
1/2-x,1/2+y,-z
1/2-x,1/2-y,-z
1/2+x,1/2-y,z
loop_
_atom_site_type_symbol
_atom_site_label
_atom_site_fract_x
_atom_site_fract_y
_atom_site_fract_z
Si Si1 0.385812 0.346779 0.917907
Si Si2 0.080306 0.357905 0.547878
Si Si3 0.135995 0.729984 0.438950
Si Si4 0.224538 0.350834 0.208144
Si Si5 0.263963 0.853382 0.614854
Si Si6 0.003108 0.848273 0.883688
Si Si7 0.119335 0.852006 0.686573
Si Si8 0.000185 0.150682 0.715439
O O1 0.365265 0.500000 0.895595
O O2 0.319493 0.251269 0.871484
O O3 0.437243 0.297332 0.886660
O O4 0.424042 0.321908 0.023869
O O5 0.095346 0.500000 0.594756
O O6 0.101652 0.369230 0.474618
O O7 0.122429 0.241480 0.615861
O O8 0.000000 0.320558 0.500000
O O9 0.200397 0.796653 0.524340
O O10 0.164405 0.658443 0.383819
O O11 0.075967 0.830732 0.373091
O O12 0.195015 0.500000 0.184107
O O13 0.224914 0.293476 0.294239
O O14 0.302552 0.349816 0.226151
O O15 0.243437 0.000000 0.616193
O O16 0.004334 0.782831 0.801365
O O17 0.990562 0.000000 0.866804
O O18 0.062850 0.792650 0.706500
O O19 0.099366 0.000000 0.648497
O O20 0.015831 0.000000 0.734756
#
# Coordination Sequence:
#
# PCOD8088576 Si02
#       8
#     8   8   8   8   8   8   8   8
#     4   9  17  33  58  81 104 135 168 210 263 319
#     4  11  22  36  52  74 105 140 177 222 268 304
#     4  11  20  33  52  75 101 139 180 212 260 311
#     4  10  20  35  52  75 108 139 171 215 260 307
#     4  10  21  34  48  72 108 141 171 214 260 307
#     4   8  16  32  54  82 108 129 167 218 263 306
#     4  10  21  36  54  75 101 139 182 218 256 307
#     4  10  19  32  54  79 101 133 179 225 257 301
#
# _framework density 18.352703000000002
#
# number of rings (size 3 to 8) (size 9 to 14) (size 15 to 20)
#    0.000    2.125    2.500    2.250    0.000    1.250 
#    0.000    2.500    0.000    2.250    0.000    0.000 
#    0.000    0.000    0.000    0.000    0.000    0.000 
#
# Total GULP energy -396569.103813 kJ/mol
# GULP energy per Si atom -12392.784494 kJ/mol
# Density = 1.831093 g / cm^3
# Si number density = 18.352703 Si / 1000 Ang^3
#
#
#
# Elastic Constant Matrix: (Units=GPa)
#
#
# Indices 1 2 3 4 5 6 
#
# 1 92.8100 14.3343 27.1207 0.0000 4.7599 0.0000
# 2 14.3343 65.7267 30.9598 0.0000 10.4852 0.0000
# 3 27.1207 30.9598 72.7544 0.0000 5.4473 0.0000
# 4 0.0000 0.0000 0.0000 26.4142 0.0000 4.4906
# 5 4.7599 10.4852 5.4473 0.0000 27.8256 0.0000
# 6 0.0000 0.0000 0.0000 4.4906 0.0000 17.6670
#
#
#
# Elastic Compliance Matrix: (Units=1/GPa)
#
#
# Indices 1 2 3 4 5 6 
#
# 1 0.012143 -0.000480 -0.004243 0.000000 -0.001066 0.000000
# 2 -0.000480 0.019971 -0.007878 0.000000 -0.005901 0.000000
# 3 -0.004243 -0.007878 0.018676 0.000000 0.000038 0.000000
# 4 0.000000 0.000000 0.000000 0.039568 0.000000 -0.010058
# 5 -0.001066 -0.005901 0.000038 0.000000 0.038337 0.000000
# 6 0.000000 0.000000 0.000000 -0.010058 0.000000 0.059159
#
#
# Mechanical properties :
#
#
# Convention : Reuss Voigt Hill
#
# Bulk Modulus (GPa) = 39.07811 41.79120 40.43465
# Shear Modulus (GPa) = 22.56469 24.97312 23.76891
#
# Velocity S-wave (km/s) = 3.51023 3.69281 3.60268
# Velocity P-wave (km/s) = 6.14557 6.40336 6.27579
#
# Compressibility (1/GPa) = 0.02558978
#
# Stress axis : x y z
#
# Youngs Moduli (GPa) = 82.35026 50.07173 53.54493
#
# Poissons Ratio (x) = 0.02403 0.22717
# Poissons Ratio (y) = 0.03951 0.42182
# Poissons Ratio (z) = 0.34938 0.39446
#
# Static dielectric constant tensor:
#      x y z
#    x 3.730760 0.000000 -0.240360 
#    y 0.000000 3.093980 0.000000 
#    z -0.240360 0.000000 3.361290 
# 
# 
# High freq. dielectric constant tensor:
#      x y z
#    x 1.722630 0.000000 0.000530 
#    y 0.000000 1.685820 0.000000 
#    z 0.000530 0.000000 1.695470 
# 
# From -- ./inp_files/289100.got.cif
#   From: 2010.06.25/outbox.cif.g09.slc.cpg/sg12_145_cif.got.tgz:289100.got - 2010.06.28 00:19:55.
