data_PCOD8088892
_publ_section_title
;
Structure prediction by ZEFSAII (Michael W. Deem and Ramdas Pophale) SiO2 
 PCOD8088892
Probable space group: C 2/M
;
_chemical_formula_sum "Si O2"
_cell_formula_units_Z 40
_cell_length_a 26.733428
_cell_length_b 7.713974
_cell_length_c 12.664434
_cell_angle_alpha 90.000000
_cell_angle_beta 58.123838
_cell_angle_gamma 90.000000
_cell_volume 2217.809458
_symmetry_space_group_name_H-M "C 2/M"
_symmetry_group_IT_number 12
_symmetry_cell_setting 'monoclinic'
loop_
_space_group_symop_operation_xyz
x,y,z
-x,y,-z
-x,-y,-z
x,-y,z
1/2+x,1/2+y,z
1/2-x,1/2+y,-z
1/2-x,1/2-y,-z
1/2+x,1/2-y,z
loop_
_atom_site_type_symbol
_atom_site_label
_atom_site_fract_x
_atom_site_fract_y
_atom_site_fract_z
Si Si1 0.978692 0.500000 0.353933
Si Si2 0.174185 0.196094 0.192665
Si Si3 0.905472 0.500000 0.646066
Si Si4 0.522501 0.693389 0.804561
Si Si5 0.697902 0.296847 0.928764
Si Si6 0.916030 0.700951 0.058489
O O1 0.933872 0.500000 0.499938
O O2 0.966299 0.328006 0.300993
O O3 0.045974 0.500000 0.316500
O O4 0.133011 0.326263 0.302705
O O5 0.240598 0.202305 0.163607
O O6 0.150041 0.000000 0.232373
O O7 0.174103 0.256262 0.070686
O O8 0.529297 0.500000 0.750298
O O9 0.571115 0.720332 0.841266
O O10 0.456950 0.710080 0.925061
O O11 0.709004 0.500000 0.910027
O O12 0.651891 0.234298 0.892307
O O13 0.932093 0.500000 0.041912
#
# Coordination Sequence:
#
# PCOD8088892 Si02
#       6
#     4   8   4   8   8   8
#     4  11  24  41  58  82 106 157 196 229 283 319
#     4  10  21  36  55  84 117 148 185 229 281 334
#     4  11  24  40  60  78 114 149 194 239 271 330
#     4  11  21  37  56  84 118 148 185 232 281 334
#     4  10  19  32  55  89 118 148 180 222 286 345
#     4  11  19  32  56  88 121 146 180 228 285 344
#
# _framework density 18.035813000000001
#
# number of rings (size 3 to 8) (size 9 to 14) (size 15 to 20)
#    0.000    1.400    3.000    4.800    2.800    3.200 
#    0.000    2.000    0.000    1.200    0.000    0.000 
#    0.000    0.000    0.000    0.000    0.000    0.000 
#
# Total GULP energy -248092.600828 kJ/mol
# GULP energy per Si atom -12404.630041 kJ/mol
# Density = 1.799476 g / cm^3
# Si number density = 18.035813 Si / 1000 Ang^3
#
#
#
# Elastic Constant Matrix: (Units=GPa)
#
#
# Indices 1 2 3 4 5 6 
#
# 1 104.4726 35.2368 40.7600 0.0000 -10.3805 0.0000
# 2 35.2368 142.9473 46.4846 0.0000 -0.8003 0.0000
# 3 40.7600 46.4846 73.8595 0.0000 -1.6094 0.0000
# 4 0.0000 0.0000 0.0000 10.3037 0.0000 -0.2243
# 5 -10.3805 -0.8003 -1.6094 0.0000 15.6252 0.0000
# 6 0.0000 0.0000 0.0000 -0.2243 0.0000 28.6766
#
#
#
# Elastic Compliance Matrix: (Units=1/GPa)
#
#
# Indices 1 2 3 4 5 6 
#
# 1 0.013268 -0.001134 -0.006432 0.000000 0.008094 0.000000
# 2 -0.001134 0.008893 -0.004989 0.000000 -0.000811 0.000000
# 3 -0.006432 -0.004989 0.020175 0.000000 -0.002451 0.000000
# 4 0.000000 0.000000 0.000000 0.097069 0.000000 0.000759
# 5 0.008094 -0.000811 -0.002451 0.000000 0.069083 0.000000
# 6 0.000000 0.000000 0.000000 0.000759 0.000000 0.034878
#
#
# Mechanical properties :
#
#
# Convention : Reuss Voigt Hill
#
# Bulk Modulus (GPa) = 58.04960 62.91580 60.48270
# Shear Modulus (GPa) = 18.23374 24.17430 21.20402
#
# Velocity S-wave (km/s) = 3.18303 3.66505 3.43251
# Velocity P-wave (km/s) = 6.76495 7.27115 7.02261
#
# Compressibility (1/GPa) = 0.01722665
#
# Stress axis : x y z
#
# Youngs Moduli (GPa) = 75.36937 112.45042 49.56536
#
# Poissons Ratio (x) = 0.12747 0.31882
# Poissons Ratio (y) = 0.08544 0.24728
# Poissons Ratio (z) = 0.48479 0.56101
#
# Static dielectric constant tensor:
#      x y z
#    x 3.473450 0.000000 0.071160 
#    y 0.000000 3.489420 0.000000 
#    z 0.071160 0.000000 2.941080 
# 
# 
# High freq. dielectric constant tensor:
#      x y z
#    x 1.709450 0.000000 0.002370 
#    y 0.000000 1.720930 0.000000 
#    z 0.002370 0.000000 1.650430 
# 
# From -- ./inp_files/179078.got.cif
#   From: 2010.06.25/outbox.cif.g09.slc.cpg/sg12_90_cif.got.tgz:179078.got - 2010.06.28 00:19:55.
