data_PCOD8088694
_publ_section_title
;
Structure prediction by ZEFSAII (Michael W. Deem and Ramdas Pophale) SiO2 
 PCOD8088694
Probable space group: C 2/M
;
_chemical_formula_sum "Si O2"
_cell_formula_units_Z 64
_cell_length_a 14.525284
_cell_length_b 8.693338
_cell_length_c 26.257502
_cell_angle_alpha 90.000000
_cell_angle_beta 77.187825
_cell_angle_gamma 90.000000
_cell_volume 3233.067455
_symmetry_space_group_name_H-M "C 2/M"
_symmetry_group_IT_number 12
_symmetry_cell_setting 'monoclinic'
loop_
_space_group_symop_operation_xyz
x,y,z
-x,y,-z
-x,-y,-z
x,-y,z
1/2+x,1/2+y,z
1/2-x,1/2+y,-z
1/2-x,1/2-y,-z
1/2+x,1/2-y,z
loop_
_atom_site_type_symbol
_atom_site_label
_atom_site_fract_x
_atom_site_fract_y
_atom_site_fract_z
Si Si1 0.639507 0.179314 0.877845
Si Si2 0.521161 0.181877 0.440784
Si Si3 0.416244 0.818804 0.716376
Si Si4 0.152462 0.319244 0.994225
Si Si5 0.794037 0.318860 0.638238
Si Si6 0.913522 0.182439 0.361179
Si Si7 0.050918 0.180541 0.096629
Si Si8 0.828127 0.320255 0.833740
O O1 0.539766 0.235581 0.867783
O O2 0.719341 0.275132 0.838495
O O3 0.654446 0.000000 0.865629
O O4 0.637942 0.222013 0.937451
O O5 0.500000 0.241874 0.500000
O O6 0.628356 0.230756 0.413529
O O7 0.445766 0.257786 0.412236
O O8 0.508272 0.000000 0.437671
O O9 0.333380 0.762051 0.688243
O O10 0.515085 0.737563 0.691582
O O11 0.387152 0.773359 0.776825
O O12 0.431112 0.000000 0.707852
O O13 0.151312 0.500000 0.004114
O O14 0.069196 0.243750 0.037586
O O15 0.250000 0.250000 0.000000
O O16 0.782413 0.500000 0.640367
O O17 0.690992 0.248336 0.638330
O O18 0.911952 0.000000 0.362267
O O19 0.138458 0.220453 0.122269
O O20 0.035019 0.000000 0.096088
O O21 0.837795 0.500000 0.844690
#
# Coordination Sequence:
#
# PCOD8088694 Si02
#       8
#     8   8   8   8   8   8   8   8
#     4  11  24  41  61  87 117 149 187 234 285 344
#     4   9  18  34  54  76 109 153 192 227 273 332
#     4   9  20  39  59  79 107 145 185 227 276 335
#     4  11  22  38  62  87 116 150 188 232 283 342
#     4   8  16  33  54  77 108 143 182 224 274 331
#     4  10  19  32  54  82 111 144 182 231 281 326
#     4  12  25  40  60  86 117 154 192 233 282 341
#     4  11  23  40  62  86 114 148 189 239 292 343
#
# _framework density 19.795441
#
# number of rings (size 3 to 8) (size 9 to 14) (size 15 to 20)
#    0.000    1.875    1.250    3.750    0.000    5.750 
#    0.000    6.250    0.000    0.000    0.000    0.000 
#    0.000    0.000    0.000    0.000    0.000    0.000 
#
# Total GULP energy -396855.199149 kJ/mol
# GULP energy per Si atom -12401.724973 kJ/mol
# Density = 1.975039 g / cm^3
# Si number density = 19.795441 Si / 1000 Ang^3
#
#
#
# Elastic Constant Matrix: (Units=GPa)
#
#
# Indices 1 2 3 4 5 6 
#
# 1 124.1843 24.1218 28.3137 0.0000 -18.2657 0.0000
# 2 24.1218 62.8167 38.7377 0.0000 -3.6494 0.0000
# 3 28.3137 38.7377 100.4306 0.0000 -11.9767 0.0000
# 4 0.0000 0.0000 0.0000 25.8140 0.0000 -3.4162
# 5 -18.2657 -3.6494 -11.9767 0.0000 21.1532 0.0000
# 6 0.0000 0.0000 0.0000 -3.4162 0.0000 31.5670
#
#
#
# Elastic Compliance Matrix: (Units=1/GPa)
#
#
# Indices 1 2 3 4 5 6 
#
# 1 0.009910 -0.002887 -0.000771 0.000000 0.007623 0.000000
# 2 -0.002887 0.021750 -0.007963 0.000000 -0.003249 0.000000
# 3 -0.000771 -0.007963 0.013944 0.000000 0.005855 0.000000
# 4 0.000000 0.000000 0.000000 0.039301 0.000000 0.004253
# 5 0.007623 -0.003249 0.005855 0.000000 0.056611 0.000000
# 6 0.000000 0.000000 0.000000 0.004253 0.000000 0.032139
#
#
# Mechanical properties :
#
#
# Convention : Reuss Voigt Hill
#
# Bulk Modulus (GPa) = 44.71880 52.19755 48.45818
# Shear Modulus (GPa) = 24.46757 28.79074 26.62916
#
# Velocity S-wave (km/s) = 3.51952 3.81781 3.67170
# Velocity P-wave (km/s) = 6.25744 6.77200 6.51980
#
# Compressibility (1/GPa) = 0.02236196
#
# Stress axis : x y z
#
# Youngs Moduli (GPa) = 100.90388 45.97777 71.71450
#
# Poissons Ratio (x) = 0.13274 0.05531
# Poissons Ratio (y) = 0.29132 0.57104
# Poissons Ratio (z) = 0.07783 0.36611
#
# Static dielectric constant tensor:
#      x y z
#    x 3.816640 0.000000 -0.083020 
#    y 0.000000 3.413280 0.000000 
#    z -0.083020 0.000000 3.679680 
# 
# 
# High freq. dielectric constant tensor:
#      x y z
#    x 1.781830 0.000000 -0.009090 
#    y 0.000000 1.761310 0.000000 
#    z -0.009090 0.000000 1.767040 
# 
# From -- ./inp_files/359757.got.cif
#   From: 2010.06.25/outbox.cif.g09.slc.cpg/sg12_180_cif.got.tgz:359757.got - 2010.06.28 00:19:55.
