data_PCOD8088632
_publ_section_title
;
Structure prediction by ZEFSAII (Michael W. Deem and Ramdas Pophale) SiO2 
 PCOD8088632
Probable space group: C 2/M
;
_chemical_formula_sum "Si O2"
_cell_formula_units_Z 48
_cell_length_a 20.600147
_cell_length_b 9.054073
_cell_length_c 14.889327
_cell_angle_alpha 90.000000
_cell_angle_beta 71.024869
_cell_angle_gamma 90.000000
_cell_volume 2626.178889
_symmetry_space_group_name_H-M "C 2/M"
_symmetry_group_IT_number 12
_symmetry_cell_setting 'monoclinic'
loop_
_space_group_symop_operation_xyz
x,y,z
-x,y,-z
-x,-y,-z
x,-y,z
1/2+x,1/2+y,z
1/2-x,1/2+y,-z
1/2-x,1/2-y,-z
1/2+x,1/2-y,z
loop_
_atom_site_type_symbol
_atom_site_label
_atom_site_fract_x
_atom_site_fract_y
_atom_site_fract_z
Si Si1 0.432938 0.324819 0.290379
Si Si2 0.074839 0.826399 0.502811
Si Si3 0.682421 0.324965 0.789020
Si Si4 0.815322 0.171449 0.011372
Si Si5 0.336088 0.174838 0.682687
Si Si6 0.085958 0.828127 0.191755
O O1 0.429680 0.500000 0.289394
O O2 0.419286 0.270395 0.397689
O O3 0.375356 0.255694 0.250556
O O4 0.507698 0.271851 0.223704
O O5 0.132287 0.740519 0.421793
O O6 0.000000 0.784400 0.500000
O O7 0.088302 0.000000 0.487032
O O8 0.676066 0.500000 0.790570
O O9 0.669513 0.265983 0.895924
O O10 0.756934 0.274852 0.721084
O O11 0.796435 0.000000 0.025051
O O12 0.750000 0.250000 0.000000
O O13 0.882162 0.199979 0.920584
O O14 0.373215 0.235627 0.753653
O O15 0.343875 0.000000 0.678452
O O16 0.089832 0.000000 0.218136
#
# Coordination Sequence:
#
# PCOD8088632 Si02
#       6
#     8   8   8   8   8   8
#     4   9  18  34  54  76 107 139 173 219 263 306
#     4  10  19  34  56  79 103 137 180 219 258 306
#     4   9  19  34  51  78 111 140 169 213 269 310
#     4  10  19  32  54  81 107 136 175 215 257 312
#     4  11  21  33  53  79 109 139 172 216 264 315
#     4  10  19  33  56  81 102 136 182 218 254 308
#
# _framework density 18.277505999999999
#
# number of rings (size 3 to 8) (size 9 to 14) (size 15 to 20)
#    0.000    2.167    3.333    0.500    0.000    1.667 
#    0.000    3.333    0.000    5.000    0.000    2.333 
#    0.000    0.000    0.000    0.000    0.000    0.000 
#
# Total GULP energy -297611.467226 kJ/mol
# GULP energy per Si atom -12400.477801 kJ/mol
# Density = 1.823591 g / cm^3
# Si number density = 18.277506 Si / 1000 Ang^3
#
#
#
# Elastic Constant Matrix: (Units=GPa)
#
#
# Indices 1 2 3 4 5 6 
#
# 1 174.3910 36.8871 99.3185 0.0000 7.2865 0.0000
# 2 36.8871 33.8040 41.1081 0.0000 -5.6709 0.0000
# 3 99.3185 41.1081 176.1221 0.0000 1.2400 0.0000
# 4 0.0000 0.0000 0.0000 23.8437 0.0000 -2.1537
# 5 7.2865 -5.6709 1.2400 0.0000 38.0325 0.0000
# 6 0.0000 0.0000 0.0000 -2.1537 0.0000 19.9965
#
#
#
# Elastic Compliance Matrix: (Units=1/GPa)
#
#
# Indices 1 2 3 4 5 6 
#
# 1 0.009267 -0.005868 -0.003838 0.000000 -0.002525 0.000000
# 2 -0.005868 0.046681 -0.007645 0.000000 0.008334 0.000000
# 3 -0.003838 -0.007645 0.009632 0.000000 -0.000719 0.000000
# 4 0.000000 0.000000 0.000000 0.042352 0.000000 0.004561
# 5 -0.002525 0.008334 -0.000719 0.000000 0.028043 0.000000
# 6 0.000000 0.000000 0.000000 0.004561 0.000000 0.050500
#
#
# Mechanical properties :
#
#
# Convention : Reuss Voigt Hill
#
# Bulk Modulus (GPa) = 32.38727 82.10493 57.24610
# Shear Modulus (GPa) = 21.60110 30.17478 25.88794
#
# Velocity S-wave (km/s) = 3.44152 4.06756 3.76757
# Velocity P-wave (km/s) = 5.79226 8.19017 7.09328
#
# Compressibility (1/GPa) = 0.03087633
#
# Stress axis : x y z
#
# Youngs Moduli (GPa) = 107.90994 21.42218 103.82148
#
# Poissons Ratio (x) = 0.12571 0.39851
# Poissons Ratio (y) = 0.63322 0.79373
# Poissons Ratio (z) = 0.41420 0.16378
#
# Static dielectric constant tensor:
#      x y z
#    x 3.658570 0.000000 -0.020120 
#    y 0.000000 3.052340 0.000000 
#    z -0.020120 0.000000 3.754020 
# 
# 
# High freq. dielectric constant tensor:
#      x y z
#    x 1.711000 0.000000 -0.004860 
#    y 0.000000 1.669930 0.000000 
#    z -0.004860 0.000000 1.727290 
# 
# From -- ./inp_files/229835.got.cif
#   From: 2010.06.25/outbox.cif.g09.slc.cpg/sg12_115_cif.got.tgz:229835.got - 2010.06.28 00:19:55.
