data_PCOD8088736
_publ_section_title
;
Structure prediction by ZEFSAII (Michael W. Deem and Ramdas Pophale) SiO2 
 PCOD8088736
Probable space group: C 2/M
;
_chemical_formula_sum "Si O2"
_cell_formula_units_Z 64
_cell_length_a 17.455432
_cell_length_b 17.959117
_cell_length_c 19.001642
_cell_angle_alpha 90.000000
_cell_angle_beta 32.064881
_cell_angle_gamma 90.000000
_cell_volume 3162.295557
_symmetry_space_group_name_H-M "C 2/M"
_symmetry_group_IT_number 12
_symmetry_cell_setting 'monoclinic'
loop_
_space_group_symop_operation_xyz
x,y,z
-x,y,-z
-x,-y,-z
x,-y,z
1/2+x,1/2+y,z
1/2-x,1/2+y,-z
1/2-x,1/2-y,-z
1/2+x,1/2-y,z
loop_
_atom_site_type_symbol
_atom_site_label
_atom_site_fract_x
_atom_site_fract_y
_atom_site_fract_z
Si Si1 0.854641 0.915656 0.676901
Si Si2 0.829803 0.155471 0.963099
Si Si3 0.679872 0.916343 0.951977
Si Si4 0.884214 0.648877 0.219220
Si Si5 0.733352 0.212440 0.308449
Si Si6 0.943906 0.085416 0.119363
Si Si7 0.962353 0.283817 0.780834
Si Si8 0.012514 0.768374 0.589773
O O1 0.738889 0.907234 0.828215
O O2 0.763439 0.899115 0.676345
O O3 0.982786 0.854914 0.589453
O O4 0.919879 0.000000 0.622950
O O5 0.781505 0.130421 0.923647
O O6 0.929223 0.227278 0.871154
O O7 0.923890 0.093788 0.929319
O O8 0.688018 0.174066 0.120531
O O9 0.685232 0.000000 0.975476
O O10 0.516004 0.890355 0.077982
O O11 0.860278 0.727786 0.198122
O O12 0.920437 0.659831 0.274955
O O13 0.802899 0.130563 0.254957
O O14 0.658208 0.236641 0.441086
O O15 0.618525 0.216745 0.334840
O O16 0.895433 0.000000 0.154171
O O17 0.000000 0.113709 0.000000
O O18 0.027083 0.242566 0.662277
#
# Coordination Sequence:
#
# PCOD8088736 Si02
#       8
#     8   8   8   8   8   8   8   8
#     4  10  20  35  57  86 119 157 196 239 293 351
#     4  10  19  34  55  90 115 148 190 242 299 346
#     4  10  19  32  54  84 120 153 188 238 298 354
#     4  10  20  33  52  82 116 152 196 239 291 342
#     4  10  22  39  59  86 111 152 198 244 286 340
#     4  11  23  39  61  88 117 148 187 245 307 353
#     4  10  19  34  57  87 118 151 193 241 289 345
#     4  10  21  39  59  84 115 154 203 241 287 345
#
# _framework density 20.238461000000001
#
# number of rings (size 3 to 8) (size 9 to 14) (size 15 to 20)
#    0.000    1.875    2.500    1.875    0.000    3.500 
#    0.000    6.875    0.000    5.250    0.000    0.000 
#    0.000    0.000    0.000    0.000    0.000    0.000 
#
# Total GULP energy -396624.168236 kJ/mol
# GULP energy per Si atom -12394.505257 kJ/mol
# Density = 2.019240 g / cm^3
# Si number density = 20.238461 Si / 1000 Ang^3
#
#
#
# Elastic Constant Matrix: (Units=GPa)
#
#
# Indices 1 2 3 4 5 6 
#
# 1 75.5059 22.7840 30.6334 -0.0105 10.0861 0.0046
# 2 22.7840 111.6138 48.7656 -0.0052 -2.0516 0.0036
# 3 30.6334 48.7656 89.2132 -0.0107 8.5781 0.0079
# 4 -0.0105 -0.0052 -0.0107 18.7569 0.0089 -3.4357
# 5 10.0861 -2.0516 8.5781 0.0089 17.2171 -0.0041
# 6 0.0046 0.0036 0.0079 -3.4357 -0.0041 27.1885
#
#
#
# Elastic Compliance Matrix: (Units=1/GPa)
#
#
# Indices 1 2 3 4 5 6 
#
# 1 0.016421 -0.001793 -0.003900 0.000010 -0.007891 -0.000001
# 2 -0.001793 0.012363 -0.006706 -0.000004 0.005865 0.000001
# 3 -0.003900 -0.006706 0.016880 0.000008 -0.006925 -0.000003
# 4 0.000010 -0.000004 0.000008 0.054577 -0.000037 0.006897
# 5 -0.007891 0.005865 -0.006925 -0.000037 0.066853 0.000008
# 6 -0.000001 0.000001 -0.000003 0.006897 0.000008 0.037652
#
#
# Mechanical properties :
#
#
# Convention : Reuss Voigt Hill
#
# Bulk Modulus (GPa) = 47.92490 53.41100 50.66795
# Shear Modulus (GPa) = 21.14164 24.24249 22.69207
#
# Velocity S-wave (km/s) = 3.23557 3.46474 3.35212
# Velocity P-wave (km/s) = 6.13923 6.51568 6.33025
#
# Compressibility (1/GPa) = 0.02086598
#
# Stress axis : x y z
#
# Youngs Moduli (GPa) = 60.89653 80.88392 59.24272
#
# Poissons Ratio (x) = 0.14505 0.23103
# Poissons Ratio (y) = 0.10921 0.39730
# Poissons Ratio (z) = 0.23747 0.54243
#
# Static dielectric constant tensor:
#      x y z
#    x 3.600710 -0.000010 -0.079590 
#    y -0.000010 3.731320 0.000010 
#    z -0.079590 0.000010 3.557050 
# 
# 
# High freq. dielectric constant tensor:
#      x y z
#    x 1.791990 0.000000 -0.010090 
#    y 0.000000 1.779650 0.000000 
#    z -0.010090 0.000000 1.781740 
# 
# From -- ./inp_files/317346.got.cif
#   From: 2010.06.25/outbox.cif.g09.slc.cpg/sg12_159_cif.got.tgz:317346.got - 2010.06.28 00:19:55.
