data_PCOD8088923
_publ_section_title
;
Structure prediction by ZEFSAII (Michael W. Deem and Ramdas Pophale) SiO2 
 PCOD8088923
Probable space group: C 2/M
;
_chemical_formula_sum "Si O2"
_cell_formula_units_Z 64
_cell_length_a 19.839578
_cell_length_b 8.959563
_cell_length_c 30.999693
_cell_angle_alpha 90.000000
_cell_angle_beta 39.449753
_cell_angle_gamma 90.000000
_cell_volume 3501.263013
_symmetry_space_group_name_H-M "C 2/M"
_symmetry_group_IT_number 12
_symmetry_cell_setting 'monoclinic'
loop_
_space_group_symop_operation_xyz
x,y,z
-x,y,-z
-x,-y,-z
x,-y,z
1/2+x,1/2+y,z
1/2-x,1/2+y,-z
1/2-x,1/2-y,-z
1/2+x,1/2-y,z
loop_
_atom_site_type_symbol
_atom_site_label
_atom_site_fract_x
_atom_site_fract_y
_atom_site_fract_z
Si Si1 0.667865 0.174318 0.072290
Si Si2 0.936176 0.171548 0.662624
Si Si3 0.033165 0.325770 0.691325
Si Si4 0.288979 0.825860 0.187090
Si Si5 0.311580 0.675763 0.323186
Si Si6 0.309481 0.171499 0.840599
Si Si7 0.909575 0.172580 0.578387
Si Si8 0.941114 0.823021 0.175451
O O1 0.712048 0.199382 0.098600
O O2 0.555698 0.251798 0.122326
O O3 0.656205 0.000000 0.067505
O O4 0.750000 0.250000 0.000000
O O5 0.815181 0.213548 0.733686
O O6 0.955988 0.206435 0.602807
O O7 0.017253 0.271461 0.650079
O O8 0.958201 0.000000 0.663386
O O9 0.055638 0.500000 0.680291
O O10 0.134638 0.245714 0.661298
O O11 0.930192 0.281663 0.770317
O O12 0.271990 0.772741 0.146236
O O13 0.386820 0.735884 0.158723
O O14 0.315908 0.000000 0.174367
O O15 0.317178 0.500000 0.324565
O O16 0.190612 0.725542 0.381636
O O17 0.371770 0.731003 0.250478
O O18 0.291311 0.000000 0.836344
O O19 0.000000 0.215691 0.500000
O O20 0.875190 0.000000 0.591587
O O21 0.951915 0.000000 0.167938
#
# Coordination Sequence:
#
# PCOD8088923 Si02
#       8
#     8   8   8   8   8   8   8   8
#     4  11  23  40  60  84 116 152 187 228 280 335
#     4   9  18  33  53  81 114 145 182 229 282 333
#     4  10  19  33  56  83 111 144 186 232 279 332
#     4  10  19  32  56  85 113 145 183 234 283 328
#     4  11  22  35  56  85 115 146 187 237 280 327
#     4   9  19  35  55  81 114 148 182 227 280 332
#     4  10  21  38  59  82 113 152 189 228 280 340
#     4  11  22  36  57  85 115 148 189 233 278 330
#
# _framework density 18.279118
#
# number of rings (size 3 to 8) (size 9 to 14) (size 15 to 20)
#    0.000    1.875    2.500    1.875    0.000    3.750 
#    0.000    1.250    0.000    3.750    0.000    0.000 
#    0.000    0.000    0.000    0.000    0.000    0.000 
#
# Total GULP energy -396952.794810 kJ/mol
# GULP energy per Si atom -12404.774838 kJ/mol
# Density = 1.823751 g / cm^3
# Si number density = 18.279118 Si / 1000 Ang^3
#
#
#
# Elastic Constant Matrix: (Units=GPa)
#
#
# Indices 1 2 3 4 5 6 
#
# 1 123.0834 62.3680 53.4202 0.0011 1.3890 0.0102
# 2 62.3680 87.9500 47.3095 0.0017 -3.6214 0.0126
# 3 53.4202 47.3095 94.4068 0.0013 6.4693 -0.0016
# 4 0.0011 0.0017 0.0013 25.8421 0.0001 -3.3722
# 5 1.3890 -3.6214 6.4693 0.0001 25.0776 -0.0009
# 6 0.0102 0.0126 -0.0016 -3.3722 -0.0009 38.2055
#
#
#
# Elastic Compliance Matrix: (Units=1/GPa)
#
#
# Indices 1 2 3 4 5 6 
#
# 1 0.013693 -0.007681 -0.003839 0.000000 -0.000877 -0.000001
# 2 -0.007681 0.020353 -0.006193 -0.000001 0.004962 -0.000005
# 3 -0.003839 -0.006193 0.016201 0.000000 -0.004861 0.000004
# 4 0.000000 -0.000001 0.000000 0.039147 0.000000 0.003455
# 5 -0.000877 0.004962 -0.004861 0.000000 0.041895 -0.000001
# 6 -0.000001 -0.000005 0.000004 0.003455 -0.000001 0.026479
#
#
# Mechanical properties :
#
#
# Convention : Reuss Voigt Hill
#
# Bulk Modulus (GPa) = 67.47174 70.18173 68.82674
# Shear Modulus (GPa) = 25.23548 27.31455 26.27502
#
# Velocity S-wave (km/s) = 3.71962 3.86982 3.79546
# Velocity P-wave (km/s) = 7.44577 7.64494 7.54601
#
# Compressibility (1/GPa) = 0.01482102
#
# Stress axis : x y z
#
# Youngs Moduli (GPa) = 73.03188 49.13398 61.72440
#
# Poissons Ratio (x) = 0.37740 0.23694
# Poissons Ratio (y) = 0.56097 0.38225
# Poissons Ratio (z) = 0.28035 0.30428
#
# Static dielectric constant tensor:
#      x y z
#    x 3.478950 0.000000 0.152200 
#    y 0.000000 3.405840 0.000000 
#    z 0.152200 0.000000 3.116810 
# 
# 
# High freq. dielectric constant tensor:
#      x y z
#    x 1.721190 0.000000 0.005800 
#    y 0.000000 1.717160 0.000000 
#    z 0.005800 0.000000 1.680080 
# 
# From -- ./inp_files/377977.got.cif
#   From: 2010.06.25/outbox.cif.g09.slc.cpg/sg12_189_cif.got.tgz:377977.got - 2010.06.28 00:19:55.
