data_PCOD8088538
_publ_section_title
;
Structure prediction by ZEFSAII (Michael W. Deem and Ramdas Pophale) SiO2 
 PCOD8088538
Probable space group: C 2/M
;
_chemical_formula_sum "Si O2"
_cell_formula_units_Z 48
_cell_length_a 20.352201
_cell_length_b 7.519891
_cell_length_c 29.424783
_cell_angle_alpha 90.000000
_cell_angle_beta 147.439674
_cell_angle_gamma 90.000000
_cell_volume 2423.648574
_symmetry_space_group_name_H-M "C 2/M"
_symmetry_group_IT_number 12
_symmetry_cell_setting 'monoclinic'
loop_
_space_group_symop_operation_xyz
x,y,z
-x,y,-z
-x,-y,-z
x,-y,z
1/2+x,1/2+y,z
1/2-x,1/2+y,-z
1/2-x,1/2-y,-z
1/2+x,1/2-y,z
loop_
_atom_site_type_symbol
_atom_site_label
_atom_site_fract_x
_atom_site_fract_y
_atom_site_fract_z
Si Si1 0.375914 0.701184 0.207227
Si Si2 0.824794 0.708291 0.766656
Si Si3 0.879059 0.709307 0.695014
Si Si4 0.441600 0.500000 0.894158
Si Si5 0.572247 0.709692 0.661857
Si Si6 0.308733 0.500000 0.912189
Si Si7 0.189077 0.792107 0.512036
O O1 0.325015 0.500000 0.181211
O O2 0.493851 0.699752 0.243802
O O3 0.410140 0.781367 0.276636
O O4 0.270769 0.823890 0.124781
O O5 0.847533 0.500000 0.789925
O O6 0.847331 0.758828 0.727861
O O7 0.915771 0.821307 0.850774
O O8 0.685957 0.765005 0.696932
O O9 0.892907 0.500000 0.695814
O O10 0.771290 0.789372 0.600396
O O11 0.359532 0.500000 0.890996
O O12 0.584022 0.500000 0.988584
O O13 0.557729 0.500000 0.656502
O O14 0.447881 0.791007 0.567824
O O15 0.250000 0.750000 0.500000
O O16 0.179532 0.000000 0.514787
#
# Coordination Sequence:
#
# PCOD8088538 Si02
#       7
#     8   8   8   4   8   4   8
#     4  11  21  37  63  89 120 161 199 246 301 362
#     4  10  22  41  62  87 123 165 197 246 307 365
#     4  10  21  36  60  88 123 166 205 244 299 355
#     4  11  24  42  68  92 119 151 196 259 310 368
#     4   9  18  34  57  85 118 159 204 241 293 352
#     4  11  24  42  66  97 116 145 205 257 305 369
#     4  10  19  32  53  86 121 159 204 252 288 339
#
# _framework density 19.804849999999998
#
# number of rings (size 3 to 8) (size 9 to 14) (size 15 to 20)
#    0.000    1.833    4.167    0.000    1.167    1.333 
#    1.500    5.833    0.000    1.000    0.000    0.000 
#    0.000    0.000    0.000    0.000    0.000    0.000 
#
# Total GULP energy -297611.944535 kJ/mol
# GULP energy per Si atom -12400.497689 kJ/mol
# Density = 1.975977 g / cm^3
# Si number density = 19.804850 Si / 1000 Ang^3
#
#
#
# Elastic Constant Matrix: (Units=GPa)
#
#
# Indices 1 2 3 4 5 6 
#
# 1 144.0973 27.1877 76.0574 0.0007 2.8103 -0.0035
# 2 27.1877 76.7631 57.3299 0.0007 1.9271 -0.0046
# 3 76.0574 57.3299 182.5603 0.0001 10.3915 -0.0001
# 4 0.0007 0.0007 0.0001 15.7173 -0.0002 -5.3218
# 5 2.8103 1.9271 10.3915 -0.0002 31.7416 0.0004
# 6 -0.0035 -0.0046 -0.0001 -5.3218 0.0004 22.5459
#
#
#
# Elastic Compliance Matrix: (Units=1/GPa)
#
#
# Indices 1 2 3 4 5 6 
#
# 1 0.008916 -0.000492 -0.003584 0.000000 0.000414 0.000001
# 2 -0.000492 0.017062 -0.005193 0.000000 0.000708 0.000004
# 3 -0.003584 -0.005193 0.008728 0.000000 -0.002225 -0.000002
# 4 0.000000 0.000000 0.000000 0.069151 0.000000 0.016323
# 5 0.000414 0.000708 -0.002225 0.000000 0.032153 0.000000
# 6 0.000001 0.000004 -0.000002 0.016323 0.000000 0.048207
#
#
# Mechanical properties :
#
#
# Convention : Reuss Voigt Hill
#
# Bulk Modulus (GPa) = 61.84849 80.50785 71.17817
# Shear Modulus (GPa) = 24.02173 30.19068 27.10620
#
# Velocity S-wave (km/s) = 3.48648 3.90860 3.70356
# Velocity P-wave (km/s) = 6.89233 7.81719 7.36928
#
# Compressibility (1/GPa) = 0.01616854
#
# Stress axis : x y z
#
# Youngs Moduli (GPa) = 112.15798 58.60897 114.57108
#
# Poissons Ratio (x) = 0.02882 0.41058
# Poissons Ratio (y) = 0.05516 0.59502
# Poissons Ratio (z) = 0.40193 0.30439
#
# Static dielectric constant tensor:
#      x y z
#    x 3.544930 -0.000010 0.081690 
#    y -0.000010 2.912790 -0.000010 
#    z 0.081690 -0.000010 3.737750 
# 
# 
# High freq. dielectric constant tensor:
#      x y z
#    x 1.769050 0.000000 0.008620 
#    y 0.000000 1.769180 0.000000 
#    z 0.008620 0.000000 1.765300 
# 
# From -- ./inp_files/230471.got.cif
#   From: 2010.06.25/outbox.cif.g09.slc.cpg/sg12_116_cif.got.tgz:230471.got - 2010.06.28 00:19:55.
