data_PCOD8088035
_publ_section_title
;
Structure prediction by ZEFSAII (Michael W. Deem and Ramdas Pophale) SiO2 
 PCOD8088035
Probable space group: C 2/M
;
_chemical_formula_sum "Si O2"
_cell_formula_units_Z 48
_cell_length_a 9.764243
_cell_length_b 23.792860
_cell_length_c 10.599586
_cell_angle_alpha 90.000000
_cell_angle_beta 78.654791
_cell_angle_gamma 90.000000
_cell_volume 2414.370397
_symmetry_space_group_name_H-M "C 2/M"
_symmetry_group_IT_number 12
_symmetry_cell_setting 'monoclinic'
loop_
_space_group_symop_operation_xyz
x,y,z
-x,y,-z
-x,-y,-z
x,-y,z
1/2+x,1/2+y,z
1/2-x,1/2+y,-z
1/2-x,1/2-y,-z
1/2+x,1/2-y,z
loop_
_atom_site_type_symbol
_atom_site_label
_atom_site_fract_x
_atom_site_fract_y
_atom_site_fract_z
Si Si1 0.251110 0.562315 0.400439
Si Si2 0.233548 0.435860 0.689141
Si Si3 0.145519 0.666532 0.040459
Si Si4 0.494486 0.641293 0.648811
Si Si5 0.587981 0.286487 0.114271
Si Si6 0.926176 0.436688 0.801685
O O1 0.317946 0.500000 0.378845
O O2 0.197257 0.573918 0.549951
O O3 0.370450 0.605741 0.339420
O O4 0.115836 0.567258 0.336907
O O5 0.279193 0.500000 0.707299
O O6 0.358476 0.395380 0.706195
O O7 0.090311 0.421641 0.789522
O O8 0.134405 0.722080 0.131085
O O9 0.171123 0.608553 0.110403
O O10 0.273999 0.674935 0.921785
O O11 0.000000 0.658800 0.000000
O O12 0.500000 0.660186 0.500000
O O13 0.495073 0.694138 0.745028
O O14 0.500000 0.291730 0.000000
O O15 0.897454 0.500000 0.858665
#
# Coordination Sequence:
#
# PCOD8088035 Si02
#       6
#     8   8   8   8   8   8
#     4   9  17  30  49  75 107 142 174 207 260 322
#     4   9  17  30  50  76 108 143 173 207 261 321
#     4  10  21  37  56  74 100 140 180 210 256 321
#     4  10  19  33  55  81 106 134 176 225 260 296
#     4  10  21  38  58  76 103 144 179 209 257 320
#     4  10  19  32  52  77 104 133 172 222 263 301
#
# _framework density 19.880959000000001
#
# number of rings (size 3 to 8) (size 9 to 14) (size 15 to 20)
#    0.000    2.333    0.000    3.000    0.000    4.333 
#    0.000    3.333    0.000   17.500    0.000    0.000 
#    0.000    0.000    0.000    0.000    0.000    0.000 
#
# Total GULP energy -297441.926241 kJ/mol
# GULP energy per Si atom -12393.413593 kJ/mol
# Density = 1.983571 g / cm^3
# Si number density = 19.880959 Si / 1000 Ang^3
#
#
#
# Elastic Constant Matrix: (Units=GPa)
#
#
# Indices 1 2 3 4 5 6 
#
# 1 67.0674 17.1670 10.6358 0.0000 -4.1301 0.0000
# 2 17.1670 107.1644 55.1093 0.0000 -13.9345 0.0000
# 3 10.6358 55.1093 74.0913 0.0000 -8.2709 0.0000
# 4 0.0000 0.0000 0.0000 32.2945 0.0000 -8.4685
# 5 -4.1301 -13.9345 -8.2709 0.0000 21.8822 0.0000
# 6 0.0000 0.0000 0.0000 -8.4685 0.0000 21.8052
#
#
#
# Elastic Compliance Matrix: (Units=1/GPa)
#
#
# Indices 1 2 3 4 5 6 
#
# 1 0.015607 -0.002013 -0.000582 0.000000 0.001444 0.000000
# 2 -0.002013 0.016061 -0.011023 0.000000 0.005681 0.000000
# 3 -0.000582 -0.011023 0.021908 0.000000 0.001151 0.000000
# 4 0.000000 0.000000 0.000000 0.034476 0.000000 0.013389
# 5 0.001444 0.005681 0.001151 0.000000 0.050025 0.000000
# 6 0.000000 0.000000 0.000000 0.013389 0.000000 0.051061
#
#
# Mechanical properties :
#
#
# Convention : Reuss Voigt Hill
#
# Bulk Modulus (GPa) = 37.96537 46.01636 41.99086
# Shear Modulus (GPa) = 22.20699 26.22379 24.21539
#
# Velocity S-wave (km/s) = 3.34578 3.63580 3.49380
# Velocity P-wave (km/s) = 5.83639 6.38918 6.11903
#
# Compressibility (1/GPa) = 0.02633980
#
# Stress axis : x y z
#
# Youngs Moduli (GPa) = 64.07441 62.26089 45.64523
#
# Poissons Ratio (x) = 0.12534 0.02656
# Poissons Ratio (y) = 0.12899 0.50316
# Poissons Ratio (z) = 0.03728 0.68632
#
# Static dielectric constant tensor:
#      x y z
#    x 3.624060 0.000000 -0.059780 
#    y 0.000000 3.762430 0.000000 
#    z -0.059780 0.000000 3.406520 
# 
# 
# High freq. dielectric constant tensor:
#      x y z
#    x 1.779240 0.000000 -0.002450 
#    y 0.000000 1.771780 0.000000 
#    z -0.002450 0.000000 1.756500 
# 
# From -- ./inp_files/122439.got.cif
#   From: 2010.06.25/outbox.cif.g09.slc.cpg/sg12_62_cif.got.tgz:122439.got - 2010.06.28 00:19:55.
