data_PCOD8088822
_publ_section_title
;
Structure prediction by ZEFSAII (Michael W. Deem and Ramdas Pophale) SiO2 
 PCOD8088822
Probable space group: C 2/M
;
_chemical_formula_sum "Si O2"
_cell_formula_units_Z 40
_cell_length_a 15.631051
_cell_length_b 9.063357
_cell_length_c 27.717392
_cell_angle_alpha 90.000000
_cell_angle_beta 148.834356
_cell_angle_gamma 90.000000
_cell_volume 2032.131226
_symmetry_space_group_name_H-M "C 2/M"
_symmetry_group_IT_number 12
_symmetry_cell_setting 'monoclinic'
loop_
_space_group_symop_operation_xyz
x,y,z
-x,y,-z
-x,-y,-z
x,-y,z
1/2+x,1/2+y,z
1/2-x,1/2+y,-z
1/2-x,1/2-y,-z
1/2+x,1/2-y,z
loop_
_atom_site_type_symbol
_atom_site_label
_atom_site_fract_x
_atom_site_fract_y
_atom_site_fract_z
Si Si1 0.345576 0.824563 0.395150
Si Si2 0.495914 0.674648 0.723520
Si Si3 0.515612 0.667485 0.897977
Si Si4 0.316923 0.170029 0.106424
Si Si5 0.142907 0.670219 0.708713
O O1 0.500000 0.761917 0.500000
O O2 0.359484 0.767705 0.347001
O O3 0.176543 0.766604 0.337634
O O4 0.343885 0.000000 0.394677
O O5 0.503606 0.500000 0.725681
O O6 0.646593 0.735291 0.828486
O O7 0.513775 0.736507 0.677975
O O8 0.543175 0.500000 0.891861
O O9 0.564669 0.780024 0.879837
O O10 0.325006 0.691448 0.819412
O O11 0.625908 0.695058 0.998871
O O12 0.353247 0.000000 0.135617
O O13 0.088264 0.500000 0.683475
#
# Coordination Sequence:
#
# PCOD8088822 Si02
#       5
#     8   8   8   8   8
#     4   9  19  38  62  82 107 147 187 228 283 341
#     4  11  22  37  57  84 116 147 187 232 279 331
#     4   9  18  34  55  81 113 152 189 226 273 327
#     4  10  19  32  55  83 113 149 191 229 271 327
#     4  10  20  37  59  83 113 148 187 227 277 335
#
# _framework density 19.683768000000001
#
# number of rings (size 3 to 8) (size 9 to 14) (size 15 to 20)
#    0.000    2.200    2.000    1.200    0.000    3.200 
#    0.000    4.000    0.000    4.200    0.000    0.000 
#    0.000    0.000    0.000    0.000    0.000    0.000 
#
# Total GULP energy -248022.637218 kJ/mol
# GULP energy per Si atom -12401.131861 kJ/mol
# Density = 1.963897 g / cm^3
# Si number density = 19.683768 Si / 1000 Ang^3
#
#
#
# Elastic Constant Matrix: (Units=GPa)
#
#
# Indices 1 2 3 4 5 6 
#
# 1 154.5758 48.4612 67.0096 0.0000 -5.2239 0.0000
# 2 48.4612 65.8993 34.8590 0.0000 -1.2997 0.0000
# 3 67.0096 34.8590 116.7344 -0.0002 -12.2343 0.0000
# 4 0.0000 0.0000 -0.0002 16.8948 0.0000 -1.1979
# 5 -5.2239 -1.2997 -12.2343 0.0000 16.0342 0.0000
# 6 0.0000 0.0000 0.0000 -1.1979 0.0000 36.0223
#
#
#
# Elastic Compliance Matrix: (Units=1/GPa)
#
#
# Indices 1 2 3 4 5 6 
#
# 1 0.009852 -0.005035 -0.004194 0.000000 -0.000398 0.000000
# 2 -0.005035 0.020717 -0.003578 0.000000 -0.002691 0.000000
# 3 -0.004194 -0.003578 0.012901 0.000000 0.008187 0.000000
# 4 0.000000 0.000000 0.000000 0.059330 0.000000 0.001973
# 5 -0.000398 -0.002691 0.008187 0.000000 0.068266 0.000000
# 6 0.000000 0.000000 0.000000 0.001973 0.000000 0.027826
#
#
# Mechanical properties :
#
#
# Convention : Reuss Voigt Hill
#
# Bulk Modulus (GPa) = 56.00429 70.87435 63.43932
# Shear Modulus (GPa) = 21.69601 26.24889 23.97245
#
# Velocity S-wave (km/s) = 3.32358 3.65571 3.49360
# Velocity P-wave (km/s) = 6.57587 7.34191 6.96942
#
# Compressibility (1/GPa) = 0.01785577
#
# Stress axis : x y z
#
# Youngs Moduli (GPa) = 101.49854 48.26989 77.51629
#
# Poissons Ratio (x) = 0.24302 0.32510
# Poissons Ratio (y) = 0.51101 0.27739
# Poissons Ratio (z) = 0.42568 0.17273
#
# Static dielectric constant tensor:
#      x y z
#    x 3.481530 0.000000 -0.072820 
#    y 0.000000 3.362980 0.000000 
#    z -0.072820 0.000000 3.765000 
# 
# 
# High freq. dielectric constant tensor:
#      x y z
#    x 1.761780 0.000000 -0.005520 
#    y 0.000000 1.744110 0.000000 
#    z -0.005520 0.000000 1.767430 
# 
# From -- ./inp_files/211167.got.cif
#   From: 2010.06.25/outbox.cif.g09.slc.cpg/sg12_106_cif.got.tgz:211167.got - 2010.06.28 00:19:55.
