data_PCOD8088856
_publ_section_title
;
Structure prediction by ZEFSAII (Michael W. Deem and Ramdas Pophale) SiO2 
 PCOD8088856
Probable space group: C 2/M
;
_chemical_formula_sum "Si O2"
_cell_formula_units_Z 64
_cell_length_a 14.967636
_cell_length_b 22.997639
_cell_length_c 9.983775
_cell_angle_alpha 90.000000
_cell_angle_beta 89.080965
_cell_angle_gamma 90.000000
_cell_volume 3436.175830
_symmetry_space_group_name_H-M "C 2/M"
_symmetry_group_IT_number 12
_symmetry_cell_setting 'monoclinic'
loop_
_space_group_symop_operation_xyz
x,y,z
-x,y,-z
-x,-y,-z
x,-y,z
1/2+x,1/2+y,z
1/2-x,1/2+y,-z
1/2-x,1/2-y,-z
1/2+x,1/2-y,z
loop_
_atom_site_type_symbol
_atom_site_label
_atom_site_fract_x
_atom_site_fract_y
_atom_site_fract_z
Si Si1 0.436094 0.432464 0.696216
Si Si2 0.407231 0.650541 0.927551
Si Si3 0.027531 0.365266 0.347981
Si Si4 0.286841 0.128501 0.970993
Si Si5 0.928955 0.282621 0.884166
Si Si6 0.069979 0.431465 0.877330
Si Si7 0.302134 0.067668 0.705243
Si Si8 0.377609 0.432379 0.408664
O O1 0.438914 0.500000 0.737096
O O2 0.390915 0.396401 0.813656
O O3 0.376051 0.422502 0.567082
O O4 0.534611 0.406186 0.664250
O O5 0.412047 0.714530 0.865431
O O6 0.500000 0.635517 0.000000
O O7 0.318134 0.643458 0.018465
O O8 0.034922 0.306687 0.258777
O O9 0.121146 0.396782 0.369146
O O10 0.000000 0.349018 0.500000
O O11 0.965053 0.409915 0.266369
O O12 0.335199 0.187635 0.923594
O O13 0.303099 0.077159 0.863851
O O14 0.335931 0.102277 0.101081
O O15 0.000000 0.294925 0.000000
O O16 0.086479 0.500000 0.867691
O O17 0.000000 0.416315 0.000000
O O18 0.210888 0.095489 0.650427
O O19 0.313521 0.000000 0.671705
O O20 0.380463 0.500000 0.375081
#
# Coordination Sequence:
#
# PCOD8088856 Si02
#       8
#     8   8   8   8   8   8   8   8
#     4   9  18  35  54  77 112 149 183 232 290 341
#     4  11  24  36  58  88 110 145 200 247 288 342
#     4  11  22  37  58  84 123 153 190 246 296 338
#     4  11  20  36  60  83 114 153 192 245 285 343
#     4  10  20  43  62  79 110 159 199 239 296 350
#     4  11  20  36  62  90 118 157 197 231 289 361
#     4  10  19  32  55  85 116 151 190 229 289 360
#     4   8  16  33  55  74 108 156 184 212 280 356
#
# _framework density 18.625357999999999
#
# number of rings (size 3 to 8) (size 9 to 14) (size 15 to 20)
#    0.000    1.875    3.750    2.625    0.000    3.250 
#    2.250    1.250    0.000    2.250    0.000    0.000 
#    0.000    0.000    0.000    0.000    0.000    0.000 
#
# Total GULP energy -396665.067697 kJ/mol
# GULP energy per Si atom -12395.783366 kJ/mol
# Density = 1.858297 g / cm^3
# Si number density = 18.625358 Si / 1000 Ang^3
#
#
#
# Elastic Constant Matrix: (Units=GPa)
#
#
# Indices 1 2 3 4 5 6 
#
# 1 109.9794 19.7426 37.2997 0.0000 6.6262 0.0000
# 2 19.7426 75.8951 32.7330 0.0000 -7.1288 0.0000
# 3 37.2997 32.7330 102.1094 0.0000 -7.9510 0.0000
# 4 0.0000 0.0000 0.0000 6.6239 0.0000 -1.6849
# 5 6.6262 -7.1288 -7.9510 0.0000 29.0490 0.0000
# 6 0.0000 0.0000 0.0000 -1.6849 0.0000 21.3473
#
#
#
# Elastic Compliance Matrix: (Units=1/GPa)
#
#
# Indices 1 2 3 4 5 6 
#
# 1 0.010891 -0.001570 -0.003779 0.000000 -0.003904 0.000000
# 2 -0.001570 0.015691 -0.004219 0.000000 0.003054 0.000000
# 3 -0.003779 -0.004219 0.012785 0.000000 0.003326 0.000000
# 4 0.000000 0.000000 0.000000 0.154062 0.000000 0.012160
# 5 -0.003904 0.003054 0.003326 0.000000 0.036975 0.000000
# 6 0.000000 0.000000 0.000000 0.012160 0.000000 0.047804
#
#
# Mechanical properties :
#
#
# Convention : Reuss Voigt Hill
#
# Bulk Modulus (GPa) = 49.42711 51.94827 50.68769
# Shear Modulus (GPa) = 16.44258 24.61796 20.53027
#
# Velocity S-wave (km/s) = 2.97443 3.63952 3.32365
# Velocity P-wave (km/s) = 6.19608 6.75376 6.48092
#
# Compressibility (1/GPa) = 0.02023181
#
# Stress axis : x y z
#
# Youngs Moduli (GPa) = 91.81569 63.73149 78.21462
#
# Poissons Ratio (x) = 0.10005 0.29559
# Poissons Ratio (y) = 0.14414 0.32996
# Poissons Ratio (z) = 0.34700 0.26886
#
# Static dielectric constant tensor:
#      x y z
#    x 4.092520 0.000000 0.282200 
#    y 0.000000 3.261480 0.000000 
#    z 0.282200 0.000000 3.276060 
# 
# 
# High freq. dielectric constant tensor:
#      x y z
#    x 1.730650 0.000000 0.014380 
#    y 0.000000 1.709270 0.000000 
#    z 0.014380 0.000000 1.709470 
# 
# From -- ./inp_files/65891.got.cif
#   From: 2010.06.25/outbox.cif.g09.slc.cpg/sg12_33_cif.got.tgz:65891.got - 2010.06.28 00:19:55.
