data_PCOD8088996
_publ_section_title
;
Structure prediction by ZEFSAII (Michael W. Deem and Ramdas Pophale) SiO2 
 PCOD8088996
Probable space group: C 2/M
;
_chemical_formula_sum "Si O2"
_cell_formula_units_Z 44
_cell_length_a 24.714023
_cell_length_b 14.259586
_cell_length_c 16.465510
_cell_angle_alpha 90.000000
_cell_angle_beta 23.514675
_cell_angle_gamma 90.000000
_cell_volume 2315.159757
_symmetry_space_group_name_H-M "C 2/M"
_symmetry_group_IT_number 12
_symmetry_cell_setting 'monoclinic'
loop_
_space_group_symop_operation_xyz
x,y,z
-x,y,-z
-x,-y,-z
x,-y,z
1/2+x,1/2+y,z
1/2-x,1/2+y,-z
1/2-x,1/2-y,-z
1/2+x,1/2-y,z
loop_
_atom_site_type_symbol
_atom_site_label
_atom_site_fract_x
_atom_site_fract_y
_atom_site_fract_z
Si Si1 0.201352 0.191525 0.991584
Si Si2 0.245877 0.701109 0.261923
Si Si3 0.500000 0.341423 0.000000
Si Si4 0.726360 0.605015 0.568452
Si Si5 0.130460 0.500000 0.421695
Si Si6 0.330013 0.000000 0.821082
Si Si7 0.611952 0.277675 0.588581
O O1 0.277911 0.215703 0.801365
O O2 0.234909 0.086946 0.973396
O O3 0.250000 0.250000 0.000000
O O4 0.046330 0.208368 0.185914
O O5 0.208054 0.594231 0.343710
O O6 0.151429 0.776363 0.438573
O O7 0.400444 0.720293 0.079258
O O8 0.406510 0.399499 0.190909
O O9 0.788102 0.500000 0.479580
O O10 0.683210 0.636763 0.537267
O O11 0.841235 0.677401 0.439642
O O12 0.129189 0.500000 0.327706
O O13 0.974610 0.500000 0.669899
#
# Coordination Sequence:
#
# PCOD8088996 Si02
#       7
#     8   8   4   8   4   4   8
#     4  11  22  39  61  84 119 154 195 243 290 349
#     4  10  21  34  59  87 120 151 191 244 294 353
#     4  10  19  32  58  90 117 142 189 242 314 348
#     4  10  21  36  59  88 123 151 189 246 295 350
#     4   9  18  33  54  90 118 137 186 248 313 341
#     4   9  20  36  58  85 114 153 184 244 303 338
#     4  10  22  36  56  91 114 157 195 232 298 348
#
# _framework density 19.005168000000001
#
# number of rings (size 3 to 8) (size 9 to 14) (size 15 to 20)
#    0.000    2.000    1.818    1.364    7.636    2.182 
#    1.636    0.000    2.000    2.182    0.000    0.000 
#    0.000    0.000    0.000    0.000    0.000    0.000 
#
# Total GULP energy -272582.835702 kJ/mol
# GULP energy per Si atom -12390.128896 kJ/mol
# Density = 1.896191 g / cm^3
# Si number density = 19.005168 Si / 1000 Ang^3
#
#
#
# Elastic Constant Matrix: (Units=GPa)
#
#
# Indices 1 2 3 4 5 6 
#
# 1 98.7002 37.8372 31.2896 0.0000 11.5581 0.0000
# 2 37.8372 100.5908 48.1493 0.0001 4.8614 0.0000
# 3 31.2896 48.1493 93.5803 0.0000 -7.7775 0.0000
# 4 0.0000 0.0001 0.0000 19.9406 0.0000 2.1524
# 5 11.5581 4.8614 -7.7775 0.0000 33.7505 0.0000
# 6 0.0000 0.0000 0.0000 2.1524 0.0000 27.2356
#
#
#
# Elastic Compliance Matrix: (Units=1/GPa)
#
#
# Indices 1 2 3 4 5 6 
#
# 1 0.012854 -0.003141 -0.003069 0.000000 -0.004657 0.000000
# 2 -0.003141 0.014383 -0.006559 0.000000 -0.002508 0.000000
# 3 -0.003069 -0.006559 0.015550 0.000000 0.005579 0.000000
# 4 0.000000 0.000000 0.000000 0.050580 0.000000 -0.003997
# 5 -0.004657 -0.002508 0.005579 0.000000 0.032871 0.000000
# 6 0.000000 0.000000 0.000000 -0.003997 0.000000 0.037033
#
#
# Mechanical properties :
#
#
# Convention : Reuss Voigt Hill
#
# Bulk Modulus (GPa) = 57.96880 58.60261 58.28571
# Shear Modulus (GPa) = 25.69916 27.89169 26.79543
#
# Velocity S-wave (km/s) = 3.68124 3.83506 3.75894
# Velocity P-wave (km/s) = 6.97399 7.10720 7.04091
#
# Compressibility (1/GPa) = 0.01725066
#
# Stress axis : x y z
#
# Youngs Moduli (GPa) = 77.79689 69.52448 64.30706
#
# Poissons Ratio (x) = 0.21838 0.19734
# Poissons Ratio (y) = 0.24437 0.42177
# Poissons Ratio (z) = 0.23874 0.45599
#
# Static dielectric constant tensor:
#      x y z
#    x 2.875510 0.000000 0.223830 
#    y 0.000000 3.442590 0.000000 
#    z 0.223830 0.000000 3.481020 
# 
# 
# High freq. dielectric constant tensor:
#      x y z
#    x 1.753860 0.000000 -0.009740 
#    y 0.000000 1.706530 0.000000 
#    z -0.009740 0.000000 1.729920 
# 
# From -- ./inp_files/293585.got.cif
#   From: 2010.06.25/outbox.cif.g09.slc.cpg/sg12_147_cif.got.tgz:293585.got - 2010.06.28 00:19:55.
