data_PCOD8088073
_publ_section_title
;
Structure prediction by ZEFSAII (Michael W. Deem and Ramdas Pophale) SiO2 
 PCOD8088073
Probable space group: C 2/M
;
_chemical_formula_sum "Si O2"
_cell_formula_units_Z 44
_cell_length_a 12.725630
_cell_length_b 26.478778
_cell_length_c 15.519370
_cell_angle_alpha 90.000000
_cell_angle_beta 26.190013
_cell_angle_gamma 90.000000
_cell_volume 2307.989911
_symmetry_space_group_name_H-M "C 2/M"
_symmetry_group_IT_number 12
_symmetry_cell_setting 'monoclinic'
loop_
_space_group_symop_operation_xyz
x,y,z
-x,y,-z
-x,-y,-z
x,-y,z
1/2+x,1/2+y,z
1/2-x,1/2+y,-z
1/2-x,1/2-y,-z
1/2+x,1/2-y,z
loop_
_atom_site_type_symbol
_atom_site_label
_atom_site_fract_x
_atom_site_fract_y
_atom_site_fract_z
Si Si1 0.504331 0.631579 0.239592
Si Si2 0.422856 0.941628 0.459022
Si Si3 0.259725 0.223737 0.648127
Si Si4 0.500000 0.295008 0.000000
Si Si5 0.860105 0.630422 0.829460
Si Si6 0.620643 0.332319 0.498681
O O1 0.332739 0.583743 0.364375
O O2 0.384251 0.683782 0.299517
O O3 0.567521 0.647171 0.291276
O O4 0.726406 0.616887 0.016774
O O5 0.500000 0.933155 0.500000
O O6 0.616501 0.917677 0.251012
O O7 0.399605 0.000000 0.452181
O O8 0.500000 0.194881 0.500000
O O9 0.341797 0.271983 0.532516
O O10 0.107978 0.240093 0.844909
O O11 0.287063 0.328236 0.116016
O O12 0.120344 0.646880 0.668128
O O13 0.500000 0.352496 0.500000
#
# Coordination Sequence:
#
# PCOD8088073 Si02
#       6
#     8   8   8   4   8   8
#     4  10  20  35  54  77 109 146 181 221 270 320
#     4  10  20  35  57  85 113 138 170 216 272 332
#     4  10  19  32  52  77 110 146 183 222 265 317
#     4  10  20  32  53  80 108 144 179 218 272 328
#     4  10  21  37  55  79 113 145 178 220 269 322
#     4  10  22  35  52  78 108 147 189 227 261 306
#
# _framework density 19.064209000000002
#
# number of rings (size 3 to 8) (size 9 to 14) (size 15 to 20)
#    0.000    2.000    0.000    5.455    0.000    8.727 
#    0.000    2.273    0.000    8.727    0.000   10.182 
#    0.000    0.000    0.000    0.000    0.000    0.000 
#
# Total GULP energy -272566.168566 kJ/mol
# GULP energy per Si atom -12389.371298 kJ/mol
# Density = 1.902082 g / cm^3
# Si number density = 19.064209 Si / 1000 Ang^3
#
#
#
# Elastic Constant Matrix: (Units=GPa)
#
#
# Indices 1 2 3 4 5 6 
#
# 1 118.3971 36.1058 42.3112 0.0265 12.4039 0.2825
# 2 36.1058 83.3294 36.3279 0.0046 19.8145 0.0897
# 3 42.3112 36.3279 107.8385 0.0796 28.2741 0.0043
# 4 0.0265 0.0046 0.0796 19.6646 -0.0569 16.8701
# 5 12.4039 19.8145 28.2741 -0.0569 38.7037 -0.0551
# 6 0.2825 0.0897 0.0043 16.8701 -0.0551 49.4067
#
#
#
# Elastic Compliance Matrix: (Units=1/GPa)
#
#
# Indices 1 2 3 4 5 6 
#
# 1 0.010531 -0.003332 -0.003181 0.000066 0.000655 -0.000076
# 2 -0.003332 0.015823 -0.002696 0.000014 -0.005064 -0.000020
# 3 -0.003181 -0.002696 0.013359 -0.000116 -0.007360 0.000053
# 4 0.000066 0.000014 -0.000116 0.071922 0.000127 -0.024558
# 5 0.000655 -0.005064 -0.007360 0.000127 0.033597 0.000000
# 6 -0.000076 -0.000020 0.000053 -0.024558 0.000000 0.028626
#
#
# Mechanical properties :
#
#
# Convention : Reuss Voigt Hill
#
# Bulk Modulus (GPa) = 46.95611 59.89498 53.42554
# Shear Modulus (GPa) = 25.07863 34.54301 29.81082
#
# Velocity S-wave (km/s) = 3.63089 4.26130 3.95866
# Velocity P-wave (km/s) = 6.50091 7.46306 6.99854
#
# Compressibility (1/GPa) = 0.02129648
#
# Stress axis : x y z
#
# Youngs Moduli (GPa) = 94.96201 63.19756 74.85555
#
# Poissons Ratio (x) = 0.21054 0.23812
# Poissons Ratio (y) = 0.31637 0.20178
# Poissons Ratio (z) = 0.30208 0.17036
#
# Static dielectric constant tensor:
#      x y z
#    x 3.814690 0.000000 0.335190 
#    y 0.000000 3.242310 0.000250 
#    z 0.335190 0.000250 3.446120 
# 
# 
# High freq. dielectric constant tensor:
#      x y z
#    x 1.747170 0.000000 0.017970 
#    y 0.000000 1.707880 0.000010 
#    z 0.017970 0.000010 1.754640 
# 
# From -- ./inp_files/209033.got.cif
#   From: 2010.06.25/outbox.cif.g09.slc.cpg/sg12_105_cif.got.tgz:209033.got - 2010.06.28 00:19:55.
