data_PCOD8088440
_publ_section_title
;
Structure prediction by ZEFSAII (Michael W. Deem and Ramdas Pophale) SiO2 
 PCOD8088440
Probable space group: C 2/M
;
_chemical_formula_sum "Si O2"
_cell_formula_units_Z 64
_cell_length_a 24.874297
_cell_length_b 9.439453
_cell_length_c 28.516624
_cell_angle_alpha 90.000000
_cell_angle_beta 149.149268
_cell_angle_gamma 90.000000
_cell_volume 3433.574686
_symmetry_space_group_name_H-M "C 2/M"
_symmetry_group_IT_number 12
_symmetry_cell_setting 'monoclinic'
loop_
_space_group_symop_operation_xyz
x,y,z
-x,y,-z
-x,-y,-z
x,-y,z
1/2+x,1/2+y,z
1/2-x,1/2+y,-z
1/2-x,1/2-y,-z
1/2+x,1/2-y,z
loop_
_atom_site_type_symbol
_atom_site_label
_atom_site_fract_x
_atom_site_fract_y
_atom_site_fract_z
Si Si1 0.268537 0.660401 0.279406
Si Si2 0.884523 0.665321 0.696355
Si Si3 0.182185 0.339345 0.516166
Si Si4 0.389610 0.158831 0.436766
Si Si5 0.572275 0.334468 0.010736
Si Si6 0.990098 0.335317 0.682214
Si Si7 0.695380 0.166602 0.784099
Si Si8 0.045713 0.660355 0.149578
O O1 0.310098 0.500000 0.306780
O O2 0.303494 0.730334 0.354455
O O3 0.316663 0.751032 0.273474
O O4 0.143100 0.664131 0.186659
O O5 0.855261 0.500000 0.678439
O O6 0.783439 0.745623 0.601572
O O7 0.977650 0.692476 0.728407
O O8 0.924118 0.721975 0.776424
O O9 0.219189 0.500000 0.532535
O O10 0.106559 0.337639 0.504492
O O11 0.111092 0.271719 0.421280
O O12 0.500000 0.211135 0.500000
O O13 0.363043 0.000000 0.398788
O O14 0.554667 0.500000 0.989234
O O15 0.693045 0.295700 0.109770
O O16 0.500000 0.282784 0.000000
O O17 0.543174 0.255994 0.940623
O O18 0.988175 0.500000 0.668559
O O19 0.102782 0.277151 0.749073
O O20 0.687573 0.000000 0.767730
O O21 0.003767 0.500000 0.123781
#
# Coordination Sequence:
#
# PCOD8088440 Si02
#       8
#     8   8   8   8   8   8   8   8
#     4  11  21  33  51  78 110 143 176 215 270 324
#     4  10  20  37  57  78 107 145 184 218 262 318
#     4  10  19  32  53  81 106 137 184 227 264 305
#     4  10  20  33  50  74 108 147 183 220 265 319
#     4  10  20  34  56  84 107 134 176 224 271 315
#     4   9  19  36  58  79 104 142 184 222 263 319
#     4  10  20  37  58  80 108 140 179 225 271 323
#     4  10  21  35  53  78 109 142 175 213 266 326
#
# _framework density 18.639468000000001
#
# number of rings (size 3 to 8) (size 9 to 14) (size 15 to 20)
#    0.000    2.000    2.500    1.500    0.000    4.000 
#    0.000    3.125    0.000    0.000    0.000    0.000 
#    0.000    0.000    0.000    0.000    0.000    0.000 
#
# Total GULP energy -396767.215657 kJ/mol
# GULP energy per Si atom -12398.975489 kJ/mol
# Density = 1.859704 g / cm^3
# Si number density = 18.639468 Si / 1000 Ang^3
#
#
#
# Elastic Constant Matrix: (Units=GPa)
#
#
# Indices 1 2 3 4 5 6 
#
# 1 105.4262 23.4142 42.8630 0.0000 -4.8226 0.0000
# 2 23.4142 53.6470 36.0376 0.0001 -6.6307 0.0001
# 3 42.8630 36.0376 98.2933 -0.0001 -11.3685 0.0000
# 4 0.0000 0.0001 -0.0001 25.8503 0.0000 -5.5866
# 5 -4.8226 -6.6307 -11.3685 0.0000 23.9303 0.0000
# 6 0.0000 0.0001 0.0000 -5.5866 0.0000 19.9084
#
#
#
# Elastic Compliance Matrix: (Units=1/GPa)
#
#
# Indices 1 2 3 4 5 6 
#
# 1 0.011730 -0.002253 -0.004326 0.000000 -0.000315 0.000000
# 2 -0.002253 0.025329 -0.007984 0.000000 0.002772 0.000000
# 3 -0.004326 -0.007984 0.015481 0.000000 0.004271 0.000000
# 4 0.000000 0.000000 0.000000 0.041182 0.000000 0.011556
# 5 -0.000315 0.002772 0.004271 0.000000 0.044521 0.000000
# 6 0.000000 0.000000 0.000000 0.011556 0.000000 0.053473
#
#
# Mechanical properties :
#
#
# Convention : Reuss Voigt Hill
#
# Bulk Modulus (GPa) = 42.70573 51.33289 47.01931
# Shear Modulus (GPa) = 21.86794 24.27457 23.07126
#
# Velocity S-wave (km/s) = 3.42893 3.61268 3.52200
# Velocity P-wave (km/s) = 6.21594 6.70833 6.46682
#
# Compressibility (1/GPa) = 0.02341606
#
# Stress axis : x y z
#
# Youngs Moduli (GPa) = 85.25255 39.48016 64.59560
#
# Poissons Ratio (x) = 0.08894 0.27942
# Poissons Ratio (y) = 0.19205 0.51571
# Poissons Ratio (z) = 0.36877 0.31520
#
# Static dielectric constant tensor:
#      x y z
#    x 3.513460 0.000000 -0.009160 
#    y 0.000000 3.273780 0.000000 
#    z -0.009160 0.000000 3.351000 
# 
# 
# High freq. dielectric constant tensor:
#      x y z
#    x 1.725120 0.000000 -0.004800 
#    y 0.000000 1.704820 0.000000 
#    z -0.004800 0.000000 1.715140 
# 
# From -- ./inp_files/244046.got.cif
#   From: 2010.06.25/outbox.cif.g09.slc.cpg/sg12_123_cif.got.tgz:244046.got - 2010.06.28 00:19:55.
