data_PCOD8088987
_publ_section_title
;
Structure prediction by ZEFSAII (Michael W. Deem and Ramdas Pophale) SiO2 
 PCOD8088987
Probable space group: C 2/M
;
_chemical_formula_sum "Si O2"
_cell_formula_units_Z 64
_cell_length_a 18.287253
_cell_length_b 18.596371
_cell_length_c 20.525913
_cell_angle_alpha 90.000000
_cell_angle_beta 29.196426
_cell_angle_gamma 90.000000
_cell_volume 3405.066443
_symmetry_space_group_name_H-M "C 2/M"
_symmetry_group_IT_number 12
_symmetry_cell_setting 'monoclinic'
loop_
_space_group_symop_operation_xyz
x,y,z
-x,y,-z
-x,-y,-z
x,-y,z
1/2+x,1/2+y,z
1/2-x,1/2+y,-z
1/2-x,1/2-y,-z
1/2+x,1/2-y,z
loop_
_atom_site_type_symbol
_atom_site_label
_atom_site_fract_x
_atom_site_fract_y
_atom_site_fract_z
Si Si1 0.327249 0.085591 0.997893
Si Si2 0.166670 0.358201 0.357176
Si Si3 0.251446 0.662635 0.065063
Si Si4 0.430162 0.303018 0.225146
Si Si5 0.090938 0.806904 0.224518
Si Si6 0.434987 0.174351 0.119666
Si Si7 0.337090 0.419695 0.115999
Si Si8 0.888169 0.201520 0.645170
O O1 0.175202 0.117245 0.148225
O O2 0.313040 0.000000 0.002440
O O3 0.352154 0.123144 0.907907
O O4 0.470204 0.104728 0.932135
O O5 0.271512 0.344077 0.338906
O O6 0.248733 0.419620 0.252504
O O7 0.159219 0.284300 0.322966
O O8 0.000000 0.386583 0.500000
O O9 0.210733 0.746054 0.108401
O O10 0.231366 0.622532 0.148656
O O11 0.424187 0.651386 0.909235
O O12 0.445445 0.293616 0.291728
O O13 0.437957 0.231210 0.176143
O O14 0.036560 0.805094 0.341860
O O15 0.261125 0.152491 0.243000
O O16 0.500000 0.204806 0.000000
O O17 0.361316 0.500000 0.071338
O O18 0.500000 0.382559 0.000000
O O19 0.000000 0.178749 0.500000
#
# Coordination Sequence:
#
# PCOD8088987 Si02
#       8
#     8   8   8   8   8   8   8   8
#     4  11  22  34  54  89 121 145 188 242 292 344
#     4  10  21  36  53  81 117 149 186 236 284 334
#     4  11  18  35  58  86 114 149 189 239 286 338
#     4  10  19  32  58  83 110 147 190 232 282 341
#     4  11  19  37  60  84 113 154 193 233 298 343
#     4  11  19  34  56  85 115 148 189 239 289 329
#     4  11  22  34  55  84 114 151 190 235 288 340
#     4  10  21  36  58  86 115 143 194 248 280 334
#
# _framework density 18.795521000000001
#
# number of rings (size 3 to 8) (size 9 to 14) (size 15 to 20)
#    0.000    1.375    6.250    1.125    1.750    0.500 
#    0.000    6.875    0.000    1.500    0.000    0.000 
#    0.000    0.000    0.000    0.000    0.000    0.000 
#
# Total GULP energy -396553.048196 kJ/mol
# GULP energy per Si atom -12392.282756 kJ/mol
# Density = 1.875274 g / cm^3
# Si number density = 18.795521 Si / 1000 Ang^3
#
#
#
# Elastic Constant Matrix: (Units=GPa)
#
#
# Indices 1 2 3 4 5 6 
#
# 1 156.9423 21.4469 53.1697 -0.0061 7.3689 0.0019
# 2 21.4469 64.8221 12.2547 -0.0209 2.0515 0.0083
# 3 53.1697 12.2547 107.4681 -0.0295 -1.8543 0.0113
# 4 -0.0061 -0.0209 -0.0295 10.4714 0.0091 0.1548
# 5 7.3689 2.0515 -1.8543 0.0091 30.6816 -0.0023
# 6 0.0019 0.0083 0.0113 0.1548 -0.0023 13.8613
#
#
#
# Elastic Compliance Matrix: (Units=1/GPa)
#
#
# Indices 1 2 3 4 5 6 
#
# 1 0.008003 -0.001869 -0.003782 -0.000008 -0.002026 0.000003
# 2 -0.001869 0.016245 -0.000940 0.000029 -0.000694 -0.000009
# 3 -0.003782 -0.000940 0.011312 0.000026 0.001655 -0.000008
# 4 -0.000008 0.000029 0.000026 0.095514 -0.000027 -0.001066
# 5 -0.002026 -0.000694 0.001655 -0.000027 0.033226 0.000005
# 6 0.000003 -0.000009 -0.000008 -0.001066 0.000005 0.072155
#
#
# Mechanical properties :
#
#
# Convention : Reuss Voigt Hill
#
# Bulk Modulus (GPa) = 44.68363 55.88611 50.28487
# Shear Modulus (GPa) = 19.44801 27.16025 23.30413
#
# Velocity S-wave (km/s) = 3.22019 3.80549 3.52501
# Velocity P-wave (km/s) = 6.13607 7.00766 6.58630
#
# Compressibility (1/GPa) = 0.02237956
#
# Stress axis : x y z
#
# Youngs Moduli (GPa) = 124.94666 61.55798 88.40398
#
# Poissons Ratio (x) = 0.11505 0.33430
# Poissons Ratio (y) = 0.23352 0.08307
# Poissons Ratio (z) = 0.47249 0.05785
#
# Static dielectric constant tensor:
#      x y z
#    x 3.957570 -0.000020 -0.128460 
#    y -0.000020 3.036330 0.000040 
#    z -0.128460 0.000040 3.251700 
# 
# 
# High freq. dielectric constant tensor:
#      x y z
#    x 1.755240 0.000000 -0.003230 
#    y 0.000000 1.691330 0.000000 
#    z -0.003230 0.000000 1.699930 
# 
# From -- ./inp_files/317334.got.cif
#   From: 2010.06.25/outbox.cif.g09.slc.cpg/sg12_159_cif.got.tgz:317334.got - 2010.06.28 00:19:55.
