data_PCOD8088620
_publ_section_title
;
Structure prediction by ZEFSAII (Michael W. Deem and Ramdas Pophale) SiO2 
 PCOD8088620
Probable space group: C 2/M
;
_chemical_formula_sum "Si O2"
_cell_formula_units_Z 48
_cell_length_a 29.325545
_cell_length_b 8.732746
_cell_length_c 10.262366
_cell_angle_alpha 90.000000
_cell_angle_beta 99.688250
_cell_angle_gamma 90.000000
_cell_volume 2590.633155
_symmetry_space_group_name_H-M "C 2/M"
_symmetry_group_IT_number 12
_symmetry_cell_setting 'monoclinic'
loop_
_space_group_symop_operation_xyz
x,y,z
-x,y,-z
-x,-y,-z
x,-y,z
1/2+x,1/2+y,z
1/2-x,1/2+y,-z
1/2-x,1/2-y,-z
1/2+x,1/2-y,z
loop_
_atom_site_type_symbol
_atom_site_label
_atom_site_fract_x
_atom_site_fract_y
_atom_site_fract_z
Si Si1 0.613656 0.676026 0.536687
Si Si2 0.617556 0.679730 0.834956
Si Si3 0.472711 0.819324 0.115393
Si Si4 0.472452 0.180532 0.609683
Si Si5 0.715946 0.818307 0.877077
Si Si6 0.719013 0.319715 0.597719
O O1 0.603161 0.500000 0.505671
O O2 0.602536 0.720439 0.680519
O O3 0.581136 0.771207 0.423880
O O4 0.666536 0.716737 0.530953
O O5 0.627107 0.500000 0.855929
O O6 0.576848 0.735632 0.910386
O O7 0.664381 0.768282 0.892470
O O8 0.503987 0.755942 0.248511
O O9 0.463892 0.000000 0.120518
O O10 0.500000 0.772487 0.000000
O O11 0.500000 0.250584 0.500000
O O12 0.475121 0.000000 0.610677
O O13 0.730461 0.756049 0.741991
O O14 0.719628 0.000000 0.877789
O O15 0.750000 0.750000 0.000000
O O16 0.727553 0.500000 0.615597
O O17 0.750000 0.250000 0.500000
#
# Coordination Sequence:
#
# PCOD8088620 Si02
#       6
#     8   8   8   8   8   8
#     4   9  19  34  55  82 110 142 184 230 276 328
#     4  10  20  36  58  83 111 146 189 232 279 340
#     4  10  21  37  54  77 112 148 184 230 284 335
#     4  10  19  32  54  81 105 138 186 229 269 330
#     4  11  22  39  63  88 115 150 192 240 289 347
#     4  10  21  39  60  87 119 154 192 236 291 346
#
# _framework density 18.528289999999998
#
# number of rings (size 3 to 8) (size 9 to 14) (size 15 to 20)
#    0.000    2.000    1.667    3.500    0.000    4.667 
#    3.000    0.000    0.000    0.000    0.000    0.000 
#    0.000    0.000    0.000    0.000    0.000    0.000 
#
# Total GULP energy -297648.492311 kJ/mol
# GULP energy per Si atom -12402.020513 kJ/mol
# Density = 1.848612 g / cm^3
# Si number density = 18.528290 Si / 1000 Ang^3
#
#
#
# Elastic Constant Matrix: (Units=GPa)
#
#
# Indices 1 2 3 4 5 6 
#
# 1 135.9451 55.3389 85.7722 0.0000 -4.7197 0.0000
# 2 55.3389 89.1776 52.7528 0.0000 -1.9382 0.0000
# 3 85.7722 52.7528 127.4259 0.0000 1.6191 0.0000
# 4 0.0000 0.0000 0.0000 26.0794 0.0000 1.9315
# 5 -4.7197 -1.9382 1.6191 0.0000 35.7998 0.0000
# 6 0.0000 0.0000 0.0000 1.9315 0.0000 37.3361
#
#
#
# Elastic Compliance Matrix: (Units=1/GPa)
#
#
# Indices 1 2 3 4 5 6 
#
# 1 0.013955 -0.004033 -0.007749 0.000000 0.001972 0.000000
# 2 -0.004033 0.016058 -0.003940 0.000000 0.000516 0.000000
# 3 -0.007749 -0.003940 0.014719 0.000000 -0.001901 0.000000
# 4 0.000000 0.000000 0.000000 0.038492 0.000000 -0.001991
# 5 0.001972 0.000516 -0.001901 0.000000 0.028307 0.000000
# 6 0.000000 0.000000 0.000000 -0.001991 0.000000 0.026887
#
#
# Mechanical properties :
#
#
# Convention : Reuss Voigt Hill
#
# Bulk Modulus (GPa) = 75.25209 82.25293 78.75251
# Shear Modulus (GPa) = 28.68787 30.42206 29.55497
#
# Velocity S-wave (km/s) = 3.93915 4.05646 3.99824
# Velocity P-wave (km/s) = 7.83531 8.15042 7.99442
#
# Compressibility (1/GPa) = 0.01328867
#
# Stress axis : x y z
#
# Youngs Moduli (GPa) = 71.65862 62.27419 67.94145
#
# Poissons Ratio (x) = 0.25116 0.52646
# Poissons Ratio (y) = 0.28901 0.26766
# Poissons Ratio (z) = 0.55526 0.24534
#
# Static dielectric constant tensor:
#      x y z
#    x 3.459630 0.000000 0.038790 
#    y 0.000000 3.351370 0.000000 
#    z 0.038790 0.000000 3.381770 
# 
# 
# High freq. dielectric constant tensor:
#      x y z
#    x 1.727470 0.000000 0.004470 
#    y 0.000000 1.721200 0.000000 
#    z 0.004470 0.000000 1.706490 
# 
# From -- ./inp_files/108716.got.cif
#   From: 2010.06.25/outbox.cif.g09.slc.cpg/sg12_55_cif.got.tgz:108716.got - 2010.06.28 00:19:55.
