data_PCOD8088593
_publ_section_title
;
Structure prediction by ZEFSAII (Michael W. Deem and Ramdas Pophale) SiO2 
 PCOD8088593
Probable space group: C 2/M
;
_chemical_formula_sum "Si O2"
_cell_formula_units_Z 48
_cell_length_a 15.214442
_cell_length_b 9.058141
_cell_length_c 29.602093
_cell_angle_alpha 90.000000
_cell_angle_beta 140.518214
_cell_angle_gamma 90.000000
_cell_volume 2593.943520
_symmetry_space_group_name_H-M "C 2/M"
_symmetry_group_IT_number 12
_symmetry_cell_setting 'monoclinic'
loop_
_space_group_symop_operation_xyz
x,y,z
-x,y,-z
-x,-y,-z
x,-y,z
1/2+x,1/2+y,z
1/2-x,1/2+y,-z
1/2-x,1/2-y,-z
1/2+x,1/2-y,z
loop_
_atom_site_type_symbol
_atom_site_label
_atom_site_fract_x
_atom_site_fract_y
_atom_site_fract_z
Si Si1 0.129505 0.173486 0.924900
Si Si2 0.573604 0.174771 0.324531
Si Si3 0.103788 0.172706 0.673674
Si Si4 0.352970 0.831220 0.837068
Si Si5 0.629826 0.671064 0.821279
Si Si6 0.122904 0.824733 0.579552
O O1 0.146237 0.219884 0.879399
O O2 0.982680 0.223851 0.886075
O O3 0.142749 0.000000 0.936518
O O4 0.250000 0.250000 0.000000
O O5 0.516474 0.241013 0.348232
O O6 0.491668 0.232946 0.248531
O O7 0.731809 0.227302 0.383347
O O8 0.559570 0.000000 0.320031
O O9 0.251656 0.204216 0.755160
O O10 0.107297 0.234798 0.624319
O O11 0.068696 0.000000 0.662351
O O12 0.274140 0.799620 0.852829
O O13 0.404671 0.000000 0.855451
O O14 0.587793 0.500000 0.799702
O O15 0.000000 0.759000 0.500000
O O16 0.115704 0.000000 0.577924
#
# Coordination Sequence:
#
# PCOD8088593 Si02
#       6
#     8   8   8   8   8   8
#     4  11  23  37  54  78 107 138 170 208 255 305
#     4  10  19  32  54  80 102 130 174 222 258 296
#     4   9  18  34  55  76 102 138 174 211 260 311
#     4   9  18  35  56  76 100 134 175 213 253 305
#     4   9  20  38  57  76 103 139 172 206 257 313
#     4   9  18  32  50  74 106 143 177 209 254 312
#
# _framework density 18.504643999999999
#
# number of rings (size 3 to 8) (size 9 to 14) (size 15 to 20)
#    0.000    2.500    0.000    3.000    0.000    6.667 
#    0.000    5.000    0.000    3.500    0.000    0.000 
#    0.000    0.000    0.000    0.000    0.000    0.000 
#
# Total GULP energy -297651.898855 kJ/mol
# GULP energy per Si atom -12402.162452 kJ/mol
# Density = 1.846253 g / cm^3
# Si number density = 18.504644 Si / 1000 Ang^3
#
#
#
# Elastic Constant Matrix: (Units=GPa)
#
#
# Indices 1 2 3 4 5 6 
#
# 1 131.9141 46.7910 86.6298 0.0000 15.9635 0.0000
# 2 46.7910 57.6314 46.1763 0.0000 11.3964 0.0000
# 3 86.6298 46.1763 126.3022 0.0000 15.6973 0.0000
# 4 0.0000 0.0000 0.0000 23.1465 0.0000 2.1529
# 5 15.9635 11.3964 15.6973 0.0000 17.7306 0.0000
# 6 0.0000 0.0000 0.0000 2.1529 0.0000 31.0690
#
#
#
# Elastic Compliance Matrix: (Units=1/GPa)
#
#
# Indices 1 2 3 4 5 6 
#
# 1 0.015095 -0.005168 -0.008077 0.000000 -0.003119 0.000000
# 2 -0.005168 0.027595 -0.005526 0.000000 -0.008192 0.000000
# 3 -0.008077 -0.005526 0.015880 0.000000 -0.003235 0.000000
# 4 0.000000 0.000000 0.000000 0.043483 0.000000 -0.003013
# 5 -0.003119 -0.008192 -0.003235 0.000000 0.067337 0.000000
# 6 0.000000 0.000000 0.000000 -0.003013 0.000000 0.032395
#
#
# Mechanical properties :
#
#
# Convention : Reuss Voigt Hill
#
# Bulk Modulus (GPa) = 47.55435 75.00464 61.27950
# Shear Modulus (GPa) = 20.29748 23.47260 21.88504
#
# Velocity S-wave (km/s) = 3.31552 3.56542 3.44274
# Velocity P-wave (km/s) = 6.35699 7.58752 6.99935
#
# Compressibility (1/GPa) = 0.02102857
#
# Stress axis : x y z
#
# Youngs Moduli (GPa) = 66.24581 36.23851 62.97327
#
# Poissons Ratio (x) = 0.18727 0.50862
# Poissons Ratio (y) = 0.34234 0.34800
# Poissons Ratio (z) = 0.53505 0.20026
#
# Static dielectric constant tensor:
#      x y z
#    x 3.580960 0.000000 -0.072400 
#    y 0.000000 3.222630 0.000000 
#    z -0.072400 0.000000 3.524230 
# 
# 
# High freq. dielectric constant tensor:
#      x y z
#    x 1.731460 0.000000 -0.001880 
#    y 0.000000 1.702070 0.000000 
#    z -0.001880 0.000000 1.714960 
# 
# From -- ./inp_files/308292.got.cif
#   From: 2010.06.25/outbox.cif.g09.slc.cpg/sg12_155_cif.got.tgz:308292.got - 2010.06.28 00:19:55.
