data_PCOD8088433
_publ_section_title
;
Structure prediction by ZEFSAII (Michael W. Deem and Ramdas Pophale) SiO2 
 PCOD8088433
Probable space group: C 2/M
;
_chemical_formula_sum "Si O2"
_cell_formula_units_Z 56
_cell_length_a 9.111306
_cell_length_b 31.452843
_cell_length_c 12.344305
_cell_angle_alpha 90.000000
_cell_angle_beta 129.273809
_cell_angle_gamma 90.000000
_cell_volume 2738.551360
_symmetry_space_group_name_H-M "C 2/M"
_symmetry_group_IT_number 12
_symmetry_cell_setting 'monoclinic'
loop_
_space_group_symop_operation_xyz
x,y,z
-x,y,-z
-x,-y,-z
x,-y,z
1/2+x,1/2+y,z
1/2-x,1/2+y,-z
1/2-x,1/2-y,-z
1/2+x,1/2-y,z
loop_
_atom_site_type_symbol
_atom_site_label
_atom_site_fract_x
_atom_site_fract_y
_atom_site_fract_z
Si Si1 0.926957 0.705827 0.730987
Si Si2 0.186340 0.611891 0.332875
Si Si3 0.042276 0.877137 0.357466
Si Si4 0.937889 0.548933 0.089502
Si Si5 0.090163 0.900319 0.926676
Si Si6 0.670271 0.691221 0.992243
Si Si7 0.938891 0.215612 0.292556
O O1 0.910621 0.657092 0.685671
O O2 0.752401 0.717883 0.727054
O O3 0.132129 0.711692 0.881926
O O4 0.937631 0.740543 0.636810
O O5 0.300147 0.599362 0.495689
O O6 0.330007 0.613239 0.299151
O O7 0.031808 0.576409 0.230132
O O8 0.059728 0.895765 0.243506
O O9 0.066985 0.825744 0.382464
O O10 0.983268 0.500000 0.135151
O O11 0.713752 0.557074 0.978701
O O12 0.000000 0.563495 0.000000
O O13 0.217034 0.857773 0.983436
O O14 0.000000 0.902993 0.000000
O O15 0.500000 0.695249 0.000000
O O16 0.605438 0.714578 0.854622
#
# Coordination Sequence:
#
# PCOD8088433 Si02
#       7
#     8   8   8   8   8   8   8
#     4  11  20  33  54  79 116 159 198 247 299 340
#     4  10  20  38  63  85 120 161 199 248 304 351
#     4   9  20  38  59  87 120 161 202 242 297 358
#     4  11  22  39  66  98 120 150 202 252 296 361
#     4  10  20  37  63  88 123 154 195 244 303 359
#     4  10  19  32  53  80 113 152 203 246 292 350
#     4  10  21  32  51  80 115 154 204 248 286 349
#
# _framework density 20.448767
#
# number of rings (size 3 to 8) (size 9 to 14) (size 15 to 20)
#    0.000    1.857    2.857    1.714    0.000    0.857 
#    0.000    2.857    0.000    0.857    0.000    0.000 
#    0.000    0.000    0.000    0.000    0.000    0.000 
#
# Total GULP energy -346898.899706 kJ/mol
# GULP energy per Si atom -12389.246418 kJ/mol
# Density = 2.040222 g / cm^3
# Si number density = 20.448767 Si / 1000 Ang^3
#
#
#
# Elastic Constant Matrix: (Units=GPa)
#
#
# Indices 1 2 3 4 5 6 
#
# 1 66.2297 35.2975 43.9554 0.0000 -8.0909 0.0000
# 2 35.2975 85.2252 52.4749 0.0000 4.5333 0.0000
# 3 43.9554 52.4749 92.9048 0.0000 -9.1371 0.0000
# 4 0.0000 0.0000 0.0000 13.5001 0.0000 -2.7935
# 5 -8.0909 4.5333 -9.1371 0.0000 22.9997 0.0000
# 6 0.0000 0.0000 0.0000 -2.7935 0.0000 24.0165
#
#
#
# Elastic Compliance Matrix: (Units=1/GPa)
#
#
# Indices 1 2 3 4 5 6 
#
# 1 0.023850 -0.005633 -0.007460 0.000000 0.006537 0.000000
# 2 -0.005633 0.020810 -0.010082 0.000000 -0.010088 0.000000
# 3 -0.007460 -0.010082 0.020735 0.000000 0.007600 0.000000
# 4 0.000000 0.000000 0.000000 0.075900 0.000000 0.008828
# 5 0.006537 -0.010088 0.007600 0.000000 0.050786 0.000000
# 6 0.000000 0.000000 0.000000 0.008828 0.000000 0.042665
#
#
# Mechanical properties :
#
#
# Convention : Reuss Voigt Hill
#
# Bulk Modulus (GPa) = 52.49943 56.42392 54.46168
# Shear Modulus (GPa) = 17.39465 19.61204 18.50335
#
# Velocity S-wave (km/s) = 2.91975 3.10026 3.01136
# Velocity P-wave (km/s) = 6.09064 6.36147 6.22753
#
# Compressibility (1/GPa) = 0.01904783
#
# Stress axis : x y z
#
# Youngs Moduli (GPa) = 41.92789 48.05273 48.22787
#
# Poissons Ratio (x) = 0.27066 0.35977
# Poissons Ratio (y) = 0.23616 0.48621
# Poissons Ratio (z) = 0.31278 0.48444
#
# Static dielectric constant tensor:
#      x y z
#    x 3.479900 0.000000 -0.065410 
#    y 0.000000 3.793920 0.000000 
#    z -0.065410 0.000000 3.596560 
# 
# 
# High freq. dielectric constant tensor:
#      x y z
#    x 1.782640 0.000000 -0.001350 
#    y 0.000000 1.789960 0.000000 
#    z -0.001350 0.000000 1.795200 
# 
# From -- ./inp_files/125841.got.cif
#   From: 2010.06.25/outbox.cif.g09.slc.cpg/sg12_63_cif.got.tgz:125841.got - 2010.06.28 00:19:55.
