data_PCOD8088962
_publ_section_title
;
Structure prediction by ZEFSAII (Michael W. Deem and Ramdas Pophale) SiO2 
 PCOD8088962
Probable space group: C 2/M
;
_chemical_formula_sum "Si O2"
_cell_formula_units_Z 48
_cell_length_a 20.922072
_cell_length_b 8.204649
_cell_length_c 25.120742
_cell_angle_alpha 90.000000
_cell_angle_beta 37.665885
_cell_angle_gamma 90.000000
_cell_volume 2634.984400
_symmetry_space_group_name_H-M "C 2/M"
_symmetry_group_IT_number 12
_symmetry_cell_setting 'monoclinic'
loop_
_space_group_symop_operation_xyz
x,y,z
-x,y,-z
-x,-y,-z
x,-y,z
1/2+x,1/2+y,z
1/2-x,1/2+y,-z
1/2-x,1/2-y,-z
1/2+x,1/2-y,z
loop_
_atom_site_type_symbol
_atom_site_label
_atom_site_fract_x
_atom_site_fract_y
_atom_site_fract_z
Si Si1 0.843449 0.000000 0.642375
Si Si2 0.428768 0.814790 0.751109
Si Si3 0.379179 0.807715 0.071419
Si Si4 0.636072 0.322046 0.578687
Si Si5 0.210318 0.311874 0.256987
Si Si6 0.243798 0.186191 0.063572
Si Si7 0.419519 0.500000 0.481686
O O1 0.793424 0.170146 0.695907
O O2 0.832722 0.000000 0.585589
O O3 0.964809 0.000000 0.573647
O O4 0.553344 0.782705 0.667410
O O5 0.380855 0.770819 0.725222
O O6 0.371298 0.713037 0.835222
O O7 0.407724 0.000000 0.779948
O O8 0.321742 0.705469 0.154994
O O9 0.334224 0.744055 0.043825
O O10 0.355784 0.000000 0.093855
O O11 0.500000 0.767033 0.000000
O O12 0.642288 0.500000 0.602099
O O13 0.750000 0.250000 0.500000
O O14 0.597047 0.338433 0.543356
O O15 0.199277 0.500000 0.286121
O O16 0.267523 0.000000 0.042317
O O17 0.250000 0.250000 0.000000
#
# Coordination Sequence:
#
# PCOD8088962 Si02
#       7
#     4   8   8   8   8   8   4
#     4  11  18  40  57  82 118 140 187 240 278 343
#     4  10  19  33  55  83 108 142 194 231 270 336
#     4   9  18  34  57  82 108 148 192 229 276 336
#     4  10  19  35  55  81 107 144 188 224 275 332
#     4  10  19  32  57  85 110 148 189 232 277 335
#     4  10  20  34  55  81 113 145 183 231 283 334
#     4   9  22  34  60  80 110 151 176 228 301 315
#
# _framework density 18.216426999999999
#
# number of rings (size 3 to 8) (size 9 to 14) (size 15 to 20)
#    0.500    1.667    2.500    1.500    1.167    1.000 
#    0.000    5.000    0.000    0.000    0.000    0.000 
#    0.000    0.000    0.000    0.000    0.000    0.000 
#
# Total GULP energy -297345.910356 kJ/mol
# GULP energy per Si atom -12389.412931 kJ/mol
# Density = 1.817497 g / cm^3
# Si number density = 18.216427 Si / 1000 Ang^3
#
#
#
# Elastic Constant Matrix: (Units=GPa)
#
#
# Indices 1 2 3 4 5 6 
#
# 1 63.5029 16.1202 56.8116 0.0035 -0.3017 -0.0232
# 2 16.1202 71.7553 33.4100 0.0055 8.7926 -0.0239
# 3 56.8116 33.4100 122.3572 -0.0004 -5.4202 -0.0020
# 4 0.0035 0.0055 -0.0004 32.1332 0.0002 -2.0284
# 5 -0.3017 8.7926 -5.4202 0.0002 37.6683 0.0052
# 6 -0.0232 -0.0239 -0.0020 -2.0284 0.0052 18.0627
#
#
#
# Elastic Compliance Matrix: (Units=1/GPa)
#
#
# Indices 1 2 3 4 5 6 
#
# 1 0.027032 0.000000 -0.012622 -0.000001 -0.001600 0.000034
# 2 0.000000 0.016719 -0.004768 -0.000001 -0.004589 0.000023
# 3 -0.012622 -0.004768 0.015479 0.000001 0.003239 -0.000022
# 4 -0.000001 -0.000001 0.000001 0.031343 0.000000 0.003520
# 5 -0.001600 -0.004589 0.003239 0.000000 0.028072 -0.000016
# 6 0.000034 0.000023 -0.000022 0.003520 -0.000016 0.055758
#
#
# Mechanical properties :
#
#
# Convention : Reuss Voigt Hill
#
# Bulk Modulus (GPa) = 40.90191 52.25541 46.57866
# Shear Modulus (GPa) = 23.00627 27.65774 25.33200
#
# Velocity S-wave (km/s) = 3.55764 3.90075 3.73314
# Velocity P-wave (km/s) = 6.27518 7.00256 6.64882
#
# Compressibility (1/GPa) = 0.02444873
#
# Stress axis : x y z
#
# Youngs Moduli (GPa) = 36.99363 59.81313 64.60442
#
# Poissons Ratio (x) = -0.00001 0.81543
# Poissons Ratio (y) = -0.00001 0.30806
# Poissons Ratio (z) = 0.46693 0.28522
#
# Static dielectric constant tensor:
#      x y z
#    x 1.871530 -0.000130 -0.138690 
#    y -0.000130 3.256400 -0.000050 
#    z -0.138690 -0.000050 3.327680 
# 
# 
# High freq. dielectric constant tensor:
#      x y z
#    x 1.675250 0.000000 -0.006190 
#    y 0.000000 1.707050 0.000000 
#    z -0.006190 0.000000 1.708800 
# 
# From -- ./inp_files/367137.got.cif
#   From: 2010.06.25/outbox.cif.g09.slc.cpg/sg12_184_cif.got.tgz:367137.got - 2010.06.28 00:19:55.
