data_PCOD8088864
_publ_section_title
;
Structure prediction by ZEFSAII (Michael W. Deem and Ramdas Pophale) SiO2 
 PCOD8088864
Probable space group: C 2/M
;
_chemical_formula_sum "Si O2"
_cell_formula_units_Z 64
_cell_length_a 24.006577
_cell_length_b 8.755630
_cell_length_c 19.510436
_cell_angle_alpha 90.000000
_cell_angle_beta 127.167043
_cell_angle_gamma 90.000000
_cell_volume 3267.956078
_symmetry_space_group_name_H-M "C 2/M"
_symmetry_group_IT_number 12
_symmetry_cell_setting 'monoclinic'
loop_
_space_group_symop_operation_xyz
x,y,z
-x,y,-z
-x,-y,-z
x,-y,z
1/2+x,1/2+y,z
1/2-x,1/2+y,-z
1/2-x,1/2-y,-z
1/2+x,1/2-y,z
loop_
_atom_site_type_symbol
_atom_site_label
_atom_site_fract_x
_atom_site_fract_y
_atom_site_fract_z
Si Si1 0.412007 0.181278 0.082842
Si Si2 0.418814 0.818486 0.340311
Si Si3 0.826154 0.319046 0.147765
Si Si4 0.831919 0.680460 0.405340
Si Si5 0.561968 0.181456 0.245414
Si Si6 0.433374 0.181060 0.597469
Si Si7 0.691460 0.819398 0.251689
Si Si8 0.179627 0.180371 0.093497
O O1 0.357991 0.242622 0.100344
O O2 0.489288 0.240655 0.159132
O O3 0.410568 0.000000 0.075522
O O4 0.389687 0.252040 0.993379
O O5 0.371052 0.751382 0.243900
O O6 0.386825 0.764184 0.388496
O O7 0.497285 0.754469 0.388802
O O8 0.419526 0.000000 0.338237
O O9 0.832338 0.500000 0.153851
O O10 0.746144 0.266428 0.097417
O O11 0.817561 0.500000 0.388646
O O12 0.864858 0.726898 0.503146
O O13 0.759898 0.770080 0.344066
O O14 0.571867 0.248478 0.329548
O O15 0.625021 0.240089 0.245229
O O16 0.560884 0.000000 0.248277
O O17 0.439775 0.000000 0.605761
O O18 0.688911 0.742482 0.176221
O O19 0.690259 0.000000 0.241706
O O20 0.173943 0.000000 0.093612
#
# Coordination Sequence:
#
# PCOD8088864 Si02
#       8
#     8   8   8   8   8   8   8   8
#     4  10  19  35  59  83 106 138 176 219 267 317
#     4   9  14  26  51  84 112 135 169 216 265 311
#     4   9  16  29  54  82 110 137 168 213 265 316
#     4  10  19  32  55  86 113 137 172 220 270 318
#     4   9  19  35  54  77 106 140 185 228 257 301
#     4   9  16  29  54  85 110 137 176 221 266 312
#     4  11  23  38  54  74 104 146 188 223 260 309
#     4  11  22  37  56  82 112 138 170 219 271 324
#
# _framework density 19.584106999999999
#
# number of rings (size 3 to 8) (size 9 to 14) (size 15 to 20)
#    0.000    2.250    2.500    1.500    0.000    2.500 
#    0.000    4.375    0.000    3.000    0.000    0.000 
#    0.000    0.000    0.000    0.000    0.000    0.000 
#
# Total GULP energy -396758.333487 kJ/mol
# GULP energy per Si atom -12398.697921 kJ/mol
# Density = 1.953953 g / cm^3
# Si number density = 19.584107 Si / 1000 Ang^3
#
#
#
# Elastic Constant Matrix: (Units=GPa)
#
#
# Indices 1 2 3 4 5 6 
#
# 1 131.0673 26.6419 58.4838 0.0000 23.3679 0.0000
# 2 26.6419 28.8982 26.3097 0.0000 2.4131 0.0000
# 3 58.4838 26.3097 159.5837 0.0000 17.4254 0.0000
# 4 0.0000 0.0000 0.0000 26.2435 0.0000 2.9321
# 5 23.3679 2.4131 17.4254 0.0000 15.4040 0.0000
# 6 0.0000 0.0000 0.0000 2.9321 0.0000 18.0680
#
#
#
# Elastic Compliance Matrix: (Units=1/GPa)
#
#
# Indices 1 2 3 4 5 6 
#
# 1 0.013213 -0.009462 -0.001432 0.000000 -0.016941 0.000000
# 2 -0.009462 0.047518 -0.005843 0.000000 0.013520 0.000000
# 3 -0.001432 -0.005843 0.008463 0.000000 -0.006485 0.000000
# 4 0.000000 0.000000 0.000000 0.038808 0.000000 -0.006298
# 5 -0.016941 0.013520 -0.006485 0.000000 0.095836 0.000000
# 6 0.000000 0.000000 0.000000 -0.006298 0.000000 0.056369
#
#
# Mechanical properties :
#
#
# Convention : Reuss Voigt Hill
#
# Bulk Modulus (GPa) = 27.99647 60.26888 44.13267
# Shear Modulus (GPa) = 16.36197 25.81735 21.08966
#
# Velocity S-wave (km/s) = 2.89359 3.63475 3.28514
# Velocity P-wave (km/s) = 5.04880 6.96106 6.08057
#
# Compressibility (1/GPa) = 0.03571879
#
# Stress axis : x y z
#
# Youngs Moduli (GPa) = 75.68553 21.04461 118.16768
#
# Poissons Ratio (x) = 0.19913 0.16925
# Poissons Ratio (y) = 0.71617 0.69040
# Poissons Ratio (z) = 0.10840 0.12295
#
# Static dielectric constant tensor:
#      x y z
#    x 3.769950 0.000000 0.018030 
#    y 0.000000 2.991330 0.000000 
#    z 0.018030 0.000000 3.747870 
# 
# 
# High freq. dielectric constant tensor:
#      x y z
#    x 1.764880 0.000000 0.000770 
#    y 0.000000 1.705290 0.000000 
#    z 0.000770 0.000000 1.780990 
# 
# From -- ./inp_files/324322.got.cif
#   From: 2010.06.25/outbox.cif.g09.slc.cpg/sg12_163_cif.got.tgz:324322.got - 2010.06.28 00:19:55.
