data_PCOD8088186
_publ_section_title
;
Structure prediction by ZEFSAII (Michael W. Deem and Ramdas Pophale) SiO2 
 PCOD8088186
Probable space group: C 2/M
;
_chemical_formula_sum "Si O2"
_cell_formula_units_Z 56
_cell_length_a 10.273389
_cell_length_b 30.581880
_cell_length_c 14.312802
_cell_angle_alpha 90.000000
_cell_angle_beta 134.835572
_cell_angle_gamma 90.000000
_cell_volume 3188.822539
_symmetry_space_group_name_H-M "C 2/M"
_symmetry_group_IT_number 12
_symmetry_cell_setting 'monoclinic'
loop_
_space_group_symop_operation_xyz
x,y,z
-x,y,-z
-x,-y,-z
x,-y,z
1/2+x,1/2+y,z
1/2-x,1/2+y,-z
1/2-x,1/2-y,-z
1/2+x,1/2-y,z
loop_
_atom_site_type_symbol
_atom_site_label
_atom_site_fract_x
_atom_site_fract_y
_atom_site_fract_z
Si Si1 0.000000 0.886490 0.000000
Si Si2 0.220771 0.449869 0.416252
Si Si3 0.593768 0.690712 0.405115
Si Si4 0.707146 0.070541 0.613265
Si Si5 0.000000 0.117605 0.500000
Si Si6 0.996541 0.714645 0.605657
Si Si7 0.178861 0.160314 0.254222
Si Si8 0.793505 0.547948 0.188820
O O1 0.026159 0.856930 0.104992
O O2 0.179090 0.916749 0.071679
O O3 0.257497 0.500000 0.403172
O O4 0.299982 0.443440 0.562239
O O5 0.325024 0.414927 0.403518
O O6 0.006134 0.437858 0.299385
O O7 0.507932 0.648371 0.412241
O O8 0.802288 0.698169 0.549585
O O9 0.473816 0.733538 0.367491
O O10 0.580743 0.688134 0.285908
O O11 0.500000 0.054517 0.500000
O O12 0.719277 0.122174 0.636582
O O13 0.789000 0.046824 0.746775
O O14 0.000000 0.701840 0.500000
O O15 0.173523 0.687966 0.733650
O O16 0.768883 0.500000 0.131309
#
# Coordination Sequence:
#
# PCOD8088186 Si02
#       8
#     4   8   8   8   4   8   8   8
#     4  10  21  32  54  76  96 138 186 212 259 294
#     4  10  20  32  48  76 111 139 165 208 265 322
#     4  10  19  32  52  81 105 131 169 208 260 323
#     4   9  15  27  50  76 100 129 160 210 274 319
#     4  12  21  30  50  80 108 142 168 192 263 330
#     4   9  18  32  54  80 107 130 160 215 274 313
#     4  10  19  33  51  76 105 133 172 217 257 299
#     4   9  18  32  51  75 101 131 175 227 264 298
#
# _framework density 17.561340999999999
#
# number of rings (size 3 to 8) (size 9 to 14) (size 15 to 20)
#    0.000    2.286    2.143    2.143    4.000    1.714 
#    0.000    0.714    0.000    0.857    0.000    2.000 
#    0.000    0.000    0.000    0.000    0.000    0.000 
#
# Total GULP energy -346964.087115 kJ/mol
# GULP energy per Si atom -12391.574540 kJ/mol
# Density = 1.752137 g / cm^3
# Si number density = 17.561341 Si / 1000 Ang^3
#
#
#
# Elastic Constant Matrix: (Units=GPa)
#
#
# Indices 1 2 3 4 5 6 
#
# 1 72.6740 44.1817 27.5359 0.0000 5.7594 0.0000
# 2 44.1817 119.2078 40.0953 0.0000 9.6550 0.0000
# 3 27.5359 40.0953 81.2942 0.0000 4.7703 0.0000
# 4 0.0000 0.0000 0.0000 23.7776 0.0000 4.1465
# 5 5.7594 9.6550 4.7703 0.0000 13.6359 0.0000
# 6 0.0000 0.0000 0.0000 4.1465 0.0000 37.2157
#
#
#
# Elastic Compliance Matrix: (Units=1/GPa)
#
#
# Indices 1 2 3 4 5 6 
#
# 1 0.018640 -0.005534 -0.003422 0.000000 -0.002757 0.000000
# 2 -0.005534 0.012121 -0.003816 0.000000 -0.004910 0.000000
# 3 -0.003422 -0.003816 0.015415 0.000000 -0.001246 0.000000
# 4 0.000000 0.000000 0.000000 0.042890 0.000000 -0.004779
# 5 -0.002757 -0.004910 -0.001246 0.000000 0.078413 0.000000
# 6 0.000000 0.000000 0.000000 -0.004779 0.000000 0.027403
#
#
# Mechanical properties :
#
#
# Convention : Reuss Voigt Hill
#
# Bulk Modulus (GPa) = 48.46875 55.20019 51.83447
# Shear Modulus (GPa) = 21.99718 25.68338 23.84028
#
# Velocity S-wave (km/s) = 3.54304 3.82841 3.68848
# Velocity P-wave (km/s) = 6.66311 7.14446 6.90798
#
# Compressibility (1/GPa) = 0.02063185
#
# Stress axis : x y z
#
# Youngs Moduli (GPa) = 53.64909 82.50311 64.87102
#
# Poissons Ratio (x) = 0.45657 0.22202
# Poissons Ratio (y) = 0.29689 0.24752
# Poissons Ratio (z) = 0.18361 0.31479
#
# Static dielectric constant tensor:
#      x y z
#    x 3.295640 0.000000 0.053340 
#    y 0.000000 3.430400 0.000000 
#    z 0.053340 0.000000 3.023520 
# 
# 
# High freq. dielectric constant tensor:
#      x y z
#    x 1.658890 0.000000 0.001860 
#    y 0.000000 1.699510 0.000000 
#    z 0.001860 0.000000 1.632580 
# 
# From -- ./inp_files/209728.got.cif
#   From: 2010.06.25/outbox.cif.g09.slc.cpg/sg12_105_cif.got.tgz:209728.got - 2010.06.28 00:19:55.
