data_PCOD8088169
_publ_section_title
;
Structure prediction by ZEFSAII (Michael W. Deem and Ramdas Pophale) SiO2 
 PCOD8088169
Probable space group: C 2/M
;
_chemical_formula_sum "Si O2"
_cell_formula_units_Z 64
_cell_length_a 26.495102
_cell_length_b 14.324442
_cell_length_c 10.075375
_cell_angle_alpha 90.000000
_cell_angle_beta 69.542832
_cell_angle_gamma 90.000000
_cell_volume 3582.724401
_symmetry_space_group_name_H-M "C 2/M"
_symmetry_group_IT_number 12
_symmetry_cell_setting 'monoclinic'
loop_
_space_group_symop_operation_xyz
x,y,z
-x,y,-z
-x,-y,-z
x,-y,z
1/2+x,1/2+y,z
1/2-x,1/2+y,-z
1/2-x,1/2-y,-z
1/2+x,1/2-y,z
loop_
_atom_site_type_symbol
_atom_site_label
_atom_site_fract_x
_atom_site_fract_y
_atom_site_fract_z
Si Si1 0.455101 0.606974 0.437042
Si Si2 0.024392 0.105795 0.119463
Si Si3 0.773376 0.893855 0.098910
Si Si4 0.353243 0.285198 0.619118
Si Si5 0.128733 0.217135 0.089924
Si Si6 0.317011 0.106721 0.027161
Si Si7 0.301692 0.893736 0.589105
Si Si8 0.246201 0.393351 0.650236
O O1 0.500000 0.641740 0.500000
O O2 0.439188 0.500000 0.483943
O O3 0.476942 0.618165 0.268862
O O4 0.402636 0.670958 0.493899
O O5 0.070646 0.179941 0.104551
O O6 0.047543 0.000000 0.104774
O O7 0.000000 0.128784 0.000000
O O8 0.749264 0.880255 0.267283
O O9 0.790410 0.000000 0.055868
O O10 0.826313 0.831837 0.041535
O O11 0.730366 0.861732 0.028594
O O12 0.360950 0.305298 0.766470
O O13 0.350170 0.174547 0.589764
O O14 0.297562 0.328822 0.621629
O O15 0.131834 0.327566 0.053158
O O16 0.297341 0.122841 0.194612
O O17 0.334571 0.000000 0.985123
O O18 0.282864 0.867183 0.459542
O O19 0.323470 0.000000 0.577389
O O20 0.266507 0.500000 0.631404
#
# Coordination Sequence:
#
# PCOD8088169 Si02
#       8
#     8   8   8   8   8   8   8   8
#     4  10  21  37  57  81 107 135 175 226 273 317
#     4  10  23  41  58  81 111 137 170 225 282 321
#     4  10  19  32  52  80 112 142 177 216 260 317
#     4  12  21  33  58  82 104 144 188 218 259 319
#     4  12  21  33  58  82 105 142 186 221 260 318
#     4  10  20  34  53  80 112 144 178 217 260 314
#     4  10  22  37  51  77 117 148 173 217 267 312
#     4  10  21  35  52  80 115 144 176 219 265 315
#
# _framework density 17.863500999999999
#
# number of rings (size 3 to 8) (size 9 to 14) (size 15 to 20)
#    0.000    1.500    3.750    2.250    0.000    3.000 
#    0.000    3.750    0.000    1.500    0.000    0.000 
#    0.000    0.000    0.000    0.000    0.000    0.000 
#
# Total GULP energy -396929.254367 kJ/mol
# GULP energy per Si atom -12404.039199 kJ/mol
# Density = 1.782284 g / cm^3
# Si number density = 17.863501 Si / 1000 Ang^3
#
#
#
# Elastic Constant Matrix: (Units=GPa)
#
#
# Indices 1 2 3 4 5 6 
#
# 1 67.2664 51.1566 25.9800 0.0000 -5.6552 0.0000
# 2 51.1566 99.7244 22.7656 0.0000 -12.0717 0.0000
# 3 25.9800 22.7656 95.4128 0.0000 11.9787 0.0000
# 4 0.0000 0.0000 0.0000 6.1624 0.0000 45.4388
# 5 -5.6552 -12.0717 11.9787 0.0000 25.7179 0.0000
# 6 0.0000 0.0000 0.0000 45.4388 0.0000 -94.3909
#
#
#
# Elastic Compliance Matrix: (Units=1/GPa)
#
#
# Indices 1 2 3 4 5 6 
#
# 1 0.025901 -0.012012 -0.004454 0.000000 0.002132 0.000000
# 2 -0.012012 0.017323 -0.001648 0.000000 0.006258 0.000000
# 3 -0.004454 -0.001648 0.013071 0.000000 -0.007841 0.000000
# 4 0.000000 0.000000 0.000000 0.035668 0.000000 0.017170
# 5 0.002132 0.006258 -0.007841 0.000000 0.045942 0.000000
# 6 0.000000 0.000000 0.000000 0.017170 0.000000 -0.002329
#
#
# Mechanical properties :
#
#
# Convention : Reuss Voigt Hill
#
# Bulk Modulus (GPa) = 49.83312 51.35643 50.59477
# Shear Modulus (GPa) = 28.01209 -1.66870 13.17169
#
# Velocity S-wave (km/s) = 3.96424 -0.96756 2.71837
# Velocity P-wave (km/s) = 6.99363 5.25010 6.18362
#
# Compressibility (1/GPa) = 0.02006698
#
# Stress axis : x y z
#
# Youngs Moduli (GPa) = 38.60879 57.72612 76.50313
#
# Poissons Ratio (x) = 0.69339 0.34076
# Poissons Ratio (y) = 0.46376 0.12610
# Poissons Ratio (z) = 0.17197 0.09515
#
# Static dielectric constant tensor:
#      x y z
#    x 4.264920 0.000000 0.555730 
#    y 0.000000 3.568950 0.000000 
#    z 0.555730 0.000000 3.629610 
# 
# 
# High freq. dielectric constant tensor:
#      x y z
#    x 1.656060 0.000000 0.012190 
#    y 0.000000 1.698420 0.000000 
#    z 0.012190 0.000000 1.707770 
# 
# From -- ./inp_files/104491.got.cif
#   From: 2010.06.25/outbox.cif.g09.slc.cpg/sg12_53_cif.got.tgz:104491.got - 2010.06.28 00:19:55.
