data_PCOD8088726
_publ_section_title
;
Structure prediction by ZEFSAII (Michael W. Deem and Ramdas Pophale) SiO2 
 PCOD8088726
Probable space group: C 2/M
;
_chemical_formula_sum "Si O2"
_cell_formula_units_Z 48
_cell_length_a 16.506274
_cell_length_b 13.751252
_cell_length_c 26.051424
_cell_angle_alpha 90.000000
_cell_angle_beta 25.188982
_cell_angle_gamma 90.000000
_cell_volume 2516.690273
_symmetry_space_group_name_H-M "C 2/M"
_symmetry_group_IT_number 12
_symmetry_cell_setting 'monoclinic'
loop_
_space_group_symop_operation_xyz
x,y,z
-x,y,-z
-x,-y,-z
x,-y,z
1/2+x,1/2+y,z
1/2-x,1/2+y,-z
1/2-x,1/2-y,-z
1/2+x,1/2-y,z
loop_
_atom_site_type_symbol
_atom_site_label
_atom_site_fract_x
_atom_site_fract_y
_atom_site_fract_z
Si Si1 0.061742 0.726833 0.176805
Si Si2 0.947432 0.227393 0.702481
Si Si3 0.739806 0.389050 0.017486
Si Si4 0.296517 0.389483 0.596359
Si Si5 0.914004 0.388800 0.104109
Si Si6 0.211660 0.610492 0.526228
O O1 0.217583 0.652554 0.063592
O O2 0.117912 0.742990 0.203323
O O3 0.853321 0.681131 0.290624
O O4 0.068929 0.828806 0.141841
O O5 0.021344 0.323394 0.629584
O O6 0.121952 0.150282 0.606165
O O7 0.766164 0.179272 0.778543
O O8 0.673839 0.500000 0.051858
O O9 0.929895 0.374117 0.941837
O O10 0.500000 0.355561 0.500000
O O11 0.251750 0.500000 0.639222
O O12 0.290494 0.380123 0.538691
O O13 0.841423 0.500000 0.143993
O O14 0.000000 0.359078 0.000000
O O15 0.160215 0.500000 0.540943
#
# Coordination Sequence:
#
# PCOD8088726 Si02
#       6
#     8   8   8   8   8   8
#     4  10  20  34  52  79 108 144 173 214 265 319
#     4  10  19  33  53  79 109 142 174 220 264 316
#     4  10  21  35  54  81 109 141 176 217 265 313
#     4   9  18  32  52  81 111 136 170 218 268 312
#     4  10  19  32  54  84 110 132 173 225 269 308
#     4   9  19  33  52  78 105 140 179 216 264 317
#
# _framework density 19.072669000000001
#
# number of rings (size 3 to 8) (size 9 to 14) (size 15 to 20)
#    0.000    2.333    1.667    1.000    2.333    1.333 
#    0.000    0.000    0.000    6.000    0.000    0.000 
#    0.000    0.000    0.000    0.000    0.000    0.000 
#
# Total GULP energy -297583.710959 kJ/mol
# GULP energy per Si atom -12399.321290 kJ/mol
# Density = 1.902926 g / cm^3
# Si number density = 19.072669 Si / 1000 Ang^3
#
#
#
# Elastic Constant Matrix: (Units=GPa)
#
#
# Indices 1 2 3 4 5 6 
#
# 1 32.1604 18.5394 24.6323 -0.0055 1.9318 0.0001
# 2 18.5394 151.1274 60.1572 0.0026 -8.3087 0.0081
# 3 24.6323 60.1572 91.2893 -0.0006 -2.2063 0.0233
# 4 -0.0055 0.0026 -0.0006 37.3785 0.0085 -7.4876
# 5 1.9318 -8.3087 -2.2063 0.0085 28.0838 -0.0001
# 6 0.0001 0.0081 0.0233 -7.4876 -0.0001 21.7530
#
#
#
# Elastic Compliance Matrix: (Units=1/GPa)
#
#
# Indices 1 2 3 4 5 6 
#
# 1 0.039670 -0.001057 -0.010100 0.000009 -0.003835 0.000014
# 2 -0.001057 0.009135 -0.005678 -0.000001 0.002329 0.000002
# 3 -0.010100 -0.005678 0.017431 -0.000005 0.000384 -0.000018
# 4 0.000009 -0.000001 -0.000005 0.028735 -0.000010 0.009891
# 5 -0.003835 0.002329 0.000384 -0.000010 0.036591 -0.000005
# 6 0.000014 0.000002 -0.000018 0.009891 -0.000005 0.049375
#
#
# Mechanical properties :
#
#
# Convention : Reuss Voigt Hill
#
# Bulk Modulus (GPa) = 30.70811 53.47054 42.08933
# Shear Modulus (GPa) = 22.17676 28.85960 25.51818
#
# Velocity S-wave (km/s) = 3.41361 3.89413 3.66176
# Velocity P-wave (km/s) = 5.62784 6.95090 6.32406
#
# Compressibility (1/GPa) = 0.03256468
#
# Stress axis : x y z
#
# Youngs Moduli (GPa) = 25.20815 109.47064 57.37048
#
# Poissons Ratio (x) = 0.11569 0.57946
# Poissons Ratio (y) = 0.02664 0.32576
# Poissons Ratio (z) = 0.25461 0.62159
#
# Static dielectric constant tensor:
#      x y z
#    x 3.206110 0.000000 0.161610 
#    y 0.000000 3.736570 0.000020 
#    z 0.161610 0.000020 3.538570 
# 
# 
# High freq. dielectric constant tensor:
#      x y z
#    x 1.707050 0.000000 0.019470 
#    y 0.000000 1.747220 0.000000 
#    z 0.019470 0.000000 1.746690 
# 
# From -- ./inp_files/143872.got.cif
#   From: 2010.06.25/outbox.cif.g09.slc.cpg/sg12_72_cif.got.tgz:143872.got - 2010.06.28 00:19:55.
