data_PCOD8088394
_publ_section_title
;
Structure prediction by ZEFSAII (Michael W. Deem and Ramdas Pophale) SiO2 
 PCOD8088394
Probable space group: C 2/M
;
_chemical_formula_sum "Si O2"
_cell_formula_units_Z 56
_cell_length_a 20.602903
_cell_length_b 9.007206
_cell_length_c 32.545023
_cell_angle_alpha 90.000000
_cell_angle_beta 150.771724
_cell_angle_gamma 90.000000
_cell_volume 2949.044171
_symmetry_space_group_name_H-M "C 2/M"
_symmetry_group_IT_number 12
_symmetry_cell_setting 'monoclinic'
loop_
_space_group_symop_operation_xyz
x,y,z
-x,y,-z
-x,-y,-z
x,-y,z
1/2+x,1/2+y,z
1/2-x,1/2+y,-z
1/2-x,1/2-y,-z
1/2+x,1/2-y,z
loop_
_atom_site_type_symbol
_atom_site_label
_atom_site_fract_x
_atom_site_fract_y
_atom_site_fract_z
Si Si1 0.638382 0.824577 0.332585
Si Si2 0.871294 0.176017 0.310889
Si Si3 0.112862 0.828627 0.030287
Si Si4 0.668173 0.674608 0.490552
Si Si5 0.377497 0.824232 0.050458
Si Si6 0.129855 0.327790 0.774707
Si Si7 0.858601 0.323635 0.757248
O O1 0.768586 0.780344 0.430649
O O2 0.506863 0.762035 0.282345
O O3 0.651399 0.756059 0.294213
O O4 0.622253 0.000000 0.319940
O O5 0.832848 0.240194 0.245575
O O6 0.765120 0.238507 0.284894
O O7 0.016536 0.230335 0.405777
O O8 0.864651 0.000000 0.304183
O O9 0.256806 0.801825 0.129164
O O10 0.093812 0.000000 0.006895
O O11 0.099947 0.726234 0.983556
O O12 0.000000 0.779656 0.000000
O O13 0.677769 0.500000 0.488765
O O14 0.750000 0.750000 0.500000
O O15 0.504042 0.771345 0.146655
O O16 0.359665 0.000000 0.041926
O O17 0.250000 0.750000 0.000000
O O18 0.115540 0.500000 0.755195
O O19 0.851114 0.500000 0.751726
#
# Coordination Sequence:
#
# PCOD8088394 Si02
#       7
#     8   8   8   8   8   8   8
#     4   9  17  31  52  75 101 137 176 210 254 313
#     4  10  20  33  53  81 109 136 172 224 270 309
#     4  10  21  36  55  81 111 143 184 231 276 329
#     4  10  19  32  53  80 107 136 173 217 261 312
#     4  11  22  37  58  80 109 148 186 230 278 329
#     4  10  19  33  54  76 103 142 179 214 263 323
#     4   9  19  35  53  77 108 139 175 219 269 319
#
# _framework density 18.989204999999998
#
# number of rings (size 3 to 8) (size 9 to 14) (size 15 to 20)
#    0.000    2.143    1.429    2.143    0.000    3.714 
#    0.000    3.571    0.000    2.571    0.000    2.000 
#    0.000    0.000    0.000    0.000    0.000    0.000 
#
# Total GULP energy -347254.318909 kJ/mol
# GULP energy per Si atom -12401.939961 kJ/mol
# Density = 1.894598 g / cm^3
# Si number density = 18.989205 Si / 1000 Ang^3
#
#
#
# Elastic Constant Matrix: (Units=GPa)
#
#
# Indices 1 2 3 4 5 6 
#
# 1 159.0868 31.5388 70.3123 0.0001 -4.2295 0.0000
# 2 31.5388 31.6365 33.2595 0.0002 -1.0002 -0.0002
# 3 70.3123 33.2595 128.4452 0.0001 -2.1669 0.0000
# 4 0.0001 0.0002 0.0001 15.9033 0.0000 -1.4281
# 5 -4.2295 -1.0002 -2.1669 0.0000 38.9510 0.0001
# 6 0.0000 -0.0002 0.0000 -1.4281 0.0001 29.4634
#
#
#
# Elastic Compliance Matrix: (Units=1/GPa)
#
#
# Indices 1 2 3 4 5 6 
#
# 1 0.008875 -0.005127 -0.003520 0.000000 0.000636 0.000000
# 2 -0.005127 0.046404 -0.009207 -0.000001 0.000123 0.000000
# 3 -0.003520 -0.009207 0.012097 0.000000 0.000054 0.000000
# 4 0.000000 -0.000001 0.000000 0.063155 0.000000 0.003061
# 5 0.000636 0.000123 0.000054 0.000000 0.025749 0.000000
# 6 0.000000 0.000000 0.000000 0.003061 0.000000 0.034089
#
#
# Mechanical properties :
#
#
# Convention : Reuss Voigt Hill
#
# Bulk Modulus (GPa) = 31.57779 65.48775 48.53277
# Shear Modulus (GPa) = 21.12988 29.13407 25.13197
#
# Velocity S-wave (km/s) = 3.33938 3.92119 3.64192
# Velocity P-wave (km/s) = 5.61552 7.42042 6.58015
#
# Compressibility (1/GPa) = 0.03166783
#
# Stress axis : x y z
#
# Youngs Moduli (GPa) = 112.67714 21.55008 82.66329
#
# Poissons Ratio (x) = 0.11049 0.29097
# Poissons Ratio (y) = 0.57768 0.76109
# Poissons Ratio (z) = 0.39662 0.19841
#
# Static dielectric constant tensor:
#      x y z
#    x 6.838820 0.000010 -0.966700 
#    y 0.000010 3.143960 0.000000 
#    z -0.966700 0.000000 4.112900 
# 
# 
# High freq. dielectric constant tensor:
#      x y z
#    x 1.749640 0.000000 0.002070 
#    y 0.000000 1.700500 0.000000 
#    z 0.002070 0.000000 1.755470 
# 
# From -- ./inp_files/275255.got.cif
#   From: 2010.06.25/outbox.cif.g09.slc.cpg/sg12_138_cif.got.tgz:275255.got - 2010.06.28 00:19:55.
