data_PCOD8088688
_publ_section_title
;
Structure prediction by ZEFSAII (Michael W. Deem and Ramdas Pophale) SiO2 
 PCOD8088688
Probable space group: C 2/M
;
_chemical_formula_sum "Si O2"
_cell_formula_units_Z 56
_cell_length_a 19.373334
_cell_length_b 8.728072
_cell_length_c 26.936304
_cell_angle_alpha 90.000000
_cell_angle_beta 39.758764
_cell_angle_gamma 90.000000
_cell_volume 2912.994562
_symmetry_space_group_name_H-M "C 2/M"
_symmetry_group_IT_number 12
_symmetry_cell_setting 'monoclinic'
loop_
_space_group_symop_operation_xyz
x,y,z
-x,y,-z
-x,-y,-z
x,-y,z
1/2+x,1/2+y,z
1/2-x,1/2+y,-z
1/2-x,1/2-y,-z
1/2+x,1/2-y,z
loop_
_atom_site_type_symbol
_atom_site_label
_atom_site_fract_x
_atom_site_fract_y
_atom_site_fract_z
Si Si1 0.921552 0.329700 0.683150
Si Si2 0.600186 0.318445 0.716163
Si Si3 0.294132 0.317815 0.239862
Si Si4 0.122063 0.328269 0.178237
Si Si5 0.299562 0.820083 0.021274
Si Si6 0.987736 0.180248 0.064069
Si Si7 0.350016 0.816545 0.415493
O O1 0.936734 0.500000 0.653336
O O2 0.826671 0.247240 0.703395
O O3 0.880504 0.335439 0.761691
O O4 0.040743 0.251862 0.617640
O O5 0.606628 0.500000 0.706461
O O6 0.663743 0.261204 0.729996
O O7 0.476125 0.268915 0.790448
O O8 0.655379 0.239427 0.638206
O O9 0.285542 0.500000 0.243874
O O10 0.373778 0.268030 0.150985
O O11 0.116603 0.500000 0.158915
O O12 0.235316 0.249510 0.103315
O O13 0.287016 0.000000 0.028076
O O14 0.250000 0.750000 0.000000
O O15 0.423586 0.772575 0.954384
O O16 0.007271 0.000000 0.060301
O O17 0.000000 0.228362 0.000000
O O18 0.250000 0.750000 0.500000
O O19 0.349765 0.000000 0.415459
#
# Coordination Sequence:
#
# PCOD8088688 Si02
#       7
#     8   8   8   8   8   8   8
#     4   8  16  32  55  80 102 132 174 214 254 309
#     4  10  19  32  54  82 111 142 176 218 268 322
#     4   9  17  31  52  78 106 137 178 222 263 317
#     4  10  19  34  55  76 102 138 182 228 272 323
#     4  12  24  36  51  73 104 141 186 238 287 333
#     4  10  20  35  56  80 109 147 187 230 283 338
#     4  10  20  36  59  83 109 139 175 218 263 318
#
# _framework density 19.224202999999999
#
# number of rings (size 3 to 8) (size 9 to 14) (size 15 to 20)
#    0.000    2.143    0.000    5.143    0.000    3.714 
#    0.000    1.429    0.000   16.286    0.000    0.000 
#    0.000    0.000    0.000    0.000    0.000    0.000 
#
# Total GULP energy -347069.010730 kJ/mol
# GULP energy per Si atom -12395.321812 kJ/mol
# Density = 1.918045 g / cm^3
# Si number density = 19.224203 Si / 1000 Ang^3
#
#
#
# Elastic Constant Matrix: (Units=GPa)
#
#
# Indices 1 2 3 4 5 6 
#
# 1 135.4759 25.1741 53.5876 -0.0015 -16.7333 0.0102
# 2 25.1741 68.1572 22.9286 -0.0004 -2.6210 0.0025
# 3 53.5876 22.9286 120.2123 0.0009 -16.3585 0.0004
# 4 -0.0015 -0.0004 0.0009 28.4316 -0.0006 -0.6454
# 5 -16.7333 -2.6210 -16.3585 -0.0006 26.1773 0.0004
# 6 0.0102 0.0025 0.0004 -0.6454 0.0004 23.5669
#
#
#
# Elastic Compliance Matrix: (Units=1/GPa)
#
#
# Indices 1 2 3 4 5 6 
#
# 1 0.009591 -0.002278 -0.003320 0.000001 0.003828 -0.000004
# 2 -0.002278 0.016222 -0.002247 0.000000 -0.001236 -0.000001
# 3 -0.003320 -0.002247 0.010828 0.000000 0.004420 0.000001
# 4 0.000001 0.000000 0.000000 0.035194 0.000001 0.000964
# 5 0.003828 -0.001236 0.004420 0.000001 0.043286 -0.000002
# 6 -0.000004 -0.000001 0.000001 0.000964 -0.000002 0.042459
#
#
# Mechanical properties :
#
#
# Convention : Reuss Voigt Hill
#
# Bulk Modulus (GPa) = 47.72973 58.58067 53.15520
# Shear Modulus (GPa) = 27.73877 30.44550 29.09213
#
# Velocity S-wave (km/s) = 3.80268 3.98390 3.89435
# Velocity P-wave (km/s) = 6.64548 7.19030 6.92325
#
# Compressibility (1/GPa) = 0.02095130
#
# Stress axis : x y z
#
# Youngs Moduli (GPa) = 104.26746 61.64575 92.34917
#
# Poissons Ratio (x) = 0.14045 0.30658
# Poissons Ratio (y) = 0.23756 0.20747
# Poissons Ratio (z) = 0.34615 0.13849
#
# Static dielectric constant tensor:
#      x y z
#    x 3.690620 0.000000 -0.155840 
#    y 0.000000 3.414230 0.000000 
#    z -0.155840 0.000000 3.572420 
# 
# 
# High freq. dielectric constant tensor:
#      x y z
#    x 1.754830 0.000000 -0.010580 
#    y 0.000000 1.724130 0.000000 
#    z -0.010580 0.000000 1.743580 
# 
# From -- ./inp_files/280382.got.cif
#   From: 2010.06.25/outbox.cif.g09.slc.cpg/sg12_141_cif.got.tgz:280382.got - 2010.06.28 00:19:55.
