data_PCOD8088469
_publ_section_title
;
Structure prediction by ZEFSAII (Michael W. Deem and Ramdas Pophale) SiO2 
 PCOD8088469
Probable space group: C 2/M
;
_chemical_formula_sum "Si O2"
_cell_formula_units_Z 64
_cell_length_a 24.399689
_cell_length_b 17.994344
_cell_length_c 15.029584
_cell_angle_alpha 90.000000
_cell_angle_beta 152.254507
_cell_angle_gamma 90.000000
_cell_volume 3072.054009
_symmetry_space_group_name_H-M "C 2/M"
_symmetry_group_IT_number 12
_symmetry_cell_setting 'monoclinic'
loop_
_space_group_symop_operation_xyz
x,y,z
-x,y,-z
-x,-y,-z
x,-y,z
1/2+x,1/2+y,z
1/2-x,1/2+y,-z
1/2-x,1/2-y,-z
1/2+x,1/2-y,z
loop_
_atom_site_type_symbol
_atom_site_label
_atom_site_fract_x
_atom_site_fract_y
_atom_site_fract_z
Si Si1 0.969700 0.831929 0.218733
Si Si2 0.705261 0.584018 0.573090
Si Si3 0.647444 0.195166 0.879176
Si Si4 0.585991 0.707278 0.050652
Si Si5 0.388865 0.086243 0.689930
Si Si6 0.760884 0.584108 0.327770
Si Si7 0.776148 0.586466 0.146004
Si Si8 0.144848 0.645341 0.065549
O O1 0.961179 0.751065 0.255566
O O2 0.087140 0.870320 0.422282
O O3 0.987758 0.820373 0.139929
O O4 0.854352 0.883780 0.066649
O O5 0.668304 0.500000 0.498892
O O6 0.783496 0.615147 0.602887
O O7 0.779385 0.585750 0.771276
O O8 0.628117 0.135114 0.772219
O O9 0.750000 0.250000 0.000000
O O10 0.680257 0.145515 0.012859
O O11 0.653930 0.639056 0.193583
O O12 0.674274 0.772777 0.147224
O O13 0.500000 0.741012 0.000000
O O14 0.360577 0.099066 0.544844
O O15 0.412205 0.000000 0.743735
O O16 0.506361 0.130899 0.880428
O O17 0.713039 0.500000 0.267931
O O18 0.808491 0.598166 0.296216
O O19 0.785733 0.500000 0.133164
#
# Coordination Sequence:
#
# PCOD8088469 Si02
#       8
#     8   8   8   8   8   8   8   8
#     4   9  19  35  55  85 118 150 191 234 281 343
#     4  11  22  37  59  86 119 157 190 228 283 342
#     4   9  20  40  59  79 111 152 192 236 290 338
#     4  10  19  32  53  81 113 147 183 229 285 340
#     4  10  21  38  58  83 118 155 191 232 281 342
#     4   9  19  35  57  84 111 142 184 234 284 337
#     4   9  17  34  60  86 113 145 187 241 294 340
#     4  11  23  38  56  82 115 153 199 239 276 336
#
# _framework density 20.832967
#
# number of rings (size 3 to 8) (size 9 to 14) (size 15 to 20)
#    0.000    2.250    0.000    3.375    0.000    4.750 
#    0.000    8.750    0.000    6.000    0.000    0.000 
#    0.000    0.000    0.000    0.000    0.000    0.000 
#
# Total GULP energy -396670.091732 kJ/mol
# GULP energy per Si atom -12395.940367 kJ/mol
# Density = 2.078555 g / cm^3
# Si number density = 20.832967 Si / 1000 Ang^3
#
#
#
# Elastic Constant Matrix: (Units=GPa)
#
#
# Indices 1 2 3 4 5 6 
#
# 1 106.5589 41.4493 36.3198 0.0000 -7.9831 0.0000
# 2 41.4493 89.3006 35.7305 0.0000 -4.1598 0.0000
# 3 36.3198 35.7305 95.8224 0.0000 -2.1589 0.0000
# 4 0.0000 0.0000 0.0000 26.2374 0.0000 0.0671
# 5 -7.9831 -4.1598 -2.1589 0.0000 21.8806 0.0000
# 6 0.0000 0.0000 0.0000 0.0671 0.0000 40.6067
#
#
#
# Elastic Compliance Matrix: (Units=1/GPa)
#
#
# Indices 1 2 3 4 5 6 
#
# 1 0.012358 -0.004390 -0.002971 0.000000 0.003381 0.000000
# 2 -0.004390 0.014811 -0.003840 0.000000 0.000835 0.000000
# 3 -0.002971 -0.003840 0.012982 0.000000 -0.000533 0.000000
# 4 0.000000 0.000000 0.000000 0.038114 0.000000 -0.000063
# 5 0.003381 0.000835 -0.000533 0.000000 0.047042 0.000000
# 6 0.000000 0.000000 0.000000 -0.000063 0.000000 0.024627
#
#
# Mechanical properties :
#
#
# Convention : Reuss Voigt Hill
#
# Bulk Modulus (GPa) = 56.34049 57.63122 56.98585
# Shear Modulus (GPa) = 28.05020 29.62376 28.83698
#
# Velocity S-wave (km/s) = 3.67336 3.77499 3.72452
# Velocity P-wave (km/s) = 6.71521 6.83551 6.77563
#
# Compressibility (1/GPa) = 0.01774923
#
# Stress axis : x y z
#
# Youngs Moduli (GPa) = 80.91948 67.51719 77.02983
#
# Poissons Ratio (x) = 0.29638 0.22886
# Poissons Ratio (y) = 0.35522 0.29580
# Poissons Ratio (z) = 0.24041 0.25927
#
# Static dielectric constant tensor:
#      x y z
#    x 3.957610 0.000000 -0.177180 
#    y 0.000000 4.001180 0.000000 
#    z -0.177180 0.000000 3.412300 
# 
# 
# High freq. dielectric constant tensor:
#      x y z
#    x 1.819170 0.000000 -0.012710 
#    y 0.000000 1.826950 0.000000 
#    z -0.012710 0.000000 1.784510 
# 
# From -- ./inp_files/241537.got.cif
#   From: 2010.06.25/outbox.cif.g09.slc.cpg/sg12_121_cif.got.tgz:241537.got - 2010.06.28 00:19:55.
