data_PCOD8088776
_publ_section_title
;
Structure prediction by ZEFSAII (Michael W. Deem and Ramdas Pophale) SiO2 
 PCOD8088776
Probable space group: C 2/M
;
_chemical_formula_sum "Si O2"
_cell_formula_units_Z 52
_cell_length_a 20.965293
_cell_length_b 15.753462
_cell_length_c 12.767534
_cell_angle_alpha 90.000000
_cell_angle_beta 139.938481
_cell_angle_gamma 90.000000
_cell_volume 2713.979620
_symmetry_space_group_name_H-M "C 2/M"
_symmetry_group_IT_number 12
_symmetry_cell_setting 'monoclinic'
loop_
_space_group_symop_operation_xyz
x,y,z
-x,y,-z
-x,-y,-z
x,-y,z
1/2+x,1/2+y,z
1/2-x,1/2+y,-z
1/2-x,1/2-y,-z
1/2+x,1/2-y,z
loop_
_atom_site_type_symbol
_atom_site_label
_atom_site_fract_x
_atom_site_fract_y
_atom_site_fract_z
Si Si1 0.000000 0.774029 0.000000
Si Si2 0.967282 0.234351 0.572834
Si Si3 0.162489 0.684170 0.885190
Si Si4 0.153757 0.905778 0.270369
Si Si5 0.816482 0.095911 0.459812
Si Si6 0.698893 0.840415 0.707713
Si Si7 0.326307 0.825773 0.876153
O O1 0.068647 0.834882 0.157040
O O2 0.065908 0.711280 0.013826
O O3 0.908085 0.157517 0.551497
O O4 0.902419 0.320980 0.481618
O O5 0.000000 0.201421 0.500000
O O6 0.062104 0.260072 0.759781
O O7 0.174270 0.625165 0.795139
O O8 0.250000 0.750000 0.000000
O O9 0.165541 0.630080 0.998078
O O10 0.211315 0.891589 0.452414
O O11 0.231722 0.902161 0.272208
O O12 0.105921 0.000000 0.206878
O O13 0.716534 0.111456 0.266397
O O14 0.852239 0.000000 0.483113
O O15 0.748581 0.749691 0.785453
#
# Coordination Sequence:
#
# PCOD8088776 Si02
#       7
#     4   8   8   8   8   8   8
#     4  10  19  32  55  82 102 130 172 216 257 298
#     4   9  17  31  53  77  99 130 174 216 253 298
#     4   9  16  30  51  75 101 127 168 217 255 294
#     4  10  20  34  52  77 108 136 167 211 259 303
#     4  10  21  35  50  74 109 142 170 205 252 307
#     4   8  17  31  50  73  97 132 173 213 253 296
#     4   9  18  31  50  75 103 135 171 208 250 304
#
# _framework density 19.160055
#
# number of rings (size 3 to 8) (size 9 to 14) (size 15 to 20)
#    0.000    2.769    0.000    2.077    0.000    7.077 
#    0.000    1.154    0.000    5.077    0.000    0.000 
#    0.000    0.000    0.000    0.000    0.000    0.000 
#
# Total GULP energy -322097.860075 kJ/mol
# GULP energy per Si atom -12388.379234 kJ/mol
# Density = 1.911645 g / cm^3
# Si number density = 19.160055 Si / 1000 Ang^3
#
#
#
# Elastic Constant Matrix: (Units=GPa)
#
#
# Indices 1 2 3 4 5 6 
#
# 1 105.6396 26.6403 62.3400 0.0000 -11.2912 0.0000
# 2 26.6403 36.6733 28.5871 0.0000 -6.0285 0.0000
# 3 62.3400 28.5871 129.4763 0.0000 -9.6488 0.0000
# 4 0.0000 0.0000 0.0000 19.1751 0.0000 -1.9859
# 5 -11.2912 -6.0285 -9.6488 0.0000 41.8634 0.0000
# 6 0.0000 0.0000 0.0000 -1.9859 0.0000 16.1625
#
#
#
# Elastic Compliance Matrix: (Units=1/GPa)
#
#
# Indices 1 2 3 4 5 6 
#
# 1 0.014378 -0.005871 -0.005495 0.000000 0.001766 0.000000
# 2 -0.005871 0.035739 -0.004882 0.000000 0.002438 0.000000
# 3 -0.005495 -0.004882 0.011481 0.000000 0.000461 0.000000
# 4 0.000000 0.000000 0.000000 0.052823 0.000000 0.006490
# 5 0.001766 0.002438 0.000461 0.000000 0.024821 0.000000
# 6 0.000000 0.000000 0.000000 0.006490 0.000000 0.062669
#
#
# Mechanical properties :
#
#
# Convention : Reuss Voigt Hill
#
# Bulk Modulus (GPa) = 34.36168 56.32488 45.34328
# Shear Modulus (GPa) = 20.48263 25.72165 23.10214
#
# Velocity S-wave (km/s) = 3.27315 3.66794 3.47615
# Velocity P-wave (km/s) = 5.67958 6.88471 6.31097
#
# Compressibility (1/GPa) = 0.02910219
#
# Stress axis : x y z
#
# Youngs Moduli (GPa) = 69.55028 27.98043 87.09715
#
# Poissons Ratio (x) = 0.16427 0.47859
# Poissons Ratio (y) = 0.40833 0.42525
# Poissons Ratio (z) = 0.38217 0.13661
#
# Static dielectric constant tensor:
#      x y z
#    x 3.922440 0.000000 -0.225170 
#    y 0.000000 2.999880 0.000000 
#    z -0.225170 0.000000 3.949260 
# 
# 
# High freq. dielectric constant tensor:
#      x y z
#    x 1.754530 0.000000 -0.010020 
#    y 0.000000 1.691450 0.000000 
#    z -0.010020 0.000000 1.758230 
# 
# From -- ./inp_files/168846.got.cif
#   From: 2010.06.25/outbox.cif.g09.slc.cpg/sg12_85_cif.got.tgz:168846.got - 2010.06.28 00:19:55.
