data_PCOD8088207
_publ_section_title
;
Structure prediction by ZEFSAII (Michael W. Deem and Ramdas Pophale) SiO2 
 PCOD8088207
Probable space group: C 2/M
;
_chemical_formula_sum "Si O2"
_cell_formula_units_Z 64
_cell_length_a 15.498727
_cell_length_b 17.183234
_cell_length_c 14.893392
_cell_angle_alpha 90.000000
_cell_angle_beta 60.921636
_cell_angle_gamma 90.000000
_cell_volume 3466.442713
_symmetry_space_group_name_H-M "C 2/M"
_symmetry_group_IT_number 12
_symmetry_cell_setting 'monoclinic'
loop_
_space_group_symop_operation_xyz
x,y,z
-x,y,-z
-x,-y,-z
x,-y,z
1/2+x,1/2+y,z
1/2-x,1/2+y,-z
1/2-x,1/2-y,-z
1/2+x,1/2-y,z
loop_
_atom_site_type_symbol
_atom_site_label
_atom_site_fract_x
_atom_site_fract_y
_atom_site_fract_z
Si Si1 0.020754 0.271770 0.752467
Si Si2 0.510493 0.669156 0.595803
Si Si3 0.695324 0.316931 0.745070
Si Si4 0.384101 0.590476 0.048332
Si Si5 0.674378 0.305178 0.083804
Si Si6 0.792645 0.838736 0.742309
Si Si7 0.704170 0.409391 0.558439
Si Si8 0.347743 0.089388 0.325800
O O1 0.092297 0.226600 0.783770
O O2 0.050272 0.362761 0.736324
O O3 0.035523 0.243801 0.643079
O O4 0.911660 0.253703 0.841082
O O5 0.500000 0.698040 0.500000
O O6 0.405194 0.631969 0.674678
O O7 0.597053 0.606501 0.568412
O O8 0.680844 0.371274 0.839333
O O9 0.779657 0.251600 0.717362
O O10 0.723503 0.365612 0.642248
O O11 0.356601 0.500000 0.061091
O O12 0.358873 0.626677 0.965037
O O13 0.500000 0.603843 0.000000
O O14 0.729003 0.344927 0.140750
O O15 0.750000 0.250000 0.000000
O O16 0.721266 0.896713 0.725643
O O17 0.711051 0.500000 0.575955
O O18 0.787804 0.383586 0.444822
O O19 0.378320 0.000000 0.315464
#
# Coordination Sequence:
#
# PCOD8088207 Si02
#       8
#     8   8   8   8   8   8   8   8
#     4   9  21  35  56  82 106 147 188 230 275 334
#     4  10  19  32  52  82 113 143 187 230 277 328
#     4  10  19  36  57  82 112 147 191 228 275 337
#     4  11  22  37  59  86 113 145 184 235 290 337
#     4  11  21  39  60  83 110 145 188 232 282 335
#     4  10  21  34  57  84 107 148 189 233 279 331
#     4  10  21  34  54  83 118 153 184 228 284 337
#     4  10  21  38  57  81 114 152 189 231 280 334
#
# _framework density 18.462731000000002
#
# number of rings (size 3 to 8) (size 9 to 14) (size 15 to 20)
#    0.000    1.875    3.750    0.375    1.750    2.750 
#    0.000    0.625    0.000    1.125    0.000    0.000 
#    0.000    0.000    0.000    0.000    0.000    0.000 
#
# Total GULP energy -396700.340424 kJ/mol
# GULP energy per Si atom -12396.885638 kJ/mol
# Density = 1.842071 g / cm^3
# Si number density = 18.462731 Si / 1000 Ang^3
#
#
#
# Elastic Constant Matrix: (Units=GPa)
#
#
# Indices 1 2 3 4 5 6 
#
# 1 57.4499 21.8289 25.2156 0.0000 22.0467 0.0000
# 2 21.8289 82.5273 37.5730 0.0000 8.0896 0.0000
# 3 25.2156 37.5730 100.9989 0.0000 20.2076 0.0000
# 4 0.0000 0.0000 0.0000 27.7179 0.0000 1.4350
# 5 22.0467 8.0896 20.2076 0.0000 37.5895 0.0000
# 6 0.0000 0.0000 0.0000 1.4350 0.0000 17.5890
#
#
#
# Elastic Compliance Matrix: (Units=1/GPa)
#
#
# Indices 1 2 3 4 5 6 
#
# 1 0.024764 -0.004393 -0.002052 0.000000 -0.012476 0.000000
# 2 -0.004393 0.015369 -0.005014 0.000000 0.001964 0.000000
# 3 -0.002052 -0.005014 0.013247 0.000000 -0.004839 0.000000
# 4 0.000000 0.000000 0.000000 0.036231 0.000000 -0.002956
# 5 -0.012476 0.001964 -0.004839 0.000000 0.036099 0.000000
# 6 0.000000 0.000000 0.000000 -0.002956 0.000000 0.057095
#
#
# Mechanical properties :
#
#
# Convention : Reuss Voigt Hill
#
# Bulk Modulus (GPa) = 32.82788 45.57901 39.20344
# Shear Modulus (GPa) = 23.16140 27.00321 25.08231
#
# Velocity S-wave (km/s) = 3.54573 3.82852 3.68983
# Velocity P-wave (km/s) = 5.88066 6.65462 6.27958
#
# Compressibility (1/GPa) = 0.03046192
#
# Stress axis : x y z
#
# Youngs Moduli (GPa) = 40.38123 65.06469 75.49001
#
# Poissons Ratio (x) = 0.28583 0.15493
# Poissons Ratio (y) = 0.17739 0.37850
# Poissons Ratio (z) = 0.08287 0.32623
#
# Static dielectric constant tensor:
#      x y z
#    x 3.447510 0.000000 0.010610 
#    y 0.000000 2.950260 0.000000 
#    z 0.010610 0.000000 3.471230 
# 
# 
# High freq. dielectric constant tensor:
#      x y z
#    x 1.719360 0.000000 0.014450 
#    y 0.000000 1.701140 0.000000 
#    z 0.014450 0.000000 1.721350 
# 
# From -- ./inp_files/216774.got.cif
#   From: 2010.06.25/outbox.cif.g09.slc.cpg/sg12_109_cif.got.tgz:216774.got - 2010.06.28 00:19:55.
