data_PCOD8088984
_publ_section_title
;
Structure prediction by ZEFSAII (Michael W. Deem and Ramdas Pophale) SiO2 
 PCOD8088984
Probable space group: C 2/M
;
_chemical_formula_sum "Si O2"
_cell_formula_units_Z 56
_cell_length_a 13.986628
_cell_length_b 18.037902
_cell_length_c 13.050363
_cell_angle_alpha 90.000000
_cell_angle_beta 51.521345
_cell_angle_gamma 90.000000
_cell_volume 2577.476150
_symmetry_space_group_name_H-M "C 2/M"
_symmetry_group_IT_number 12
_symmetry_cell_setting 'monoclinic'
loop_
_space_group_symop_operation_xyz
x,y,z
-x,y,-z
-x,-y,-z
x,-y,z
1/2+x,1/2+y,z
1/2-x,1/2+y,-z
1/2-x,1/2-y,-z
1/2+x,1/2-y,z
loop_
_atom_site_type_symbol
_atom_site_label
_atom_site_fract_x
_atom_site_fract_y
_atom_site_fract_z
Si Si1 0.666504 0.699751 0.482646
Si Si2 0.701150 0.585218 0.100299
Si Si3 0.641706 0.087614 0.607787
Si Si4 0.462647 0.586142 0.132273
Si Si5 0.700935 0.086217 0.348024
Si Si6 0.112549 0.640202 0.194071
Si Si7 0.613184 0.292276 0.290810
O O1 0.750000 0.750000 0.500000
O O2 0.731680 0.619421 0.430935
O O3 0.530354 0.687663 0.616384
O O4 0.656320 0.734320 0.374812
O O5 0.722418 0.500000 0.118782
O O6 0.567819 0.598551 0.143325
O O7 0.699040 0.638124 0.201027
O O8 0.802816 0.607800 0.950706
O O9 0.630016 0.115235 0.496171
O O10 0.527527 0.124136 0.743749
O O11 0.641737 0.000000 0.623447
O O12 0.437692 0.500000 0.127495
O O13 0.336427 0.623247 0.254748
O O14 0.500000 0.624468 0.000000
O O15 0.630634 0.097987 0.289382
O O16 0.716629 0.000000 0.357299
O O17 0.137959 0.727037 0.192593
#
# Coordination Sequence:
#
# PCOD8088984 Si02
#       7
#     8   8   8   8   8   8   8
#     4  11  23  47  69  95 133 174 219 279 336 396
#     4  11  23  41  63  93 135 178 223 277 330 397
#     4  11  23  38  64  96 130 172 222 276 334 397
#     4   9  16  31  54  85 121 164 210 261 325 379
#     4  10  19  32  57  94 128 166 216 273 334 391
#     4  12  22  39  62  94 135 171 218 275 340 395
#     4  11  26  42  70  97 127 177 227 272 335 402
#
# _framework density 21.726679000000001
#
# number of rings (size 3 to 8) (size 9 to 14) (size 15 to 20)
#    0.000    1.286    2.857    3.857    2.000    3.429 
#    0.000    2.143    0.000    1.714    0.000    0.000 
#    0.000    0.000    0.000    0.000    0.000    0.000 
#
# Total GULP energy -347141.680473 kJ/mol
# GULP energy per Si atom -12397.917160 kJ/mol
# Density = 2.167723 g / cm^3
# Si number density = 21.726679 Si / 1000 Ang^3
#
#
#
# Elastic Constant Matrix: (Units=GPa)
#
#
# Indices 1 2 3 4 5 6 
#
# 1 76.4782 23.3651 30.3747 0.0000 -10.8200 0.0000
# 2 23.3651 105.8461 45.4510 0.0000 -1.5553 0.0000
# 3 30.3747 45.4510 99.7496 0.0000 -19.6893 0.0000
# 4 0.0000 0.0000 0.0000 30.8891 0.0000 -1.7256
# 5 -10.8200 -1.5553 -19.6893 0.0000 30.9933 0.0000
# 6 0.0000 0.0000 0.0000 -1.7256 0.0000 34.6259
#
#
#
# Elastic Compliance Matrix: (Units=1/GPa)
#
#
# Indices 1 2 3 4 5 6 
#
# 1 0.015395 -0.002009 -0.003123 0.000000 0.003290 0.000000
# 2 -0.002009 0.012295 -0.005725 0.000000 -0.003721 0.000000
# 3 -0.003123 -0.005725 0.015222 0.000000 0.008292 0.000000
# 4 0.000000 0.000000 0.000000 0.032464 0.000000 0.001618
# 5 0.003290 -0.003721 0.008292 0.000000 0.038495 0.000000
# 6 0.000000 0.000000 0.000000 0.001618 0.000000 0.028961
#
#
# Mechanical properties :
#
#
# Convention : Reuss Voigt Hill
#
# Bulk Modulus (GPa) = 47.17593 53.38394 50.27994
# Shear Modulus (GPa) = 29.13565 31.49389 30.31477
#
# Velocity S-wave (km/s) = 3.66595 3.81142 3.73939
# Velocity P-wave (km/s) = 6.29916 6.63274 6.46810
#
# Compressibility (1/GPa) = 0.02119725
#
# Stress axis : x y z
#
# Youngs Moduli (GPa) = 64.95504 81.33531 65.69647
#
# Poissons Ratio (x) = 0.16340 0.20519
# Poissons Ratio (y) = 0.13049 0.37611
# Poissons Ratio (z) = 0.20287 0.46564
#
# Static dielectric constant tensor:
#      x y z
#    x 3.799690 0.000000 -0.139220 
#    y 0.000000 3.863270 0.000000 
#    z -0.139220 0.000000 4.078480 
# 
# 
# High freq. dielectric constant tensor:
#      x y z
#    x 1.835580 0.000000 -0.015830 
#    y 0.000000 1.845180 0.000000 
#    z -0.015830 0.000000 1.862470 
# 
# From -- ./inp_files/216315.got.cif
#   From: 2010.06.25/outbox.cif.g09.slc.cpg/sg12_109_cif.got.tgz:216315.got - 2010.06.28 00:19:55.
