data_PCOD8088937
_publ_section_title
;
Structure prediction by ZEFSAII (Michael W. Deem and Ramdas Pophale) SiO2 
 PCOD8088937
Probable space group: C 2/M
;
_chemical_formula_sum "Si O2"
_cell_formula_units_Z 56
_cell_length_a 9.435742
_cell_length_b 16.431223
_cell_length_c 31.636704
_cell_angle_alpha 90.000000
_cell_angle_beta 145.106532
_cell_angle_gamma 90.000000
_cell_volume 2805.905023
_symmetry_space_group_name_H-M "C 2/M"
_symmetry_group_IT_number 12
_symmetry_cell_setting 'monoclinic'
loop_
_space_group_symop_operation_xyz
x,y,z
-x,y,-z
-x,-y,-z
x,-y,z
1/2+x,1/2+y,z
1/2-x,1/2+y,-z
1/2-x,1/2-y,-z
1/2+x,1/2-y,z
loop_
_atom_site_type_symbol
_atom_site_label
_atom_site_fract_x
_atom_site_fract_y
_atom_site_fract_z
Si Si1 0.768556 0.187023 0.691954
Si Si2 0.669348 0.409223 0.212720
Si Si3 0.892656 0.155210 0.933749
Si Si4 0.764645 0.233101 0.551928
Si Si5 0.731922 0.318648 0.938073
Si Si6 0.422188 0.594879 0.645317
Si Si7 0.028883 0.641428 0.234136
O O1 0.803295 0.112444 0.731785
O O2 0.485118 0.215316 0.626415
O O3 0.828967 0.152128 0.660658
O O4 0.944270 0.262048 0.749510
O O5 0.573888 0.500000 0.186241
O O6 0.461018 0.355475 0.141063
O O7 0.932422 0.398319 0.253802
O O8 0.773974 0.228549 0.931318
O O9 0.668537 0.118784 0.851232
O O10 0.118738 0.179951 0.957810
O O11 0.000000 0.100042 0.000000
O O12 0.500000 0.267536 0.500000
O O13 0.750000 0.250000 0.500000
O O14 0.805749 0.137562 0.574847
O O15 0.000000 0.364600 0.000000
O O16 0.337514 0.500000 0.627727
O O17 0.718481 0.597994 0.716971
#
# Coordination Sequence:
#
# PCOD8088937 Si02
#       7
#     8   8   8   8   8   8   8
#     4  11  22  40  65  89 119 158 203 240 289 357
#     4  11  23  38  58  88 123 157 195 247 303 355
#     4  10  19  32  56  87 112 150 206 259 291 343
#     4  11  23  44  67  93 121 157 198 241 289 353
#     4  10  20  34  54  82 116 153 198 248 301 348
#     4  11  24  40  64  94 125 157 195 247 297 350
#     4  10  21  38  62  86 120 159 206 246 297 356
#
# _framework density 19.957910999999999
#
# number of rings (size 3 to 8) (size 9 to 14) (size 15 to 20)
#    0.000    1.429    2.857    4.286    4.000    1.714 
#    0.000    0.000    0.000   12.857    0.000    0.000 
#    0.000    0.571    0.000    0.000    0.000    0.000 
#
# Total GULP energy -346869.571908 kJ/mol
# GULP energy per Si atom -12388.198997 kJ/mol
# Density = 1.991249 g / cm^3
# Si number density = 19.957911 Si / 1000 Ang^3
#
#
#
# Elastic Constant Matrix: (Units=GPa)
#
#
# Indices 1 2 3 4 5 6 
#
# 1 109.2697 16.0706 38.6566 -0.0007 -4.4383 0.0008
# 2 16.0706 63.1903 17.2835 -0.0004 -10.1479 0.0005
# 3 38.6566 17.2835 97.2428 -0.0021 -7.3506 0.0011
# 4 -0.0007 -0.0004 -0.0021 -5.1297 -0.0007 -3.5266
# 5 -4.4383 -10.1479 -7.3506 -0.0007 43.3412 0.0005
# 6 0.0008 0.0005 0.0011 -3.5266 0.0005 -3.5798
#
#
#
# Elastic Compliance Matrix: (Units=1/GPa)
#
#
# Indices 1 2 3 4 5 6 
#
# 1 0.010811 -0.001648 -0.004002 -0.000001 0.000043 0.000002
# 2 -0.001648 0.017406 -0.002171 -0.000006 0.003539 0.000008
# 3 -0.004002 -0.002171 0.012349 -0.000020 0.001176 0.000022
# 4 -0.000001 -0.000006 -0.000020 -0.604041 -0.000021 0.595063
# 5 0.000043 0.003539 0.001176 -0.000021 0.024105 0.000024
# 6 0.000002 0.000008 0.000022 0.595063 0.000024 -0.865559
#
#
# Mechanical properties :
#
#
# Convention : Reuss Voigt Hill
#
# Bulk Modulus (GPa) = 40.12016 45.96935 43.04475
# Shear Modulus (GPa) = -3.62062 20.10581 8.24259
#
# Velocity S-wave (km/s) = -1.34836 3.17742 2.03444
# Velocity P-wave (km/s) = 4.20974 6.04520 5.20895
#
# Compressibility (1/GPa) = 0.02492512
#
# Stress axis : x y z
#
# Youngs Moduli (GPa) = 92.49420 57.44989 80.97760
#
# Poissons Ratio (x) = 0.09469 0.32405
# Poissons Ratio (y) = 0.15245 0.17581
# Poissons Ratio (z) = 0.37013 0.12473
#
# Static dielectric constant tensor:
#      x y z
#    x 3.886950 0.000000 -0.095010 
#    y 0.000000 3.503870 -0.000010 
#    z -0.095010 -0.000010 4.870560 
# 
# 
# High freq. dielectric constant tensor:
#      x y z
#    x 1.795440 0.000000 -0.000430 
#    y 0.000000 1.745310 0.000000 
#    z -0.000430 0.000000 1.795280 
# 
# From -- ./inp_files/372794.got.cif
#   From: 2010.06.25/outbox.cif.g09.slc.cpg/sg12_187_cif.got.tgz:372794.got - 2010.06.28 00:19:55.
