data_PCOD8088298
_publ_section_title
;
Structure prediction by ZEFSAII (Michael W. Deem and Ramdas Pophale) SiO2 
 PCOD8088298
Probable space group: C 2/M
;
_chemical_formula_sum "Si O2"
_cell_formula_units_Z 44
_cell_length_a 16.885366
_cell_length_b 26.443128
_cell_length_c 5.121201
_cell_angle_alpha 90.000000
_cell_angle_beta 94.724366
_cell_angle_gamma 90.000000
_cell_volume 2278.857025
_symmetry_space_group_name_H-M "C 2/M"
_symmetry_group_IT_number 12
_symmetry_cell_setting 'monoclinic'
loop_
_space_group_symop_operation_xyz
x,y,z
-x,y,-z
-x,-y,-z
x,-y,z
1/2+x,1/2+y,z
1/2-x,1/2+y,-z
1/2-x,1/2-y,-z
1/2+x,1/2-y,z
loop_
_atom_site_type_symbol
_atom_site_label
_atom_site_fract_x
_atom_site_fract_y
_atom_site_fract_z
Si Si1 0.906244 0.887278 0.465735
Si Si2 0.944125 0.610622 0.235564
Si Si3 0.946238 0.500000 0.234909
Si Si4 0.203169 0.195283 0.744986
Si Si5 0.094678 0.055925 0.032780
Si Si6 0.301827 0.811334 0.261531
O O1 0.875327 0.832442 0.377983
O O2 0.873034 0.906509 0.734237
O O3 0.000000 0.883761 0.500000
O O4 0.874383 0.926544 0.240241
O O5 0.900401 0.554510 0.218367
O O6 0.877297 0.653371 0.233320
O O7 0.000000 0.615580 0.500000
O O8 0.000000 0.619265 0.000000
O O9 0.000000 0.500000 0.500000
O O10 0.000000 0.500000 0.000000
O O11 0.271509 0.184465 0.549659
O O12 0.175449 0.252844 0.776023
O O13 0.234345 0.173983 0.030721
O O14 0.127695 0.000000 0.099580
O O15 0.000000 0.055661 0.000000
#
# Coordination Sequence:
#
# PCOD8088298 Si02
#       6
#     8   8   4   8   8   8
#     4  10  19  32  53  78 102 136 181 230 266 303
#     4  10  19  34  58  86 108 138 179 224 268 322
#     4   8  16  30  52  80 108 134 165 210 273 324
#     4  10  21  37  54  75 107 150 181 216 272 324
#     4   9  17  30  50  74 100 133 172 214 266 317
#     4  10  21  37  56  76 108 149 180 213 271 333
#
# _framework density 19.307926999999999
#
# number of rings (size 3 to 8) (size 9 to 14) (size 15 to 20)
#    0.000    2.364    0.000    2.727    0.000    2.909 
#    0.000    2.727   12.000    0.000    0.000    0.000 
#    0.000    0.000    0.000    0.000    0.000    0.000 
#
# Total GULP energy -272593.483206 kJ/mol
# GULP energy per Si atom -12390.612873 kJ/mol
# Density = 1.926398 g / cm^3
# Si number density = 19.307927 Si / 1000 Ang^3
#
#
#
# Elastic Constant Matrix: (Units=GPa)
#
#
# Indices 1 2 3 4 5 6 
#
# 1 44.1297 58.2643 28.8638 0.0000 -1.0966 0.0000
# 2 58.2643 139.4045 46.6375 0.0000 10.1309 0.0000
# 3 28.8638 46.6375 133.1401 0.0000 4.4393 0.0000
# 4 0.0000 0.0000 0.0000 32.5169 0.0000 -0.6041
# 5 -1.0966 10.1309 4.4393 0.0000 23.5328 0.0000
# 6 0.0000 0.0000 0.0000 -0.6041 0.0000 14.8702
#
#
#
# Elastic Compliance Matrix: (Units=1/GPa)
#
#
# Indices 1 2 3 4 5 6 
#
# 1 0.056356 -0.022984 -0.004613 0.000000 0.013391 0.000000
# 2 -0.022984 0.017712 -0.000938 0.000000 -0.008519 0.000000
# 3 -0.004613 -0.000938 0.008889 0.000000 -0.001488 0.000000
# 4 0.000000 0.000000 0.000000 0.030776 0.000000 0.001250
# 5 0.013391 -0.008519 -0.001488 0.000000 0.047066 0.000000
# 6 0.000000 0.000000 0.000000 0.001250 0.000000 0.067300
#
#
# Mechanical properties :
#
#
# Convention : Reuss Voigt Hill
#
# Bulk Modulus (GPa) = 38.62766 64.91172 51.76969
# Shear Modulus (GPa) = 17.01849 26.37789 21.69819
#
# Velocity S-wave (km/s) = 2.97210 3.70018 3.35595
# Velocity P-wave (km/s) = 5.64158 7.20745 6.47204
#
# Compressibility (1/GPa) = 0.02588818
#
# Stress axis : x y z
#
# Youngs Moduli (GPa) = 17.74434 56.45788 112.49840
#
# Poissons Ratio (x) = 1.29762 0.51896
# Poissons Ratio (y) = 0.40783 0.10548
# Poissons Ratio (z) = 0.08186 0.05294
#
# Static dielectric constant tensor:
#      x y z
#    x 2.971350 0.000000 -0.032410 
#    y 0.000000 3.908000 0.000000 
#    z -0.032410 0.000000 3.903580 
# 
# 
# High freq. dielectric constant tensor:
#      x y z
#    x 1.696960 0.000000 -0.005510 
#    y 0.000000 1.764740 0.000000 
#    z -0.005510 0.000000 1.781430 
# 
# From -- ./inp_files/12105.got.cif
#   From: 2010.06.25/outbox.cif.g09.slc.cpg/sg12_7_cif.got.tgz:12105.got - 2010.06.28 00:19:55.
