data_PCOD8088537
_publ_section_title
;
Structure prediction by ZEFSAII (Michael W. Deem and Ramdas Pophale) SiO2 
 PCOD8088537
Probable space group: C 2/M
;
_chemical_formula_sum "Si O2"
_cell_formula_units_Z 64
_cell_length_a 16.222611
_cell_length_b 19.689723
_cell_length_c 17.365576
_cell_angle_alpha 90.000000
_cell_angle_beta 143.869729
_cell_angle_gamma 90.000000
_cell_volume 3270.574809
_symmetry_space_group_name_H-M "C 2/M"
_symmetry_group_IT_number 12
_symmetry_cell_setting 'monoclinic'
loop_
_space_group_symop_operation_xyz
x,y,z
-x,y,-z
-x,-y,-z
x,-y,z
1/2+x,1/2+y,z
1/2-x,1/2+y,-z
1/2-x,1/2-y,-z
1/2+x,1/2-y,z
loop_
_atom_site_type_symbol
_atom_site_label
_atom_site_fract_x
_atom_site_fract_y
_atom_site_fract_z
Si Si1 0.124540 0.921696 0.287162
Si Si2 0.128207 0.817930 0.158853
Si Si3 0.420223 0.344355 0.371058
Si Si4 0.551155 0.808714 0.620871
Si Si5 0.798651 0.327159 0.534348
Si Si6 0.871950 0.924663 0.194663
Si Si7 0.939567 0.422975 0.039480
Si Si8 0.849070 0.676840 0.745573
O O1 0.128676 0.888366 0.206030
O O2 0.205420 0.877826 0.412568
O O3 0.959525 0.922564 0.182404
O O4 0.181166 0.000000 0.327260
O O5 0.282757 0.817343 0.235891
O O6 0.114036 0.756359 0.210474
O O7 0.000000 0.814910 0.000000
O O8 0.500000 0.382923 0.500000
O O9 0.486341 0.270190 0.413016
O O10 0.456543 0.381198 0.320043
O O11 0.255617 0.344765 0.265341
O O12 0.500000 0.841769 0.500000
O O13 0.456852 0.836578 0.619988
O O14 0.750000 0.250000 0.500000
O O15 0.787919 0.343560 0.616530
O O16 0.858088 0.000000 0.218232
O O17 0.717356 0.895749 0.068869
O O18 0.955770 0.500000 0.082770
O O19 0.015495 0.369344 0.150007
O O20 0.000000 0.417476 0.000000
#
# Coordination Sequence:
#
# PCOD8088537 Si02
#       8
#     8   8   8   8   8   8   8   8
#     4  11  24  43  65  93 127 166 216 270 321 379
#     4  11  24  42  64  95 130 169 216 269 318 378
#     4  10  19  32  53  86 119 158 198 250 305 377
#     4  10  20  39  63  89 122 162 212 261 320 377
#     4  12  21  41  66  92 124 164 206 263 325 370
#     4  10  21  36  57  83 122 168 204 246 315 382
#     4  10  20  37  56  80 124 172 202 240 302 370
#     4  11  22  35  61  93 127 156 208 259 308 378
#
# _framework density 19.568425000000001
#
# number of rings (size 3 to 8) (size 9 to 14) (size 15 to 20)
#    0.000    1.375    3.750    3.375    1.750    2.000 
#    0.000    2.500    0.000    0.000    0.000    0.000 
#    0.000    0.000    0.000    0.000    0.000    0.000 
#
# Total GULP energy -396453.272677 kJ/mol
# GULP energy per Si atom -12389.164771 kJ/mol
# Density = 1.952389 g / cm^3
# Si number density = 19.568425 Si / 1000 Ang^3
#
#
#
# Elastic Constant Matrix: (Units=GPa)
#
#
# Indices 1 2 3 4 5 6 
#
# 1 79.8986 15.7458 19.8404 0.0004 8.9661 -0.0002
# 2 15.7458 81.4488 35.5251 -0.0054 -3.6506 -0.0051
# 3 19.8404 35.5251 93.9126 -0.0062 6.6021 -0.0057
# 4 0.0004 -0.0054 -0.0062 28.7116 -0.0026 -1.3910
# 5 8.9661 -3.6506 6.6021 -0.0026 35.2651 -0.0039
# 6 -0.0002 -0.0051 -0.0057 -1.3910 -0.0039 24.7226
#
#
#
# Elastic Compliance Matrix: (Units=1/GPa)
#
#
# Indices 1 2 3 4 5 6 
#
# 1 0.013757 -0.001969 -0.001927 -0.000001 -0.003341 -0.000001
# 2 -0.001969 0.015224 -0.005562 0.000002 0.003118 0.000002
# 3 -0.001927 -0.005562 0.013341 0.000002 -0.002584 0.000002
# 4 -0.000001 0.000002 0.000002 0.034924 0.000003 0.001965
# 5 -0.003341 0.003118 -0.002584 0.000003 0.030013 0.000005
# 6 -0.000001 0.000002 0.000002 0.001965 0.000005 0.040559
#
#
# Mechanical properties :
#
#
# Convention : Reuss Voigt Hill
#
# Bulk Modulus (GPa) = 42.72311 44.16476 43.44394
# Shear Modulus (GPa) = 28.64733 30.01642 29.33187
#
# Velocity S-wave (km/s) = 3.83032 3.92078 3.87581
# Velocity P-wave (km/s) = 6.43754 6.56621 6.50219
#
# Compressibility (1/GPa) = 0.02340654
#
# Stress axis : x y z
#
# Youngs Moduli (GPa) = 72.68890 65.68552 74.95735
#
# Poissons Ratio (x) = 0.12933 0.14442
# Poissons Ratio (y) = 0.14312 0.41692
# Poissons Ratio (z) = 0.14005 0.36535
#
# Static dielectric constant tensor:
#      x y z
#    x 3.711790 0.000000 -0.007030 
#    y 0.000000 3.528320 -0.000010 
#    z -0.007030 -0.000010 3.854060 
# 
# 
# High freq. dielectric constant tensor:
#      x y z
#    x 1.763250 0.000000 0.016470 
#    y 0.000000 1.746660 0.000000 
#    z 0.016470 0.000000 1.758820 
# 
# From -- ./inp_files/271735.got.cif
#   From: 2010.06.25/outbox.cif.g09.slc.cpg/sg12_136_cif.got.tgz:271735.got - 2010.06.28 00:19:55.
