data_PCOD8088424
_publ_section_title
;
Structure prediction by ZEFSAII (Michael W. Deem and Ramdas Pophale) SiO2 
 PCOD8088424
Probable space group: C 2/M
;
_chemical_formula_sum "Si O2"
_cell_formula_units_Z 56
_cell_length_a 20.832819
_cell_length_b 17.234189
_cell_length_c 9.531582
_cell_angle_alpha 90.000000
_cell_angle_beta 55.613517
_cell_angle_gamma 90.000000
_cell_volume 2824.149666
_symmetry_space_group_name_H-M "C 2/M"
_symmetry_group_IT_number 12
_symmetry_cell_setting 'monoclinic'
loop_
_space_group_symop_operation_xyz
x,y,z
-x,y,-z
-x,-y,-z
x,-y,z
1/2+x,1/2+y,z
1/2-x,1/2+y,-z
1/2-x,1/2-y,-z
1/2+x,1/2-y,z
loop_
_atom_site_type_symbol
_atom_site_label
_atom_site_fract_x
_atom_site_fract_y
_atom_site_fract_z
Si Si1 0.760924 0.091558 0.688644
Si Si2 0.676816 0.586950 0.930949
Si Si3 0.509373 0.410310 0.152419
Si Si4 0.785676 0.592379 0.558556
Si Si5 0.085872 0.660080 0.413985
Si Si6 0.927341 0.160578 0.499424
Si Si7 0.820648 0.412688 0.940459
O O1 0.732381 0.125233 0.573906
O O2 0.843761 0.124158 0.637040
O O3 0.770372 0.000000 0.667866
O O4 0.691293 0.113723 0.883398
O O5 0.654264 0.500000 0.910300
O O6 0.719373 0.626889 0.744708
O O7 0.732781 0.586670 0.993858
O O8 0.595485 0.625018 0.078879
O O9 0.497762 0.500000 0.212817
O O10 0.447081 0.357942 0.312492
O O11 0.500000 0.398991 0.000000
O O12 0.785147 0.500000 0.563307
O O13 0.869842 0.618104 0.512729
O O14 0.080382 0.749270 0.460352
O O15 0.128182 0.647499 0.211453
O O16 0.000000 0.624324 0.500000
O O17 0.000000 0.125289 0.500000
O O18 0.856056 0.500000 0.884511
#
# Coordination Sequence:
#
# PCOD8088424 Si02
#       7
#     8   8   8   8   8   8   8
#     4  10  20  35  56  84 112 137 177 230 278 326
#     4   8  14  27  49  76 103 134 174 214 256 312
#     4  10  19  32  53  80 110 146 184 221 264 314
#     4   9  18  35  60  85 107 137 182 234 279 320
#     4  10  22  39  55  77 108 144 188 227 271 331
#     4  11  23  36  52  80 119 156 185 216 261 322
#     4   9  18  34  57  79 100 134 181 231 278 323
#
# _framework density 19.828976000000001
#
# number of rings (size 3 to 8) (size 9 to 14) (size 15 to 20)
#    0.000    2.429    0.000    3.429    0.000    6.857 
#    0.000    5.000    0.000    2.571    0.000    0.000 
#    0.000    0.000    0.000    0.000    0.000    0.000 
#
# Total GULP energy -346986.228465 kJ/mol
# GULP energy per Si atom -12392.365302 kJ/mol
# Density = 1.978384 g / cm^3
# Si number density = 19.828976 Si / 1000 Ang^3
#
#
#
# Elastic Constant Matrix: (Units=GPa)
#
#
# Indices 1 2 3 4 5 6 
#
# 1 83.8520 17.6438 33.8321 0.0000 -8.7699 0.0000
# 2 17.6438 49.2760 47.5148 0.0000 -4.5576 0.0000
# 3 33.8321 47.5148 127.8179 0.0000 2.2360 0.0000
# 4 0.0000 0.0000 0.0000 22.1130 0.0000 -4.0461
# 5 -8.7699 -4.5576 2.2360 0.0000 35.0269 0.0000
# 6 0.0000 0.0000 0.0000 -4.0461 0.0000 23.3722
#
#
#
# Elastic Compliance Matrix: (Units=1/GPa)
#
#
# Indices 1 2 3 4 5 6 
#
# 1 0.013896 -0.001636 -0.003130 0.000000 0.003466 0.000000
# 2 -0.001636 0.032678 -0.011795 0.000000 0.004595 0.000000
# 3 -0.003130 -0.011795 0.013092 0.000000 -0.003154 0.000000
# 4 0.000000 0.000000 0.000000 0.046702 0.000000 0.008085
# 5 0.003466 0.004595 -0.003154 0.000000 0.030217 0.000000
# 6 0.000000 0.000000 0.000000 0.008085 0.000000 0.044185
#
#
# Mechanical properties :
#
#
# Convention : Reuss Voigt Hill
#
# Bulk Modulus (GPa) = 37.67563 50.99192 44.33377
# Shear Modulus (GPa) = 22.44765 26.89944 24.67354
#
# Velocity S-wave (km/s) = 3.36826 3.68716 3.53132
# Velocity P-wave (km/s) = 5.84538 6.62560 6.24768
#
# Compressibility (1/GPa) = 0.02654236
#
# Stress axis : x y z
#
# Youngs Moduli (GPa) = 71.96512 30.60139 76.38226
#
# Poissons Ratio (x) = 0.05008 0.23910
# Poissons Ratio (y) = 0.11777 0.90093
# Poissons Ratio (z) = 0.22528 0.36094
#
# Static dielectric constant tensor:
#      x y z
#    x 3.826440 0.000000 0.019990 
#    y 0.000000 3.214350 0.000000 
#    z 0.019990 0.000000 3.796540 
# 
# 
# High freq. dielectric constant tensor:
#      x y z
#    x 1.772630 0.000000 0.001600 
#    y 0.000000 1.732370 0.000000 
#    z 0.001600 0.000000 1.784690 
# 
# From -- ./inp_files/98039.got.cif
#   From: 2010.06.25/outbox.cif.g09.slc.cpg/sg12_50_cif.got.tgz:98039.got - 2010.06.28 00:19:55.
