data_PCOD8088250
_publ_section_title
;
Structure prediction by ZEFSAII (Michael W. Deem and Ramdas Pophale) SiO2 
 PCOD8088250
Probable space group: C 2/M
;
_chemical_formula_sum "Si O2"
_cell_formula_units_Z 56
_cell_length_a 14.414599
_cell_length_b 9.423747
_cell_length_c 25.029161
_cell_angle_alpha 90.000000
_cell_angle_beta 58.187300
_cell_angle_gamma 90.000000
_cell_volume 2889.195099
_symmetry_space_group_name_H-M "C 2/M"
_symmetry_group_IT_number 12
_symmetry_cell_setting 'monoclinic'
loop_
_space_group_symop_operation_xyz
x,y,z
-x,y,-z
-x,-y,-z
x,-y,z
1/2+x,1/2+y,z
1/2-x,1/2+y,-z
1/2-x,1/2-y,-z
1/2+x,1/2-y,z
loop_
_atom_site_type_symbol
_atom_site_label
_atom_site_fract_x
_atom_site_fract_y
_atom_site_fract_z
Si Si1 0.174393 0.834991 0.092149
Si Si2 0.944754 0.161152 0.671354
Si Si3 0.584245 0.160305 0.551140
Si Si4 0.213482 0.660804 0.702254
Si Si5 0.791430 0.840028 0.564401
Si Si6 0.492061 0.332957 0.230171
Si Si7 0.114595 0.834696 0.990451
O O1 0.116437 0.802889 0.053133
O O2 0.091434 0.783249 0.162894
O O3 0.203188 0.000000 0.089003
O O4 0.286228 0.749596 0.066904
O O5 0.813773 0.168078 0.712887
O O6 0.987474 0.258739 0.610641
O O7 0.985906 0.216165 0.715936
O O8 0.984827 0.000000 0.648723
O O9 0.690139 0.161672 0.555648
O O10 0.612017 0.239703 0.487130
O O11 0.546922 0.000000 0.549807
O O12 0.170615 0.500000 0.708489
O O13 0.252647 0.720833 0.633019
O O14 0.117745 0.756173 0.755883
O O15 0.837462 0.000000 0.557096
O O16 0.474625 0.500000 0.230444
O O17 0.132037 0.000000 0.972885
O O18 0.000000 0.782135 0.000000
#
# Coordination Sequence:
#
# PCOD8088250 Si02
#       7
#     8   8   8   8   8   8   8
#     4   9  19  35  54  79 111 143 176 213 258 306
#     4  10  21  36  54  75 103 138 174 213 265 319
#     4  10  19  32  53  77 100 130 172 218 265 316
#     4  10  21  37  55  76 102 137 178 217 259 316
#     4   9  18  33  52  73  99 132 170 214 267 318
#     4  10  21  37  55  77 108 142 174 216 262 305
#     4   9  18  34  56  82 111 142 177 215 254 300
#
# _framework density 19.382562
#
# number of rings (size 3 to 8) (size 9 to 14) (size 15 to 20)
#    0.000    2.429    1.429    0.429    0.000    4.286 
#    0.000    2.857    0.000    0.000    0.000    0.000 
#    0.000    0.000    0.000    0.000    0.000    0.000 
#
# Total GULP energy -347264.450063 kJ/mol
# GULP energy per Si atom -12402.301788 kJ/mol
# Density = 1.933845 g / cm^3
# Si number density = 19.382562 Si / 1000 Ang^3
#
#
#
# Elastic Constant Matrix: (Units=GPa)
#
#
# Indices 1 2 3 4 5 6 
#
# 1 85.0204 39.9675 35.7282 0.0000 -21.6013 0.0000
# 2 39.9675 77.6201 52.0831 0.0000 -21.2333 0.0000
# 3 35.7282 52.0831 103.1351 0.0000 -29.4297 0.0000
# 4 0.0000 0.0000 0.0000 30.2117 0.0000 -10.1196
# 5 -21.6013 -21.2333 -29.4297 0.0000 24.5619 0.0000
# 6 0.0000 0.0000 0.0000 -10.1196 0.0000 29.0086
#
#
#
# Elastic Compliance Matrix: (Units=1/GPa)
#
#
# Indices 1 2 3 4 5 6 
#
# 1 0.017132 -0.006118 -0.000084 0.000000 0.009678 0.000000
# 2 -0.006118 0.022674 -0.008012 0.000000 0.004620 0.000000
# 3 -0.000084 -0.008012 0.017891 0.000000 0.014436 0.000000
# 4 0.000000 0.000000 0.000000 0.037479 0.000000 0.013075
# 5 0.009678 0.004620 0.014436 0.000000 0.070516 0.000000
# 6 0.000000 0.000000 0.000000 0.013075 0.000000 0.039034
#
#
# Mechanical properties :
#
#
# Convention : Reuss Voigt Hill
#
# Bulk Modulus (GPa) = 34.16701 57.92592 46.04646
# Shear Modulus (GPa) = 20.58388 25.95624 23.27006
#
# Velocity S-wave (km/s) = 3.26234 3.66342 3.46868
# Velocity P-wave (km/s) = 5.64415 6.91698 6.31273
#
# Compressibility (1/GPa) = 0.02926800
#
# Stress axis : x y z
#
# Youngs Moduli (GPa) = 58.37075 44.10415 55.89509
#
# Poissons Ratio (x) = 0.26982 0.00469
# Poissons Ratio (y) = 0.35710 0.44786
# Poissons Ratio (z) = 0.00489 0.35338
#
# Static dielectric constant tensor:
#      x y z
#    x 3.457760 0.000000 0.019310 
#    y 0.000000 3.537630 0.000000 
#    z 0.019310 0.000000 3.483540 
# 
# 
# High freq. dielectric constant tensor:
#      x y z
#    x 1.754670 0.000000 -0.001110 
#    y 0.000000 1.747470 0.000000 
#    z -0.001110 0.000000 1.745850 
# 
# From -- ./inp_files/338494.got.cif
#   From: 2010.06.25/outbox.cif.g09.slc.cpg/sg12_170_cif.got.tgz:338494.got - 2010.06.28 00:19:55.
