data_PCOD8088297
_publ_section_title
;
Structure prediction by ZEFSAII (Michael W. Deem and Ramdas Pophale) SiO2 
 PCOD8088297
Probable space group: C 2/M
;
_chemical_formula_sum "Si O2"
_cell_formula_units_Z 56
_cell_length_a 19.316105
_cell_length_b 9.136810
_cell_length_c 26.712321
_cell_angle_alpha 90.000000
_cell_angle_beta 140.679291
_cell_angle_gamma 90.000000
_cell_volume 2987.324711
_symmetry_space_group_name_H-M "C 2/M"
_symmetry_group_IT_number 12
_symmetry_cell_setting 'monoclinic'
loop_
_space_group_symop_operation_xyz
x,y,z
-x,y,-z
-x,-y,-z
x,-y,z
1/2+x,1/2+y,z
1/2-x,1/2+y,-z
1/2-x,1/2-y,-z
1/2+x,1/2-y,z
loop_
_atom_site_type_symbol
_atom_site_label
_atom_site_fract_x
_atom_site_fract_y
_atom_site_fract_z
Si Si1 0.586641 0.173297 0.186861
Si Si2 0.307034 0.826949 0.485995
Si Si3 0.490159 0.669088 0.436329
Si Si4 0.853545 0.326634 0.081239
Si Si5 0.146250 0.330717 0.329689
Si Si6 0.799238 0.170139 0.255490
Si Si7 0.906238 0.667792 0.223154
O O1 0.460666 0.223609 0.108555
O O2 0.622684 0.226875 0.261363
O O3 0.675536 0.231438 0.196257
O O4 0.590020 0.000000 0.189045
O O5 0.250000 0.750000 0.500000
O O6 0.430972 0.772828 0.551531
O O7 0.241996 0.775743 0.400762
O O8 0.304163 0.000000 0.491285
O O9 0.500000 0.714435 0.500000
O O10 0.524797 0.500000 0.449107
O O11 0.370211 0.697147 0.345753
O O12 0.839214 0.500000 0.070045
O O13 0.867257 0.277365 0.146632
O O14 0.750000 0.250000 0.000000
O O15 0.185698 0.500000 0.353155
O O16 0.036822 0.312334 0.301808
O O17 0.846460 0.244639 0.232942
O O18 0.795666 0.000000 0.240914
O O19 0.873558 0.500000 0.211474
#
# Coordination Sequence:
#
# PCOD8088297 Si02
#       7
#     8   8   8   8   8   8   8
#     4   8  16  33  56  78 100 131 169 206 249 303
#     4  12  24  35  49  72 103 137 177 224 270 314
#     4  10  21  37  56  77 104 140 180 223 272 320
#     4   9  18  35  58  81 105 133 167 205 248 302
#     4   9  17  34  56  72  93 131 177 219 260 308
#     4  10  19  32  53  78 102 133 175 216 253 304
#     4   9  19  34  53  77 105 137 168 208 264 312
#
# _framework density 18.745868999999999
#
# number of rings (size 3 to 8) (size 9 to 14) (size 15 to 20)
#    0.000    2.429    0.000    4.714    0.000    6.571 
#    0.000    5.714    0.000    4.286    0.000    0.000 
#    0.000    0.000    0.000    0.000    0.000    0.000 
#
# Total GULP energy -347042.694014 kJ/mol
# GULP energy per Si atom -12394.381929 kJ/mol
# Density = 1.870320 g / cm^3
# Si number density = 18.745869 Si / 1000 Ang^3
#
#
#
# Elastic Constant Matrix: (Units=GPa)
#
#
# Indices 1 2 3 4 5 6 
#
# 1 112.4959 37.8070 28.1985 0.0000 16.3901 0.0000
# 2 37.8070 66.2512 26.0493 0.0000 8.5089 0.0001
# 3 28.1985 26.0493 80.1271 0.0000 16.4792 0.0000
# 4 0.0000 0.0000 0.0000 30.4020 0.0000 1.2470
# 5 16.3901 8.5089 16.4792 0.0000 26.8219 0.0000
# 6 0.0000 0.0001 0.0000 1.2470 0.0000 29.9019
#
#
#
# Elastic Compliance Matrix: (Units=1/GPa)
#
#
# Indices 1 2 3 4 5 6 
#
# 1 0.011782 -0.005590 -0.001388 0.000000 -0.004573 0.000000
# 2 -0.005590 0.020087 -0.004527 0.000000 -0.000175 0.000000
# 3 -0.001388 -0.004527 0.015991 0.000000 -0.007540 0.000000
# 4 0.000000 0.000000 0.000000 0.032949 0.000000 -0.001374
# 5 -0.004573 -0.000175 -0.007540 0.000000 0.044766 0.000000
# 6 0.000000 0.000000 0.000000 -0.001374 0.000000 0.033500
#
#
# Mechanical properties :
#
#
# Convention : Reuss Voigt Hill
#
# Bulk Modulus (GPa) = 40.24331 49.22042 44.73186
# Shear Modulus (GPa) = 26.26472 28.54644 27.40558
#
# Velocity S-wave (km/s) = 3.74718 3.90656 3.82770
# Velocity P-wave (km/s) = 6.34320 6.83095 6.59159
#
# Compressibility (1/GPa) = 0.02484885
#
# Stress axis : x y z
#
# Youngs Moduli (GPa) = 84.87262 49.78426 62.53424
#
# Poissons Ratio (x) = 0.27832 0.08683
# Poissons Ratio (y) = 0.47448 0.28308
# Poissons Ratio (z) = 0.11784 0.22536
#
# Static dielectric constant tensor:
#      x y z
#    x 3.631350 0.000000 0.218380 
#    y 0.000000 3.213070 0.000000 
#    z 0.218380 0.000000 3.557340 
# 
# 
# High freq. dielectric constant tensor:
#      x y z
#    x 1.736250 0.000000 0.011320 
#    y 0.000000 1.701240 0.000000 
#    z 0.011320 0.000000 1.720550 
# 
# From -- ./inp_files/363157.got.cif
#   From: 2010.06.25/outbox.cif.g09.slc.cpg/sg12_182_cif.got.tgz:363157.got - 2010.06.28 00:19:55.
