data_PCOD8088302
_publ_section_title
;
Structure prediction by ZEFSAII (Michael W. Deem and Ramdas Pophale) SiO2 
 PCOD8088302
Probable space group: C 2/M
;
_chemical_formula_sum "Si O2"
_cell_formula_units_Z 64
_cell_length_a 18.504012
_cell_length_b 8.880730
_cell_length_c 34.252034
_cell_angle_alpha 90.000000
_cell_angle_beta 143.260246
_cell_angle_gamma 90.000000
_cell_volume 3366.927545
_symmetry_space_group_name_H-M "C 2/M"
_symmetry_group_IT_number 12
_symmetry_cell_setting 'monoclinic'
loop_
_space_group_symop_operation_xyz
x,y,z
-x,y,-z
-x,-y,-z
x,-y,z
1/2+x,1/2+y,z
1/2-x,1/2+y,-z
1/2-x,1/2-y,-z
1/2+x,1/2-y,z
loop_
_atom_site_type_symbol
_atom_site_label
_atom_site_fract_x
_atom_site_fract_y
_atom_site_fract_z
Si Si1 0.358475 0.823023 0.122913
Si Si2 0.004149 0.178496 0.118271
Si Si3 0.577374 0.824313 0.496487
Si Si4 0.580058 0.176411 0.268283
Si Si5 0.413615 0.321408 0.995668
Si Si6 0.528561 0.824144 0.632802
Si Si7 0.781381 0.321479 0.747338
Si Si8 0.835456 0.678529 0.612597
O O1 0.404812 0.730909 0.106076
O O2 0.441820 0.785041 0.196637
O O3 0.222811 0.769451 0.072831
O O4 0.366575 0.000000 0.116338
O O5 0.134535 0.251480 0.182720
O O6 0.017440 0.000000 0.125288
O O7 0.958106 0.238182 0.056637
O O8 0.500000 0.767042 0.500000
O O9 0.502309 0.786955 0.425228
O O10 0.702029 0.737250 0.547748
O O11 0.606440 0.000000 0.512759
O O12 0.670765 0.237769 0.274096
O O13 0.612284 0.248127 0.324222
O O14 0.598445 0.000000 0.279706
O O15 0.420658 0.500000 0.998006
O O16 0.500000 0.251240 0.000000
O O17 0.646030 0.731997 0.695921
O O18 0.420037 0.768248 0.613604
O O19 0.554543 0.000000 0.650193
O O20 0.789899 0.500000 0.753711
O O21 0.830461 0.500000 0.612007
#
# Coordination Sequence:
#
# PCOD8088302 Si02
#       8
#     8   8   8   8   8   8   8   8
#     4   9  17  32  53  74 100 133 170 211 252 300
#     4  10  19  32  53  78 103 132 169 213 256 299
#     4  10  21  36  53  75 105 138 169 206 255 304
#     4   8  16  31  51  74  97 127 169 213 250 288
#     4   9  18  31  50  77 104 134 173 213 253 298
#     4  10  21  35  52  77 106 134 167 210 256 299
#     4  10  20  35  55  76 100 133 171 208 251 304
#     4  10  20  34  53  77 103 132 170 211 250 297
#
# _framework density 19.008427000000001
#
# number of rings (size 3 to 8) (size 9 to 14) (size 15 to 20)
#    0.000    2.500    0.000    3.000    0.000    2.250 
#    0.000    6.875    0.000    6.375    0.000    0.000 
#    0.000    0.000    0.000    0.000    0.000    0.000 
#
# Total GULP energy -396802.462170 kJ/mol
# GULP energy per Si atom -12400.076943 kJ/mol
# Density = 1.896516 g / cm^3
# Si number density = 19.008427 Si / 1000 Ang^3
#
#
#
# Elastic Constant Matrix: (Units=GPa)
#
#
# Indices 1 2 3 4 5 6 
#
# 1 108.7493 24.3044 45.3918 0.0000 24.6912 0.0000
# 2 24.3044 36.9716 27.0467 0.0000 7.4630 0.0000
# 3 45.3918 27.0467 95.1626 0.0000 23.6530 0.0000
# 4 0.0000 0.0000 0.0000 25.6423 0.0000 5.1958
# 5 24.6912 7.4630 23.6530 0.0000 33.9617 0.0000
# 6 0.0000 0.0000 0.0000 5.1958 0.0000 22.2602
#
#
#
# Elastic Compliance Matrix: (Units=1/GPa)
#
#
# Indices 1 2 3 4 5 6 
#
# 1 0.013068 -0.004934 -0.003312 0.000000 -0.006110 0.000000
# 2 -0.004934 0.036034 -0.008237 0.000000 0.001406 0.000000
# 3 -0.003312 -0.008237 0.016182 0.000000 -0.007052 0.000000
# 4 0.000000 0.000000 0.000000 0.040934 0.000000 -0.009554
# 5 -0.006110 0.001406 -0.007052 0.000000 0.038489 0.000000
# 6 0.000000 0.000000 0.000000 -0.009554 0.000000 0.047153
#
#
# Mechanical properties :
#
#
# Convention : Reuss Voigt Hill
#
# Bulk Modulus (GPa) = 30.94414 48.26324 39.60369
# Shear Modulus (GPa) = 21.22242 25.98222 23.60232
#
# Velocity S-wave (km/s) = 3.34499 3.70114 3.52757
# Velocity P-wave (km/s) = 5.58866 6.61137 6.12141
#
# Compressibility (1/GPa) = 0.03231630
#
# Stress axis : x y z
#
# Youngs Moduli (GPa) = 76.52313 27.75192 61.79609
#
# Poissons Ratio (x) = 0.13693 0.20469
# Poissons Ratio (y) = 0.37758 0.50903
# Poissons Ratio (z) = 0.25347 0.22860
#
# Static dielectric constant tensor:
#      x y z
#    x 3.669790 0.000000 -0.115210 
#    y 0.000000 3.165620 0.000000 
#    z -0.115210 0.000000 3.690220 
# 
# 
# High freq. dielectric constant tensor:
#      x y z
#    x 1.740270 0.000000 0.002500 
#    y 0.000000 1.709190 0.000000 
#    z 0.002500 0.000000 1.754070 
# 
# From -- ./inp_files/378285.got.cif
#   From: 2010.06.25/outbox.cif.g09.slc.cpg/sg12_190_cif.got.tgz:378285.got - 2010.06.28 00:19:55.
