data_PCOD8088010
_publ_section_title
;
Structure prediction by ZEFSAII (Michael W. Deem and Ramdas Pophale) SiO2 
 PCOD8088010
Probable space group: C 2/M
;
_chemical_formula_sum "Si O2"
_cell_formula_units_Z 48
_cell_length_a 25.173620
_cell_length_b 8.815936
_cell_length_c 12.675790
_cell_angle_alpha 90.000000
_cell_angle_beta 109.441115
_cell_angle_gamma 90.000000
_cell_volume 2652.732680
_symmetry_space_group_name_H-M "C 2/M"
_symmetry_group_IT_number 12
_symmetry_cell_setting 'monoclinic'
loop_
_space_group_symop_operation_xyz
x,y,z
-x,y,-z
-x,-y,-z
x,-y,z
1/2+x,1/2+y,z
1/2-x,1/2+y,-z
1/2-x,1/2-y,-z
1/2+x,1/2-y,z
loop_
_atom_site_type_symbol
_atom_site_label
_atom_site_fract_x
_atom_site_fract_y
_atom_site_fract_z
Si Si1 0.807781 0.678615 0.500574
Si Si2 0.807754 0.679812 0.266351
Si Si3 0.114516 0.322759 0.258573
Si Si4 0.993305 0.678196 0.112945
Si Si5 0.874789 0.319473 0.112433
Si Si6 0.315387 0.320652 0.878444
O O1 0.798572 0.500000 0.493086
O O2 0.750000 0.750000 0.500000
O O3 0.823227 0.739374 0.393807
O O4 0.858423 0.725180 0.612046
O O5 0.806182 0.500000 0.265107
O O6 0.854594 0.737982 0.214340
O O7 0.746221 0.741042 0.193576
O O8 0.124288 0.500000 0.240240
O O9 0.141054 0.226223 0.182791
O O10 0.048059 0.284054 0.219615
O O11 0.984564 0.500000 0.095362
O O12 0.937690 0.745416 0.132902
O O13 0.000000 0.748831 0.000000
O O14 0.873125 0.500000 0.104665
O O15 0.831399 0.255722 0.998761
O O16 0.316543 0.500000 0.892702
#
# Coordination Sequence:
#
# PCOD8088010 Si02
#       6
#     8   8   8   8   8   8
#     4  10  19  33  52  74 101 129 165 203 241 292
#     4   9  19  33  49  73 103 132 160 203 252 292
#     4  10  19  32  52  76  98 129 169 203 241 294
#     4   9  16  29  50  74  97 125 168 209 237 284
#     4  10  19  34  53  70  99 137 166 198 250 298
#     4  11  20  31  49  75 106 128 159 208 251 293
#
# _framework density 18.094549000000001
#
# number of rings (size 3 to 8) (size 9 to 14) (size 15 to 20)
#    0.000    2.167    3.333    1.000    0.000    0.000 
#    0.000    4.167    0.000    5.000    0.000    0.000 
#    0.000    4.000    0.000    0.000    0.000    0.000 
#
# Total GULP energy -297551.039480 kJ/mol
# GULP energy per Si atom -12397.959978 kJ/mol
# Density = 1.805336 g / cm^3
# Si number density = 18.094549 Si / 1000 Ang^3
#
#
#
# Elastic Constant Matrix: (Units=GPa)
#
#
# Indices 1 2 3 4 5 6 
#
# 1 109.6948 10.0850 68.5112 0.0000 -6.6238 0.0000
# 2 10.0850 17.5000 16.3051 0.0000 -2.1377 0.0000
# 3 68.5112 16.3051 162.1284 0.0000 -6.9084 0.0000
# 4 0.0000 0.0000 0.0000 19.0227 0.0000 1.4954
# 5 -6.6238 -2.1377 -6.9084 0.0000 37.0917 0.0000
# 6 0.0000 0.0000 0.0000 1.4954 0.0000 18.4768
#
#
#
# Elastic Compliance Matrix: (Units=1/GPa)
#
#
# Indices 1 2 3 4 5 6 
#
# 1 0.012534 -0.002419 -0.005004 0.000000 0.001167 0.000000
# 2 -0.002419 0.063743 -0.005292 0.000000 0.002256 0.000000
# 3 -0.005004 -0.005292 0.008834 0.000000 0.000447 0.000000
# 4 0.000000 0.000000 0.000000 0.052905 0.000000 -0.004282
# 5 0.001167 0.002256 0.000447 0.000000 0.027382 0.000000
# 6 0.000000 0.000000 0.000000 -0.004282 0.000000 0.054468
#
#
# Mechanical properties :
#
#
# Convention : Reuss Voigt Hill
#
# Bulk Modulus (GPa) = 16.75560 53.23621 34.99591
# Shear Modulus (GPa) = 18.85442 27.87971 23.36707
#
# Velocity S-wave (km/s) = 3.23150 3.92953 3.59749
# Velocity P-wave (km/s) = 4.81701 7.07625 6.05297
#
# Compressibility (1/GPa) = 0.05968154
#
# Stress axis : x y z
#
# Youngs Moduli (GPa) = 79.78233 15.68794 113.20369
#
# Poissons Ratio (x) = 0.03794 0.56643
# Poissons Ratio (y) = 0.19297 0.59912
# Poissons Ratio (z) = 0.39920 0.08303
#
# Static dielectric constant tensor:
#      x y z
#    x 3.508030 0.000000 0.049230 
#    y 0.000000 3.020450 0.000000 
#    z 0.049230 0.000000 3.533990 
# 
# 
# High freq. dielectric constant tensor:
#      x y z
#    x 1.702930 0.000000 0.001370 
#    y 0.000000 1.663030 0.000000 
#    z 0.001370 0.000000 1.706550 
# 
# From -- ./inp_files/172128.got.cif
#   From: 2010.06.25/outbox.cif.g09.slc.cpg/sg12_87_cif.got.tgz:172128.got - 2010.06.28 00:19:55.
