data_PCOD8088715
_publ_section_title
;
Structure prediction by ZEFSAII (Michael W. Deem and Ramdas Pophale) SiO2 
 PCOD8088715
Probable space group: C 2/M
;
_chemical_formula_sum "Si O2"
_cell_formula_units_Z 48
_cell_length_a 24.296113
_cell_length_b 9.341918
_cell_length_c 13.468920
_cell_angle_alpha 90.000000
_cell_angle_beta 127.714173
_cell_angle_gamma 90.000000
_cell_volume 2418.364543
_symmetry_space_group_name_H-M "C 2/M"
_symmetry_group_IT_number 12
_symmetry_cell_setting 'monoclinic'
loop_
_space_group_symop_operation_xyz
x,y,z
-x,y,-z
-x,-y,-z
x,-y,z
1/2+x,1/2+y,z
1/2-x,1/2+y,-z
1/2-x,1/2-y,-z
1/2+x,1/2-y,z
loop_
_atom_site_type_symbol
_atom_site_label
_atom_site_fract_x
_atom_site_fract_y
_atom_site_fract_z
Si Si1 0.928499 0.833766 0.966832
Si Si2 0.660018 0.836145 0.276038
Si Si3 0.193065 0.836519 0.637578
Si Si4 0.798849 0.165373 0.129001
Si Si5 0.587258 0.829893 0.398183
Si Si6 0.947580 0.834425 0.215336
O O1 0.926975 0.798305 0.080453
O O2 0.919011 0.000000 0.933207
O O3 0.865613 0.752594 0.846160
O O4 0.000000 0.775197 0.000000
O O5 0.743376 0.817797 0.369817
O O6 0.625530 0.779031 0.339413
O O7 0.638704 0.000000 0.235798
O O8 0.219486 0.796979 0.777442
O O9 0.130945 0.731640 0.538330
O O10 0.165504 0.000000 0.605723
O O11 0.880236 0.203462 0.205931
O O12 0.786063 0.000000 0.090174
O O13 0.750000 0.250000 0.000000
O O14 0.510257 0.765811 0.319458
O O15 0.583553 0.000000 0.402986
O O16 0.970387 0.000000 0.251537
#
# Coordination Sequence:
#
# PCOD8088715 Si02
#       6
#     8   8   8   8   8   8
#     4  10  19  32  54  83 112 146 184 223 275 332
#     4  10  21  36  56  83 115 148 186 233 283 331
#     4  10  22  40  59  81 112 151 189 228 279 337
#     4  10  22  40  63  87 112 146 187 229 279 334
#     4  11  23  37  56  85 114 147 190 234 281 329
#     4  10  21  38  58  83 116 151 186 228 278 335
#
# _framework density 19.848125
#
# number of rings (size 3 to 8) (size 9 to 14) (size 15 to 20)
#    0.000    1.833    1.667    2.000    0.000    4.333 
#    0.000    3.333    0.000    0.000    0.000    0.000 
#    0.000    0.000    0.000    0.000    0.000    0.000 
#
# Total GULP energy -297685.212926 kJ/mol
# GULP energy per Si atom -12403.550539 kJ/mol
# Density = 1.980295 g / cm^3
# Si number density = 19.848125 Si / 1000 Ang^3
#
#
#
# Elastic Constant Matrix: (Units=GPa)
#
#
# Indices 1 2 3 4 5 6 
#
# 1 90.3837 29.5145 32.0889 0.0000 5.8537 0.0000
# 2 29.5145 77.3891 67.8932 0.0000 10.1702 0.0000
# 3 32.0889 67.8932 120.6605 0.0000 12.4911 0.0000
# 4 0.0000 0.0000 0.0000 43.7066 0.0000 3.6444
# 5 5.8537 10.1702 12.4911 0.0000 21.9557 0.0000
# 6 0.0000 0.0000 0.0000 3.6444 0.0000 20.6756
#
#
#
# Elastic Compliance Matrix: (Units=1/GPa)
#
#
# Indices 1 2 3 4 5 6 
#
# 1 0.012760 -0.003650 -0.001235 0.000000 -0.001008 0.000000
# 2 -0.003650 0.026878 -0.013776 0.000000 -0.003639 0.000000
# 3 -0.001235 -0.013776 0.016654 0.000000 -0.002764 0.000000
# 4 0.000000 0.000000 0.000000 0.023221 0.000000 -0.004093
# 5 -0.001008 -0.003639 -0.002764 0.000000 0.049074 0.000000
# 6 0.000000 0.000000 0.000000 -0.004093 0.000000 0.049088
#
#
# Mechanical properties :
#
#
# Convention : Reuss Voigt Hill
#
# Bulk Modulus (GPa) = 52.71858 60.82516 56.77187
# Shear Modulus (GPa) = 22.59180 27.86338 25.22759
#
# Velocity S-wave (km/s) = 3.37743 3.75084 3.56902
# Velocity P-wave (km/s) = 6.46746 7.03350 6.75641
#
# Compressibility (1/GPa) = 0.01896864
#
# Stress axis : x y z
#
# Youngs Moduli (GPa) = 78.37173 37.20539 60.04612
#
# Poissons Ratio (x) = 0.13581 0.07416
# Poissons Ratio (y) = 0.28607 0.82720
# Poissons Ratio (z) = 0.09679 0.51254
#
# Static dielectric constant tensor:
#      x y z
#    x 3.801190 0.000000 -0.025910 
#    y 0.000000 3.495330 0.000000 
#    z -0.025910 0.000000 3.399080 
# 
# 
# High freq. dielectric constant tensor:
#      x y z
#    x 1.782800 0.000000 0.001640 
#    y 0.000000 1.765880 0.000000 
#    z 0.001640 0.000000 1.771510 
# 
# From -- ./inp_files/244835.got.cif
#   From: 2010.06.25/outbox.cif.g09.slc.cpg/sg12_123_cif.got.tgz:244835.got - 2010.06.28 00:19:55.
