data_PCOD8088120
_publ_section_title
;
Structure prediction by ZEFSAII (Michael W. Deem and Ramdas Pophale) SiO2 
 PCOD8088120
Probable space group: C 2/M
;
_chemical_formula_sum "Si O2"
_cell_formula_units_Z 64
_cell_length_a 19.960428
_cell_length_b 9.301123
_cell_length_c 20.588863
_cell_angle_alpha 90.000000
_cell_angle_beta 107.777876
_cell_angle_gamma 90.000000
_cell_volume 3639.882623
_symmetry_space_group_name_H-M "C 2/M"
_symmetry_group_IT_number 12
_symmetry_cell_setting 'monoclinic'
loop_
_space_group_symop_operation_xyz
x,y,z
-x,y,-z
-x,-y,-z
x,-y,z
1/2+x,1/2+y,z
1/2-x,1/2+y,-z
1/2-x,1/2-y,-z
1/2+x,1/2-y,z
loop_
_atom_site_type_symbol
_atom_site_label
_atom_site_fract_x
_atom_site_fract_y
_atom_site_fract_z
Si Si1 0.071582 0.335735 0.203067
Si Si2 0.427446 0.333802 0.666548
Si Si3 0.713812 0.164928 0.183115
Si Si4 0.438678 0.164174 0.310650
Si Si5 0.715953 0.329967 0.929906
Si Si6 0.791406 0.331987 0.318552
Si Si7 0.415112 0.835604 0.154026
Si Si8 0.722828 0.665906 0.430431
O O1 0.072709 0.500000 0.228950
O O2 0.089663 0.236073 0.269284
O O3 0.129645 0.310469 0.164411
O O4 0.994097 0.302570 0.151481
O O5 0.443573 0.500000 0.683510
O O6 0.494933 0.263022 0.651744
O O7 0.360757 0.311647 0.600195
O O8 0.737111 0.212341 0.118456
O O9 0.753588 0.256750 0.247956
O O10 0.734216 0.000000 0.201595
O O11 0.374915 0.199580 0.340599
O O12 0.412368 0.195157 0.229969
O O13 0.463326 0.000000 0.324685
O O14 0.714075 0.500000 0.941697
O O15 0.636756 0.273042 0.897429
O O16 0.750000 0.250000 0.000000
O O17 0.775081 0.500000 0.306278
O O18 0.761779 0.273044 0.377837
O O19 0.392951 0.000000 0.132365
O O20 0.742372 0.500000 0.445591
O O21 0.750000 0.750000 0.500000
#
# Coordination Sequence:
#
# PCOD8088120 Si02
#       8
#     8   8   8   8   8   8   8   8
#     4   9  18  33  54  80 108 138 174 217 268 319
#     4  10  19  32  52  79 109 138 175 221 267 314
#     4  10  20  34  55  83 108 136 180 226 265 312
#     4   9  18  32  54  80 107 139 175 218 268 319
#     4  11  23  37  54  78 109 144 180 218 266 321
#     4  10  19  35  56  80 108 139 180 224 266 315
#     4   9  17  32  54  78 105 139 174 214 266 318
#     4  10  22  37  54  78 108 145 182 219 268 321
#
# _framework density 17.582985000000001
#
# number of rings (size 3 to 8) (size 9 to 14) (size 15 to 20)
#    0.000    2.250    2.500    1.500    0.000    4.500 
#    0.000    1.250    0.000    7.500    0.000    0.000 
#    0.000    0.000    0.000    0.000    0.000    0.000 
#
# Total GULP energy -396812.750721 kJ/mol
# GULP energy per Si atom -12400.398460 kJ/mol
# Density = 1.754296 g / cm^3
# Si number density = 17.582985 Si / 1000 Ang^3
#
#
#
# Elastic Constant Matrix: (Units=GPa)
#
#
# Indices 1 2 3 4 5 6 
#
# 1 129.7202 57.3106 64.1073 0.0000 2.7590 0.0000
# 2 57.3106 88.1034 64.5399 0.0000 6.6571 0.0000
# 3 64.1073 64.5399 105.1060 0.0000 0.8908 0.0000
# 4 0.0000 0.0000 0.0000 32.2410 0.0000 5.2058
# 5 2.7590 6.6571 0.8908 0.0000 23.4905 0.0000
# 6 0.0000 0.0000 0.0000 5.2058 0.0000 29.1350
#
#
#
# Elastic Compliance Matrix: (Units=1/GPa)
#
#
# Indices 1 2 3 4 5 6 
#
# 1 0.011908 -0.004412 -0.004554 0.000000 0.000024 0.000000
# 2 -0.004412 0.022964 -0.011363 0.000000 -0.005559 0.000000
# 3 -0.004554 -0.011363 0.019244 0.000000 0.003025 0.000000
# 4 0.000000 0.000000 0.000000 0.031938 0.000000 -0.005707
# 5 0.000024 -0.005559 0.003025 0.000000 0.044028 0.000000
# 6 0.000000 0.000000 0.000000 -0.005707 0.000000 0.035343
#
#
# Mechanical properties :
#
#
# Convention : Reuss Voigt Hill
#
# Bulk Modulus (GPa) = 74.30614 77.20504 75.75559
# Shear Modulus (GPa) = 23.74514 26.10473 24.92494
#
# Velocity S-wave (km/s) = 3.67885 3.85731 3.76913
# Velocity P-wave (km/s) = 7.77157 7.99016 7.88162
#
# Compressibility (1/GPa) = 0.01345784
#
# Stress axis : x y z
#
# Youngs Moduli (GPa) = 83.97518 43.54618 51.96463
#
# Poissons Ratio (x) = 0.19212 0.23667
# Poissons Ratio (y) = 0.37048 0.59048
# Poissons Ratio (z) = 0.38246 0.49482
#
# Static dielectric constant tensor:
#      x y z
#    x 3.784340 0.000000 0.012490 
#    y 0.000000 3.297780 0.000000 
#    z 0.012490 0.000000 2.945150 
# 
# 
# High freq. dielectric constant tensor:
#      x y z
#    x 1.697180 0.000000 0.007750 
#    y 0.000000 1.681960 0.000000 
#    z 0.007750 0.000000 1.646710 
# 
# From -- ./inp_files/320040.got.cif
#   From: 2010.06.25/outbox.cif.g09.slc.cpg/sg12_161_cif.got.tgz:320040.got - 2010.06.28 00:19:55.
