data_PCOD8088515
_publ_section_title
;
Structure prediction by ZEFSAII (Michael W. Deem and Ramdas Pophale) SiO2 
 PCOD8088515
Probable space group: C 2/M
;
_chemical_formula_sum "Si O2"
_cell_formula_units_Z 64
_cell_length_a 23.171682
_cell_length_b 24.369542
_cell_length_c 19.236971
_cell_angle_alpha 90.000000
_cell_angle_beta 162.476794
_cell_angle_gamma 90.000000
_cell_volume 3270.701471
_symmetry_space_group_name_H-M "C 2/M"
_symmetry_group_IT_number 12
_symmetry_cell_setting 'monoclinic'
loop_
_space_group_symop_operation_xyz
x,y,z
-x,y,-z
-x,-y,-z
x,-y,z
1/2+x,1/2+y,z
1/2-x,1/2+y,-z
1/2-x,1/2-y,-z
1/2+x,1/2-y,z
loop_
_atom_site_type_symbol
_atom_site_label
_atom_site_fract_x
_atom_site_fract_y
_atom_site_fract_z
Si Si1 0.509016 0.718786 0.192328
Si Si2 0.573305 0.221612 0.657416
Si Si3 0.081809 0.154377 0.665711
Si Si4 0.428303 0.368023 0.842183
Si Si5 0.585266 0.628184 0.384905
Si Si6 0.987707 0.343854 0.803406
Si Si7 0.350129 0.435956 0.009468
Si Si8 0.016347 0.377165 0.355393
O O1 0.627797 0.684522 0.270971
O O2 0.505671 0.685546 0.261208
O O3 0.584139 0.780670 0.290613
O O4 0.300486 0.720592 0.919532
O O5 0.500000 0.197538 0.500000
O O6 0.501987 0.284002 0.584677
O O7 0.490744 0.184736 0.623891
O O8 0.000000 0.129502 0.500000
O O9 0.995498 0.119799 0.630419
O O10 0.312964 0.152440 0.926259
O O11 0.591356 0.405474 0.994498
O O12 0.227393 0.401365 0.615269
O O13 0.500000 0.348977 0.000000
O O14 0.817455 0.626578 0.650667
O O15 0.504715 0.578010 0.246657
O O16 0.022487 0.374749 0.771180
O O17 0.347211 0.500000 0.992078
O O18 0.138793 0.416409 0.787692
#
# Coordination Sequence:
#
# PCOD8088515 Si02
#       8
#     8   8   8   8   8   8   8   8
#     4  10  19  35  53  86 122 159 197 237 274 349
#     4  10  19  32  53  83 125 165 193 227 279 346
#     4  10  22  36  55  89 127 156 185 230 287 354
#     4  11  24  40  59  88 127 162 200 244 291 343
#     4  11  20  38  59  82 115 151 193 246 295 347
#     4  11  21  35  58  89 118 156 199 229 288 361
#     4  11  25  44  63  87 111 150 210 262 306 344
#     4  12  21  37  62  84 114 160 203 246 289 346
#
# _framework density 19.567668000000001
#
# number of rings (size 3 to 8) (size 9 to 14) (size 15 to 20)
#    0.000    1.250    6.250    1.875    1.750    3.250 
#    0.000    0.625    0.000    0.375    0.000    0.875 
#    0.000    0.000    0.000    0.000    0.000    0.000 
#
# Total GULP energy -396807.113556 kJ/mol
# GULP energy per Si atom -12400.222299 kJ/mol
# Density = 1.952313 g / cm^3
# Si number density = 19.567668 Si / 1000 Ang^3
#
#
#
# Elastic Constant Matrix: (Units=GPa)
#
#
# Indices 1 2 3 4 5 6 
#
# 1 101.1673 16.6232 35.6814 0.0008 0.9925 0.0005
# 2 16.6232 48.6728 3.0039 -0.0005 7.9751 -0.0002
# 3 35.6814 3.0039 87.2243 0.0028 8.1540 0.0017
# 4 0.0008 -0.0005 0.0028 15.3187 0.0008 -0.5268
# 5 0.9925 7.9751 8.1540 0.0008 38.1258 0.0004
# 6 0.0005 -0.0002 0.0017 -0.5268 0.0004 8.6414
#
#
#
# Elastic Compliance Matrix: (Units=1/GPa)
#
#
# Indices 1 2 3 4 5 6 
#
# 1 0.012337 -0.004169 -0.005056 0.000000 0.001632 0.000000
# 2 -0.004169 0.022692 0.001385 0.000001 -0.004934 0.000001
# 3 -0.005056 0.001385 0.013775 -0.000002 -0.003104 -0.000002
# 4 0.000000 0.000001 -0.000002 0.065417 -0.000001 0.003988
# 5 0.001632 -0.004934 -0.003104 -0.000001 0.027883 -0.000001
# 6 0.000000 0.000001 -0.000002 0.003988 -0.000001 0.115965
#
#
# Mechanical properties :
#
#
# Convention : Reuss Voigt Hill
#
# Bulk Modulus (GPa) = 30.18815 38.63128 34.40972
# Shear Modulus (GPa) = 17.55687 24.53424 21.04555
#
# Velocity S-wave (km/s) = 2.99864 3.54477 3.28308
# Velocity P-wave (km/s) = 5.23930 6.04476 5.65638
#
# Compressibility (1/GPa) = 0.03312558
#
# Stress axis : x y z
#
# Youngs Moduli (GPa) = 81.05882 44.06816 72.59347
#
# Poissons Ratio (x) = 0.18371 0.36701
# Poissons Ratio (y) = 0.33792 -0.10055
# Poissons Ratio (z) = 0.40981 -0.06104
#
# Static dielectric constant tensor:
#      x y z
#    x 3.520670 0.000000 0.057090 
#    y 0.000000 3.180610 0.000000 
#    z 0.057090 0.000000 3.753730 
# 
# 
# High freq. dielectric constant tensor:
#      x y z
#    x 1.761080 0.000000 0.007990 
#    y 0.000000 1.706010 0.000000 
#    z 0.007990 0.000000 1.781230 
# 
# From -- ./inp_files/286483.got.cif
#   From: 2010.06.25/outbox.cif.g09.slc.cpg/sg12_144_cif.got.tgz:286483.got - 2010.06.28 00:19:55.
