data_PCOD8088816
_publ_section_title
;
Structure prediction by ZEFSAII (Michael W. Deem and Ramdas Pophale) SiO2 
 PCOD8088816
Probable space group: C 2/M
;
_chemical_formula_sum "Si O2"
_cell_formula_units_Z 56
_cell_length_a 30.867614
_cell_length_b 9.115222
_cell_length_c 11.854067
_cell_angle_alpha 90.000000
_cell_angle_beta 60.942480
_cell_angle_gamma 90.000000
_cell_volume 2915.513023
_symmetry_space_group_name_H-M "C 2/M"
_symmetry_group_IT_number 12
_symmetry_cell_setting 'monoclinic'
loop_
_space_group_symop_operation_xyz
x,y,z
-x,y,-z
-x,-y,-z
x,-y,z
1/2+x,1/2+y,z
1/2-x,1/2+y,-z
1/2-x,1/2-y,-z
1/2+x,1/2-y,z
loop_
_atom_site_type_symbol
_atom_site_label
_atom_site_fract_x
_atom_site_fract_y
_atom_site_fract_z
Si Si1 0.079547 0.170433 0.137452
Si Si2 0.106993 0.174853 0.629101
Si Si3 0.788075 0.326520 0.535245
Si Si4 0.324727 0.170568 0.935146
Si Si5 0.486033 0.673347 0.395277
Si Si6 0.748601 0.168994 0.170630
Si Si7 0.554546 0.328560 0.920584
O O1 0.121469 0.260105 0.148929
O O2 0.026552 0.223545 0.251922
O O3 0.087644 0.000000 0.153398
O O4 0.083780 0.203099 0.998963
O O5 0.157749 0.258846 0.544968
O O6 0.068241 0.222329 0.579796
O O7 0.085524 0.232985 0.775880
O O8 0.116352 0.000000 0.618076
O O9 0.790027 0.500000 0.509762
O O10 0.750000 0.250000 0.500000
O O11 0.768807 0.289389 0.683635
O O12 0.295703 0.209056 0.857904
O O13 0.330319 0.000000 0.949410
O O14 0.297118 0.238024 0.078558
O O15 0.500000 0.742333 0.500000
O O16 0.486302 0.500000 0.404758
O O17 0.763847 0.000000 0.140864
O O18 0.546971 0.500000 0.907766
O O19 0.500000 0.255623 0.000000
#
# Coordination Sequence:
#
# PCOD8088816 Si02
#       7
#     8   8   8   8   8   8   8
#     4  10  19  32  55  83 112 148 187 228 278 332
#     4  10  20  36  59  84 112 150 192 237 285 331
#     4  11  25  43  61  83 114 151 193 237 289 347
#     4  10  21  37  59  86 113 142 183 236 289 337
#     4   9  18  32  53  85 118 149 193 239 276 331
#     4   9  21  42  61  78 108 149 190 231 281 345
#     4   9  16  31  54  79 107 143 187 225 262 320
#
# _framework density 19.207598000000001
#
# number of rings (size 3 to 8) (size 9 to 14) (size 15 to 20)
#    0.000    2.286    1.429    0.857    4.000    1.714 
#    0.000    0.714    0.000    1.714    0.000    0.000 
#    0.000    0.000    0.000    0.000    0.000    0.000 
#
# Total GULP energy -347188.310408 kJ/mol
# GULP energy per Si atom -12399.582515 kJ/mol
# Density = 1.916388 g / cm^3
# Si number density = 19.207598 Si / 1000 Ang^3
#
#
#
# Elastic Constant Matrix: (Units=GPa)
#
#
# Indices 1 2 3 4 5 6 
#
# 1 143.9989 53.1007 72.0403 0.0000 -13.2094 0.0000
# 2 53.1007 56.0367 44.6963 0.0000 -5.4787 0.0000
# 3 72.0403 44.6963 124.4393 0.0000 7.1313 0.0000
# 4 0.0000 0.0000 0.0000 23.1106 0.0000 -4.8343
# 5 -13.2094 -5.4787 7.1313 0.0000 31.6461 0.0000
# 6 0.0000 0.0000 0.0000 -4.8343 0.0000 26.9995
#
#
#
# Elastic Compliance Matrix: (Units=1/GPa)
#
#
# Indices 1 2 3 4 5 6 
#
# 1 0.012658 -0.007599 -0.004889 0.000000 0.005069 0.000000
# 2 -0.007599 0.030939 -0.006928 0.000000 0.003745 0.000000
# 3 -0.004889 -0.006928 0.013717 0.000000 -0.006331 0.000000
# 4 0.000000 0.000000 0.000000 0.044954 0.000000 0.008049
# 5 0.005069 0.003745 -0.006331 0.000000 0.035791 0.000000
# 6 0.000000 0.000000 0.000000 0.008049 0.000000 0.038479
#
#
# Mechanical properties :
#
#
# Convention : Reuss Voigt Hill
#
# Bulk Modulus (GPa) = 54.10720 73.79441 63.95081
# Shear Modulus (GPa) = 22.57039 26.66042 24.61541
#
# Velocity S-wave (km/s) = 3.43166 3.72965 3.58375
# Velocity P-wave (km/s) = 6.62816 7.55313 7.10571
#
# Compressibility (1/GPa) = 0.01848183
#
# Stress axis : x y z
#
# Youngs Moduli (GPa) = 79.00388 32.32207 72.90060
#
# Poissons Ratio (x) = 0.24563 0.35639
# Poissons Ratio (y) = 0.60039 0.50503
# Poissons Ratio (z) = 0.38622 0.22392
#
# Static dielectric constant tensor:
#      x y z
#    x 3.631840 0.000000 0.095680 
#    y 0.000000 3.177280 0.000000 
#    z 0.095680 0.000000 3.738970 
# 
# 
# High freq. dielectric constant tensor:
#      x y z
#    x 1.759490 0.000000 0.000710 
#    y 0.000000 1.708570 0.000000 
#    z 0.000710 0.000000 1.756750 
# 
# From -- ./inp_files/187255.got.cif
#   From: 2010.06.25/outbox.cif.g09.slc.cpg/sg12_94_cif.got.tgz:187255.got - 2010.06.28 00:19:55.
