data_PCOD8088994
_publ_section_title
;
Structure prediction by ZEFSAII (Michael W. Deem and Ramdas Pophale) SiO2 
 PCOD8088994
Probable space group: C 2/M
;
_chemical_formula_sum "Si O2"
_cell_formula_units_Z 56
_cell_length_a 10.995780
_cell_length_b 19.075447
_cell_length_c 14.079627
_cell_angle_alpha 90.000000
_cell_angle_beta 97.854301
_cell_angle_gamma 90.000000
_cell_volume 2925.489000
_symmetry_space_group_name_H-M "C 2/M"
_symmetry_group_IT_number 12
_symmetry_cell_setting 'monoclinic'
loop_
_space_group_symop_operation_xyz
x,y,z
-x,y,-z
-x,-y,-z
x,-y,z
1/2+x,1/2+y,z
1/2-x,1/2+y,-z
1/2-x,1/2-y,-z
1/2+x,1/2-y,z
loop_
_atom_site_type_symbol
_atom_site_label
_atom_site_fract_x
_atom_site_fract_y
_atom_site_fract_z
Si Si1 0.333598 0.697707 0.217698
Si Si2 0.589765 0.922066 0.679211
Si Si3 0.363194 0.304469 0.014324
Si Si4 0.728255 0.581678 0.472615
Si Si5 0.765894 0.152286 0.819503
Si Si6 0.151436 0.663810 0.347833
Si Si7 0.078361 0.183336 0.341326
O O1 0.367389 0.660929 0.120194
O O2 0.321254 0.779531 0.191791
O O3 0.210019 0.664570 0.248380
O O4 0.432732 0.689169 0.312534
O O5 0.659382 0.908051 0.587938
O O6 0.683176 0.913319 0.777653
O O7 0.482908 0.866777 0.677211
O O8 0.534714 0.000000 0.675365
O O9 0.500000 0.274235 0.000000
O O10 0.250000 0.250000 0.000000
O O11 0.325486 0.361591 0.929648
O O12 0.694996 0.500000 0.483005
O O13 0.766690 0.615996 0.575450
O O14 0.608972 0.622544 0.420390
O O15 0.875400 0.163209 0.757751
O O16 0.138878 0.743754 0.384353
#
# Coordination Sequence:
#
# PCOD8088994 Si02
#       7
#     8   8   8   8   8   8   8
#     4  10  20  33  53  86 115 151 184 232 290 343
#     4  10  20  37  61  83 111 150 192 241 292 347
#     4  10  19  32  58  89 123 155 190 240 296 348
#     4  10  22  39  58  81 109 151 196 237 288 349
#     4   9  18  33  56  83 115 145 189 232 282 341
#     4  11  21  35  55  83 117 146 191 241 288 342
#     4  10  19  35  55  81 116 146 191 228 284 339
#
# _framework density 19.142098000000001
#
# number of rings (size 3 to 8) (size 9 to 14) (size 15 to 20)
#    0.000    2.000    2.857    1.286    0.000    1.714 
#    2.571    2.143    0.000    3.857    0.000    0.000 
#    0.000    0.000    0.000    0.000    0.000    0.000 
#
# Total GULP energy -346989.410528 kJ/mol
# GULP energy per Si atom -12392.478947 kJ/mol
# Density = 1.909853 g / cm^3
# Si number density = 19.142098 Si / 1000 Ang^3
#
#
#
# Elastic Constant Matrix: (Units=GPa)
#
#
# Indices 1 2 3 4 5 6 
#
# 1 64.9366 24.2772 29.4782 0.0000 5.8458 0.0000
# 2 24.2772 83.2054 38.3994 0.0000 -1.3111 0.0000
# 3 29.4782 38.3994 101.5283 0.0000 1.6982 0.0000
# 4 0.0000 0.0000 0.0000 16.4692 0.0000 2.4948
# 5 5.8458 -1.3111 1.6982 0.0000 26.3818 0.0000
# 6 0.0000 0.0000 0.0000 2.4948 0.0000 21.7630
#
#
#
# Elastic Compliance Matrix: (Units=1/GPa)
#
#
# Indices 1 2 3 4 5 6 
#
# 1 0.019004 -0.003750 -0.004030 0.000000 -0.004138 0.000000
# 2 -0.003750 0.015331 -0.004741 0.000000 0.001898 0.000000
# 3 -0.004030 -0.004741 0.012816 0.000000 -0.000168 0.000000
# 4 0.000000 0.000000 0.000000 0.061793 0.000000 -0.007084
# 5 -0.004138 0.001898 -0.000168 0.000000 0.038927 0.000000
# 6 0.000000 0.000000 0.000000 -0.007084 0.000000 0.046761
#
#
# Mechanical properties :
#
#
# Convention : Reuss Voigt Hill
#
# Bulk Modulus (GPa) = 45.23426 48.21998 46.72712
# Shear Modulus (GPa) = 22.02231 23.42383 22.72307
#
# Velocity S-wave (km/s) = 3.39553 3.50191 3.44913
# Velocity P-wave (km/s) = 6.24939 6.44953 6.35025
#
# Compressibility (1/GPa) = 0.02210714
#
# Stress axis : x y z
#
# Youngs Moduli (GPa) = 52.62156 65.22908 78.03015
#
# Poissons Ratio (x) = 0.24461 0.31447
# Poissons Ratio (y) = 0.19734 0.36995
# Poissons Ratio (z) = 0.21207 0.30926
#
# Static dielectric constant tensor:
#      x y z
#    x 3.541050 0.000000 0.018850 
#    y 0.000000 3.262050 0.000000 
#    z 0.018850 0.000000 3.831770 
# 
# 
# High freq. dielectric constant tensor:
#      x y z
#    x 1.751570 0.000000 0.006160 
#    y 0.000000 1.703710 0.000000 
#    z 0.006160 0.000000 1.750720 
# 
# From -- ./inp_files/207310.got.cif
#   From: 2010.06.25/outbox.cif.g09.slc.cpg/sg12_104_cif.got.tgz:207310.got - 2010.06.28 00:19:55.
