data_PCOD8088338
_publ_section_title
;
Structure prediction by ZEFSAII (Michael W. Deem and Ramdas Pophale) SiO2 
 PCOD8088338
Probable space group: C 2/M
;
_chemical_formula_sum "Si O2"
_cell_formula_units_Z 48
_cell_length_a 15.209373
_cell_length_b 9.129155
_cell_length_c 18.883821
_cell_angle_alpha 90.000000
_cell_angle_beta 89.724765
_cell_angle_gamma 90.000000
_cell_volume 2621.964189
_symmetry_space_group_name_H-M "C 2/M"
_symmetry_group_IT_number 12
_symmetry_cell_setting 'monoclinic'
loop_
_space_group_symop_operation_xyz
x,y,z
-x,y,-z
-x,-y,-z
x,-y,z
1/2+x,1/2+y,z
1/2-x,1/2+y,-z
1/2-x,1/2-y,-z
1/2+x,1/2-y,z
loop_
_atom_site_type_symbol
_atom_site_label
_atom_site_fract_x
_atom_site_fract_y
_atom_site_fract_z
Si Si1 0.655697 0.172496 0.325918
Si Si2 0.656519 0.167597 0.163837
Si Si3 0.334856 0.826486 0.326200
Si Si4 0.004519 0.326564 0.579041
Si Si5 0.488502 0.326997 0.920835
Si Si6 0.855533 0.829526 0.181603
O O1 0.632951 0.209193 0.244697
O O2 0.742831 0.256838 0.349775
O O3 0.576791 0.233263 0.374390
O O4 0.672892 0.000000 0.334939
O O5 0.601229 0.266644 0.111253
O O6 0.759328 0.198379 0.148966
O O7 0.632297 0.000000 0.148672
O O8 0.404182 0.779234 0.385887
O O9 0.369547 0.765251 0.251673
O O10 0.325361 0.000000 0.319756
O O11 0.996812 0.500000 0.576472
O O12 0.000000 0.259851 0.500000
O O13 0.480310 0.500000 0.921852
O O14 0.572677 0.276309 0.875191
O O15 0.500000 0.264933 0.000000
O O16 0.866155 0.000000 0.201832
#
# Coordination Sequence:
#
# PCOD8088338 Si02
#       6
#     8   8   8   8   8   8
#     4   9  18  34  54  74 100 133 166 204 251 296
#     4   9  18  33  52  73  97 130 169 203 241 293
#     4  10  19  32  53  78  99 125 169 214 244 285
#     4   9  18  32  50  73 103 138 169 199 244 300
#     4  10  21  35  51  74 103 132 162 201 249 295
#     4   9  19  36  54  72 100 134 163 199 251 300
#
# _framework density 18.306885999999999
#
# number of rings (size 3 to 8) (size 9 to 14) (size 15 to 20)
#    0.000    2.667    0.000    2.500    0.000    6.333 
#    0.000    1.667    0.000    3.500    0.000    0.000 
#    0.000    0.000    0.000    0.000    0.000    0.000 
#
# Total GULP energy -297630.510175 kJ/mol
# GULP energy per Si atom -12401.271257 kJ/mol
# Density = 1.826522 g / cm^3
# Si number density = 18.306886 Si / 1000 Ang^3
#
#
#
# Elastic Constant Matrix: (Units=GPa)
#
#
# Indices 1 2 3 4 5 6 
#
# 1 111.8482 34.5322 68.1019 0.0000 19.9865 0.0000
# 2 34.5322 37.6995 30.5688 0.0000 9.5656 0.0000
# 3 68.1019 30.5688 110.9266 0.0000 20.9699 0.0000
# 4 0.0000 0.0000 0.0000 21.1757 0.0000 4.6011
# 5 19.9865 9.5656 20.9699 0.0000 23.2903 0.0000
# 6 0.0000 0.0000 0.0000 4.6011 0.0000 27.4348
#
#
#
# Elastic Compliance Matrix: (Units=1/GPa)
#
#
# Indices 1 2 3 4 5 6 
#
# 1 0.016616 -0.008369 -0.007049 0.000000 -0.004475 0.000000
# 2 -0.008369 0.039262 -0.004810 0.000000 -0.004613 0.000000
# 3 -0.007049 -0.004810 0.015849 0.000000 -0.006245 0.000000
# 4 0.000000 0.000000 0.000000 0.049010 0.000000 -0.008219
# 5 -0.004475 -0.004613 -0.006245 0.000000 0.054294 0.000000
# 6 0.000000 0.000000 0.000000 -0.008219 0.000000 0.037828
#
#
# Mechanical properties :
#
#
# Convention : Reuss Voigt Hill
#
# Bulk Modulus (GPa) = 31.97803 58.54226 45.26014
# Shear Modulus (GPa) = 18.95821 22.86493 20.91157
#
# Velocity S-wave (km/s) = 3.22153 3.53792 3.38343
# Velocity P-wave (km/s) = 5.59851 6.98118 6.32773
#
# Compressibility (1/GPa) = 0.03127147
#
# Stress axis : x y z
#
# Youngs Moduli (GPa) = 60.18214 25.47014 63.09700
#
# Poissons Ratio (x) = 0.21316 0.44477
# Poissons Ratio (y) = 0.50366 0.30347
# Poissons Ratio (z) = 0.42422 0.12250
#
# Static dielectric constant tensor:
#      x y z
#    x 3.479570 0.000000 -0.105010 
#    y 0.000000 3.130730 0.000000 
#    z -0.105010 0.000000 3.496410 
# 
# 
# High freq. dielectric constant tensor:
#      x y z
#    x 1.722260 0.000000 -0.001840 
#    y 0.000000 1.688350 0.000000 
#    z -0.001840 0.000000 1.706400 
# 
# From -- ./inp_files/267690.got.cif
#   From: 2010.06.25/outbox.cif.g09.slc.cpg/sg12_134_cif.got.tgz:267690.got - 2010.06.28 00:19:55.
