data_PCOD8088862
_publ_section_title
;
Structure prediction by ZEFSAII (Michael W. Deem and Ramdas Pophale) SiO2 
 PCOD8088862
Probable space group: C 2/M
;
_chemical_formula_sum "Si O2"
_cell_formula_units_Z 56
_cell_length_a 19.796487
_cell_length_b 9.031650
_cell_length_c 28.093485
_cell_angle_alpha 90.000000
_cell_angle_beta 37.160905
_cell_angle_gamma 90.000000
_cell_volume 3034.154340
_symmetry_space_group_name_H-M "C 2/M"
_symmetry_group_IT_number 12
_symmetry_cell_setting 'monoclinic'
loop_
_space_group_symop_operation_xyz
x,y,z
-x,y,-z
-x,-y,-z
x,-y,z
1/2+x,1/2+y,z
1/2-x,1/2+y,-z
1/2-x,1/2-y,-z
1/2+x,1/2-y,z
loop_
_atom_site_type_symbol
_atom_site_label
_atom_site_fract_x
_atom_site_fract_y
_atom_site_fract_z
Si Si1 0.234292 0.672519 0.801098
Si Si2 0.096881 0.830884 0.802084
Si Si3 0.427723 0.327302 0.622833
Si Si4 0.787314 0.672470 0.622181
Si Si5 0.855283 0.829234 0.960451
Si Si6 0.684714 0.324278 0.492539
Si Si7 0.878245 0.174405 0.053960
O O1 0.225938 0.500000 0.814848
O O2 0.135495 0.722429 0.821846
O O3 0.352180 0.716210 0.710622
O O4 0.220494 0.753124 0.859271
O O5 0.167664 0.804783 0.714695
O O6 0.966158 0.796271 0.866581
O O7 0.111209 0.000000 0.812402
O O8 0.416145 0.500000 0.616331
O O9 0.387768 0.238207 0.598263
O O10 0.552946 0.285689 0.568145
O O11 0.813442 0.500000 0.598322
O O12 0.771491 0.758229 0.581653
O O13 0.827732 0.000000 0.976288
O O14 0.750000 0.750000 0.000000
O O15 0.867693 0.769466 0.006543
O O16 0.705553 0.500000 0.482443
O O17 0.750000 0.250000 0.500000
O O18 0.867555 0.000000 0.066066
O O19 0.000000 0.231879 0.000000
#
# Coordination Sequence:
#
# PCOD8088862 Si02
#       7
#     8   8   8   8   8   8   8
#     4  10  19  32  55  86 111 135 179 232 272 311
#     4   9  18  36  57  78 109 148 181 217 271 327
#     4   9  20  38  58  82 113 147 180 223 276 326
#     4  10  20  35  61  89 110 140 185 228 270 326
#     4  10  21  37  55  76 107 147 184 223 269 321
#     4  11  23  40  59  80 114 150 182 222 274 329
#     4  10  19  35  57  77 107 146 183 219 269 326
#
# _framework density 18.456543
#
# number of rings (size 3 to 8) (size 9 to 14) (size 15 to 20)
#    0.000    2.143    1.429    1.714    0.000    5.429 
#    2.571    0.000    0.000    0.000    0.000    0.000 
#    0.000    0.000    0.000    0.000    0.000    0.000 
#
# Total GULP energy -347146.540861 kJ/mol
# GULP energy per Si atom -12398.090745 kJ/mol
# Density = 1.841454 g / cm^3
# Si number density = 18.456543 Si / 1000 Ang^3
#
#
#
# Elastic Constant Matrix: (Units=GPa)
#
#
# Indices 1 2 3 4 5 6 
#
# 1 142.7362 58.1019 77.1305 0.0021 -3.8859 -0.0026
# 2 58.1019 67.5957 51.8769 0.0023 5.6601 -0.0116
# 3 77.1305 51.8769 128.8550 -0.0001 1.8149 -0.0044
# 4 0.0021 0.0023 -0.0001 32.8279 0.0000 2.8777
# 5 -3.8859 5.6601 1.8149 0.0000 26.5634 0.0024
# 6 -0.0026 -0.0116 -0.0044 2.8777 0.0024 34.6104
#
#
#
# Elastic Compliance Matrix: (Units=1/GPa)
#
#
# Indices 1 2 3 4 5 6 
#
# 1 0.012731 -0.007777 -0.004544 0.000000 0.003830 -0.000002
# 2 -0.007777 0.026587 -0.005959 -0.000002 -0.006396 0.000008
# 3 -0.004544 -0.005959 0.012883 0.000001 -0.000275 -0.000001
# 4 0.000000 -0.000002 0.000001 0.030686 0.000001 -0.002551
# 5 0.003830 -0.006396 -0.000275 0.000001 0.039588 -0.000005
# 6 -0.000002 0.000008 -0.000001 -0.002551 -0.000005 0.029105
#
#
# Mechanical properties :
#
#
# Convention : Reuss Voigt Hill
#
# Bulk Modulus (GPa) = 63.92610 79.26726 71.59668
# Shear Modulus (GPa) = 25.85958 28.93884 27.39921
#
# Velocity S-wave (km/s) = 3.74720 3.96402 3.85713
# Velocity P-wave (km/s) = 7.30980 7.99954 7.66243
#
# Compressibility (1/GPa) = 0.01564306
#
# Stress axis : x y z
#
# Youngs Moduli (GPa) = 78.54868 37.61255 77.61961
#
# Poissons Ratio (x) = 0.29249 0.35268
# Poissons Ratio (y) = 0.61083 0.46252
# Poissons Ratio (z) = 0.35690 0.22413
#
# Static dielectric constant tensor:
#      x y z
#    x 3.080070 0.000000 -0.053980 
#    y 0.000000 3.435150 0.000000 
#    z -0.053980 0.000000 3.621240 
# 
# 
# High freq. dielectric constant tensor:
#      x y z
#    x 1.695260 0.000000 0.003860 
#    y 0.000000 1.717890 0.000000 
#    z 0.003860 0.000000 1.732980 
# 
# From -- ./inp_files/342282.got.cif
#   From: 2010.06.25/outbox.cif.g09.slc.cpg/sg12_172_cif.got.tgz:342282.got - 2010.06.28 00:19:55.
