data_PCOD8088955
_publ_section_title
;
Structure prediction by ZEFSAII (Michael W. Deem and Ramdas Pophale) SiO2 
 PCOD8088955
Probable space group: C 2/M
;
_chemical_formula_sum "Si O2"
_cell_formula_units_Z 64
_cell_length_a 26.595994
_cell_length_b 14.103030
_cell_length_c 9.272240
_cell_angle_alpha 90.000000
_cell_angle_beta 63.559521
_cell_angle_gamma 90.000000
_cell_volume 3114.075602
_symmetry_space_group_name_H-M "C 2/M"
_symmetry_group_IT_number 12
_symmetry_cell_setting 'monoclinic'
loop_
_space_group_symop_operation_xyz
x,y,z
-x,y,-z
-x,-y,-z
x,-y,z
1/2+x,1/2+y,z
1/2-x,1/2+y,-z
1/2-x,1/2-y,-z
1/2+x,1/2-y,z
loop_
_atom_site_type_symbol
_atom_site_label
_atom_site_fract_x
_atom_site_fract_y
_atom_site_fract_z
Si Si1 0.130365 0.394857 0.135633
Si Si2 0.623268 0.698865 0.792678
Si Si3 0.512201 0.894346 0.147843
Si Si4 0.786157 0.171549 0.530763
Si Si5 0.822602 0.604578 0.212435
Si Si6 0.468772 0.288489 0.313144
Si Si7 0.373605 0.283020 0.659269
Si Si8 0.912821 0.888822 0.866321
O O1 0.132743 0.500000 0.202797
O O2 0.128061 0.321033 0.268092
O O3 0.078053 0.385052 0.092998
O O4 0.181345 0.378430 0.956857
O O5 0.669579 0.634873 0.646895
O O6 0.642140 0.809884 0.758937
O O7 0.564161 0.683394 0.789660
O O8 0.616557 0.663280 0.962698
O O9 0.481515 0.823471 0.295594
O O10 0.489532 0.000000 0.206914
O O11 0.500000 0.862682 0.000000
O O12 0.750000 0.250000 0.500000
O O13 0.741303 0.095978 0.646560
O O14 0.820432 0.211808 0.623497
O O15 0.850277 0.500000 0.207836
O O16 0.431748 0.303343 0.502077
O O17 0.524905 0.350685 0.245203
O O18 0.372380 0.363901 0.783691
O O19 0.915161 0.000000 0.891277
#
# Coordination Sequence:
#
# PCOD8088955 Si02
#       8
#     8   8   8   8   8   8   8   8
#     4  10  20  35  58  91 126 163 202 245 304 369
#     4  10  21  41  62  92 127 160 207 255 307 364
#     4  10  19  32  56  91 128 166 205 244 297 369
#     4   9  22  42  65  91 119 161 202 252 313 364
#     4  10  19  37  66  93 122 157 201 252 311 375
#     4  11  22  37  61  88 125 169 206 248 302 363
#     4  11  23  41  61  87 128 161 202 262 308 363
#     4  12  25  41  62  89 122 167 213 257 305 360
#
# _framework density 20.551845
#
# number of rings (size 3 to 8) (size 9 to 14) (size 15 to 20)
#    0.000    1.625    2.500    2.250    0.000    5.500 
#    0.000    8.750    0.000    0.000    0.000    0.000 
#    0.000    0.000    0.000    0.000    0.000    0.000 
#
# Total GULP energy -396580.190147 kJ/mol
# GULP energy per Si atom -12393.130942 kJ/mol
# Density = 2.050507 g / cm^3
# Si number density = 20.551845 Si / 1000 Ang^3
#
#
#
# Elastic Constant Matrix: (Units=GPa)
#
#
# Indices 1 2 3 4 5 6 
#
# 1 93.6968 24.0513 42.6983 0.0000 7.6590 0.0000
# 2 24.0513 98.5015 35.6943 0.0000 -0.4258 0.0000
# 3 42.6983 35.6943 119.0094 0.0000 3.0210 0.0000
# 4 0.0000 0.0000 0.0000 16.6706 0.0000 -5.7125
# 5 7.6590 -0.4258 3.0210 0.0000 29.4533 0.0000
# 6 0.0000 0.0000 0.0000 -5.7125 0.0000 17.0180
#
#
#
# Elastic Compliance Matrix: (Units=1/GPa)
#
#
# Indices 1 2 3 4 5 6 
#
# 1 0.013265 -0.001745 -0.004158 0.000000 -0.003048 0.000000
# 2 -0.001745 0.011628 -0.002885 0.000000 0.000918 0.000000
# 3 -0.004158 -0.002885 0.010761 0.000000 -0.000064 0.000000
# 4 0.000000 0.000000 0.000000 0.067783 0.000000 0.022753
# 5 -0.003048 0.000918 -0.000064 0.000000 0.034764 0.000000
# 6 0.000000 0.000000 0.000000 0.022753 0.000000 0.066399
#
#
# Mechanical properties :
#
#
# Convention : Reuss Voigt Hill
#
# Bulk Modulus (GPa) = 55.31730 57.34392 56.33061
# Shear Modulus (GPa) = 21.91041 26.54598 24.22820
#
# Velocity S-wave (km/s) = 3.26867 3.59786 3.43721
# Velocity P-wave (km/s) = 6.42028 6.72474 6.57427
#
# Compressibility (1/GPa) = 0.01807753
#
# Stress axis : x y z
#
# Youngs Moduli (GPa) = 75.38715 86.00293 92.92446
#
# Poissons Ratio (x) = 0.15009 0.38641
# Poissons Ratio (y) = 0.13157 0.26805
# Poissons Ratio (z) = 0.31349 0.24808
#
# Static dielectric constant tensor:
#      x y z
#    x 3.846430 0.000000 -0.301140 
#    y 0.000000 3.723830 0.000000 
#    z -0.301140 0.000000 4.091250 
# 
# 
# High freq. dielectric constant tensor:
#      x y z
#    x 1.793630 0.000000 -0.006980 
#    y 0.000000 1.791110 0.000000 
#    z -0.006980 0.000000 1.815770 
# 
# From -- ./inp_files/104507.got.cif
#   From: 2010.06.25/outbox.cif.g09.slc.cpg/sg12_53_cif.got.tgz:104507.got - 2010.06.28 00:19:55.
