data_PCOD8088639
_publ_section_title
;
Structure prediction by ZEFSAII (Michael W. Deem and Ramdas Pophale) SiO2 
 PCOD8088639
Probable space group: C 2/M
;
_chemical_formula_sum "Si O2"
_cell_formula_units_Z 52
_cell_length_a 13.056218
_cell_length_b 21.634265
_cell_length_c 14.966433
_cell_angle_alpha 90.000000
_cell_angle_beta 137.373030
_cell_angle_gamma 90.000000
_cell_volume 2862.919588
_symmetry_space_group_name_H-M "C 2/M"
_symmetry_group_IT_number 12
_symmetry_cell_setting 'monoclinic'
loop_
_space_group_symop_operation_xyz
x,y,z
-x,y,-z
-x,-y,-z
x,-y,z
1/2+x,1/2+y,z
1/2-x,1/2+y,-z
1/2-x,1/2-y,-z
1/2+x,1/2-y,z
loop_
_atom_site_type_symbol
_atom_site_label
_atom_site_fract_x
_atom_site_fract_y
_atom_site_fract_z
Si Si1 0.369005 0.250119 0.773772
Si Si2 0.333058 0.568140 0.396063
Si Si3 0.810272 0.663200 0.578368
Si Si4 0.565500 0.223372 0.639819
Si Si5 0.500000 0.844703 0.000000
Si Si6 0.269281 0.430042 0.152510
Si Si7 0.509464 0.331073 0.283250
O O1 0.287092 0.218923 0.634203
O O2 0.244498 0.291209 0.746803
O O3 0.439471 0.198011 0.881614
O O4 0.497563 0.296470 0.817866
O O5 0.500000 0.601117 0.500000
O O6 0.358140 0.500000 0.452648
O O7 0.209498 0.600024 0.380062
O O8 0.260899 0.565644 0.253145
O O9 0.685998 0.661835 0.420642
O O10 0.976106 0.671042 0.639387
O O11 0.500000 0.229785 0.500000
O O12 0.566161 0.290217 0.688016
O O13 0.626186 0.887977 0.033669
O O14 0.261794 0.500000 0.107165
O O15 0.424027 0.396661 0.220080
#
# Coordination Sequence:
#
# PCOD8088639 Si02
#       7
#     8   8   8   8   4   8   8
#     4  11  22  35  51  83 110 150 177 221 277 320
#     4  10  19  32  54  81 108 138 180 228 277 326
#     4  11  19  31  56  81 110 138 174 227 281 336
#     4  11  18  32  53  79 109 142 174 218 276 332
#     4  12  23  38  56  72 119 146 186 232 264 330
#     4  11  23  37  55  79 110 149 185 228 272 320
#     4  11  20  33  58  82 111 135 179 230 278 338
#
# _framework density 18.163276
#
# number of rings (size 3 to 8) (size 9 to 14) (size 15 to 20)
#    0.000    1.077    7.692    1.154    0.000    0.615 
#    0.000    0.000    0.000    1.385    0.000    0.538 
#    0.000    0.000    0.000    0.000    0.000    0.000 
#
# Total GULP energy -322193.302188 kJ/mol
# GULP energy per Si atom -12392.050084 kJ/mol
# Density = 1.812194 g / cm^3
# Si number density = 18.163276 Si / 1000 Ang^3
#
#
#
# Elastic Constant Matrix: (Units=GPa)
#
#
# Indices 1 2 3 4 5 6 
#
# 1 114.5692 67.6740 35.2580 0.0000 10.6691 0.0000
# 2 67.6740 116.3030 31.6609 0.0000 12.0504 0.0000
# 3 35.2580 31.6609 57.4098 0.0000 19.4216 0.0000
# 4 0.0000 0.0000 0.0000 18.0930 0.0000 7.3208
# 5 10.6691 12.0504 19.4216 0.0000 14.3230 0.0000
# 6 0.0000 0.0000 0.0000 7.3208 0.0000 30.4355
#
#
#
# Elastic Compliance Matrix: (Units=1/GPa)
#
#
# Indices 1 2 3 4 5 6 
#
# 1 0.014512 -0.007130 -0.006194 0.000000 0.003588 0.000000
# 2 -0.007130 0.013644 -0.001957 0.000000 -0.003515 0.000000
# 3 -0.006194 -0.001957 0.037290 0.000000 -0.044303 0.000000
# 4 0.000000 0.000000 0.000000 0.061229 0.000000 -0.014728
# 5 0.003588 -0.003515 -0.044303 0.000000 0.130177 0.000000
# 6 0.000000 0.000000 0.000000 -0.014728 0.000000 0.036399
#
#
# Mechanical properties :
#
#
# Convention : Reuss Voigt Hill
#
# Bulk Modulus (GPa) = 28.66635 61.94090 45.30362
# Shear Modulus (GPa) = 14.90586 22.81623 18.86104
#
# Velocity S-wave (km/s) = 2.86782 3.54810 3.22594
# Velocity P-wave (km/s) = 5.17520 7.13874 6.23476
#
# Compressibility (1/GPa) = 0.03488411
#
# Stress axis : x y z
#
# Youngs Moduli (GPa) = 68.90945 73.29441 26.81715
#
# Poissons Ratio (x) = 0.52256 0.16611
# Poissons Ratio (y) = 0.49130 0.05247
# Poissons Ratio (z) = 0.42684 0.14341
#
# Static dielectric constant tensor:
#      x y z
#    x 3.562550 0.000000 0.073830 
#    y 0.000000 3.458360 0.000000 
#    z 0.073830 0.000000 3.256390 
# 
# 
# High freq. dielectric constant tensor:
#      x y z
#    x 1.694850 0.000000 0.009950 
#    y 0.000000 1.683140 0.000000 
#    z 0.009950 0.000000 1.688500 
# 
# From -- ./inp_files/271965.got.cif
#   From: 2010.06.25/outbox.cif.g09.slc.cpg/sg12_136_cif.got.tgz:271965.got - 2010.06.28 00:19:55.
