data_PCOD8088924
_publ_section_title
;
Structure prediction by ZEFSAII (Michael W. Deem and Ramdas Pophale) SiO2 
 PCOD8088924
Probable space group: C 2/M
;
_chemical_formula_sum "Si O2"
_cell_formula_units_Z 64
_cell_length_a 31.066852
_cell_length_b 10.377920
_cell_length_c 24.005576
_cell_angle_alpha 90.000000
_cell_angle_beta 154.333525
_cell_angle_gamma 90.000000
_cell_volume 3352.275778
_symmetry_space_group_name_H-M "C 2/M"
_symmetry_group_IT_number 12
_symmetry_cell_setting 'monoclinic'
loop_
_space_group_symop_operation_xyz
x,y,z
-x,y,-z
-x,-y,-z
x,-y,z
1/2+x,1/2+y,z
1/2-x,1/2+y,-z
1/2-x,1/2-y,-z
1/2+x,1/2-y,z
loop_
_atom_site_type_symbol
_atom_site_label
_atom_site_fract_x
_atom_site_fract_y
_atom_site_fract_z
Si Si1 0.311009 0.757687 0.662430
Si Si2 0.969771 0.860062 0.686163
Si Si3 0.491497 0.346702 0.053355
Si Si4 0.693947 0.353718 0.970854
Si Si5 0.352419 0.862213 0.596820
Si Si6 0.697439 0.649254 0.100145
Si Si7 0.658405 0.353771 0.568344
Si Si8 0.110188 0.351056 0.606305
O O1 0.417374 0.702021 0.803115
O O2 0.316408 0.861649 0.618838
O O3 0.238234 0.647411 0.553017
O O4 0.263226 0.825554 0.660661
O O5 0.086613 0.857792 0.818749
O O6 0.931297 0.752153 0.683274
O O7 0.931119 0.835989 0.579137
O O8 0.932651 0.000000 0.664918
O O9 0.493352 0.500000 0.054931
O O10 0.500000 0.294190 0.000000
O O11 0.388567 0.291418 0.960096
O O12 0.740268 0.500000 0.023155
O O13 0.750000 0.250000 0.000000
O O14 0.690341 0.296908 0.029294
O O15 0.403947 0.000000 0.645492
O O16 0.672684 0.500000 0.068324
O O17 0.808815 0.675361 0.251369
O O18 0.660316 0.500000 0.595037
O O19 0.638026 0.247348 0.590722
O O20 0.117387 0.500000 0.593780
O O21 0.000000 0.321284 0.500000
#
# Coordination Sequence:
#
# PCOD8088924 Si02
#       8
#     8   8   8   8   8   8   8   8
#     4  10  20  33  53  80 116 150 184 230 280 327
#     4   9  20  37  55  80 114 149 185 229 281 332
#     4  10  19  32  56  85 113 150 192 230 274 339
#     4  10  21  37  58  81 110 147 186 232 284 337
#     4  10  20  33  54  83 113 148 189 230 272 329
#     4   9  19  36  56  82 115 147 183 230 286 336
#     4  10  21  37  57  82 114 151 186 225 277 338
#     4  10  22  39  60  84 109 140 184 238 287 328
#
# _framework density 19.091508999999999
#
# number of rings (size 3 to 8) (size 9 to 14) (size 15 to 20)
#    0.000    2.250    0.000    2.250    1.750    8.750 
#    0.000    0.625    0.000    8.250    0.000    0.000 
#    0.000    0.000    0.000    0.000    0.000    0.000 
#
# Total GULP energy -396607.546057 kJ/mol
# GULP energy per Si atom -12393.985814 kJ/mol
# Density = 1.904806 g / cm^3
# Si number density = 19.091509 Si / 1000 Ang^3
#
#
#
# Elastic Constant Matrix: (Units=GPa)
#
#
# Indices 1 2 3 4 5 6 
#
# 1 120.3648 52.6692 43.5197 0.0000 0.9869 0.0000
# 2 52.6692 107.5097 20.3487 0.0000 -0.6662 0.0000
# 3 43.5197 20.3487 101.1028 0.0000 7.0497 0.0000
# 4 0.0000 0.0000 0.0000 19.5226 0.0000 5.8053
# 5 0.9869 -0.6662 7.0497 0.0000 22.4536 0.0000
# 6 0.0000 0.0000 0.0000 5.8053 0.0000 18.5862
#
#
#
# Elastic Compliance Matrix: (Units=1/GPa)
#
#
# Indices 1 2 3 4 5 6 
#
# 1 0.012059 -0.005107 -0.004207 0.000000 0.000639 0.000000
# 2 -0.005107 0.011852 -0.000232 0.000000 0.000649 0.000000
# 3 -0.004207 -0.000232 0.011999 0.000000 -0.003589 0.000000
# 4 0.000000 0.000000 0.000000 0.056467 0.000000 -0.017637
# 5 0.000639 0.000649 -0.003589 0.000000 0.045654 0.000000
# 6 0.000000 0.000000 0.000000 -0.017637 0.000000 0.059312
#
#
# Mechanical properties :
#
#
# Convention : Reuss Voigt Hill
#
# Bulk Modulus (GPa) = 59.46827 62.45025 60.95926
# Shear Modulus (GPa) = 22.51822 26.27513 24.39667
#
# Velocity S-wave (km/s) = 3.43809 3.71384 3.57862
# Velocity P-wave (km/s) = 6.85400 7.15347 7.00534
#
# Compressibility (1/GPa) = 0.01681569
#
# Stress axis : x y z
#
# Youngs Moduli (GPa) = 82.92572 84.37699 83.34030
#
# Poissons Ratio (x) = 0.43095 0.35065
# Poissons Ratio (y) = 0.42354 0.01934
# Poissons Ratio (z) = 0.34890 0.01958
#
# Static dielectric constant tensor:
#      x y z
#    x 3.613770 0.000000 -0.433140 
#    y 0.000000 3.446820 0.000000 
#    z -0.433140 0.000000 5.256520 
# 
# 
# High freq. dielectric constant tensor:
#      x y z
#    x 1.736850 0.000000 -0.002610 
#    y 0.000000 1.726060 0.000000 
#    z -0.002610 0.000000 1.747990 
# 
# From -- ./inp_files/327868.got.cif
#   From: 2010.06.25/outbox.cif.g09.slc.cpg/sg12_164_cif.got.tgz:327868.got - 2010.06.28 00:19:55.
