data_PCOD8088171
_publ_section_title
;
Structure prediction by ZEFSAII (Michael W. Deem and Ramdas Pophale) SiO2 
 PCOD8088171
Probable space group: C 2/M
;
_chemical_formula_sum "Si O2"
_cell_formula_units_Z 56
_cell_length_a 30.462028
_cell_length_b 9.436568
_cell_length_c 13.700197
_cell_angle_alpha 90.000000
_cell_angle_beta 131.826644
_cell_angle_gamma 90.000000
_cell_volume 2934.625649
_symmetry_space_group_name_H-M "C 2/M"
_symmetry_group_IT_number 12
_symmetry_cell_setting 'monoclinic'
loop_
_space_group_symop_operation_xyz
x,y,z
-x,y,-z
-x,-y,-z
x,-y,z
1/2+x,1/2+y,z
1/2-x,1/2+y,-z
1/2-x,1/2-y,-z
1/2+x,1/2-y,z
loop_
_atom_site_type_symbol
_atom_site_label
_atom_site_fract_x
_atom_site_fract_y
_atom_site_fract_z
Si Si1 0.277784 0.654681 0.763993
Si Si2 0.082866 0.169564 0.360204
Si Si3 0.987728 0.332136 0.095406
Si Si4 0.308768 0.836365 0.113652
Si Si5 0.864357 0.338865 0.000384
Si Si6 0.350737 0.164456 0.389153
Si Si7 0.193908 0.844177 0.404785
O O1 0.277686 0.500000 0.814970
O O2 0.209603 0.693414 0.639145
O O3 0.318352 0.650248 0.728593
O O4 0.304869 0.764721 0.877968
O O5 0.027208 0.242554 0.228090
O O6 0.097436 0.237683 0.488020
O O7 0.136137 0.216658 0.369220
O O8 0.073902 0.000000 0.355286
O O9 0.997716 0.500000 0.126913
O O10 0.922784 0.281943 0.033276
O O11 0.000000 0.292426 0.000000
O O12 0.362045 0.816749 0.113977
O O13 0.337448 0.787622 0.258526
O O14 0.289434 0.000000 0.090384
O O15 0.250000 0.750000 0.000000
O O16 0.857540 0.500000 0.959420
O O17 0.370435 0.000000 0.424619
O O18 0.250000 0.750000 0.500000
O O19 0.207983 0.000000 0.468097
#
# Coordination Sequence:
#
# PCOD8088171 Si02
#       7
#     8   8   8   8   8   8   8
#     4  10  19  32  52  80 112 146 181 221 276 336
#     4  11  23  37  56  83 113 148 189 237 284 327
#     4  10  22  41  62  83 111 151 193 231 278 338
#     4  10  20  35  56  84 116 148 186 231 282 335
#     4  10  21  36  57  84 111 144 189 235 277 329
#     4  10  20  35  55  80 113 151 184 222 279 341
#     4  10  20  32  48  75 109 141 177 219 271 331
#
# _framework density 19.082501000000001
#
# number of rings (size 3 to 8) (size 9 to 14) (size 15 to 20)
#    0.000    1.857    2.857    1.286    0.000    3.143 
#    0.000    0.714    0.000    4.286    0.000    0.000 
#    0.000    0.000    0.000    0.000    0.000    0.000 
#
# Total GULP energy -346996.395561 kJ/mol
# GULP energy per Si atom -12392.728413 kJ/mol
# Density = 1.903907 g / cm^3
# Si number density = 19.082501 Si / 1000 Ang^3
#
#
#
# Elastic Constant Matrix: (Units=GPa)
#
#
# Indices 1 2 3 4 5 6 
#
# 1 86.2053 21.5973 28.7907 0.0000 -7.4892 0.0000
# 2 21.5973 69.7925 58.2853 0.0000 5.0745 0.0000
# 3 28.7907 58.2853 124.5747 0.0000 -4.8297 0.0000
# 4 0.0000 0.0000 0.0000 36.4571 0.0000 1.6307
# 5 -7.4892 5.0745 -4.8297 0.0000 27.1901 0.0000
# 6 0.0000 0.0000 0.0000 1.6307 0.0000 19.5318
#
#
#
# Elastic Compliance Matrix: (Units=1/GPa)
#
#
# Indices 1 2 3 4 5 6 
#
# 1 0.013219 -0.003215 -0.001396 0.000000 0.003993 0.000000
# 2 -0.003215 0.025455 -0.011464 0.000000 -0.007673 0.000000
# 3 -0.001396 -0.011464 0.013877 0.000000 0.004220 0.000000
# 4 0.000000 0.000000 0.000000 0.027532 0.000000 -0.002299
# 5 0.003993 -0.007673 0.004220 0.000000 0.040060 0.000000
# 6 0.000000 0.000000 0.000000 -0.002299 0.000000 0.051390
#
#
# Mechanical properties :
#
#
# Convention : Reuss Voigt Hill
#
# Bulk Modulus (GPa) = 49.01791 55.32433 52.17112
# Shear Modulus (GPa) = 23.75479 28.09575 25.92527
#
# Velocity S-wave (km/s) = 3.53207 3.84126 3.68990
# Velocity P-wave (km/s) = 6.50977 6.98060 6.74929
#
# Compressibility (1/GPa) = 0.02040071
#
# Stress axis : x y z
#
# Youngs Moduli (GPa) = 75.64976 39.28520 72.06016
#
# Poissons Ratio (x) = 0.12631 0.10059
# Poissons Ratio (y) = 0.24322 0.82610
# Poissons Ratio (z) = 0.10560 0.45037
#
# Static dielectric constant tensor:
#      x y z
#    x 3.864430 0.000000 -0.212760 
#    y 0.000000 3.489120 0.000000 
#    z -0.212760 0.000000 3.369900 
# 
# 
# High freq. dielectric constant tensor:
#      x y z
#    x 1.741650 0.000000 -0.014640 
#    y 0.000000 1.739390 0.000000 
#    z -0.014640 0.000000 1.730530 
# 
# From -- ./inp_files/237489.got.cif
#   From: 2010.06.25/outbox.cif.g09.slc.cpg/sg12_119_cif.got.tgz:237489.got - 2010.06.28 00:19:55.
