data_PCOD8088516
_publ_section_title
;
Structure prediction by ZEFSAII (Michael W. Deem and Ramdas Pophale) SiO2 
 PCOD8088516
Probable space group: C 2/M
;
_chemical_formula_sum "Si O2"
_cell_formula_units_Z 56
_cell_length_a 19.608458
_cell_length_b 8.696134
_cell_length_c 21.039271
_cell_angle_alpha 90.000000
_cell_angle_beta 125.409325
_cell_angle_gamma 90.000000
_cell_volume 2923.989549
_symmetry_space_group_name_H-M "C 2/M"
_symmetry_group_IT_number 12
_symmetry_cell_setting 'monoclinic'
loop_
_space_group_symop_operation_xyz
x,y,z
-x,y,-z
-x,-y,-z
x,-y,z
1/2+x,1/2+y,z
1/2-x,1/2+y,-z
1/2-x,1/2-y,-z
1/2+x,1/2-y,z
loop_
_atom_site_type_symbol
_atom_site_label
_atom_site_fract_x
_atom_site_fract_y
_atom_site_fract_z
Si Si1 0.577122 0.683051 0.500444
Si Si2 0.132270 0.680745 0.190039
Si Si3 0.259948 0.818739 0.634006
Si Si4 0.401780 0.326021 0.956473
Si Si5 0.340779 0.179725 0.048454
Si Si6 0.597182 0.679395 0.369319
Si Si7 0.011074 0.820079 0.807724
O O1 0.500000 0.751768 0.500000
O O2 0.572985 0.500000 0.500111
O O3 0.664999 0.742116 0.577113
O O4 0.571140 0.742954 0.424530
O O5 0.133886 0.500000 0.177758
O O6 0.204638 0.732817 0.278294
O O7 0.147526 0.770139 0.132760
O O8 0.042980 0.726379 0.170563
O O9 0.316646 0.754019 0.607740
O O10 0.263394 0.000000 0.628842
O O11 0.373305 0.500000 0.957090
O O12 0.500000 0.317309 0.000000
O O13 0.380754 0.211658 0.001814
O O14 0.394105 0.261863 0.133270
O O15 0.337583 0.000000 0.060621
O O16 0.250000 0.250000 0.000000
O O17 0.615486 0.500000 0.383026
O O18 0.520477 0.716358 0.280432
O O19 0.004057 0.000000 0.820096
#
# Coordination Sequence:
#
# PCOD8088516 Si02
#       7
#     8   8   8   8   8   8   8
#     4   9  17  32  53  78 110 143 180 222 270 327
#     4  10  19  32  53  84 112 142 186 233 283 328
#     4   9  18  32  53  81 109 140 182 229 271 321
#     4  11  22  37  60  85 113 147 187 232 279 329
#     4  12  25  41  60  82 113 150 189 230 279 334
#     4   9  18  32  55  82 105 141 184 224 271 322
#     4  10  19  34  54  81 112 143 186 232 278 329
#
# _framework density 19.151914000000001
#
# number of rings (size 3 to 8) (size 9 to 14) (size 15 to 20)
#    0.000    2.000    1.429    3.000    0.000    1.714 
#    2.571    0.000    0.000    1.714    0.000    0.000 
#    0.000    0.000    0.000    0.000    0.000    0.000 
#
# Total GULP energy -347218.462839 kJ/mol
# GULP energy per Si atom -12400.659387 kJ/mol
# Density = 1.910832 g / cm^3
# Si number density = 19.151914 Si / 1000 Ang^3
#
#
#
# Elastic Constant Matrix: (Units=GPa)
#
#
# Indices 1 2 3 4 5 6 
#
# 1 105.8398 21.6715 70.6744 0.0000 11.6619 0.0000
# 2 21.6715 43.3024 28.6267 0.0000 0.3345 0.0000
# 3 70.6744 28.6267 147.3647 0.0000 8.2855 0.0000
# 4 0.0000 0.0000 0.0000 16.0242 0.0000 -0.0556
# 5 11.6619 0.3345 8.2855 0.0000 32.4975 0.0000
# 6 0.0000 0.0000 0.0000 -0.0556 0.0000 26.9874
#
#
#
# Elastic Compliance Matrix: (Units=1/GPa)
#
#
# Indices 1 2 3 4 5 6 
#
# 1 0.014642 -0.003204 -0.006195 0.000000 -0.003642 0.000000
# 2 -0.003204 0.027233 -0.003858 0.000000 0.001853 0.000000
# 3 -0.006195 -0.003858 0.010530 0.000000 -0.000422 0.000000
# 4 0.000000 0.000000 0.000000 0.062406 0.000000 0.000129
# 5 -0.003642 0.001853 -0.000422 0.000000 0.032167 0.000000
# 6 0.000000 0.000000 0.000000 0.000129 0.000000 0.037055
#
#
# Mechanical properties :
#
#
# Convention : Reuss Voigt Hill
#
# Bulk Modulus (GPa) = 38.62305 59.82802 49.22554
# Shear Modulus (GPa) = 22.81249 26.80409 24.80829
#
# Velocity S-wave (km/s) = 3.45502 3.74512 3.60299
# Velocity P-wave (km/s) = 6.01055 7.07161 6.56256
#
# Compressibility (1/GPa) = 0.02589127
#
# Stress axis : x y z
#
# Youngs Moduli (GPa) = 68.29465 36.72011 94.96613
#
# Poissons Ratio (x) = 0.11767 0.58832
# Poissons Ratio (y) = 0.21885 0.36634
# Poissons Ratio (z) = 0.42309 0.14165
#
# Static dielectric constant tensor:
#      x y z
#    x 3.366370 0.000000 0.077770 
#    y 0.000000 3.430480 0.000000 
#    z 0.077770 0.000000 3.913880 
# 
# 
# High freq. dielectric constant tensor:
#      x y z
#    x 1.723560 0.000000 0.001440 
#    y 0.000000 1.733980 0.000000 
#    z 0.001440 0.000000 1.763440 
# 
# From -- ./inp_files/314366.got.cif
#   From: 2010.06.25/outbox.cif.g09.slc.cpg/sg12_158_cif.got.tgz:314366.got - 2010.06.28 00:19:55.
