data_PCOD8088178
_publ_section_title
;
Structure prediction by ZEFSAII (Michael W. Deem and Ramdas Pophale) SiO2 
 PCOD8088178
Probable space group: C 2/M
;
_chemical_formula_sum "Si O2"
_cell_formula_units_Z 64
_cell_length_a 20.219135
_cell_length_b 8.945408
_cell_length_c 31.186883
_cell_angle_alpha 90.000000
_cell_angle_beta 142.203575
_cell_angle_gamma 90.000000
_cell_volume 3456.960197
_symmetry_space_group_name_H-M "C 2/M"
_symmetry_group_IT_number 12
_symmetry_cell_setting 'monoclinic'
loop_
_space_group_symop_operation_xyz
x,y,z
-x,y,-z
-x,-y,-z
x,-y,z
1/2+x,1/2+y,z
1/2-x,1/2+y,-z
1/2-x,1/2-y,-z
1/2+x,1/2-y,z
loop_
_atom_site_type_symbol
_atom_site_label
_atom_site_fract_x
_atom_site_fract_y
_atom_site_fract_z
Si Si1 0.804564 0.826296 0.987800
Si Si2 0.862966 0.176754 0.148715
Si Si3 0.728646 0.825989 0.369131
Si Si4 0.548071 0.675806 0.645850
Si Si5 0.932408 0.673839 0.508002
Si Si6 0.994198 0.828196 0.858861
Si Si7 0.720002 0.825606 0.267900
Si Si8 0.494815 0.173623 0.288029
O O1 0.756782 0.746263 0.920944
O O2 0.773898 0.000000 0.970964
O O3 0.750000 0.750000 0.000000
O O4 0.933416 0.805012 0.060977
O O5 0.904916 0.237982 0.215229
O O6 0.942945 0.229487 0.151450
O O7 0.851685 0.000000 0.145090
O O8 0.810330 0.728210 0.438999
O O9 0.731630 0.763403 0.322146
O O10 0.610794 0.797497 0.327144
O O11 0.762145 0.000000 0.388459
O O12 0.530410 0.500000 0.643167
O O13 0.483148 0.727817 0.571259
O O14 0.674107 0.715461 0.704820
O O15 0.502440 0.764483 0.662729
O O16 0.933215 0.500000 0.521247
O O17 0.000000 0.705192 0.500000
O O18 0.882808 0.742552 0.808802
O O19 0.965794 0.000000 0.837367
O O20 0.700018 0.000000 0.260546
O O21 0.464455 0.000000 0.272642
#
# Coordination Sequence:
#
# PCOD8088178 Si02
#       8
#     8   8   8   8   8   8   8   8
#     4   9  17  29  46  76 113 149 187 230 281 330
#     4  10  19  32  52  80 113 151 188 227 280 335
#     4  10  21  38  60  85 111 146 187 229 279 333
#     4  11  24  41  60  82 113 150 186 228 279 338
#     4  11  23  38  60  88 114 144 184 232 281 330
#     4   9  18  30  50  81 114 145 183 232 278 324
#     4  10  20  35  57  83 110 145 188 230 277 330
#     4  11  23  39  59  84 115 149 187 232 279 333
#
# _framework density 18.513373999999999
#
# number of rings (size 3 to 8) (size 9 to 14) (size 15 to 20)
#    0.000    1.875    2.500    2.625    0.000    6.000 
#    0.000    0.000    0.000    0.750    0.000    5.250 
#    0.000    0.000    0.000    0.000    0.000    0.000 
#
# Total GULP energy -396833.733586 kJ/mol
# GULP energy per Si atom -12401.054175 kJ/mol
# Density = 1.847124 g / cm^3
# Si number density = 18.513374 Si / 1000 Ang^3
#
#
#
# Elastic Constant Matrix: (Units=GPa)
#
#
# Indices 1 2 3 4 5 6 
#
# 1 44.8343 29.9543 11.8632 -0.0002 -4.4415 0.0003
# 2 29.9543 78.8579 48.6820 -0.0001 4.6184 0.0002
# 3 11.8632 48.6820 115.9492 -0.0001 3.8810 0.0002
# 4 -0.0002 -0.0001 -0.0001 40.2585 0.0000 -0.9913
# 5 -4.4415 4.6184 3.8810 0.0000 18.1638 0.0000
# 6 0.0003 0.0002 0.0002 -0.9913 0.0000 25.4755
#
#
#
# Elastic Compliance Matrix: (Units=1/GPa)
#
#
# Indices 1 2 3 4 5 6 
#
# 1 0.032412 -0.014423 0.002368 0.000000 0.011087 0.000000
# 2 -0.014423 0.023683 -0.008207 0.000000 -0.007795 0.000000
# 3 0.002368 -0.008207 0.011823 0.000000 0.000140 0.000000
# 4 0.000000 0.000000 0.000000 0.024863 0.000000 0.000967
# 5 0.011087 -0.007795 0.000140 0.000000 0.059718 0.000000
# 6 0.000000 0.000000 0.000000 0.000967 0.000000 0.039291
#
#
# Mechanical properties :
#
#
# Convention : Reuss Voigt Hill
#
# Bulk Modulus (GPa) = 36.50316 46.73782 41.62049
# Shear Modulus (GPa) = 20.70862 26.72233 23.71548
#
# Velocity S-wave (km/s) = 3.34814 3.80334 3.58298
# Velocity P-wave (km/s) = 5.89124 6.67738 6.29659
#
# Compressibility (1/GPa) = 0.02739489
#
# Stress axis : x y z
#
# Youngs Moduli (GPa) = 30.85238 42.22516 84.58020
#
# Poissons Ratio (x) = 0.60903 -0.20032
# Poissons Ratio (y) = 0.44499 0.69412
# Poissons Ratio (z) = -0.07307 0.34653
#
# Static dielectric constant tensor:
#      x y z
#    x 3.150640 0.000000 0.028140 
#    y 0.000000 3.466470 0.000000 
#    z 0.028140 0.000000 3.691020 
# 
# 
# High freq. dielectric constant tensor:
#      x y z
#    x 1.682110 0.000000 0.002840 
#    y 0.000000 1.726770 0.000000 
#    z 0.002840 0.000000 1.735080 
# 
# From -- ./inp_files/378462.got.cif
#   From: 2010.06.25/outbox.cif.g09.slc.cpg/sg12_190_cif.got.tgz:378462.got - 2010.06.28 00:19:55.
