data_PCOD8088884
_publ_section_title
;
Structure prediction by ZEFSAII (Michael W. Deem and Ramdas Pophale) SiO2 
 PCOD8088884
Probable space group: C 2/M
;
_chemical_formula_sum "Si O2"
_cell_formula_units_Z 48
_cell_length_a 27.824342
_cell_length_b 7.422062
_cell_length_c 14.935999
_cell_angle_alpha 90.000000
_cell_angle_beta 132.449320
_cell_angle_gamma 90.000000
_cell_volume 2275.968961
_symmetry_space_group_name_H-M "C 2/M"
_symmetry_group_IT_number 12
_symmetry_cell_setting 'monoclinic'
loop_
_space_group_symop_operation_xyz
x,y,z
-x,y,-z
-x,-y,-z
x,-y,z
1/2+x,1/2+y,z
1/2-x,1/2+y,-z
1/2-x,1/2-y,-z
1/2+x,1/2-y,z
loop_
_atom_site_type_symbol
_atom_site_label
_atom_site_fract_x
_atom_site_fract_y
_atom_site_fract_z
Si Si1 0.063040 0.204119 0.620636
Si Si2 0.282770 0.709412 0.948369
Si Si3 0.977245 0.500000 0.107342
Si Si4 0.721956 0.289815 0.367042
Si Si5 0.809594 0.289003 0.315664
Si Si6 0.576049 0.285634 0.837269
Si Si7 0.386576 0.000000 0.820597
O O1 0.119989 0.209740 0.618378
O O2 0.078377 0.286064 0.737430
O O3 0.000000 0.304288 0.500000
O O4 0.044344 0.000000 0.617281
O O5 0.286079 0.500000 0.934913
O O6 0.241363 0.801254 0.817618
O O7 0.250000 0.750000 0.000000
O O8 0.355584 0.782514 0.036843
O O9 0.975794 0.678584 0.167944
O O10 0.049959 0.500000 0.161334
O O11 0.917801 0.500000 0.959865
O O12 0.702734 0.500000 0.332494
O O13 0.750000 0.250000 0.500000
O O14 0.783653 0.240106 0.381443
O O15 0.658234 0.175049 0.258292
O O16 0.815230 0.500000 0.307485
O O17 0.564066 0.500000 0.830691
#
# Coordination Sequence:
#
# PCOD8088884 Si02
#       7
#     8   8   4   8   8   8   4
#     4  10  22  38  56  87 133 177 220 259 320 407
#     4  10  19  32  55  87 123 162 207 258 315 381
#     4  11  26  44  71  98 140 176 231 280 346 423
#     4  11  24  46  72 100 134 171 230 292 342 401
#     4  10  22  37  59  92 122 162 212 268 329 386
#     4  10  22  41  62  94 136 179 220 269 334 404
#     4  11  26  48  70 106 129 177 230 290 352 402
#
# _framework density 21.089918000000001
#
# number of rings (size 3 to 8) (size 9 to 14) (size 15 to 20)
#    0.000    1.667    2.500    1.000    3.500    4.333 
#    0.000    3.333    0.000    0.000    0.000    0.000 
#    0.000    0.000    0.000    0.000    0.000    0.000 
#
# Total GULP energy -297379.030200 kJ/mol
# GULP energy per Si atom -12390.792925 kJ/mol
# Density = 2.104192 g / cm^3
# Si number density = 21.089918 Si / 1000 Ang^3
#
#
#
# Elastic Constant Matrix: (Units=GPa)
#
#
# Indices 1 2 3 4 5 6 
#
# 1 161.5349 40.9386 76.5263 0.0000 -6.0939 0.0000
# 2 40.9386 86.6219 32.0981 0.0000 2.6411 0.0000
# 3 76.5263 32.0981 142.9356 0.0000 3.3371 0.0000
# 4 0.0000 0.0000 0.0000 17.7168 0.0000 -0.9650
# 5 -6.0939 2.6411 3.3371 0.0000 41.3111 0.0000
# 6 0.0000 0.0000 0.0000 -0.9650 0.0000 31.7529
#
#
#
# Elastic Compliance Matrix: (Units=1/GPa)
#
#
# Indices 1 2 3 4 5 6 
#
# 1 0.008950 -0.002721 -0.004224 0.000000 0.001835 0.000000
# 2 -0.002721 0.013433 -0.001533 0.000000 -0.001136 0.000000
# 3 -0.004224 -0.001533 0.009632 0.000000 -0.001303 0.000000
# 4 0.000000 0.000000 0.000000 0.056537 0.000000 0.001718
# 5 0.001835 -0.001136 -0.001303 0.000000 0.024655 0.000000
# 6 0.000000 0.000000 0.000000 0.001718 0.000000 0.031545
#
#
# Mechanical properties :
#
#
# Convention : Reuss Voigt Hill
#
# Bulk Modulus (GPa) = 66.40177 76.69092 71.54634
# Shear Modulus (GPa) = 29.98867 34.25814 32.12340
#
# Velocity S-wave (km/s) = 3.77496 4.03474 3.90701
# Velocity P-wave (km/s) = 7.11012 7.62550 7.37231
#
# Compressibility (1/GPa) = 0.01505984
#
# Stress axis : x y z
#
# Youngs Moduli (GPa) = 111.72646 74.44250 103.81745
#
# Poissons Ratio (x) = 0.20255 0.43850
# Poissons Ratio (y) = 0.30400 0.15919
# Poissons Ratio (z) = 0.47191 0.11414
#
# Static dielectric constant tensor:
#      x y z
#    x 3.774620 0.000000 -0.059560 
#    y 0.000000 3.735660 0.000000 
#    z -0.059560 0.000000 4.258140 
# 
# 
# High freq. dielectric constant tensor:
#      x y z
#    x 1.827550 0.000000 -0.006000 
#    y 0.000000 1.825820 0.000000 
#    z -0.006000 0.000000 1.832900 
# 
# From -- ./inp_files/249392.got.cif
#   From: 2010.06.25/outbox.cif.g09.slc.cpg/sg12_125_cif.got.tgz:249392.got - 2010.06.28 00:19:55.
