data_PCOD8088741
_publ_section_title
;
Structure prediction by ZEFSAII (Michael W. Deem and Ramdas Pophale) SiO2 
 PCOD8088741
Probable space group: C 2/M
;
_chemical_formula_sum "Si O2"
_cell_formula_units_Z 40
_cell_length_a 20.824784
_cell_length_b 8.959810
_cell_length_c 14.612496
_cell_angle_alpha 90.000000
_cell_angle_beta 129.087279
_cell_angle_gamma 90.000000
_cell_volume 2116.263527
_symmetry_space_group_name_H-M "C 2/M"
_symmetry_group_IT_number 12
_symmetry_cell_setting 'monoclinic'
loop_
_space_group_symop_operation_xyz
x,y,z
-x,y,-z
-x,-y,-z
x,-y,z
1/2+x,1/2+y,z
1/2-x,1/2+y,-z
1/2-x,1/2-y,-z
1/2+x,1/2-y,z
loop_
_atom_site_type_symbol
_atom_site_label
_atom_site_fract_x
_atom_site_fract_y
_atom_site_fract_z
Si Si1 0.450064 0.827834 0.862603
Si Si2 0.136302 0.323837 0.727397
Si Si3 0.014695 0.176223 0.743513
Si Si4 0.102141 0.169126 0.521695
Si Si5 0.230503 0.669526 0.253423
O O1 0.494606 0.730301 0.826502
O O2 0.357059 0.764621 0.792994
O O3 0.448005 0.000000 0.829464
O O4 0.500000 0.806149 0.000000
O O5 0.135398 0.500000 0.733515
O O6 0.099765 0.253448 0.787386
O O7 0.078183 0.266880 0.590291
O O8 0.230631 0.265302 0.796082
O O9 0.940224 0.228297 0.608909
O O10 0.026705 0.000000 0.754892
O O11 0.202956 0.176279 0.602695
O O12 0.073507 0.000000 0.516123
O O13 0.217560 0.500000 0.207029
#
# Coordination Sequence:
#
# PCOD8088741 Si02
#       5
#     8   8   8   8   8
#     4  10  22  40  59  78 104 140 183 229 271 312
#     4  10  19  32  54  85 114 140 176 217 264 319
#     4  11  21  34  55  82 112 145 179 214 264 324
#     4   8  17  33  54  80 112 145 172 210 268 324
#     4   8  17  36  56  76 110 145 172 214 272 319
#
# _framework density 18.901239
#
# number of rings (size 3 to 8) (size 9 to 14) (size 15 to 20)
#    1.200    1.400    0.000    2.400    0.000    6.000 
#    0.000    1.000    0.000    0.000    0.000    0.000 
#    0.000    0.000    0.000    0.000    0.000    0.000 
#
# Total GULP energy -247825.530834 kJ/mol
# GULP energy per Si atom -12391.276542 kJ/mol
# Density = 1.885822 g / cm^3
# Si number density = 18.901239 Si / 1000 Ang^3
#
#
#
# Elastic Constant Matrix: (Units=GPa)
#
#
# Indices 1 2 3 4 5 6 
#
# 1 109.1846 53.8026 25.5331 0.0000 -23.2251 0.0000
# 2 53.8026 105.2904 21.3003 0.0000 -16.9614 0.0000
# 3 25.5331 21.3003 38.6885 0.0000 -12.9751 0.0000
# 4 0.0000 0.0000 0.0000 17.8356 0.0000 -6.0994
# 5 -23.2251 -16.9614 -12.9751 0.0000 17.6593 0.0000
# 6 0.0000 0.0000 0.0000 -6.0994 0.0000 31.5459
#
#
#
# Elastic Compliance Matrix: (Units=1/GPa)
#
#
# Indices 1 2 3 4 5 6 
#
# 1 0.015041 -0.005041 -0.002841 0.000000 0.012853 0.000000
# 2 -0.005041 0.013274 -0.002560 0.000000 0.004239 0.000000
# 3 -0.002841 -0.002560 0.035900 0.000000 0.020183 0.000000
# 4 0.000000 0.000000 0.000000 0.060037 0.000000 0.011608
# 5 0.012853 0.004239 0.020183 0.000000 0.092433 0.000000
# 6 0.000000 0.000000 0.000000 0.011608 0.000000 0.033944
#
#
# Mechanical properties :
#
#
# Convention : Reuss Voigt Hill
#
# Bulk Modulus (GPa) = 23.07708 50.49282 36.78495
# Shear Modulus (GPa) = 17.48518 23.57666 20.53092
#
# Velocity S-wave (km/s) = 3.04481 3.53563 3.29936
# Velocity P-wave (km/s) = 4.95954 6.59087 5.83252
#
# Compressibility (1/GPa) = 0.04333304
#
# Stress axis : x y z
#
# Youngs Moduli (GPa) = 66.48497 75.33515 27.85480
#
# Poissons Ratio (x) = 0.37974 0.07913
# Poissons Ratio (y) = 0.33513 0.07130
# Poissons Ratio (z) = 0.18888 0.19283
#
# Static dielectric constant tensor:
#      x y z
#    x 3.468920 0.000000 0.168850 
#    y 0.000000 3.282530 0.000000 
#    z 0.168850 0.000000 3.227770 
# 
# 
# High freq. dielectric constant tensor:
#      x y z
#    x 1.735510 0.000000 0.010760 
#    y 0.000000 1.726560 0.000000 
#    z 0.010760 0.000000 1.701500 
# 
# From -- ./inp_files/229485.got.cif
#   From: 2010.06.25/outbox.cif.g09.slc.cpg/sg12_115_cif.got.tgz:229485.got - 2010.06.28 00:19:55.
