data_PCOD8088954
_publ_section_title
;
Structure prediction by ZEFSAII (Michael W. Deem and Ramdas Pophale) SiO2 
 PCOD8088954
Probable space group: C 2/M
;
_chemical_formula_sum "Si O2"
_cell_formula_units_Z 48
_cell_length_a 10.584753
_cell_length_b 17.553499
_cell_length_c 19.315051
_cell_angle_alpha 90.000000
_cell_angle_beta 149.993586
_cell_angle_gamma 90.000000
_cell_volume 1794.710845
_symmetry_space_group_name_H-M "C 2/M"
_symmetry_group_IT_number 12
_symmetry_cell_setting 'monoclinic'
loop_
_space_group_symop_operation_xyz
x,y,z
-x,y,-z
-x,-y,-z
x,-y,z
1/2+x,1/2+y,z
1/2-x,1/2+y,-z
1/2-x,1/2-y,-z
1/2+x,1/2-y,z
loop_
_atom_site_type_symbol
_atom_site_label
_atom_site_fract_x
_atom_site_fract_y
_atom_site_fract_z
Si Si1 0.626678 0.219527 0.300427
Si Si2 0.974017 0.411101 0.566874
Si Si3 0.519718 0.312766 0.383298
Si Si4 0.764053 0.410944 0.091243
Si Si5 0.214228 0.584107 0.152480
Si Si6 0.992345 0.132397 0.165536
O O1 0.624353 0.245685 0.381283
O O2 0.916899 0.218151 0.408304
O O3 0.470254 0.279456 0.178889
O O4 0.489598 0.137860 0.231453
O O5 0.928864 0.500000 0.548126
O O6 0.737069 0.375408 0.494882
O O7 0.000000 0.380425 0.500000
O O8 0.227922 0.387804 0.729986
O O9 0.263036 0.354321 0.234850
O O10 0.827347 0.500000 0.131699
O O11 0.729950 0.390732 0.993472
O O12 0.500000 0.387508 0.000000
O O13 0.154313 0.500000 0.154504
O O14 0.463353 0.580971 0.221510
O O15 0.000000 0.616299 0.000000
#
# Coordination Sequence:
#
# PCOD8088954 Si02
#       6
#     8   8   8   8   8   8
#     4  11  24  42  65  95 136 176 224 276 333 393
#     4  11  21  40  68 100 131 166 218 280 339 393
#     4  11  24  41  64  97 132 176 219 272 332 395
#     4  11  24  42  65  96 137 182 222 268 333 405
#     4  10  19  32  56  91 126 160 209 274 334 383
#     4  11  22  39  64  95 129 171 218 275 333 393
#
# _framework density 26.745253999999999
#
# number of rings (size 3 to 8) (size 9 to 14) (size 15 to 20)
#    0.000    1.167    3.333    4.500    0.000    7.333 
#    0.000    0.000    0.000    0.000    0.000    7.000 
#    0.000    0.000    0.000    0.000    0.000    0.000 
#
# Total GULP energy -297601.577375 kJ/mol
# GULP energy per Si atom -12400.065724 kJ/mol
# Density = 2.668438 g / cm^3
# Si number density = 26.745254 Si / 1000 Ang^3
#
#
#
# Elastic Constant Matrix: (Units=GPa)
#
#
# Indices 1 2 3 4 5 6 
#
# 1 129.9974 48.3029 37.8809 0.0038 4.6224 -0.0015
# 2 48.3029 148.3752 39.5556 0.0026 2.8622 -0.0006
# 3 37.8809 39.5556 98.0368 -0.0120 7.0355 0.0068
# 4 0.0038 0.0026 -0.0120 48.3765 0.0013 14.4164
# 5 4.6224 2.8622 7.0355 0.0013 40.2129 -0.0004
# 6 -0.0015 -0.0006 0.0068 14.4164 -0.0004 23.3347
#
#
#
# Elastic Compliance Matrix: (Units=1/GPa)
#
#
# Indices 1 2 3 4 5 6 
#
# 1 0.009343 -0.002330 -0.002638 -0.000002 -0.000447 0.000003
# 2 -0.002330 0.008133 -0.002389 -0.000001 0.000107 0.000002
# 3 -0.002638 -0.002389 0.012304 0.000006 -0.001679 -0.000007
# 4 -0.000002 -0.000001 0.000006 0.025336 -0.000002 -0.015653
# 5 -0.000447 0.000107 -0.001679 -0.000002 0.025205 0.000002
# 6 0.000003 0.000002 -0.000007 -0.015653 0.000002 0.052525
#
#
# Mechanical properties :
#
#
# Convention : Reuss Voigt Hill
#
# Bulk Modulus (GPa) = 66.37262 69.76535 68.06899
# Shear Modulus (GPa) = 32.76959 39.09617 35.93288
#
# Velocity S-wave (km/s) = 3.50415 3.82750 3.66939
# Velocity P-wave (km/s) = 6.42204 6.75831 6.59232
#
# Compressibility (1/GPa) = 0.01506645
#
# Stress axis : x y z
#
# Youngs Moduli (GPa) = 107.03622 122.95784 81.27465
#
# Poissons Ratio (x) = 0.28644 0.21440
# Poissons Ratio (y) = 0.24935 0.19416
# Poissons Ratio (z) = 0.28236 0.29374
#
# Static dielectric constant tensor:
#      x y z
#    x 5.070560 0.000000 0.087250 
#    y 0.000000 4.697460 -0.000020 
#    z 0.087250 -0.000020 4.902290 
# 
# 
# High freq. dielectric constant tensor:
#      x y z
#    x 2.084220 0.000000 0.012410 
#    y 0.000000 2.071320 0.000000 
#    z 0.012410 0.000000 2.086950 
# 
# From -- ./inp_files/336489.got.cif
#   From: 2010.06.25/outbox.cif.g09.slc.cpg/sg12_169_cif.got.tgz:336489.got - 2010.06.28 00:19:55.
