data_PCOD8088350
_publ_section_title
;
Structure prediction by ZEFSAII (Michael W. Deem and Ramdas Pophale) SiO2 
 PCOD8088350
Probable space group: C 2/M
;
_chemical_formula_sum "Si O2"
_cell_formula_units_Z 40
_cell_length_a 18.862696
_cell_length_b 8.860506
_cell_length_c 20.194317
_cell_angle_alpha 90.000000
_cell_angle_beta 135.405745
_cell_angle_gamma 90.000000
_cell_volume 2369.622060
_symmetry_space_group_name_H-M "C 2/M"
_symmetry_group_IT_number 12
_symmetry_cell_setting 'monoclinic'
loop_
_space_group_symop_operation_xyz
x,y,z
-x,y,-z
-x,-y,-z
x,-y,z
1/2+x,1/2+y,z
1/2-x,1/2+y,-z
1/2-x,1/2-y,-z
1/2+x,1/2-y,z
loop_
_atom_site_type_symbol
_atom_site_label
_atom_site_fract_x
_atom_site_fract_y
_atom_site_fract_z
Si Si1 0.115125 0.321979 0.588922
Si Si2 0.368716 0.677283 0.262772
Si Si3 0.741742 0.822330 0.422941
Si Si4 0.981666 0.669348 0.720717
Si Si5 0.308723 0.829037 0.097497
O O1 0.127061 0.500000 0.602172
O O2 0.156986 0.247584 0.683611
O O3 0.181299 0.261162 0.573094
O O4 0.000000 0.273119 0.500000
O O5 0.355788 0.500000 0.258155
O O6 0.483772 0.721946 0.317253
O O7 0.290370 0.744630 0.155807
O O8 0.750000 0.750000 0.500000
O O9 0.627005 0.788207 0.321579
O O10 0.765550 0.000000 0.440480
O O11 0.976709 0.500000 0.687267
O O12 0.069477 0.677014 0.835751
O O13 0.269649 0.000000 0.077337
O O14 0.250000 0.750000 0.000000
#
# Coordination Sequence:
#
# PCOD8088350 Si02
#       5
#     8   8   8   8   8
#     4  11  23  37  52  73 106 144 179 221 270 313
#     4  10  19  32  53  79 105 136 177 218 260 313
#     4  11  22  36  53  76 105 141 179 218 265 314
#     4   8  18  34  51  73 107 138 168 214 265 311
#     4   9  17  32  54  81 109 138 174 219 266 313
#
# _framework density 16.880327999999999
#
# number of rings (size 3 to 8) (size 9 to 14) (size 15 to 20)
#    1.200    1.000    0.000    4.200    0.000    8.000 
#    0.000    0.000    0.000    1.200    0.000    8.400 
#    0.000    0.000    0.000    0.000    0.000    0.000 
#
# Total GULP energy -247803.297794 kJ/mol
# GULP energy per Si atom -12390.164890 kJ/mol
# Density = 1.684191 g / cm^3
# Si number density = 16.880328 Si / 1000 Ang^3
#
#
#
# Elastic Constant Matrix: (Units=GPa)
#
#
# Indices 1 2 3 4 5 6 
#
# 1 101.5216 47.7998 53.7323 0.0000 -10.3008 0.0000
# 2 47.7998 119.7589 61.4825 0.0000 -9.2100 0.0000
# 3 53.7323 61.4825 123.6940 0.0000 -13.4805 0.0000
# 4 0.0000 0.0000 0.0000 31.4539 0.0000 -6.0115
# 5 -10.3008 -9.2100 -13.4805 0.0000 25.9047 0.0000
# 6 0.0000 0.0000 0.0000 -6.0115 0.0000 26.1645
#
#
#
# Elastic Compliance Matrix: (Units=1/GPa)
#
#
# Indices 1 2 3 4 5 6 
#
# 1 0.013777 -0.003196 -0.004159 0.000000 0.002178 0.000000
# 2 -0.003196 0.011985 -0.004498 0.000000 0.000649 0.000000
# 3 -0.004159 -0.004498 0.012480 0.000000 0.003242 0.000000
# 4 0.000000 0.000000 0.000000 0.033253 0.000000 0.007640
# 5 0.002178 0.000649 0.003242 0.000000 0.041387 0.000000
# 6 0.000000 0.000000 0.000000 0.007640 0.000000 0.039975
#
#
# Mechanical properties :
#
#
# Convention : Reuss Voigt Hill
#
# Bulk Modulus (GPa) = 68.79391 74.55599 71.67495
# Shear Modulus (GPa) = 27.56220 28.83528 28.19874
#
# Velocity S-wave (km/s) = 4.04518 4.13754 4.09162
# Velocity P-wave (km/s) = 7.91583 8.19078 8.05448
#
# Compressibility (1/GPa) = 0.01453617
#
# Stress axis : x y z
#
# Youngs Moduli (GPa) = 72.58422 83.43749 80.12875
#
# Poissons Ratio (x) = 0.26671 0.33322
# Poissons Ratio (y) = 0.23201 0.36041
# Poissons Ratio (z) = 0.30185 0.37529
#
# Static dielectric constant tensor:
#      x y z
#    x 3.106690 0.000000 0.107450 
#    y 0.000000 3.472660 0.000000 
#    z 0.107450 0.000000 3.117340 
# 
# 
# High freq. dielectric constant tensor:
#      x y z
#    x 1.625450 0.000000 0.002130 
#    y 0.000000 1.668340 0.000000 
#    z 0.002130 0.000000 1.641370 
# 
# From -- ./inp_files/220273.got.cif
#   From: 2010.06.25/outbox.cif.g09.slc.cpg/sg12_111_cif.got.tgz:220273.got - 2010.06.28 00:19:55.
