data_PCOD8088535
_publ_section_title
;
Structure prediction by ZEFSAII (Michael W. Deem and Ramdas Pophale) SiO2 
 PCOD8088535
Probable space group: C 2/M
;
_chemical_formula_sum "Si O2"
_cell_formula_units_Z 52
_cell_length_a 10.659054
_cell_length_b 27.615104
_cell_length_c 11.252376
_cell_angle_alpha 90.000000
_cell_angle_beta 128.966325
_cell_angle_gamma 90.000000
_cell_volume 2575.246174
_symmetry_space_group_name_H-M "C 2/M"
_symmetry_group_IT_number 12
_symmetry_cell_setting 'monoclinic'
loop_
_space_group_symop_operation_xyz
x,y,z
-x,y,-z
-x,-y,-z
x,-y,z
1/2+x,1/2+y,z
1/2-x,1/2+y,-z
1/2-x,1/2-y,-z
1/2+x,1/2-y,z
loop_
_atom_site_type_symbol
_atom_site_label
_atom_site_fract_x
_atom_site_fract_y
_atom_site_fract_z
Si Si1 0.500000 0.625335 0.500000
Si Si2 0.721436 0.054649 0.299610
Si Si3 0.980842 0.854433 0.740636
Si Si4 0.346813 0.553318 0.122884
Si Si5 0.663741 0.290228 0.028242
Si Si6 0.345666 0.847076 0.335766
Si Si7 0.610377 0.055477 0.771161
O O1 0.346076 0.591489 0.434030
O O2 0.478331 0.659496 0.371753
O O3 0.720293 0.061194 0.155815
O O4 0.546419 0.067229 0.244696
O O5 0.771509 0.000000 0.363915
O O6 0.799140 0.840360 0.658591
O O7 0.000449 0.911925 0.770737
O O8 0.110508 0.830842 0.904233
O O9 0.421948 0.500000 0.172643
O O10 0.262253 0.561878 0.947210
O O11 0.800273 0.313607 0.195305
O O12 0.500000 0.271957 0.000000
O O13 0.750000 0.250000 0.000000
O O14 0.500000 0.826989 0.500000
O O15 0.373205 0.903769 0.320546
O O16 0.604917 0.000000 0.716455
#
# Coordination Sequence:
#
# PCOD8088535 Si02
#       7
#     4   8   8   8   8   8   8
#     4  10  19  34  56  86 114 156 210 242 299 360
#     4   9  17  29  47  77 123 165 203 251 292 338
#     4  10  21  40  62  87 125 158 198 254 300 362
#     4   9  17  31  54  84 118 164 210 246 293 350
#     4  10  23  49  70  93 122 158 200 254 318 377
#     4  11  23  41  63  90 128 161 197 249 309 357
#     4  10  19  32  53  85 124 165 208 245 291 356
#
# _framework density 20.192243999999999
#
# number of rings (size 3 to 8) (size 9 to 14) (size 15 to 20)
#    0.000    2.154    1.538    1.615    0.000    3.385 
#    9.692    3.077    0.000    0.000    0.000    0.000 
#    0.000    0.000    0.000    0.000    0.000    0.000 
#
# Total GULP energy -322248.748609 kJ/mol
# GULP energy per Si atom -12394.182639 kJ/mol
# Density = 2.014629 g / cm^3
# Si number density = 20.192244 Si / 1000 Ang^3
#
#
#
# Elastic Constant Matrix: (Units=GPa)
#
#
# Indices 1 2 3 4 5 6 
#
# 1 76.6786 47.2302 50.2080 0.0000 -4.5021 0.0000
# 2 47.2302 75.4108 41.6716 0.0000 -3.1865 0.0000
# 3 50.2080 41.6716 135.7475 0.0000 -1.4504 0.0000
# 4 0.0000 0.0000 0.0000 15.2434 0.0000 -8.5383
# 5 -4.5021 -3.1865 -1.4504 0.0000 30.3572 0.0000
# 6 0.0000 0.0000 0.0000 -8.5383 0.0000 31.8766
#
#
#
# Elastic Compliance Matrix: (Units=1/GPa)
#
#
# Indices 1 2 3 4 5 6 
#
# 1 0.023968 -0.012089 -0.005132 0.000000 0.002040 0.000000
# 2 -0.012089 0.022131 -0.002318 0.000000 0.000419 0.000000
# 3 -0.005132 -0.002318 0.009971 0.000000 -0.000528 0.000000
# 4 0.000000 0.000000 0.000000 0.077182 0.000000 0.020674
# 5 0.002040 0.000419 -0.000528 0.000000 0.033263 0.000000
# 6 0.000000 0.000000 0.000000 0.020674 0.000000 0.036909
#
#
# Mechanical properties :
#
#
# Convention : Reuss Voigt Hill
#
# Bulk Modulus (GPa) = 58.85327 62.89515 60.87421
# Shear Modulus (GPa) = 20.14797 25.41058 22.77928
#
# Velocity S-wave (km/s) = 3.16224 3.55129 3.36239
# Velocity P-wave (km/s) = 6.52248 6.93046 6.72956
#
# Compressibility (1/GPa) = 0.01699141
#
# Stress axis : x y z
#
# Youngs Moduli (GPa) = 41.72266 45.18614 100.29465
#
# Poissons Ratio (x) = 0.54626 0.51470
# Poissons Ratio (y) = 0.50439 0.23247
# Poissons Ratio (z) = 0.21412 0.10474
#
# Static dielectric constant tensor:
#      x y z
#    x 3.639580 0.000000 -0.119340 
#    y 0.000000 3.523520 0.000000 
#    z -0.119340 0.000000 3.791870 
# 
# 
# High freq. dielectric constant tensor:
#      x y z
#    x 1.785210 0.000000 -0.004660 
#    y 0.000000 1.760520 0.000000 
#    z -0.004660 0.000000 1.796150 
# 
# From -- ./inp_files/136029.got.cif
#   From: 2010.06.25/outbox.cif.g09.slc.cpg/sg12_69_cif.got.tgz:136029.got - 2010.06.28 00:19:55.
