data_PCOD8088919
_publ_section_title
;
Structure prediction by ZEFSAII (Michael W. Deem and Ramdas Pophale) SiO2 
 PCOD8088919
Probable space group: C 2/M
;
_chemical_formula_sum "Si O2"
_cell_formula_units_Z 56
_cell_length_a 19.548408
_cell_length_b 9.033932
_cell_length_c 18.670241
_cell_angle_alpha 90.000000
_cell_angle_beta 113.425585
_cell_angle_gamma 90.000000
_cell_volume 3025.385668
_symmetry_space_group_name_H-M "C 2/M"
_symmetry_group_IT_number 12
_symmetry_cell_setting 'monoclinic'
loop_
_space_group_symop_operation_xyz
x,y,z
-x,y,-z
-x,-y,-z
x,-y,z
1/2+x,1/2+y,z
1/2-x,1/2+y,-z
1/2-x,1/2-y,-z
1/2+x,1/2-y,z
loop_
_atom_site_type_symbol
_atom_site_label
_atom_site_fract_x
_atom_site_fract_y
_atom_site_fract_z
Si Si1 0.633746 0.176468 0.872514
Si Si2 0.922337 0.673956 0.997991
Si Si3 0.538744 0.667786 0.447272
Si Si4 0.729685 0.175139 0.141095
Si Si5 0.211223 0.830454 0.548254
Si Si6 0.943966 0.668271 0.302483
Si Si7 0.786168 0.328040 0.303466
O O1 0.597426 0.234782 0.931013
O O2 0.713178 0.255278 0.892725
O O3 0.577027 0.223891 0.785738
O O4 0.648116 0.000000 0.877591
O O5 0.932956 0.500000 0.009573
O O6 0.854474 0.713483 0.917236
O O7 0.000000 0.743538 0.000000
O O8 0.500000 0.744580 0.500000
O O9 0.510726 0.500000 0.429861
O O10 0.625348 0.681424 0.494316
O O11 0.514212 0.744009 0.363022
O O12 0.739034 0.246892 0.222672
O O13 0.743611 0.000000 0.150563
O O14 0.250000 0.750000 0.500000
O O15 0.233594 0.747266 0.629976
O O16 0.237445 0.000000 0.565636
O O17 0.969353 0.500000 0.309512
O O18 0.873662 0.691651 0.325273
O O19 0.763448 0.500000 0.295599
#
# Coordination Sequence:
#
# PCOD8088919 Si02
#       7
#     8   8   8   8   8   8   8
#     4   9  18  34  55  80 109 142 181 225 270 319
#     4   9  18  34  55  79 111 144 179 222 270 327
#     4  10  20  35  56  80 108 141 177 226 276 315
#     4  10  19  32  56  85 107 139 183 225 271 324
#     4  11  23  39  57  80 112 149 186 226 274 328
#     4   9  18  31  52  82 108 138 181 226 270 319
#     4  10  20  36  57  81 112 145 181 229 275 323
#
# _framework density 18.510035999999999
#
# number of rings (size 3 to 8) (size 9 to 14) (size 15 to 20)
#    0.000    2.286    1.429    2.571    0.000    3.714 
#    2.571    0.714    0.000    3.857    0.000    0.000 
#    0.000    0.000    0.000    0.000    0.000    0.000 
#
# Total GULP energy -347178.496927 kJ/mol
# GULP energy per Si atom -12399.232033 kJ/mol
# Density = 1.846791 g / cm^3
# Si number density = 18.510036 Si / 1000 Ang^3
#
#
#
# Elastic Constant Matrix: (Units=GPa)
#
#
# Indices 1 2 3 4 5 6 
#
# 1 98.4921 44.3248 64.2346 0.0000 -14.9575 0.0000
# 2 44.3248 81.4284 56.8467 0.0000 -3.6850 0.0000
# 3 64.2346 56.8467 134.5926 0.0000 -12.0059 0.0000
# 4 0.0000 0.0000 0.0000 29.9848 0.0000 0.6091
# 5 -14.9575 -3.6850 -12.0059 0.0000 30.5344 0.0000
# 6 0.0000 0.0000 0.0000 0.6091 0.0000 24.7102
#
#
#
# Elastic Compliance Matrix: (Units=1/GPa)
#
#
# Indices 1 2 3 4 5 6 
#
# 1 0.016799 -0.005163 -0.005346 0.000000 0.005504 0.000000
# 2 -0.005163 0.019023 -0.005794 0.000000 -0.002512 0.000000
# 3 -0.005346 -0.005794 0.012573 0.000000 0.001626 0.000000
# 4 0.000000 0.000000 0.000000 0.033367 0.000000 -0.000823
# 5 0.005504 -0.002512 0.001626 0.000000 0.035782 0.000000
# 6 0.000000 0.000000 0.000000 -0.000823 0.000000 0.040489
#
#
# Mechanical properties :
#
#
# Convention : Reuss Voigt Hill
#
# Bulk Modulus (GPa) = 63.33703 71.70282 67.51993
# Shear Modulus (GPa) = 25.52282 26.98636 26.25459
#
# Velocity S-wave (km/s) = 3.71733 3.82243 3.77025
# Velocity P-wave (km/s) = 7.26063 7.63562 7.45048
#
# Compressibility (1/GPa) = 0.01578855
#
# Stress axis : x y z
#
# Youngs Moduli (GPa) = 59.52755 52.56837 79.53358
#
# Poissons Ratio (x) = 0.27143 0.42515
# Poissons Ratio (y) = 0.30737 0.46084
# Poissons Ratio (z) = 0.31821 0.30460
#
# Static dielectric constant tensor:
#      x y z
#    x 3.301180 0.000000 -0.076870 
#    y 0.000000 3.372380 0.000000 
#    z -0.076870 0.000000 3.494940 
# 
# 
# High freq. dielectric constant tensor:
#      x y z
#    x 1.701560 0.000000 -0.002380 
#    y 0.000000 1.707380 0.000000 
#    z -0.002380 0.000000 1.732660 
# 
# From -- ./inp_files/281630.got.cif
#   From: 2010.06.25/outbox.cif.g09.slc.cpg/sg12_141_cif.got.tgz:281630.got - 2010.06.28 00:19:55.
