data_PCOD8088511
_publ_section_title
;
Structure prediction by ZEFSAII (Michael W. Deem and Ramdas Pophale) SiO2 
 PCOD8088511
Probable space group: C 2/M
;
_chemical_formula_sum "Si O2"
_cell_formula_units_Z 44
_cell_length_a 23.948248
_cell_length_b 14.392774
_cell_length_c 9.454231
_cell_angle_alpha 90.000000
_cell_angle_beta 132.819094
_cell_angle_gamma 90.000000
_cell_volume 2390.267972
_symmetry_space_group_name_H-M "C 2/M"
_symmetry_group_IT_number 12
_symmetry_cell_setting 'monoclinic'
loop_
_space_group_symop_operation_xyz
x,y,z
-x,y,-z
-x,-y,-z
x,-y,z
1/2+x,1/2+y,z
1/2-x,1/2+y,-z
1/2-x,1/2-y,-z
1/2+x,1/2-y,z
loop_
_atom_site_type_symbol
_atom_site_label
_atom_site_fract_x
_atom_site_fract_y
_atom_site_fract_z
Si Si1 0.506915 0.500000 0.844317
Si Si2 0.951463 0.842474 0.549260
Si Si3 0.207261 0.158209 0.864064
Si Si4 0.957910 0.500000 0.074542
Si Si5 0.341298 0.000000 0.335654
Si Si6 0.691317 0.000000 0.047502
Si Si7 0.674495 0.500000 0.023033
Si Si8 0.468465 0.135152 0.597571
O O1 0.463715 0.411850 0.701185
O O2 0.500000 0.500000 0.000000
O O3 0.598010 0.500000 0.981522
O O4 0.864494 0.819472 0.358101
O O5 0.980965 0.742978 0.648560
O O6 0.000000 0.881785 0.500000
O O7 0.250000 0.250000 0.000000
O O8 0.174850 0.094590 0.933929
O O9 0.261632 0.095794 0.858957
O O10 0.866039 0.500000 0.917710
O O11 0.979837 0.592755 0.192932
O O12 0.000000 0.500000 0.000000
O O13 0.344966 0.000000 0.171722
O O14 0.383056 0.906688 0.463689
O O15 0.254722 0.000000 0.247754
O O16 0.500000 0.105377 0.500000
#
# Coordination Sequence:
#
# PCOD8088511 Si02
#       8
#     4   8   8   4   4   4   4   8
#     4  12  25  41  57  81 126 170 202 236 287 357
#     4  11  21  37  61  86 115 150 206 252 291 344
#     4  10  20  34  62  91 114 141 189 261 309 332
#     4  11  22  36  55  83 121 152 183 223 290 367
#     4   9  15  33  57  82 117 131 188 246 297 342
#     4  10  19  32  53  83 117 141 185 234 289 352
#     4  10  20  34  55  88 111 146 195 238 288 352
#     4  10  19  34  58  84 109 148 188 244 291 339
#
# _framework density 18.407978
#
# number of rings (size 3 to 8) (size 9 to 14) (size 15 to 20)
#    0.000    1.818    3.636    4.091    2.545    0.727 
#    0.000    3.636    0.000    3.273    0.000    0.000 
#    0.000    0.000    0.000    0.000    0.000    0.000 
#
# Total GULP energy -272557.575639 kJ/mol
# GULP energy per Si atom -12388.980711 kJ/mol
# Density = 1.836608 g / cm^3
# Si number density = 18.407978 Si / 1000 Ang^3
#
#
#
# Elastic Constant Matrix: (Units=GPa)
#
#
# Indices 1 2 3 4 5 6 
#
# 1 130.6456 41.5122 51.9523 0.0000 7.6342 0.0000
# 2 41.5122 121.8942 44.8609 0.0000 -8.3133 0.0000
# 3 51.9523 44.8609 83.8997 0.0000 6.7184 0.0000
# 4 0.0000 0.0000 0.0000 4.5110 0.0000 9.9772
# 5 7.6342 -8.3133 6.7184 0.0000 34.9445 0.0000
# 6 0.0000 0.0000 0.0000 9.9772 0.0000 7.7385
#
#
#
# Elastic Compliance Matrix: (Units=1/GPa)
#
#
# Indices 1 2 3 4 5 6 
#
# 1 0.010444 -0.001663 -0.005447 0.000000 -0.001630 0.000000
# 2 -0.001663 0.010927 -0.005129 0.000000 0.003949 0.000000
# 3 -0.005447 -0.005129 0.018319 0.000000 -0.003552 0.000000
# 4 0.000000 0.000000 0.000000 -0.119723 0.000000 0.154358
# 5 -0.001630 0.003949 -0.003552 0.000000 0.030595 0.000000
# 6 0.000000 0.000000 0.000000 0.154358 0.000000 -0.069789
#
#
# Mechanical properties :
#
#
# Convention : Reuss Voigt Hill
#
# Bulk Modulus (GPa) = 65.74144 68.12114 66.93129
# Shear Modulus (GPa) = -55.75638 22.64641 -16.55498
#
# Velocity S-wave (km/s) = -5.50954 3.51130 -3.00215
# Velocity P-wave (km/s) = 2.16385 7.31612 4.94183
#
# Compressibility (1/GPa) = 0.01521111
#
# Stress axis : x y z
#
# Youngs Moduli (GPa) = 95.74651 91.51428 54.58789
#
# Poissons Ratio (x) = 0.15221 0.29736
# Poissons Ratio (y) = 0.15925 0.27999
# Poissons Ratio (z) = 0.52157 0.46938
#
# Static dielectric constant tensor:
#      x y z
#    x 66.712400 0.000000 -29.201110 
#    y 0.000000 3.501780 0.000000 
#    z -29.201110 0.000000 17.109990 
# 
# 
# High freq. dielectric constant tensor:
#      x y z
#    x 1.689730 0.000000 0.038580 
#    y 0.000000 1.729920 0.000000 
#    z 0.038580 0.000000 1.698340 
# 
# From -- ./inp_files/96178.got.cif
#   From: 2010.06.25/outbox.cif.g09.slc.cpg/sg12_49_cif.got.tgz:96178.got - 2010.06.28 00:19:55.
