data_PCOD8088252
_publ_section_title
;
Structure prediction by ZEFSAII (Michael W. Deem and Ramdas Pophale) SiO2 
 PCOD8088252
Probable space group: C 2/M
;
_chemical_formula_sum "Si O2"
_cell_formula_units_Z 56
_cell_length_a 21.765263
_cell_length_b 9.061805
_cell_length_c 15.285947
_cell_angle_alpha 90.000000
_cell_angle_beta 81.364307
_cell_angle_gamma 90.000000
_cell_volume 2980.706933
_symmetry_space_group_name_H-M "C 2/M"
_symmetry_group_IT_number 12
_symmetry_cell_setting 'monoclinic'
loop_
_space_group_symop_operation_xyz
x,y,z
-x,y,-z
-x,-y,-z
x,-y,z
1/2+x,1/2+y,z
1/2-x,1/2+y,-z
1/2-x,1/2-y,-z
1/2+x,1/2-y,z
loop_
_atom_site_type_symbol
_atom_site_label
_atom_site_fract_x
_atom_site_fract_y
_atom_site_fract_z
Si Si1 0.444699 0.824697 0.942935
Si Si2 0.976243 0.333899 0.413316
Si Si3 0.242830 0.671269 0.365474
Si Si4 0.685183 0.668589 0.034092
Si Si5 0.831351 0.336762 0.452683
Si Si6 0.174507 0.161756 0.241642
Si Si7 0.537377 0.326488 0.244813
O O1 0.377969 0.751994 0.986214
O O2 0.468289 0.760176 0.845425
O O3 0.434254 0.000000 0.936957
O O4 0.500000 0.788842 0.000000
O O5 0.003484 0.500000 0.393864
O O6 0.903768 0.340046 0.439691
O O7 0.000000 0.265236 0.500000
O O8 0.989047 0.233299 0.326353
O O9 0.250538 0.500000 0.357073
O O10 0.193745 0.725858 0.449388
O O11 0.309640 0.737975 0.375726
O O12 0.220987 0.723899 0.275492
O O13 0.685425 0.500000 0.996773
O O14 0.683277 0.664782 0.137502
O O15 0.750000 0.750000 0.000000
O O16 0.803463 0.500000 0.445512
O O17 0.103466 0.204091 0.276429
O O18 0.189650 0.000000 0.276117
O O19 0.526836 0.500000 0.228446
#
# Coordination Sequence:
#
# PCOD8088252 Si02
#       7
#     8   8   8   8   8   8   8
#     4  10  21  39  63  88 115 153 195 236 292 353
#     4  10  20  35  55  79 109 146 186 227 275 328
#     4  10  19  32  53  77 100 135 182 223 264 317
#     4  10  21  38  60  87 117 148 187 236 286 340
#     4   9  19  34  50  72 106 142 174 219 271 318
#     4   9  19  35  54  77 106 140 174 215 272 326
#     4  10  21  36  56  83 113 145 184 230 278 332
#
# _framework density 18.787489999999998
#
# number of rings (size 3 to 8) (size 9 to 14) (size 15 to 20)
#    0.000    2.286    0.000    3.429    0.000    7.143 
#    2.571    0.000    0.000    0.000    0.000    0.000 
#    0.000    0.000    0.000    0.000    0.000    0.000 
#
# Total GULP energy -347046.202421 kJ/mol
# GULP energy per Si atom -12394.507229 kJ/mol
# Density = 1.874473 g / cm^3
# Si number density = 18.787490 Si / 1000 Ang^3
#
#
#
# Elastic Constant Matrix: (Units=GPa)
#
#
# Indices 1 2 3 4 5 6 
#
# 1 98.2058 54.2581 36.0134 0.0000 12.3739 0.0000
# 2 54.2581 113.6387 40.0474 0.0000 17.0717 0.0000
# 3 36.0134 40.0474 56.2823 0.0000 15.0907 0.0000
# 4 0.0000 0.0000 0.0000 30.7723 0.0000 3.9150
# 5 12.3739 17.0717 15.0907 0.0000 31.6020 0.0000
# 6 0.0000 0.0000 0.0000 3.9150 0.0000 21.5203
#
#
#
# Elastic Compliance Matrix: (Units=1/GPa)
#
#
# Indices 1 2 3 4 5 6 
#
# 1 0.015263 -0.005108 -0.006043 0.000000 -0.000331 0.000000
# 2 -0.005108 0.013659 -0.005744 0.000000 -0.002636 0.000000
# 3 -0.006043 -0.005744 0.027816 0.000000 -0.007814 0.000000
# 4 0.000000 0.000000 0.000000 0.033267 0.000000 -0.006052
# 5 -0.000331 -0.002636 -0.007814 0.000000 0.036929 0.000000
# 6 0.000000 0.000000 0.000000 -0.006052 0.000000 0.047569
#
#
# Mechanical properties :
#
#
# Convention : Reuss Voigt Hill
#
# Bulk Modulus (GPa) = 43.57536 58.75163 51.16349
# Shear Modulus (GPa) = 23.15464 25.96611 24.56038
#
# Velocity S-wave (km/s) = 3.51444 3.72169 3.61955
# Velocity P-wave (km/s) = 6.30179 7.05744 6.69029
#
# Compressibility (1/GPa) = 0.02294875
#
# Stress axis : x y z
#
# Youngs Moduli (GPa) = 65.52005 73.21294 35.95046
#
# Poissons Ratio (x) = 0.37397 0.21724
# Poissons Ratio (y) = 0.33468 0.20649
# Poissons Ratio (z) = 0.39591 0.42051
#
# Static dielectric constant tensor:
#      x y z
#    x 3.872440 0.000000 -0.121610 
#    y 0.000000 -0.960320 0.000000 
#    z -0.121610 0.000000 3.369840 
# 
# 
# High freq. dielectric constant tensor:
#      x y z
#    x 1.730250 0.000000 0.006250 
#    y 0.000000 1.739050 0.000000 
#    z 0.006250 0.000000 1.718930 
# 
# From -- ./inp_files/231060.got.cif
#   From: 2010.06.25/outbox.cif.g09.slc.cpg/sg12_116_cif.got.tgz:231060.got - 2010.06.28 00:19:55.
