data_PCOD8088971
_publ_section_title
;
Structure prediction by ZEFSAII (Michael W. Deem and Ramdas Pophale) SiO2 
 PCOD8088971
Probable space group: C 2/M
;
_chemical_formula_sum "Si O2"
_cell_formula_units_Z 64
_cell_length_a 15.234970
_cell_length_b 9.148817
_cell_length_c 29.897236
_cell_angle_alpha 90.000000
_cell_angle_beta 52.367565
_cell_angle_gamma 90.000000
_cell_volume 3300.138141
_symmetry_space_group_name_H-M "C 2/M"
_symmetry_group_IT_number 12
_symmetry_cell_setting 'monoclinic'
loop_
_space_group_symop_operation_xyz
x,y,z
-x,y,-z
-x,-y,-z
x,-y,z
1/2+x,1/2+y,z
1/2-x,1/2+y,-z
1/2-x,1/2-y,-z
1/2+x,1/2-y,z
loop_
_atom_site_type_symbol
_atom_site_label
_atom_site_fract_x
_atom_site_fract_y
_atom_site_fract_z
Si Si1 0.301152 0.168203 0.820244
Si Si2 0.251898 0.334424 0.063385
Si Si3 0.036923 0.670852 0.438749
Si Si4 0.114488 0.671858 0.835872
Si Si5 0.050135 0.672122 0.756893
Si Si6 0.149543 0.827144 0.556258
Si Si7 0.793354 0.169667 0.360408
Si Si8 0.576348 0.332327 0.061956
O O1 0.239518 0.191465 0.886650
O O2 0.238043 0.265498 0.803424
O O3 0.427110 0.224517 0.782541
O O4 0.296634 0.000000 0.806785
O O5 0.208207 0.500000 0.067391
O O6 0.166457 0.219506 0.069876
O O7 0.373103 0.312232 0.003595
O O8 0.015328 0.500000 0.436179
O O9 0.165202 0.713517 0.394468
O O10 0.000000 0.712885 0.500000
O O11 0.967339 0.764572 0.424723
O O12 0.116659 0.500000 0.840962
O O13 0.072055 0.722013 0.800687
O O14 0.034969 0.738812 0.898676
O O15 0.061661 0.500000 0.749094
O O16 0.138692 0.742305 0.696939
O O17 0.250000 0.750000 0.500000
O O18 0.161458 0.789715 0.604729
O O19 0.155911 0.000000 0.545558
O O20 0.809845 0.000000 0.345748
O O21 0.546841 0.500000 0.080914
#
# Coordination Sequence:
#
# PCOD8088971 Si02
#       8
#     8   8   8   8   8   8   8   8
#     4  10  21  40  62  84 114 156 200 242 295 355
#     4   9  18  35  57  83 119 153 190 243 298 353
#     4  10  20  39  62  88 125 161 194 236 288 345
#     4  11  23  40  60  85 118 155 196 248 299 348
#     4  10  23  43  63  82 116 158 199 246 296 347
#     4  11  22  38  61  92 125 159 196 238 288 346
#     4  10  23  41  62  88 122 158 194 244 296 342
#     4  10  19  32  57  88 115 152 195 239 297 359
#
# _framework density 19.393128000000001
#
# number of rings (size 3 to 8) (size 9 to 14) (size 15 to 20)
#    0.000    1.875    2.500    1.125    0.000    5.750 
#    0.000    7.500    0.000    0.000    0.000    0.000 
#    0.000    0.000    0.000    0.000    0.000    0.000 
#
# Total GULP energy -396883.842894 kJ/mol
# GULP energy per Si atom -12402.620090 kJ/mol
# Density = 1.934899 g / cm^3
# Si number density = 19.393128 Si / 1000 Ang^3
#
#
#
# Elastic Constant Matrix: (Units=GPa)
#
#
# Indices 1 2 3 4 5 6 
#
# 1 128.3470 55.7013 49.0822 0.0000 -27.0668 -0.0001
# 2 55.7013 68.2298 46.3927 -0.0001 -3.3953 -0.0002
# 3 49.0822 46.3927 117.0306 0.0000 -20.9782 0.0000
# 4 0.0000 -0.0001 0.0000 34.7322 0.0000 -4.4260
# 5 -27.0668 -3.3953 -20.9782 0.0000 14.5550 0.0000
# 6 -0.0001 -0.0002 0.0000 -4.4260 0.0000 37.0667
#
#
#
# Elastic Compliance Matrix: (Units=1/GPa)
#
#
# Indices 1 2 3 4 5 6 
#
# 1 0.028487 -0.026677 0.009450 0.000000 0.060372 0.000000
# 2 -0.026677 0.045993 -0.018895 0.000000 -0.066114 0.000000
# 3 0.009450 -0.018895 0.019459 0.000000 0.041212 0.000000
# 4 0.000000 0.000000 0.000000 0.029237 0.000000 0.003491
# 5 0.060372 -0.066114 0.041212 0.000000 0.224951 0.000000
# 6 0.000000 0.000000 0.000000 0.003491 0.000000 0.027395
#
#
# Mechanical properties :
#
#
# Convention : Reuss Voigt Hill
#
# Bulk Modulus (GPa) = 46.09573 68.43998 57.26786
# Shear Modulus (GPa) = 10.98905 28.09952 19.54429
#
# Velocity S-wave (km/s) = 2.38302 3.81063 3.17802
# Velocity P-wave (km/s) = 5.60289 7.39788 6.56205
#
# Compressibility (1/GPa) = 0.02169398
#
# Stress axis : x y z
#
# Youngs Moduli (GPa) = 35.10375 21.74254 51.38921
#
# Poissons Ratio (x) = 0.58003 -0.48562
# Poissons Ratio (y) = 0.93647 0.97101
# Poissons Ratio (z) = -0.33173 0.41083
#
# Static dielectric constant tensor:
#      x y z
#    x 3.968870 0.000000 0.001530 
#    y 0.000000 3.518230 0.000000 
#    z 0.001530 0.000000 3.547270 
# 
# 
# High freq. dielectric constant tensor:
#      x y z
#    x 1.758490 0.000000 -0.006640 
#    y 0.000000 1.753260 0.000000 
#    z -0.006640 0.000000 1.754610 
# 
# From -- ./inp_files/375447.got.cif
#   From: 2010.06.25/outbox.cif.g09.slc.cpg/sg12_188_cif.got.tgz:375447.got - 2010.06.28 00:19:55.
