data_PCOD8088673
_publ_section_title
;
Structure prediction by ZEFSAII (Michael W. Deem and Ramdas Pophale) SiO2 
 PCOD8088673
Probable space group: C 2/M
;
_chemical_formula_sum "Si O2"
_cell_formula_units_Z 48
_cell_length_a 27.732361
_cell_length_b 9.383020
_cell_length_c 17.120036
_cell_angle_alpha 90.000000
_cell_angle_beta 143.962928
_cell_angle_gamma 90.000000
_cell_volume 2620.832993
_symmetry_space_group_name_H-M "C 2/M"
_symmetry_group_IT_number 12
_symmetry_cell_setting 'monoclinic'
loop_
_space_group_symop_operation_xyz
x,y,z
-x,y,-z
-x,-y,-z
x,-y,z
1/2+x,1/2+y,z
1/2-x,1/2+y,-z
1/2-x,1/2-y,-z
1/2+x,1/2-y,z
loop_
_atom_site_type_symbol
_atom_site_label
_atom_site_fract_x
_atom_site_fract_y
_atom_site_fract_z
Si Si1 0.623063 0.165879 0.343720
Si Si2 0.267075 0.836390 0.240323
Si Si3 0.929377 0.834254 0.463888
Si Si4 0.497620 0.666016 0.273273
Si Si5 0.781295 0.836043 0.652457
Si Si6 0.311086 0.664657 0.025078
O O1 0.539096 0.241524 0.259546
O O2 0.691556 0.192840 0.499346
O O3 0.651863 0.235033 0.300121
O O4 0.606005 0.000000 0.307558
O O5 0.347096 0.743763 0.332365
O O6 0.220080 0.794190 0.258237
O O7 0.206757 0.807586 0.089348
O O8 0.295186 0.000000 0.282174
O O9 0.000000 0.775413 0.500000
O O10 0.953484 0.801755 0.583895
O O11 0.914639 0.000000 0.429423
O O12 0.501864 0.500000 0.255533
O O13 0.403922 0.715131 0.161946
O O14 0.806961 0.000000 0.672603
O O15 0.300260 0.500000 0.032954
O O16 0.250000 0.750000 0.000000
#
# Coordination Sequence:
#
# PCOD8088673 Si02
#       6
#     8   8   8   8   8   8
#     4  10  19  32  54  82 109 139 178 222 270 319
#     4  10  20  36  56  80 107 139 180 224 268 316
#     4  10  20  33  52  78 107 138 176 223 270 318
#     4  10  20  35  54  78 109 144 180 218 268 324
#     4   9  18  33  53  79 110 139 174 221 272 322
#     4  10  22  39  58  79 108 147 185 221 267 321
#
# _framework density 18.314786999999999
#
# number of rings (size 3 to 8) (size 9 to 14) (size 15 to 20)
#    0.000    2.167    1.667    1.500    0.000    4.333 
#    0.000    0.833    0.000    5.000    0.000    0.000 
#    0.000    0.000    0.000    0.000    0.000    0.000 
#
# Total GULP energy -297688.015577 kJ/mol
# GULP energy per Si atom -12403.667316 kJ/mol
# Density = 1.827310 g / cm^3
# Si number density = 18.314787 Si / 1000 Ang^3
#
#
#
# Elastic Constant Matrix: (Units=GPa)
#
#
# Indices 1 2 3 4 5 6 
#
# 1 120.6017 58.2949 11.1754 0.0000 9.1108 0.0000
# 2 58.2949 70.5834 23.0857 0.0000 11.9039 0.0000
# 3 11.1754 23.0857 34.4007 0.0000 9.0593 0.0000
# 4 0.0000 0.0000 0.0000 24.6579 0.0000 4.4765
# 5 9.1108 11.9039 9.0593 0.0000 32.1372 0.0000
# 6 0.0000 0.0000 0.0000 4.4765 0.0000 34.0856
#
#
#
# Elastic Compliance Matrix: (Units=1/GPa)
#
#
# Indices 1 2 3 4 5 6 
#
# 1 0.014262 -0.013109 0.004267 0.000000 -0.000390 0.000000
# 2 -0.013109 0.030584 -0.015405 0.000000 -0.003270 0.000000
# 3 0.004267 -0.015405 0.039791 0.000000 -0.006720 0.000000
# 4 0.000000 0.000000 0.000000 0.041545 0.000000 -0.005456
# 5 -0.000390 -0.003270 -0.006720 0.000000 0.034333 0.000000
# 6 0.000000 0.000000 0.000000 -0.005456 0.000000 0.030054
#
#
# Mechanical properties :
#
#
# Convention : Reuss Voigt Hill
#
# Bulk Modulus (GPa) = 27.66772 45.63308 36.65040
# Shear Modulus (GPa) = 19.91144 27.04481 23.47812
#
# Velocity S-wave (km/s) = 3.30082 3.84691 3.58428
# Velocity P-wave (km/s) = 5.44672 6.68593 6.09789
#
# Compressibility (1/GPa) = 0.03614320
#
# Stress axis : x y z
#
# Youngs Moduli (GPa) = 70.11494 32.69661 25.13144
#
# Poissons Ratio (x) = 0.42862 -0.10723
# Poissons Ratio (y) = 0.91913 0.38715
# Poissons Ratio (z) = -0.29916 0.50369
#
# Static dielectric constant tensor:
#      x y z
#    x 3.438530 0.000000 -0.057920 
#    y 0.000000 3.333640 0.000000 
#    z -0.057920 0.000000 3.271210 
# 
# 
# High freq. dielectric constant tensor:
#      x y z
#    x 1.721330 0.000000 -0.002240 
#    y 0.000000 1.706810 0.000000 
#    z -0.002240 0.000000 1.693330 
# 
# From -- ./inp_files/244890.got.cif
#   From: 2010.06.25/outbox.cif.g09.slc.cpg/sg12_123_cif.got.tgz:244890.got - 2010.06.28 00:19:55.
