data_PCOD8088545
_publ_section_title
;
Structure prediction by ZEFSAII (Michael W. Deem and Ramdas Pophale) SiO2 
 PCOD8088545
Probable space group: C 2/M
;
_chemical_formula_sum "Si O2"
_cell_formula_units_Z 64
_cell_length_a 29.155797
_cell_length_b 9.230276
_cell_length_c 15.298682
_cell_angle_alpha 90.000000
_cell_angle_beta 53.987437
_cell_angle_gamma 90.000000
_cell_volume 3330.290093
_symmetry_space_group_name_H-M "C 2/M"
_symmetry_group_IT_number 12
_symmetry_cell_setting 'monoclinic'
loop_
_space_group_symop_operation_xyz
x,y,z
-x,y,-z
-x,-y,-z
x,-y,z
1/2+x,1/2+y,z
1/2-x,1/2+y,-z
1/2-x,1/2-y,-z
1/2+x,1/2-y,z
loop_
_atom_site_type_symbol
_atom_site_label
_atom_site_fract_x
_atom_site_fract_y
_atom_site_fract_z
Si Si1 0.133447 0.170777 0.006069
Si Si2 0.663009 0.164192 0.315712
Si Si3 0.991612 0.829361 0.912739
Si Si4 0.307205 0.164566 0.919054
Si Si5 0.305107 0.669612 0.405047
Si Si6 0.573278 0.327892 0.670808
Si Si7 0.946768 0.171743 0.502215
Si Si8 0.717073 0.330250 0.764332
O O1 0.177615 0.233356 0.885031
O O2 0.141072 0.000000 0.013580
O O3 0.071145 0.210037 0.045195
O O4 0.142562 0.256330 0.085397
O O5 0.676247 0.168827 0.199459
O O6 0.610216 0.265298 0.393909
O O7 0.718343 0.229191 0.303852
O O8 0.649384 0.000000 0.361452
O O9 0.034992 0.762615 0.792290
O O10 0.002149 0.000000 0.905747
O O11 0.000000 0.761513 0.000000
O O12 0.299544 0.000000 0.960044
O O13 0.250000 0.250000 0.000000
O O14 0.295828 0.500000 0.431174
O O15 0.250000 0.750000 0.500000
O O16 0.361695 0.726240 0.390633
O O17 0.312354 0.705542 0.294524
O O18 0.572317 0.500000 0.678006
O O19 0.548372 0.277615 0.604724
O O20 0.000000 0.228842 0.500000
O O21 0.942771 0.000000 0.512749
O O22 0.721232 0.500000 0.776535
#
# Coordination Sequence:
#
# PCOD8088545 Si02
#       8
#     8   8   8   8   8   8   8   8
#     4  10  19  33  56  82 111 144 182 224 274 334
#     4  10  21  37  55  76 108 141 180 224 266 327
#     4   9  17  30  54  85 112 144 186 227 273 328
#     4  11  22  37  56  82 114 146 183 228 278 333
#     4  10  19  32  54  76 104 137 173 223 272 319
#     4   9  18  33  50  77 111 139 177 228 270 315
#     4  10  22  37  54  77 108 144 183 227 273 317
#     4   9  17  32  52  78 106 136 171 216 270 323
#
# _framework density 19.217544
#
# number of rings (size 3 to 8) (size 9 to 14) (size 15 to 20)
#    0.000    2.250    1.250    1.875    1.750    4.250 
#    0.000    0.625    0.000    1.125    0.000    0.000 
#    0.000    0.000    0.000    0.000    0.000    0.000 
#
# Total GULP energy -396736.518076 kJ/mol
# GULP energy per Si atom -12398.016190 kJ/mol
# Density = 1.917380 g / cm^3
# Si number density = 19.217544 Si / 1000 Ang^3
#
#
#
# Elastic Constant Matrix: (Units=GPa)
#
#
# Indices 1 2 3 4 5 6 
#
# 1 163.3567 36.0105 65.0001 0.0000 4.7031 0.0000
# 2 36.0105 34.2000 21.4026 0.0000 -1.8365 0.0000
# 3 65.0001 21.4026 104.8645 0.0000 -12.0239 0.0000
# 4 0.0000 0.0000 0.0000 22.7396 0.0000 -3.3584
# 5 4.7031 -1.8365 -12.0239 0.0000 31.0591 0.0000
# 6 0.0000 0.0000 0.0000 -3.3584 0.0000 19.5880
#
#
#
# Elastic Compliance Matrix: (Units=1/GPa)
#
#
# Indices 1 2 3 4 5 6 
#
# 1 0.009889 -0.007459 -0.005054 0.000000 -0.003895 0.000000
# 2 -0.007459 0.039162 -0.003113 0.000000 0.002240 0.000000
# 3 -0.005054 -0.003113 0.013992 0.000000 0.005998 0.000000
# 4 0.000000 0.000000 0.000000 0.045119 0.000000 0.007736
# 5 -0.003895 0.002240 0.005998 0.000000 0.035241 0.000000
# 6 0.000000 0.000000 0.000000 0.007736 0.000000 0.052378
#
#
# Mechanical properties :
#
#
# Convention : Reuss Voigt Hill
#
# Bulk Modulus (GPa) = 31.45479 60.80530 46.13005
# Shear Modulus (GPa) = 21.04132 26.67787 23.85960
#
# Velocity S-wave (km/s) = 3.31252 3.72990 3.52739
# Velocity P-wave (km/s) = 5.57079 7.08934 6.37544
#
# Compressibility (1/GPa) = 0.03179166
#
# Stress axis : x y z
#
# Youngs Moduli (GPa) = 101.12357 25.53519 71.47059
#
# Poissons Ratio (x) = 0.19046 0.36120
# Poissons Ratio (y) = 0.75426 0.22246
# Poissons Ratio (z) = 0.51107 0.07948
#
# Static dielectric constant tensor:
#      x y z
#    x 3.980300 0.000000 0.266780 
#    y 0.000000 3.170980 0.000000 
#    z 0.266780 0.000000 3.627920 
# 
# 
# High freq. dielectric constant tensor:
#      x y z
#    x 1.767720 0.000000 0.004230 
#    y 0.000000 1.696600 0.000000 
#    z 0.004230 0.000000 1.755830 
# 
# From -- ./inp_files/249780.got.cif
#   From: 2010.06.25/outbox.cif.g09.slc.cpg/sg12_125_cif.got.tgz:249780.got - 2010.06.28 00:19:55.
