data_PCOD8088681
_publ_section_title
;
Structure prediction by ZEFSAII (Michael W. Deem and Ramdas Pophale) SiO2 
 PCOD8088681
Probable space group: C 2/M
;
_chemical_formula_sum "Si O2"
_cell_formula_units_Z 64
_cell_length_a 15.144059
_cell_length_b 9.135514
_cell_length_c 30.851904
_cell_angle_alpha 90.000000
_cell_angle_beta 50.991692
_cell_angle_gamma 90.000000
_cell_volume 3316.720260
_symmetry_space_group_name_H-M "C 2/M"
_symmetry_group_IT_number 12
_symmetry_cell_setting 'monoclinic'
loop_
_space_group_symop_operation_xyz
x,y,z
-x,y,-z
-x,-y,-z
x,-y,z
1/2+x,1/2+y,z
1/2-x,1/2+y,-z
1/2-x,1/2-y,-z
1/2+x,1/2-y,z
loop_
_atom_site_type_symbol
_atom_site_label
_atom_site_fract_x
_atom_site_fract_y
_atom_site_fract_z
Si Si1 0.303848 0.173041 0.866064
Si Si2 0.301982 0.831184 0.340565
Si Si3 0.440440 0.172382 0.739199
Si Si4 0.153094 0.174274 0.058134
Si Si5 0.079201 0.168059 0.557480
Si Si6 0.369345 0.331813 0.678223
Si Si7 0.452150 0.672360 0.059349
Si Si8 0.795381 0.668053 0.550843
O O1 0.384510 0.218466 0.801669
O O2 0.347922 0.262501 0.893472
O O3 0.176593 0.225299 0.893130
O O4 0.308783 0.000000 0.874639
O O5 0.430092 0.769032 0.301446
O O6 0.252432 0.812742 0.307371
O O7 0.220498 0.743993 0.398066
O O8 0.300044 0.000000 0.355562
O O9 0.367903 0.241917 0.722937
O O10 0.436405 0.000000 0.734345
O O11 0.031578 0.217905 0.074951
O O12 0.172585 0.000000 0.052318
O O13 0.250000 0.250000 0.000000
O O14 0.099664 0.260357 0.507499
O O15 0.180815 0.191831 0.559520
O O16 0.966356 0.227463 0.615700
O O17 0.066262 0.000000 0.547525
O O18 0.395264 0.500000 0.681673
O O19 0.453054 0.500000 0.053664
O O20 0.500000 0.743250 0.000000
O O21 0.824713 0.500000 0.549512
#
# Coordination Sequence:
#
# PCOD8088681 Si02
#       8
#     8   8   8   8   8   8   8   8
#     4  10  21  39  59  82 114 150 187 228 276 329
#     4  10  21  37  57  81 111 148 184 226 285 337
#     4  10  22  39  59  82 111 146 186 234 280 321
#     4  11  21  35  58  87 115 148 186 224 271 326
#     4   9  18  33  53  78 107 143 182 225 280 335
#     4  10  21  38  59  80 108 148 188 226 275 339
#     4   9  17  33  57  81 111 152 183 214 268 331
#     4  10  19  32  54  82 109 142 184 230 277 331
#
# _framework density 19.29617
#
# number of rings (size 3 to 8) (size 9 to 14) (size 15 to 20)
#    0.000    2.125    2.500    0.750    0.000    3.500 
#    0.000    4.375    0.000    0.000    0.000    0.000 
#    0.000    0.000    0.000    0.000    0.000    0.000 
#
# Total GULP energy -396857.277891 kJ/mol
# GULP energy per Si atom -12401.789934 kJ/mol
# Density = 1.925225 g / cm^3
# Si number density = 19.296170 Si / 1000 Ang^3
#
#
#
# Elastic Constant Matrix: (Units=GPa)
#
#
# Indices 1 2 3 4 5 6 
#
# 1 107.0158 39.3554 52.6086 0.0000 17.3433 0.0001
# 2 39.3554 61.8858 47.4075 0.0001 14.4308 0.0002
# 3 52.6086 47.4075 125.7269 0.0000 21.0884 0.0000
# 4 0.0000 0.0001 0.0000 25.4792 0.0000 9.3522
# 5 17.3433 14.4308 21.0884 0.0000 25.0098 0.0000
# 6 0.0001 0.0002 0.0000 9.3522 0.0000 28.1751
#
#
#
# Elastic Compliance Matrix: (Units=1/GPa)
#
#
# Indices 1 2 3 4 5 6 
#
# 1 0.013370 -0.005388 -0.002946 0.000000 -0.003679 0.000000
# 2 -0.005388 0.025950 -0.006575 0.000000 -0.005692 0.000000
# 3 -0.002946 -0.006575 0.012447 0.000000 -0.004659 0.000000
# 4 0.000000 0.000000 0.000000 0.044693 0.000000 -0.014835
# 5 -0.003679 -0.005692 -0.004659 0.000000 0.049748 0.000000
# 6 0.000000 0.000000 0.000000 -0.014835 0.000000 0.040417
#
#
# Mechanical properties :
#
#
# Convention : Reuss Voigt Hill
#
# Bulk Modulus (GPa) = 45.56148 63.70795 54.63471
# Shear Modulus (GPa) = 22.34539 26.08327 24.21433
#
# Velocity S-wave (km/s) = 3.40666 3.68058 3.54627
# Velocity P-wave (km/s) = 6.25594 7.15191 6.71887
#
# Compressibility (1/GPa) = 0.02194836
#
# Stress axis : x y z
#
# Youngs Moduli (GPa) = 74.79259 38.53591 80.33942
#
# Poissons Ratio (x) = 0.20764 0.23667
# Poissons Ratio (y) = 0.40299 0.52827
# Poissons Ratio (z) = 0.22033 0.25339
#
# Static dielectric constant tensor:
#      x y z
#    x 3.634640 0.000000 -0.079640 
#    y 0.000000 3.342720 0.000000 
#    z -0.079640 0.000000 3.581930 
# 
# 
# High freq. dielectric constant tensor:
#      x y z
#    x 1.758020 0.000000 -0.000360 
#    y 0.000000 1.731900 0.000000 
#    z -0.000360 0.000000 1.748450 
# 
# From -- ./inp_files/375507.got.cif
#   From: 2010.06.25/outbox.cif.g09.slc.cpg/sg12_188_cif.got.tgz:375507.got - 2010.06.28 00:19:55.
