data_PCOD8088025
_publ_section_title
;
Structure prediction by ZEFSAII (Michael W. Deem and Ramdas Pophale) SiO2 
 PCOD8088025
Probable space group: C 2/M
;
_chemical_formula_sum "Si O2"
_cell_formula_units_Z 64
_cell_length_a 9.339170
_cell_length_b 22.408595
_cell_length_c 23.068220
_cell_angle_alpha 90.000000
_cell_angle_beta 46.231401
_cell_angle_gamma 90.000000
_cell_volume 3486.246277
_symmetry_space_group_name_H-M "C 2/M"
_symmetry_group_IT_number 12
_symmetry_cell_setting 'monoclinic'
loop_
_space_group_symop_operation_xyz
x,y,z
-x,y,-z
-x,-y,-z
x,-y,z
1/2+x,1/2+y,z
1/2-x,1/2+y,-z
1/2-x,1/2-y,-z
1/2+x,1/2-y,z
loop_
_atom_site_type_symbol
_atom_site_label
_atom_site_fract_x
_atom_site_fract_y
_atom_site_fract_z
Si Si1 0.654843 0.429252 0.909265
Si Si2 0.411435 0.931400 0.216712
Si Si3 0.116276 0.819369 0.627895
Si Si4 0.697330 0.612328 0.772524
Si Si5 0.982858 0.068209 0.728970
Si Si6 0.625079 0.068047 0.646664
Si Si7 0.135655 0.722076 0.333862
Si Si8 0.793027 0.169987 0.529785
O O1 0.628821 0.500000 0.907261
O O2 0.619571 0.394603 0.859268
O O3 0.876195 0.409795 0.867094
O O4 0.500000 0.405229 0.000000
O O5 0.342336 0.903266 0.297908
O O6 0.251392 0.920696 0.212167
O O7 0.439615 0.000000 0.225851
O O8 0.103338 0.887090 0.654152
O O9 0.261839 0.782803 0.631671
O O10 0.211044 0.826074 0.538217
O O11 0.892958 0.789551 0.683704
O O12 0.520536 0.584729 0.784596
O O13 0.740997 0.681852 0.746027
O O14 0.890223 0.573941 0.700824
O O15 0.040345 0.000000 0.697095
O O16 0.758147 0.102934 0.562746
O O17 0.693241 0.000000 0.621605
O O18 0.898986 0.707821 0.398496
O O19 0.000000 0.194234 0.500000
#
# Coordination Sequence:
#
# PCOD8088025 Si02
#       8
#     8   8   8   8   8   8   8   8
#     4   9  16  28  49  77 107 138 169 201 242 295
#     4   8  15  28  45  69 100 131 167 203 239 295
#     4  11  22  36  53  73  98 130 172 217 254 298
#     4   9  18  33  52  72  99 135 170 204 244 299
#     4  10  19  32  52  77 103 131 163 207 259 300
#     4   9  17  30  47  67  95 135 174 206 250 305
#     4  10  22  37  51  70  95 130 173 210 252 300
#     4  11  21  32  48  69  98 130 166 218 264 299
#
# _framework density 18.357852999999999
#
# number of rings (size 3 to 8) (size 9 to 14) (size 15 to 20)
#    0.000    2.375    0.000    4.125    0.000    2.750 
#    0.000    0.625    0.000    7.500    0.000    7.875 
#    0.000    0.000    0.000    0.000    0.000    0.000 
#
# Total GULP energy -396449.378852 kJ/mol
# GULP energy per Si atom -12389.043089 kJ/mol
# Density = 1.831607 g / cm^3
# Si number density = 18.357853 Si / 1000 Ang^3
#
#
#
# Elastic Constant Matrix: (Units=GPa)
#
#
# Indices 1 2 3 4 5 6 
#
# 1 142.1782 37.6753 46.8526 -0.0002 7.3984 0.0009
# 2 37.6753 71.6448 35.4145 -0.0001 3.6759 0.0003
# 3 46.8526 35.4145 81.5275 0.0004 19.3327 -0.0003
# 4 -0.0002 -0.0001 0.0004 15.7811 -0.0002 -0.3446
# 5 7.3984 3.6759 19.3327 -0.0002 16.3418 0.0000
# 6 0.0009 0.0003 -0.0003 -0.3446 0.0000 24.6481
#
#
#
# Elastic Compliance Matrix: (Units=1/GPa)
#
#
# Indices 1 2 3 4 5 6 
#
# 1 0.009135 -0.002660 -0.004525 0.000000 0.001815 0.000000
# 2 -0.002660 0.019169 -0.008424 0.000000 0.006859 0.000000
# 3 -0.004525 -0.008424 0.024449 -0.000001 -0.024981 0.000001
# 4 0.000000 0.000000 -0.000001 0.063386 0.000002 0.000886
# 5 0.001815 0.006859 -0.024981 0.000002 0.088381 0.000000
# 6 0.000000 0.000000 0.000001 0.000886 0.000000 0.040583
#
#
# Mechanical properties :
#
#
# Convention : Reuss Voigt Hill
#
# Bulk Modulus (GPa) = 46.43712 59.47060 52.95386
# Shear Modulus (GPa) = 17.63668 23.04807 20.34238
#
# Velocity S-wave (km/s) = 3.10290 3.54713 3.33243
# Velocity P-wave (km/s) = 6.17963 7.01724 6.61171
#
# Compressibility (1/GPa) = 0.02153450
#
# Stress axis : x y z
#
# Youngs Moduli (GPa) = 109.47004 52.16749 40.90126
#
# Poissons Ratio (x) = 0.13878 0.18506
# Poissons Ratio (y) = 0.29123 0.34457
# Poissons Ratio (z) = 0.49531 0.43948
#
# Static dielectric constant tensor:
#      x y z
#    x 3.605220 0.000000 -0.017620 
#    y 0.000000 3.512770 0.000000 
#    z -0.017620 0.000000 3.103430 
# 
# 
# High freq. dielectric constant tensor:
#      x y z
#    x 1.730020 0.000000 0.001620 
#    y 0.000000 1.703160 0.000000 
#    z 0.001620 0.000000 1.669090 
# 
# From -- ./inp_files/333978.got.cif
#   From: 2010.06.25/outbox.cif.g09.slc.cpg/sg12_167_cif.got.tgz:333978.got - 2010.06.28 00:19:55.
