data_PCOD8088421
_publ_section_title
;
Structure prediction by ZEFSAII (Michael W. Deem and Ramdas Pophale) SiO2 
 PCOD8088421
Probable space group: C 2/M
;
_chemical_formula_sum "Si O2"
_cell_formula_units_Z 56
_cell_length_a 28.206805
_cell_length_b 9.024336
_cell_length_c 19.673003
_cell_angle_alpha 90.000000
_cell_angle_beta 142.446499
_cell_angle_gamma 90.000000
_cell_volume 3052.213622
_symmetry_space_group_name_H-M "C 2/M"
_symmetry_group_IT_number 12
_symmetry_cell_setting 'monoclinic'
loop_
_space_group_symop_operation_xyz
x,y,z
-x,y,-z
-x,-y,-z
x,-y,z
1/2+x,1/2+y,z
1/2-x,1/2+y,-z
1/2-x,1/2-y,-z
1/2+x,1/2-y,z
loop_
_atom_site_type_symbol
_atom_site_label
_atom_site_fract_x
_atom_site_fract_y
_atom_site_fract_z
Si Si1 0.697945 0.327248 0.582192
Si Si2 0.367175 0.827746 0.918395
Si Si3 0.985388 0.330460 0.826661
Si Si4 0.549001 0.825142 0.619671
Si Si5 0.050417 0.328860 0.366491
Si Si6 0.358918 0.675249 0.769049
Si Si7 0.806319 0.829979 0.265751
O O1 0.709752 0.500000 0.580864
O O2 0.629711 0.264378 0.457556
O O3 0.777312 0.244742 0.653301
O O4 0.675941 0.296240 0.635271
O O5 0.387204 0.734408 0.874206
O O6 0.282560 0.783637 0.851560
O O7 0.366344 0.000000 0.895541
O O8 0.429999 0.792184 0.047302
O O9 0.962262 0.500000 0.817745
O O10 0.922340 0.219975 0.785581
O O11 0.991135 0.305274 0.752735
O O12 0.500000 0.763116 0.500000
O O13 0.508694 0.770158 0.643154
O O14 0.636572 0.764050 0.716671
O O15 0.554493 0.000000 0.623143
O O16 0.071730 0.500000 0.404040
O O17 0.350657 0.500000 0.762648
O O18 0.821096 0.000000 0.264997
#
# Coordination Sequence:
#
# PCOD8088421 Si02
#       7
#     8   8   8   8   8   8   8
#     4  10  20  35  55  80 109 142 179 220 268 321
#     4   9  19  37  58  80 106 141 183 222 262 313
#     4  10  21  38  57  75 106 148 184 219 262 318
#     4  10  19  32  53  80 110 139 171 216 270 320
#     4  10  21  36  54  79 109 144 182 219 266 320
#     4  11  22  35  56  83 109 137 177 226 271 317
#     4   9  18  32  53  80 105 134 177 221 262 311
#
# _framework density 18.347341
#
# number of rings (size 3 to 8) (size 9 to 14) (size 15 to 20)
#    0.000    2.143    1.429    3.000    0.000    6.571 
#    0.000    0.714    0.000    0.000    0.000    0.000 
#    0.000    0.000    0.000    0.000    0.000    0.000 
#
# Total GULP energy -347298.301924 kJ/mol
# GULP energy per Si atom -12403.510783 kJ/mol
# Density = 1.830558 g / cm^3
# Si number density = 18.347341 Si / 1000 Ang^3
#
#
#
# Elastic Constant Matrix: (Units=GPa)
#
#
# Indices 1 2 3 4 5 6 
#
# 1 111.9798 45.9752 68.4234 0.0000 8.2622 0.0000
# 2 45.9752 76.7311 41.0125 0.0000 4.1543 0.0000
# 3 68.4234 41.0125 103.3706 0.0000 3.0185 0.0000
# 4 0.0000 0.0000 0.0000 23.7158 0.0000 7.0399
# 5 8.2622 4.1543 3.0185 0.0000 24.4913 0.0000
# 6 0.0000 0.0000 0.0000 7.0399 0.0000 27.9448
#
#
#
# Elastic Compliance Matrix: (Units=1/GPa)
#
#
# Indices 1 2 3 4 5 6 
#
# 1 0.016765 -0.005040 -0.008989 0.000000 -0.003693 0.000000
# 2 -0.005040 0.018154 -0.003840 0.000000 -0.000906 0.000000
# 3 -0.008989 -0.003840 0.017102 0.000000 0.001576 0.000000
# 4 0.000000 0.000000 0.000000 0.045574 0.000000 -0.011481
# 5 -0.003693 -0.000906 0.001576 0.000000 0.042036 0.000000
# 6 0.000000 0.000000 0.000000 -0.011481 0.000000 0.038677
#
#
# Mechanical properties :
#
#
# Convention : Reuss Voigt Hill
#
# Bulk Modulus (GPa) = 61.42031 66.98929 64.20480
# Shear Modulus (GPa) = 22.78171 24.34173 23.56172
#
# Velocity S-wave (km/s) = 3.52759 3.64636 3.58747
# Velocity P-wave (km/s) = 7.08102 7.37014 7.22703
#
# Compressibility (1/GPa) = 0.01628126
#
# Stress axis : x y z
#
# Youngs Moduli (GPa) = 59.64838 55.08433 58.47360
#
# Poissons Ratio (x) = 0.27764 0.52565
# Poissons Ratio (y) = 0.30065 0.22453
# Poissons Ratio (z) = 0.53621 0.21152
#
# Static dielectric constant tensor:
#      x y z
#    x 3.292740 0.000000 0.097800 
#    y 0.000000 3.283750 0.000000 
#    z 0.097800 0.000000 3.424230 
# 
# 
# High freq. dielectric constant tensor:
#      x y z
#    x 1.702540 0.000000 0.012630 
#    y 0.000000 1.705960 0.000000 
#    z 0.012630 0.000000 1.709940 
# 
# From -- ./inp_files/280870.got.cif
#   From: 2010.06.25/outbox.cif.g09.slc.cpg/sg12_141_cif.got.tgz:280870.got - 2010.06.28 00:19:55.
