data_PCOD8088150
_publ_section_title
;
Structure prediction by ZEFSAII (Michael W. Deem and Ramdas Pophale) SiO2 
 PCOD8088150
Probable space group: C 2/M
;
_chemical_formula_sum "Si O2"
_cell_formula_units_Z 64
_cell_length_a 25.077306
_cell_length_b 8.831544
_cell_length_c 15.543197
_cell_angle_alpha 90.000000
_cell_angle_beta 106.793753
_cell_angle_gamma 90.000000
_cell_volume 3295.558805
_symmetry_space_group_name_H-M "C 2/M"
_symmetry_group_IT_number 12
_symmetry_cell_setting 'monoclinic'
loop_
_space_group_symop_operation_xyz
x,y,z
-x,y,-z
-x,-y,-z
x,-y,z
1/2+x,1/2+y,z
1/2-x,1/2+y,-z
1/2-x,1/2-y,-z
1/2+x,1/2-y,z
loop_
_atom_site_type_symbol
_atom_site_label
_atom_site_fract_x
_atom_site_fract_y
_atom_site_fract_z
Si Si1 0.523769 0.826808 0.636103
Si Si2 0.125685 0.177816 0.605316
Si Si3 0.134106 0.825574 0.928489
Si Si4 0.816848 0.179795 0.871211
Si Si5 0.690500 0.820719 0.791668
Si Si6 0.981089 0.828567 0.192328
Si Si7 0.394825 0.175109 0.573796
Si Si8 0.393804 0.323423 0.755035
O O1 0.561765 0.719857 0.595482
O O2 0.534317 0.788356 0.740224
O O3 0.459773 0.799396 0.582784
O O4 0.541576 0.000000 0.627846
O O5 0.166670 0.252666 0.693071
O O6 0.140185 0.239346 0.516569
O O7 0.134333 0.000000 0.612010
O O8 0.156292 0.733685 0.857784
O O9 0.066589 0.810876 0.902494
O O10 0.151971 0.000000 0.924929
O O11 0.159590 0.755967 0.027576
O O12 0.753923 0.235501 0.830378
O O13 0.853895 0.244284 0.810137
O O14 0.821954 0.000000 0.874913
O O15 0.686758 0.000000 0.784190
O O16 0.042551 0.792650 0.184393
O O17 0.980284 0.000000 0.229664
O O18 0.379440 0.240955 0.659467
O O19 0.378566 0.000000 0.565495
O O20 0.382722 0.500000 0.735200
#
# Coordination Sequence:
#
# PCOD8088150 Si02
#       8
#     8   8   8   8   8   8   8   8
#     4  10  19  32  52  79 115 149 177 215 271 331
#     4  12  23  35  54  81 110 143 184 230 276 330
#     4  10  19  34  56  85 115 144 182 230 278 333
#     4   9  20  37  58  81 109 147 193 234 273 321
#     4  11  22  37  56  80 111 149 187 232 280 325
#     4   9  17  29  52  83 115 147 180 221 273 324
#     4  10  21  36  55  82 113 146 181 221 271 332
#     4   9  18  36  57  80 112 150 188 228 269 321
#
# _framework density 19.420076000000002
#
# number of rings (size 3 to 8) (size 9 to 14) (size 15 to 20)
#    0.000    2.000    1.250    3.000    0.000    3.500 
#    0.000    5.625    0.000    0.000    0.000    4.375 
#    0.000    0.000    0.000    0.000    0.000    0.000 
#
# Total GULP energy -396795.196803 kJ/mol
# GULP energy per Si atom -12399.849900 kJ/mol
# Density = 1.937588 g / cm^3
# Si number density = 19.420076 Si / 1000 Ang^3
#
#
#
# Elastic Constant Matrix: (Units=GPa)
#
#
# Indices 1 2 3 4 5 6 
#
# 1 89.5720 27.1270 63.1465 0.0000 -5.3362 0.0000
# 2 27.1270 76.3685 49.0419 0.0000 3.1936 0.0000
# 3 63.1465 49.0419 157.1920 0.0000 13.7057 0.0000
# 4 0.0000 0.0000 0.0000 13.1642 0.0000 2.1890
# 5 -5.3362 3.1936 13.7057 0.0000 10.8175 0.0000
# 6 0.0000 0.0000 0.0000 2.1890 0.0000 18.1272
#
#
#
# Elastic Compliance Matrix: (Units=1/GPa)
#
#
# Indices 1 2 3 4 5 6 
#
# 1 0.019472 -0.001983 -0.009097 0.000000 0.021716 0.000000
# 2 -0.001983 0.016610 -0.004354 0.000000 -0.000366 0.000000
# 3 -0.009097 -0.004354 0.013101 0.000000 -0.019801 0.000000
# 4 0.000000 0.000000 0.000000 0.077520 0.000000 -0.009361
# 5 0.021716 -0.000366 -0.019801 0.000000 0.128351 0.000000
# 6 0.000000 0.000000 0.000000 -0.009361 0.000000 0.056296
#
#
# Mechanical properties :
#
#
# Convention : Reuss Voigt Hill
#
# Bulk Modulus (GPa) = 54.59892 66.86259 60.73076
# Shear Modulus (GPa) = 14.35458 20.67627 17.51543
#
# Velocity S-wave (km/s) = 2.72170 3.26649 3.00646
# Velocity P-wave (km/s) = 6.16868 6.98076 6.58725
#
# Compressibility (1/GPa) = 0.01831538
#
# Stress axis : x y z
#
# Youngs Moduli (GPa) = 51.35690 60.20538 76.33179
#
# Poissons Ratio (x) = 0.11938 0.69438
# Poissons Ratio (y) = 0.10184 0.33232
# Poissons Ratio (z) = 0.46719 0.26211
#
# Static dielectric constant tensor:
#      x y z
#    x 3.550930 0.000000 0.087140 
#    y 0.000000 3.422190 0.000000 
#    z 0.087140 0.000000 3.658850 
# 
# 
# High freq. dielectric constant tensor:
#      x y z
#    x 1.740710 0.000000 0.007520 
#    y 0.000000 1.744200 0.000000 
#    z 0.007520 0.000000 1.763110 
# 
# From -- ./inp_files/244270.got.cif
#   From: 2010.06.25/outbox.cif.g09.slc.cpg/sg12_123_cif.got.tgz:244270.got - 2010.06.28 00:19:55.
