data_PCOD8088588
_publ_section_title
;
Structure prediction by ZEFSAII (Michael W. Deem and Ramdas Pophale) SiO2 
 PCOD8088588
Probable space group: C 2/M
;
_chemical_formula_sum "Si O2"
_cell_formula_units_Z 56
_cell_length_a 5.149737
_cell_length_b 18.015578
_cell_length_c 34.029869
_cell_angle_alpha 90.000000
_cell_angle_beta 107.997175
_cell_angle_gamma 90.000000
_cell_volume 3002.664504
_symmetry_space_group_name_H-M "C 2/M"
_symmetry_group_IT_number 12
_symmetry_cell_setting 'monoclinic'
loop_
_space_group_symop_operation_xyz
x,y,z
-x,y,-z
-x,-y,-z
x,-y,z
1/2+x,1/2+y,z
1/2-x,1/2+y,-z
1/2-x,1/2-y,-z
1/2+x,1/2-y,z
loop_
_atom_site_type_symbol
_atom_site_label
_atom_site_fract_x
_atom_site_fract_y
_atom_site_fract_z
Si Si1 0.106167 0.412126 0.546079
Si Si2 0.693309 0.086405 0.117049
Si Si3 0.711605 0.587840 0.596243
Si Si4 0.807861 0.297630 0.666171
Si Si5 0.611623 0.202701 0.047536
Si Si6 0.999719 0.702753 0.761442
Si Si7 0.200234 0.586384 0.830849
O O1 0.082575 0.500000 0.542820
O O2 0.414899 0.387006 0.567594
O O3 0.000000 0.377676 0.500000
O O4 0.921019 0.383272 0.573117
O O5 0.629916 0.129110 0.074150
O O6 0.468659 0.109003 0.138533
O O7 0.987314 0.108900 0.147682
O O8 0.681661 0.000000 0.105902
O O9 0.729957 0.500000 0.604370
O O10 0.782915 0.627044 0.640404
O O11 0.513651 0.259406 0.655155
O O12 0.919519 0.321730 0.713852
O O13 0.410899 0.262028 0.058135
O O14 0.500000 0.177728 0.000000
O O15 0.245469 0.761503 0.772263
O O16 0.088321 0.628884 0.787877
O O17 0.165927 0.500000 0.819734
#
# Coordination Sequence:
#
# PCOD8088588 Si02
#       7
#     8   8   8   8   8   8   8
#     4   9  17  30  50  77 105 130 164 213 257 294
#     4  10  21  36  54  78 107 139 172 208 260 316
#     4  10  19  32  54  79  99 130 175 211 247 301
#     4  10  21  37  54  74 105 139 168 207 258 305
#     4  10  21  36  54  78 106 137 177 221 259 298
#     4  10  21  36  55  78 102 135 176 209 249 309
#     4  10  21  36  54  79 109 136 168 215 262 303
#
# _framework density 18.650103999999999
#
# number of rings (size 3 to 8) (size 9 to 14) (size 15 to 20)
#    0.000    2.143    0.000    3.000    0.000    6.000 
#    0.000    0.000    0.000   24.000    0.000    0.000 
#    0.000    0.000    0.000    0.000    0.000    0.000 
#
# Total GULP energy -347313.160958 kJ/mol
# GULP energy per Si atom -12404.041463 kJ/mol
# Density = 1.860766 g / cm^3
# Si number density = 18.650104 Si / 1000 Ang^3
#
#
#
# Elastic Constant Matrix: (Units=GPa)
#
#
# Indices 1 2 3 4 5 6 
#
# 1 82.8130 12.4615 13.0746 0.0000 -6.9419 0.0000
# 2 12.4615 57.5275 59.8270 0.0000 -5.2012 0.0000
# 3 13.0746 59.8270 97.7964 0.0000 -6.9016 0.0000
# 4 0.0000 0.0000 0.0000 37.3330 0.0000 -5.1789
# 5 -6.9419 -5.2012 -6.9016 0.0000 22.1059 0.0000
# 6 0.0000 0.0000 0.0000 -5.1789 0.0000 13.7874
#
#
#
# Elastic Compliance Matrix: (Units=1/GPa)
#
#
# Indices 1 2 3 4 5 6 
#
# 1 0.012731 -0.002555 0.000103 0.000000 0.003429 0.000000
# 2 -0.002555 0.048396 -0.029160 0.000000 0.001481 0.000000
# 3 0.000103 -0.029160 0.028190 0.000000 0.001972 0.000000
# 4 0.000000 0.000000 0.000000 0.028258 0.000000 0.010614
# 5 0.003429 0.001481 0.001972 0.000000 0.047278 0.000000
# 6 0.000000 0.000000 0.000000 0.010614 0.000000 0.076517
#
#
# Mechanical properties :
#
#
# Convention : Reuss Voigt Hill
#
# Bulk Modulus (GPa) = 38.32534 45.42921 41.87728
# Shear Modulus (GPa) = 15.95957 24.83019 20.39488
#
# Velocity S-wave (km/s) = 2.92847 3.65275 3.31048
# Velocity P-wave (km/s) = 5.65940 6.49628 6.09223
#
# Compressibility (1/GPa) = 0.02609240
#
# Stress axis : x y z
#
# Youngs Moduli (GPa) = 78.54834 20.66281 35.47406
#
# Poissons Ratio (x) = 0.05278 -0.00364
# Poissons Ratio (y) = 0.20066 1.03444
# Poissons Ratio (z) = -0.00807 0.60253
#
# Static dielectric constant tensor:
#      x y z
#    x 3.816620 0.000000 -0.003760 
#    y 0.000000 3.117930 0.000000 
#    z -0.003760 0.000000 3.437010 
# 
# 
# High freq. dielectric constant tensor:
#      x y z
#    x 1.748600 0.000000 -0.000300 
#    y 0.000000 1.701190 0.000000 
#    z -0.000300 0.000000 1.728110 
# 
# From -- ./inp_files/354930.got.cif
#   From: 2010.06.25/outbox.cif.g09.slc.cpg/sg12_178_cif.got.tgz:354930.got - 2010.06.28 00:19:55.
