data_PCOD8088861
_publ_section_title
;
Structure prediction by ZEFSAII (Michael W. Deem and Ramdas Pophale) SiO2 
 PCOD8088861
Probable space group: C 2/M
;
_chemical_formula_sum "Si O2"
_cell_formula_units_Z 56
_cell_length_a 19.633315
_cell_length_b 9.174771
_cell_length_c 17.301148
_cell_angle_alpha 90.000000
_cell_angle_beta 82.107336
_cell_angle_gamma 90.000000
_cell_volume 3086.953804
_symmetry_space_group_name_H-M "C 2/M"
_symmetry_group_IT_number 12
_symmetry_cell_setting 'monoclinic'
loop_
_space_group_symop_operation_xyz
x,y,z
-x,y,-z
-x,-y,-z
x,-y,z
1/2+x,1/2+y,z
1/2-x,1/2+y,-z
1/2-x,1/2-y,-z
1/2+x,1/2-y,z
loop_
_atom_site_type_symbol
_atom_site_label
_atom_site_fract_x
_atom_site_fract_y
_atom_site_fract_z
Si Si1 0.434452 0.833507 0.556783
Si Si2 0.892311 0.673556 0.297132
Si Si3 0.057904 0.167755 0.127884
Si Si4 0.822744 0.171228 0.998612
Si Si5 0.096657 0.828990 0.858229
Si Si6 0.812480 0.335728 0.457373
Si Si7 0.033059 0.830438 0.304289
O O1 0.500000 0.774238 0.500000
O O2 0.371889 0.817511 0.509671
O O3 0.420196 0.733477 0.634226
O O4 0.446160 0.000000 0.581912
O O5 0.899871 0.500000 0.289495
O O6 0.870424 0.742097 0.218659
O O7 0.835497 0.719690 0.369180
O O8 0.963384 0.739558 0.315492
O O9 0.071931 0.191958 0.216612
O O10 0.982024 0.228404 0.115725
O O11 0.057981 0.000000 0.103716
O O12 0.121533 0.238371 0.070855
O O13 0.854347 0.203590 0.077633
O O14 0.810309 0.000000 0.987637
O O15 0.750000 0.250000 0.000000
O O16 0.093771 0.000000 0.837695
O O17 0.788183 0.500000 0.452954
O O18 0.750000 0.250000 0.500000
O O19 0.016962 0.000000 0.320446
#
# Coordination Sequence:
#
# PCOD8088861 Si02
#       7
#     8   8   8   8   8   8   8
#     4  10  19  36  57  77 108 144 179 218 270 321
#     4  10  19  35  56  79 109 143 176 218 274 321
#     4   8  16  33  56  79 104 137 176 218 260 306
#     4  10  20  36  56  78 110 143 173 213 264 320
#     4   9  18  34  58  83 102 133 183 226 259 306
#     4  10  22  38  55  76 106 146 182 220 267 320
#     4  10  19  32  55  86 109 134 180 228 265 309
#
# _framework density 18.140861999999998
#
# number of rings (size 3 to 8) (size 9 to 14) (size 15 to 20)
#    0.000    2.429    1.429    2.143    0.000    4.286 
#    2.571    3.571    0.000    4.286    0.000    0.000 
#    0.000    0.000    0.000    0.000    0.000    0.000 
#
# Total GULP energy -347097.728998 kJ/mol
# GULP energy per Si atom -12396.347464 kJ/mol
# Density = 1.809957 g / cm^3
# Si number density = 18.140862 Si / 1000 Ang^3
#
#
#
# Elastic Constant Matrix: (Units=GPa)
#
#
# Indices 1 2 3 4 5 6 
#
# 1 72.9679 37.7266 67.2116 0.0000 -15.6639 0.0000
# 2 37.7266 67.0133 65.5877 0.0000 -3.8203 0.0000
# 3 67.2116 65.5877 152.3224 0.0000 -10.1706 0.0000
# 4 0.0000 0.0000 0.0000 28.6761 0.0000 3.9200
# 5 -15.6639 -3.8203 -10.1706 0.0000 28.3634 0.0000
# 6 0.0000 0.0000 0.0000 3.9200 0.0000 31.4741
#
#
#
# Elastic Compliance Matrix: (Units=1/GPa)
#
#
# Indices 1 2 3 4 5 6 
#
# 1 0.027245 -0.006335 -0.008551 0.000000 0.011127 0.000000
# 2 -0.006335 0.027272 -0.009155 0.000000 -0.003108 0.000000
# 3 -0.008551 -0.009155 0.014223 0.000000 -0.000855 0.000000
# 4 0.000000 0.000000 0.000000 0.035476 0.000000 -0.004418
# 5 0.011127 -0.003108 -0.000855 0.000000 0.040676 0.000000
# 6 0.000000 0.000000 0.000000 -0.004418 0.000000 0.032322
#
#
# Mechanical properties :
#
#
# Convention : Reuss Voigt Hill
#
# Bulk Modulus (GPa) = 48.40737 70.37283 59.39010
# Shear Modulus (GPa) = 21.53471 25.82122 23.67797
#
# Velocity S-wave (km/s) = 3.44914 3.77686 3.61671
# Velocity P-wave (km/s) = 6.52719 7.60895 7.08874
#
# Compressibility (1/GPa) = 0.02065801
#
# Stress axis : x y z
#
# Youngs Moduli (GPa) = 36.70398 36.66772 70.30738
#
# Poissons Ratio (x) = 0.23227 0.60122
# Poissons Ratio (y) = 0.23250 0.64369
# Poissons Ratio (z) = 0.31387 0.33571
#
# Static dielectric constant tensor:
#      x y z
#    x 3.159270 0.000000 0.000850 
#    y 0.000000 3.292880 0.000000 
#    z 0.000850 0.000000 3.621730 
# 
# 
# High freq. dielectric constant tensor:
#      x y z
#    x 1.687280 0.000000 0.005670 
#    y 0.000000 1.687290 0.000000 
#    z 0.005670 0.000000 1.717880 
# 
# From -- ./inp_files/275014.got.cif
#   From: 2010.06.25/outbox.cif.g09.slc.cpg/sg12_138_cif.got.tgz:275014.got - 2010.06.28 00:19:55.
