data_PCOD8088425
_publ_section_title
;
Structure prediction by ZEFSAII (Michael W. Deem and Ramdas Pophale) SiO2 
 PCOD8088425
Probable space group: C 2/M
;
_chemical_formula_sum "Si O2"
_cell_formula_units_Z 64
_cell_length_a 24.382894
_cell_length_b 8.752519
_cell_length_c 21.319110
_cell_angle_alpha 90.000000
_cell_angle_beta 51.197507
_cell_angle_gamma 90.000000
_cell_volume 3545.667630
_symmetry_space_group_name_H-M "C 2/M"
_symmetry_group_IT_number 12
_symmetry_cell_setting 'monoclinic'
loop_
_space_group_symop_operation_xyz
x,y,z
-x,y,-z
-x,-y,-z
x,-y,z
1/2+x,1/2+y,z
1/2-x,1/2+y,-z
1/2-x,1/2-y,-z
1/2+x,1/2-y,z
loop_
_atom_site_type_symbol
_atom_site_label
_atom_site_fract_x
_atom_site_fract_y
_atom_site_fract_z
Si Si1 0.380164 0.826236 0.460514
Si Si2 0.011467 0.820102 0.207245
Si Si3 0.963405 0.323904 0.678624
Si Si4 0.134101 0.681181 0.672047
Si Si5 0.356826 0.177714 0.940691
Si Si6 0.326463 0.680520 0.728704
Si Si7 0.743043 0.177396 0.103864
Si Si8 0.222942 0.179465 0.370633
O O1 0.463752 0.807455 0.411368
O O2 0.359911 0.771766 0.405129
O O3 0.341119 0.723087 0.538631
O O4 0.356270 0.000000 0.487993
O O5 0.035025 0.776298 0.260124
O O6 0.064260 0.741767 0.119996
O O7 0.933161 0.761410 0.248353
O O8 0.015528 0.000000 0.195895
O O9 0.950366 0.500000 0.707684
O O10 0.901237 0.265191 0.679093
O O11 0.123708 0.500000 0.685474
O O12 0.203009 0.746335 0.657571
O O13 0.317637 0.210076 0.903256
O O14 0.357575 0.000000 0.956810
O O15 0.317881 0.266411 0.024489
O O16 0.339066 0.500000 0.720144
O O17 0.274741 0.726998 0.821634
O O18 0.291137 0.737753 0.689484
O O19 0.747605 0.000000 0.117820
O O20 0.229589 0.000000 0.367120
#
# Coordination Sequence:
#
# PCOD8088425 Si02
#       8
#     8   8   8   8   8   8   8   8
#     4   9  19  34  55  78 101 132 176 228 272 313
#     4  11  20  31  53  83 110 136 172 219 265 311
#     4  10  20  35  52  75 106 142 177 213 266 319
#     4   9  19  37  56  76 105 139 177 221 268 316
#     4  10  19  32  53  80 111 141 172 210 259 312
#     4  11  22  35  52  76 108 144 179 216 260 314
#     4  10  20  33  52  78 109 143 175 211 257 309
#     4  10  22  37  54  76 104 141 181 220 265 316
#
# _framework density 18.050198000000002
#
# number of rings (size 3 to 8) (size 9 to 14) (size 15 to 20)
#    0.000    2.000    1.250    3.750    0.000    5.500 
#    0.000    2.500    0.000    0.750    0.000    5.250 
#    0.000    0.000    0.000    0.000    0.000    0.000 
#
# Total GULP energy -396898.656006 kJ/mol
# GULP energy per Si atom -12403.083000 kJ/mol
# Density = 1.800911 g / cm^3
# Si number density = 18.050198 Si / 1000 Ang^3
#
#
#
# Elastic Constant Matrix: (Units=GPa)
#
#
# Indices 1 2 3 4 5 6 
#
# 1 97.5259 22.8037 62.5922 0.0004 -2.0768 -0.0008
# 2 22.8037 38.9981 18.0236 -0.0001 -4.8127 -0.0005
# 3 62.5922 18.0236 100.7704 0.0006 -18.4750 -0.0003
# 4 0.0004 -0.0001 0.0006 34.3704 -0.0001 -5.3584
# 5 -2.0768 -4.8127 -18.4750 -0.0001 21.3158 0.0001
# 6 -0.0008 -0.0005 -0.0003 -5.3584 0.0001 22.9456
#
#
#
# Elastic Compliance Matrix: (Units=1/GPa)
#
#
# Indices 1 2 3 4 5 6 
#
# 1 0.020240 -0.007040 -0.013366 0.000000 -0.011202 0.000000
# 2 -0.007040 0.030501 0.000064 0.000000 0.006257 0.000000
# 3 -0.013366 0.000064 0.021375 0.000000 0.017238 0.000000
# 4 0.000000 0.000000 0.000000 0.030194 0.000000 0.007051
# 5 -0.011202 0.006257 0.017238 0.000000 0.062176 0.000000
# 6 0.000000 0.000000 0.000000 0.007051 0.000000 0.045228
#
#
# Mechanical properties :
#
#
# Convention : Reuss Voigt Hill
#
# Bulk Modulus (GPa) = 31.81470 49.34813 40.58142
# Shear Modulus (GPa) = 19.16632 24.65135 21.90883
#
# Velocity S-wave (km/s) = 3.26211 3.69956 3.48770
# Velocity P-wave (km/s) = 5.64380 6.75631 6.22496
#
# Compressibility (1/GPa) = 0.03143201
#
# Stress axis : x y z
#
# Youngs Moduli (GPa) = 49.40777 32.78564 46.78413
#
# Poissons Ratio (x) = 0.23081 0.62533
# Poissons Ratio (y) = 0.34783 -0.00302
# Poissons Ratio (z) = 0.66040 -0.00211
#
# Static dielectric constant tensor:
#      x y z
#    x 3.388870 0.000000 -0.168540 
#    y 0.000000 3.297860 0.000000 
#    z -0.168540 0.000000 3.313340 
# 
# 
# High freq. dielectric constant tensor:
#      x y z
#    x 1.677960 0.000000 -0.020090 
#    y 0.000000 1.704150 0.000000 
#    z -0.020090 0.000000 1.699790 
# 
# From -- ./inp_files/324196.got.cif
#   From: 2010.06.25/outbox.cif.g09.slc.cpg/sg12_163_cif.got.tgz:324196.got - 2010.06.28 00:19:55.
