data_PCOD8088230
_publ_section_title
;
Structure prediction by ZEFSAII (Michael W. Deem and Ramdas Pophale) SiO2 
 PCOD8088230
Probable space group: C 2/M
;
_chemical_formula_sum "Si O2"
_cell_formula_units_Z 64
_cell_length_a 30.005854
_cell_length_b 8.775319
_cell_length_c 14.981274
_cell_angle_alpha 90.000000
_cell_angle_beta 78.836926
_cell_angle_gamma 90.000000
_cell_volume 3870.099515
_symmetry_space_group_name_H-M "C 2/M"
_symmetry_group_IT_number 12
_symmetry_cell_setting 'monoclinic'
loop_
_space_group_symop_operation_xyz
x,y,z
-x,y,-z
-x,-y,-z
x,-y,z
1/2+x,1/2+y,z
1/2-x,1/2+y,-z
1/2-x,1/2-y,-z
1/2+x,1/2-y,z
loop_
_atom_site_type_symbol
_atom_site_label
_atom_site_fract_x
_atom_site_fract_y
_atom_site_fract_z
Si Si1 0.538930 0.176988 0.782883
Si Si2 0.035976 0.180249 0.601320
Si Si3 0.304057 0.178877 0.065817
Si Si4 0.596011 0.822222 0.933211
Si Si5 0.557787 0.822223 0.416293
Si Si6 0.714630 0.822865 0.126460
Si Si7 0.945705 0.821353 0.880650
Si Si8 0.120195 0.323821 0.231987
O O1 0.555434 0.267705 0.688955
O O2 0.576612 0.208402 0.842854
O O3 0.490274 0.231992 0.834607
O O4 0.534960 0.000000 0.760286
O O5 0.066711 0.253108 0.510867
O O6 0.984353 0.237770 0.613457
O O7 0.037250 0.000000 0.591993
O O8 0.351917 0.235879 0.087167
O O9 0.261536 0.243806 0.139051
O O10 0.301511 0.000000 0.072857
O O11 0.300554 0.237025 0.965256
O O12 0.592698 0.000000 0.961377
O O13 0.566693 0.725685 0.014256
O O14 0.602054 0.792886 0.338667
O O15 0.546141 0.000000 0.428578
O O16 0.673791 0.783246 0.210560
O O17 0.724780 0.000000 0.119406
O O18 0.904901 0.780319 0.830175
O O19 0.955616 0.000000 0.872438
O O20 0.112813 0.500000 0.206524
#
# Coordination Sequence:
#
# PCOD8088230 Si02
#       8
#     8   8   8   8   8   8   8   8
#     4  11  22  36  53  69  93 134 177 206 239 291
#     4  11  21  33  49  72 102 128 158 208 255 289
#     4   9  17  31  49  70  96 126 163 203 243 288
#     4  10  21  37  53  68  94 135 175 207 239 287
#     4  10  19  32  53  73  95 131 169 200 240 297
#     4   9  17  30  49  71  98 127 159 200 245 290
#     4  12  23  32  47  72 103 132 166 207 246 286
#     4  10  19  33  52  72  99 134 168 199 237 293
#
# _framework density 16.537044000000002
#
# number of rings (size 3 to 8) (size 9 to 14) (size 15 to 20)
#    0.000    1.750    2.500    4.125    0.000    4.000 
#    0.000    0.000    0.000    0.000    0.000    0.875 
#    0.000    0.000    0.000    0.000    0.000    0.000 
#
# Total GULP energy -396834.057179 kJ/mol
# GULP energy per Si atom -12401.064287 kJ/mol
# Density = 1.649940 g / cm^3
# Si number density = 16.537044 Si / 1000 Ang^3
#
#
#
# Elastic Constant Matrix: (Units=GPa)
#
#
# Indices 1 2 3 4 5 6 
#
# 1 58.6303 11.0801 45.3608 0.0000 -6.1534 0.0000
# 2 11.0801 57.1517 34.7083 0.0000 0.1886 0.0000
# 3 45.3608 34.7083 106.5835 0.0000 -7.9933 0.0000
# 4 0.0000 0.0000 0.0000 20.6331 0.0000 -2.7763
# 5 -6.1534 0.1886 -7.9933 0.0000 23.6245 0.0000
# 6 0.0000 0.0000 0.0000 -2.7763 0.0000 21.2667
#
#
#
# Elastic Compliance Matrix: (Units=1/GPa)
#
#
# Indices 1 2 3 4 5 6 
#
# 1 0.025807 0.001904 -0.011389 0.000000 0.002853 0.000000
# 2 0.001904 0.022113 -0.008195 0.000000 -0.002453 0.000000
# 3 -0.011389 -0.008195 0.017115 0.000000 0.002890 0.000000
# 4 0.000000 0.000000 0.000000 0.049332 0.000000 0.006440
# 5 0.002853 -0.002453 0.002890 0.000000 0.044069 0.000000
# 6 0.000000 0.000000 0.000000 0.006440 0.000000 0.047863
#
#
# Mechanical properties :
#
#
# Convention : Reuss Voigt Hill
#
# Bulk Modulus (GPa) = 33.69933 44.96267 39.33100
# Shear Modulus (GPa) = 19.87651 21.85261 20.86456
#
# Velocity S-wave (km/s) = 3.47066 3.63910 3.55588
# Velocity P-wave (km/s) = 6.04011 6.70115 6.37920
#
# Compressibility (1/GPa) = 0.02967418
#
# Stress axis : x y z
#
# Youngs Moduli (GPa) = 38.74861 45.22159 58.42811
#
# Poissons Ratio (x) = -0.08611 0.66546
# Poissons Ratio (y) = -0.07378 0.47884
# Poissons Ratio (z) = 0.44132 0.37061
#
# Static dielectric constant tensor:
#      x y z
#    x 3.107400 0.000000 -0.111140 
#    y 0.000000 3.141220 0.000000 
#    z -0.111140 0.000000 3.190760 
# 
# 
# High freq. dielectric constant tensor:
#      x y z
#    x 1.616540 0.000000 -0.013260 
#    y 0.000000 1.642500 0.000000 
#    z -0.013260 0.000000 1.624480 
# 
# From -- ./inp_files/248254.got.cif
#   From: 2010.06.25/outbox.cif.g09.slc.cpg/sg12_125_cif.got.tgz:248254.got - 2010.06.28 00:19:55.
