data_PCOD8088274
_publ_section_title
;
Structure prediction by ZEFSAII (Michael W. Deem and Ramdas Pophale) SiO2 
 PCOD8088274
Probable space group: C 2/M
;
_chemical_formula_sum "Si O2"
_cell_formula_units_Z 40
_cell_length_a 26.535913
_cell_length_b 9.248922
_cell_length_c 11.232718
_cell_angle_alpha 90.000000
_cell_angle_beta 54.645103
_cell_angle_gamma 90.000000
_cell_volume 2248.425311
_symmetry_space_group_name_H-M "C 2/M"
_symmetry_group_IT_number 12
_symmetry_cell_setting 'monoclinic'
loop_
_space_group_symop_operation_xyz
x,y,z
-x,y,-z
-x,-y,-z
x,-y,z
1/2+x,1/2+y,z
1/2-x,1/2+y,-z
1/2-x,1/2-y,-z
1/2+x,1/2-y,z
loop_
_atom_site_type_symbol
_atom_site_label
_atom_site_fract_x
_atom_site_fract_y
_atom_site_fract_z
Si Si1 0.581875 0.666608 0.774194
Si Si2 0.442476 0.665804 0.920645
Si Si3 0.194508 0.331041 0.512224
Si Si4 0.229056 0.333997 0.199523
Si Si5 0.839052 0.331368 0.945413
O O1 0.601525 0.500000 0.728252
O O2 0.515124 0.696445 0.807698
O O3 0.629492 0.772182 0.646146
O O4 0.580121 0.703280 0.915911
O O5 0.427866 0.500000 0.911217
O O6 0.406531 0.765039 0.875656
O O7 0.199598 0.500000 0.534487
O O8 0.250000 0.250000 0.500000
O O9 0.197045 0.300658 0.368228
O O10 0.250405 0.500000 0.160570
O O11 0.179753 0.295573 0.164372
O O12 0.290146 0.237734 0.103594
O O13 0.841411 0.500000 0.968192
#
# Coordination Sequence:
#
# PCOD8088274 Si02
#       5
#     8   8   8   8   8
#     4   9  19  35  53  74 101 132 166 201 243 297
#     4   9  18  34  54  74 100 133 163 200 251 295
#     4  11  22  35  52  74 102 133 163 201 249 295
#     4   9  20  36  50  70 103 136 163 198 249 299
#     4  10  19  32  53  77  98 127 169 209 242 286
#
# _framework density 17.790229
#
# number of rings (size 3 to 8) (size 9 to 14) (size 15 to 20)
#    0.000    2.400    0.000    3.600    0.000    8.800 
#    0.000    3.000    0.000    6.000    0.000    0.000 
#    0.000    0.000    0.000    0.000    0.000    0.000 
#
# Total GULP energy -248057.293072 kJ/mol
# GULP energy per Si atom -12402.864654 kJ/mol
# Density = 1.774974 g / cm^3
# Si number density = 17.790229 Si / 1000 Ang^3
#
#
#
# Elastic Constant Matrix: (Units=GPa)
#
#
# Indices 1 2 3 4 5 6 
#
# 1 113.3897 60.5848 45.1637 0.0000 -10.1410 0.0000
# 2 60.5848 95.4610 58.0954 0.0000 -6.5605 0.0000
# 3 45.1637 58.0954 105.5299 0.0000 -8.0180 0.0000
# 4 0.0000 0.0000 0.0000 32.4588 0.0000 -4.7050
# 5 -10.1410 -6.5605 -8.0180 0.0000 19.7978 0.0000
# 6 0.0000 0.0000 0.0000 -4.7050 0.0000 37.4810
#
#
#
# Elastic Compliance Matrix: (Units=1/GPa)
#
#
# Indices 1 2 3 4 5 6 
#
# 1 0.013817 -0.007641 -0.001405 0.000000 0.003977 0.000000
# 2 -0.007641 0.020038 -0.007794 0.000000 -0.000430 0.000000
# 3 -0.001405 -0.007794 0.014565 0.000000 0.002597 0.000000
# 4 0.000000 0.000000 0.000000 0.031379 0.000000 0.003939
# 5 0.003977 -0.000430 0.002597 0.000000 0.053456 0.000000
# 6 0.000000 0.000000 0.000000 0.003939 0.000000 0.027175
#
#
# Mechanical properties :
#
#
# Convention : Reuss Voigt Hill
#
# Bulk Modulus (GPa) = 67.83645 71.34094 69.58870
# Shear Modulus (GPa) = 25.12265 27.98330 26.55298
#
# Velocity S-wave (km/s) = 3.76195 3.97036 3.86756
# Velocity P-wave (km/s) = 7.55538 7.82346 7.69059
#
# Compressibility (1/GPa) = 0.01474134
#
# Stress axis : x y z
#
# Youngs Moduli (GPa) = 72.37574 49.90412 68.65695
#
# Poissons Ratio (x) = 0.38130 0.09645
# Poissons Ratio (y) = 0.55300 0.53512
# Poissons Ratio (z) = 0.10167 0.38896
#
# Static dielectric constant tensor:
#      x y z
#    x 3.395350 0.000000 0.025100 
#    y 0.000000 3.326780 0.000000 
#    z 0.025100 0.000000 3.175820 
# 
# 
# High freq. dielectric constant tensor:
#      x y z
#    x 1.697120 0.000000 -0.002180 
#    y 0.000000 1.693420 0.000000 
#    z -0.002180 0.000000 1.673190 
# 
# From -- ./inp_files/151969.got.cif
#   From: 2010.06.25/outbox.cif.g09.slc.cpg/sg12_76_cif.got.tgz:151969.got - 2010.06.28 00:19:55.
