data_PCOD8088441
_publ_section_title
;
Structure prediction by ZEFSAII (Michael W. Deem and Ramdas Pophale) SiO2 
 PCOD8088441
Probable space group: C 2/M
;
_chemical_formula_sum "Si O2"
_cell_formula_units_Z 64
_cell_length_a 10.273884
_cell_length_b 25.844648
_cell_length_c 15.232902
_cell_angle_alpha 90.000000
_cell_angle_beta 61.757939
_cell_angle_gamma 90.000000
_cell_volume 3563.217232
_symmetry_space_group_name_H-M "C 2/M"
_symmetry_group_IT_number 12
_symmetry_cell_setting 'monoclinic'
loop_
_space_group_symop_operation_xyz
x,y,z
-x,y,-z
-x,-y,-z
x,-y,z
1/2+x,1/2+y,z
1/2-x,1/2+y,-z
1/2-x,1/2-y,-z
1/2+x,1/2-y,z
loop_
_atom_site_type_symbol
_atom_site_label
_atom_site_fract_x
_atom_site_fract_y
_atom_site_fract_z
Si Si1 0.801957 0.274944 0.392862
Si Si2 0.366680 0.699082 0.216025
Si Si3 0.069699 0.300656 0.885548
Si Si4 0.561401 0.159521 0.251220
Si Si5 0.591069 0.941479 0.713077
Si Si6 0.636544 0.639601 0.200274
Si Si7 0.866433 0.124070 0.603143
Si Si8 0.358713 0.942442 0.096668
O O1 0.750000 0.250000 0.500000
O O2 0.811941 0.228091 0.320842
O O3 0.682597 0.317259 0.401562
O O4 0.961351 0.303911 0.346872
O O5 0.438603 0.739262 0.124871
O O6 0.232031 0.669939 0.213073
O O7 0.493441 0.657337 0.193403
O O8 0.242764 0.315056 0.826433
O O9 0.983292 0.329860 0.835508
O O10 0.000000 0.316636 0.000000
O O11 0.537214 0.098175 0.276867
O O12 0.740939 0.918438 0.624328
O O13 0.602307 0.941266 0.813890
O O14 0.561613 0.000000 0.687719
O O15 0.581381 0.621108 0.313011
O O16 0.715571 0.592664 0.122852
O O17 0.000000 0.107084 0.500000
O O18 0.322057 0.000000 0.074913
O O19 0.500000 0.919876 0.000000
#
# Coordination Sequence:
#
# PCOD8088441 Si02
#       8
#     8   8   8   8   8   8   8   8
#     4  10  20  33  55  78 107 148 186 226 264 314
#     4  11  23  34  50  78 119 146 178 220 272 329
#     4  11  21  37  57  75 107 153 190 222 264 323
#     4  10  21  37  52  82 110 142 188 223 269 335
#     4   9  18  35  56  77 103 137 179 225 270 327
#     4  11  20  36  52  80 110 141 180 228 264 321
#     4  10  19  32  53  81 108 135 178 229 268 311
#     4   9  17  33  59  83  99 132 184 235 279 318
#
# _framework density 17.961295
#
# number of rings (size 3 to 8) (size 9 to 14) (size 15 to 20)
#    0.000    1.875    5.000    2.625    1.750    2.250 
#    0.000    0.625    0.000    0.000    0.000   14.000 
#    0.000    0.000    0.000    0.000    0.000    0.000 
#
# Total GULP energy -396682.642529 kJ/mol
# GULP energy per Si atom -12396.332579 kJ/mol
# Density = 1.792041 g / cm^3
# Si number density = 17.961295 Si / 1000 Ang^3
#
#
#
# Elastic Constant Matrix: (Units=GPa)
#
#
# Indices 1 2 3 4 5 6 
#
# 1 113.1822 52.1837 29.7286 0.0000 -10.5830 0.0000
# 2 52.1837 131.8050 36.2105 0.0000 -9.6482 0.0000
# 3 29.7286 36.2105 114.5187 0.0000 -17.2327 0.0000
# 4 0.0000 0.0000 0.0000 19.3721 0.0000 -6.5584
# 5 -10.5830 -9.6482 -17.2327 0.0000 16.4055 0.0000
# 6 0.0000 0.0000 0.0000 -6.5584 0.0000 12.9625
#
#
#
# Elastic Compliance Matrix: (Units=1/GPa)
#
#
# Indices 1 2 3 4 5 6 
#
# 1 0.011274 -0.003875 -0.001128 0.000000 0.003809 0.000000
# 2 -0.003875 0.009730 -0.001883 0.000000 0.001244 0.000000
# 3 -0.001128 -0.001883 0.011099 0.000000 0.009823 0.000000
# 4 0.000000 0.000000 0.000000 0.062290 0.000000 0.031516
# 5 0.003809 0.001244 0.009823 0.000000 0.074462 0.000000
# 6 0.000000 0.000000 0.000000 0.031516 0.000000 0.093091
#
#
# Mechanical properties :
#
#
# Convention : Reuss Voigt Hill
#
# Bulk Modulus (GPa) = 54.55705 66.19463 60.37584
# Shear Modulus (GPa) = 17.74122 25.84023 21.79073
#
# Velocity S-wave (km/s) = 3.14625 3.79708 3.48689
# Velocity P-wave (km/s) = 6.60600 7.49385 7.06389
#
# Compressibility (1/GPa) = 0.01832944
#
# Stress axis : x y z
#
# Youngs Moduli (GPa) = 88.69656 102.77944 90.10001
#
# Poissons Ratio (x) = 0.39826 0.10167
# Poissons Ratio (y) = 0.34369 0.16969
# Poissons Ratio (z) = 0.10009 0.19357
#
# Static dielectric constant tensor:
#      x y z
#    x 3.074440 0.000000 -0.130860 
#    y 0.000000 3.610480 0.000000 
#    z -0.130860 0.000000 3.359080 
# 
# 
# High freq. dielectric constant tensor:
#      x y z
#    x 1.665020 0.000000 -0.016440 
#    y 0.000000 1.697610 0.000000 
#    z -0.016440 0.000000 1.695920 
# 
# From -- ./inp_files/199765.got.cif
#   From: 2010.06.25/outbox.cif.g09.slc.cpg/sg12_100_cif.got.tgz:199765.got - 2010.06.28 00:19:55.
