data_PCOD8088189
_publ_section_title
;
Structure prediction by ZEFSAII (Michael W. Deem and Ramdas Pophale) SiO2 
 PCOD8088189
Probable space group: C 2/M
;
_chemical_formula_sum "Si O2"
_cell_formula_units_Z 64
_cell_length_a 32.809909
_cell_length_b 8.700454
_cell_length_c 20.794692
_cell_angle_alpha 90.000000
_cell_angle_beta 144.022152
_cell_angle_gamma 90.000000
_cell_volume 3487.280789
_symmetry_space_group_name_H-M "C 2/M"
_symmetry_group_IT_number 12
_symmetry_cell_setting 'monoclinic'
loop_
_space_group_symop_operation_xyz
x,y,z
-x,y,-z
-x,-y,-z
x,-y,z
1/2+x,1/2+y,z
1/2-x,1/2+y,-z
1/2-x,1/2-y,-z
1/2+x,1/2-y,z
loop_
_atom_site_type_symbol
_atom_site_label
_atom_site_fract_x
_atom_site_fract_y
_atom_site_fract_z
Si Si1 0.796068 0.682394 0.615699
Si Si2 0.932187 0.817621 0.741374
Si Si3 0.721038 0.682704 0.648241
Si Si4 0.721956 0.177707 0.144320
Si Si5 0.575067 0.318100 0.768733
Si Si6 0.426476 0.177663 0.095196
Si Si7 0.077482 0.181682 0.416893
Si Si8 0.707378 0.819799 0.887043
O O1 0.794434 0.500000 0.608223
O O2 0.750000 0.750000 0.500000
O O3 0.874532 0.743841 0.713587
O O4 0.765674 0.740815 0.644745
O O5 0.915866 0.761948 0.648045
O O6 0.007791 0.752642 0.857125
O O7 0.931820 0.000000 0.748313
O O8 0.721031 0.500000 0.649059
O O9 0.753548 0.745040 0.755807
O O10 0.641946 0.746970 0.540431
O O11 0.759628 0.275977 0.138320
O O12 0.743330 0.000000 0.162573
O O13 0.639132 0.196943 0.035428
O O14 0.584067 0.500000 0.777014
O O15 0.591226 0.265771 0.861742
O O16 0.496820 0.266259 0.648941
O O17 0.628266 0.240148 0.787469
O O18 0.441343 0.000000 0.129944
O O19 0.080921 0.000000 0.420286
O O20 0.707860 0.000000 0.896708
O O21 0.750000 0.750000 0.000000
#
# Coordination Sequence:
#
# PCOD8088189 Si02
#       8
#     8   8   8   8   8   8   8   8
#     4  11  20  33  56  84 113 144 184 232 279 327
#     4  10  19  33  54  80 110 143 184 231 276 324
#     4   9  18  35  57  81 110 145 182 225 273 330
#     4  10  21  37  58  81 109 144 184 226 274 330
#     4  10  19  32  55  83 111 142 180 227 275 322
#     4  10  19  32  52  81 111 141 181 226 277 328
#     4   8  15  30  53  80 107 139 180 222 267 318
#     4  12  23  36  56  81 111 143 183 230 274 324
#
# _framework density 18.352408
#
# number of rings (size 3 to 8) (size 9 to 14) (size 15 to 20)
#    0.000    2.000    2.500    3.375    0.000    0.500 
#    0.000    2.500    0.000    7.500    0.000    0.000 
#    0.000    0.000    0.000    0.000    0.000    0.000 
#
# Total GULP energy -396775.767019 kJ/mol
# GULP energy per Si atom -12399.242719 kJ/mol
# Density = 1.831064 g / cm^3
# Si number density = 18.352408 Si / 1000 Ang^3
#
#
#
# Elastic Constant Matrix: (Units=GPa)
#
#
# Indices 1 2 3 4 5 6 
#
# 1 130.0322 46.6753 74.9690 0.0000 15.4486 0.0000
# 2 46.6753 86.6919 38.1614 0.0000 6.1246 0.0000
# 3 74.9690 38.1614 131.7453 0.0000 10.0889 0.0000
# 4 0.0000 0.0000 0.0000 21.3549 0.0000 5.5492
# 5 15.4486 6.1246 10.0889 0.0000 33.3400 0.0000
# 6 0.0000 0.0000 0.0000 5.5492 0.0000 30.2238
#
#
#
# Elastic Compliance Matrix: (Units=1/GPa)
#
#
# Indices 1 2 3 4 5 6 
#
# 1 0.013016 -0.004148 -0.005939 0.000000 -0.003472 0.000000
# 2 -0.004148 0.014598 -0.001853 0.000000 -0.000199 0.000000
# 3 -0.005939 -0.001853 0.011537 0.000000 -0.000399 0.000000
# 4 0.000000 0.000000 0.000000 0.049174 0.000000 -0.009028
# 5 -0.003472 -0.000199 -0.000399 0.000000 0.031760 0.000000
# 6 0.000000 0.000000 0.000000 -0.009028 0.000000 0.034744
#
#
# Mechanical properties :
#
#
# Convention : Reuss Voigt Hill
#
# Bulk Modulus (GPa) = 65.48324 74.23119 69.85721
# Shear Modulus (GPa) = 27.20342 29.56133 28.38237
#
# Velocity S-wave (km/s) = 3.85422 4.01778 3.93685
# Velocity P-wave (km/s) = 7.45420 7.87775 7.66890
#
# Compressibility (1/GPa) = 0.01527108
#
# Stress axis : x y z
#
# Youngs Moduli (GPa) = 76.82758 68.50191 86.67487
#
# Poissons Ratio (x) = 0.28416 0.51479
# Poissons Ratio (y) = 0.31870 0.16059
# Poissons Ratio (z) = 0.45630 0.12692
#
# Static dielectric constant tensor:
#      x y z
#    x 3.533240 0.000000 0.259160 
#    y 0.000000 3.266700 0.000000 
#    z 0.259160 0.000000 3.612640 
# 
# 
# High freq. dielectric constant tensor:
#      x y z
#    x 1.708360 0.000000 0.027590 
#    y 0.000000 1.700530 0.000000 
#    z 0.027590 0.000000 1.703270 
# 
# From -- ./inp_files/295709.got.cif
#   From: 2010.06.25/outbox.cif.g09.slc.cpg/sg12_148_cif.got.tgz:295709.got - 2010.06.28 00:19:55.
