data_PCOD8088064
_publ_section_title
;
Structure prediction by ZEFSAII (Michael W. Deem and Ramdas Pophale) SiO2 
 PCOD8088064
Probable space group: C 2/M
;
_chemical_formula_sum "Si O2"
_cell_formula_units_Z 48
_cell_length_a 26.049430
_cell_length_b 10.384170
_cell_length_c 9.028356
_cell_angle_alpha 90.000000
_cell_angle_beta 97.471275
_cell_angle_gamma 90.000000
_cell_volume 2421.452004
_symmetry_space_group_name_H-M "C 2/M"
_symmetry_group_IT_number 12
_symmetry_cell_setting 'monoclinic'
loop_
_space_group_symop_operation_xyz
x,y,z
-x,y,-z
-x,-y,-z
x,-y,z
1/2+x,1/2+y,z
1/2-x,1/2+y,-z
1/2-x,1/2-y,-z
1/2+x,1/2-y,z
loop_
_atom_site_type_symbol
_atom_site_label
_atom_site_fract_x
_atom_site_fract_y
_atom_site_fract_z
Si Si1 0.380856 0.766335 0.495991
Si Si2 0.689349 0.647191 0.290544
Si Si3 0.842772 0.851039 0.041591
Si Si4 0.480447 0.139891 0.658461
Si Si5 0.697057 0.142907 0.755981
Si Si6 0.557845 0.644590 0.737753
O O1 0.334603 0.707265 0.572223
O O2 0.418929 0.835266 0.627232
O O3 0.352733 0.862349 0.370873
O O4 0.413650 0.664465 0.409872
O O5 0.675224 0.500000 0.297115
O O6 0.750711 0.672960 0.314899
O O7 0.663207 0.697805 0.128715
O O8 0.807502 0.755810 0.125508
O O9 0.902407 0.838404 0.111993
O O10 0.823755 0.000000 0.054778
O O11 0.500000 0.132802 0.500000
O O12 0.511580 0.253950 0.752255
O O13 0.490035 0.000000 0.739448
O O14 0.700906 0.000000 0.831386
O O15 0.534597 0.500000 0.728145
#
# Coordination Sequence:
#
# PCOD8088064 Si02
#       6
#     8   8   8   8   8   8
#     4  10  19  32  52  77 107 135 169 214 263 305
#     4  10  20  34  53  79 109 139 173 216 262 307
#     4   9  19  36  55  77 106 139 176 215 257 308
#     4   9  18  32  51  74 101 132 167 210 258 307
#     4  10  20  35  55  78 105 140 179 214 255 309
#     4   9  18  32  53  77  99 130 173 214 254 306
#
# _framework density 19.822817000000001
#
# number of rings (size 3 to 8) (size 9 to 14) (size 15 to 20)
#    0.000    2.500    0.000    2.000    0.000    8.333 
#    0.000    4.167    0.000    4.000    0.000    0.000 
#    0.000    0.000    0.000    0.000    0.000    0.000 
#
# Total GULP energy -297422.292922 kJ/mol
# GULP energy per Si atom -12392.595538 kJ/mol
# Density = 1.977770 g / cm^3
# Si number density = 19.822817 Si / 1000 Ang^3
#
#
#
# Elastic Constant Matrix: (Units=GPa)
#
#
# Indices 1 2 3 4 5 6 
#
# 1 83.4892 40.8383 14.0501 0.0000 15.0086 0.0000
# 2 40.8383 109.2595 20.6522 0.0000 10.2487 0.0000
# 3 14.0501 20.6522 45.7772 0.0000 4.1754 0.0000
# 4 0.0000 0.0000 0.0000 10.1577 0.0000 4.0765
# 5 15.0086 10.2487 4.1754 0.0000 19.6994 0.0000
# 6 0.0000 0.0000 0.0000 4.0765 0.0000 27.0278
#
#
#
# Elastic Compliance Matrix: (Units=1/GPa)
#
#
# Indices 1 2 3 4 5 6 
#
# 1 0.016405 -0.004864 -0.001970 0.000000 -0.009551 0.000000
# 2 -0.004864 0.011824 -0.003690 0.000000 -0.001664 0.000000
# 3 -0.001970 -0.003690 0.024271 0.000000 -0.001724 0.000000
# 4 0.000000 0.000000 0.000000 0.104791 0.000000 -0.015805
# 5 -0.009551 -0.001664 -0.001724 0.000000 0.059271 0.000000
# 6 0.000000 0.000000 0.000000 -0.015805 0.000000 0.039383
#
#
# Mechanical properties :
#
#
# Convention : Reuss Voigt Hill
#
# Bulk Modulus (GPa) = 31.79239 43.28967 37.54103
# Shear Modulus (GPa) = 17.39277 22.24266 19.81771
#
# Velocity S-wave (km/s) = 2.96533 3.35337 3.16530
# Velocity P-wave (km/s) = 5.27232 6.07282 5.68667
#
# Compressibility (1/GPa) = 0.03145407
#
# Stress axis : x y z
#
# Youngs Moduli (GPa) = 60.95710 84.57437 41.20077
#
# Poissons Ratio (x) = 0.41133 0.08116
# Poissons Ratio (y) = 0.29647 0.15202
# Poissons Ratio (z) = 0.12007 0.31206
#
# Static dielectric constant tensor:
#      x y z
#    x 3.764040 0.000000 0.172690 
#    y 0.000000 3.796580 0.000000 
#    z 0.172690 0.000000 3.437310 
# 
# 
# High freq. dielectric constant tensor:
#      x y z
#    x 1.779260 0.000000 0.018820 
#    y 0.000000 1.772940 0.000000 
#    z 0.018820 0.000000 1.738820 
# 
# From -- ./inp_files/94322.got.cif
#   From: 2010.06.25/outbox.cif.g09.slc.cpg/sg12_48_cif.got.tgz:94322.got - 2010.06.28 00:19:55.
