data_PCOD8088226
_publ_section_title
;
Structure prediction by ZEFSAII (Michael W. Deem and Ramdas Pophale) SiO2 
 PCOD8088226
Probable space group: C 2/M
;
_chemical_formula_sum "Si O2"
_cell_formula_units_Z 56
_cell_length_a 25.078383
_cell_length_b 8.911835
_cell_length_c 15.032749
_cell_angle_alpha 90.000000
_cell_angle_beta 52.380547
_cell_angle_gamma 90.000000
_cell_volume 2661.187411
_symmetry_space_group_name_H-M "C 2/M"
_symmetry_group_IT_number 12
_symmetry_cell_setting 'monoclinic'
loop_
_space_group_symop_operation_xyz
x,y,z
-x,y,-z
-x,-y,-z
x,-y,z
1/2+x,1/2+y,z
1/2-x,1/2+y,-z
1/2-x,1/2-y,-z
1/2+x,1/2-y,z
loop_
_atom_site_type_symbol
_atom_site_label
_atom_site_fract_x
_atom_site_fract_y
_atom_site_fract_z
Si Si1 0.777684 0.677186 0.245362
Si Si2 0.368894 0.826349 0.994601
Si Si3 0.998096 0.160645 0.901268
Si Si4 0.581001 0.175996 0.240181
Si Si5 0.123136 0.824306 0.377115
Si Si6 0.140130 0.176665 0.686199
Si Si7 0.072930 0.324755 0.598501
O O1 0.789621 0.500000 0.240561
O O2 0.700572 0.720006 0.311232
O O3 0.801203 0.750261 0.314382
O O4 0.816668 0.747538 0.118448
O O5 0.444811 0.791468 0.943537
O O6 0.366249 0.778412 0.892813
O O7 0.355314 0.000000 0.015105
O O8 0.070501 0.223960 0.802054
O O9 0.981840 0.000000 0.867610
O O10 0.000000 0.116202 0.000000
O O11 0.600546 0.278087 0.302378
O O12 0.503349 0.211266 0.289672
O O13 0.587131 0.000000 0.258060
O O14 0.077566 0.734713 0.493279
O O15 0.110852 0.000000 0.402670
O O16 0.132321 0.243932 0.594834
O O17 0.153375 0.000000 0.666608
O O18 0.087791 0.500000 0.585563
#
# Coordination Sequence:
#
# PCOD8088226 Si02
#       7
#     8   8   8   8   8   8   8
#     4  10  23  41  60  86 123 163 201 238 287 356
#     4  10  20  36  60  88 119 156 196 238 290 353
#     4  10  19  32  52  86 125 154 187 238 297 351
#     4  10  22  40  63  91 118 150 197 249 300 353
#     4  11  25  43  61  85 118 159 204 249 295 346
#     4  11  22  36  60  92 124 156 194 242 298 354
#     4  11  23  41  65  91 118 153 198 248 300 353
#
# _framework density 21.043237999999999
#
# number of rings (size 3 to 8) (size 9 to 14) (size 15 to 20)
#    0.000    1.571    2.857    1.714    0.000    6.571 
#    0.000    0.000    0.000    0.000    0.000    0.000 
#    0.000    0.000    0.000    0.000    0.000    0.000 
#
# Total GULP energy -347008.297813 kJ/mol
# GULP energy per Si atom -12393.153493 kJ/mol
# Density = 2.099534 g / cm^3
# Si number density = 21.043238 Si / 1000 Ang^3
#
#
#
# Elastic Constant Matrix: (Units=GPa)
#
#
# Indices 1 2 3 4 5 6 
#
# 1 95.9592 35.9697 24.7781 0.0000 11.5890 0.0000
# 2 35.9697 54.5892 26.4452 0.0002 5.4847 -0.0001
# 3 24.7781 26.4452 47.9170 0.0001 16.3975 -0.0001
# 4 0.0000 0.0002 0.0001 27.2352 0.0000 5.3755
# 5 11.5890 5.4847 16.3975 0.0000 30.6625 0.0000
# 6 0.0000 -0.0001 -0.0001 5.3755 0.0000 34.6917
#
#
#
# Elastic Compliance Matrix: (Units=1/GPa)
#
#
# Indices 1 2 3 4 5 6 
#
# 1 0.014354 -0.008265 -0.001849 0.000000 -0.002958 0.000000
# 2 -0.008265 0.030084 -0.014146 0.000000 0.005307 0.000000
# 3 -0.001849 -0.014146 0.034917 0.000000 -0.015444 0.000000
# 4 0.000000 0.000000 0.000000 0.037875 0.000000 -0.005869
# 5 -0.002958 0.005307 -0.015444 0.000000 0.041041 0.000000
# 6 0.000000 0.000000 0.000000 -0.005869 0.000000 0.029735
#
#
# Mechanical properties :
#
#
# Convention : Reuss Voigt Hill
#
# Bulk Modulus (GPa) = 32.42912 41.42791 36.92851
# Shear Modulus (GPa) = 20.25899 25.93604 23.09751
#
# Velocity S-wave (km/s) = 3.10616 3.51452 3.31663
# Velocity P-wave (km/s) = 5.32057 6.01656 5.67923
#
# Compressibility (1/GPa) = 0.03083649
#
# Stress axis : x y z
#
# Youngs Moduli (GPa) = 69.66768 33.24003 28.63914
#
# Poissons Ratio (x) = 0.27474 0.05294
# Poissons Ratio (y) = 0.57582 0.40512
# Poissons Ratio (z) = 0.12879 0.47020
#
# Static dielectric constant tensor:
#      x y z
#    x 3.637070 0.000000 0.065100 
#    y 0.000000 3.653680 0.000000 
#    z 0.065100 0.000000 4.100140 
# 
# 
# High freq. dielectric constant tensor:
#      x y z
#    x 1.810980 0.000000 0.010070 
#    y 0.000000 1.819030 0.000000 
#    z 0.010070 0.000000 1.839080 
# 
# From -- ./inp_files/238370.got.cif
#   From: 2010.06.25/outbox.cif.g09.slc.cpg/sg12_120_cif.got.tgz:238370.got - 2010.06.28 00:19:55.
