data_PCOD8088286
_publ_section_title
;
Structure prediction by ZEFSAII (Michael W. Deem and Ramdas Pophale) SiO2 
 PCOD8088286
Probable space group: C 2/M
;
_chemical_formula_sum "Si O2"
_cell_formula_units_Z 48
_cell_length_a 19.054627
_cell_length_b 8.484902
_cell_length_c 15.318823
_cell_angle_alpha 90.000000
_cell_angle_beta 90.609475
_cell_angle_gamma 90.000000
_cell_volume 2476.555752
_symmetry_space_group_name_H-M "C 2/M"
_symmetry_group_IT_number 12
_symmetry_cell_setting 'monoclinic'
loop_
_space_group_symop_operation_xyz
x,y,z
-x,y,-z
-x,-y,-z
x,-y,z
1/2+x,1/2+y,z
1/2-x,1/2+y,-z
1/2-x,1/2-y,-z
1/2+x,1/2-y,z
loop_
_atom_site_type_symbol
_atom_site_label
_atom_site_fract_x
_atom_site_fract_y
_atom_site_fract_z
Si Si1 0.326816 0.185396 0.842740
Si Si2 0.578431 0.187066 0.996436
Si Si3 0.078164 0.685795 0.495871
Si Si4 0.676964 0.813889 0.647379
Si Si5 0.665567 0.315215 0.343716
Si Si6 0.675748 0.186447 0.842658
O O1 0.351385 0.276456 0.756642
O O2 0.247576 0.226572 0.868668
O O3 0.334206 0.000000 0.827112
O O4 0.377375 0.246378 0.920237
O O5 0.615555 0.244911 0.907790
O O6 0.575127 0.000000 0.996325
O O7 0.500000 0.258641 0.000000
O O8 0.074674 0.500000 0.508279
O O9 0.125141 0.761429 0.574551
O O10 0.110489 0.724921 0.402874
O O11 0.000000 0.758099 0.500000
O O12 0.756186 0.752519 0.632419
O O13 0.651869 0.766022 0.744337
O O14 0.677181 0.000000 0.637912
O O15 0.658492 0.500000 0.359811
O O16 0.689578 0.000000 0.849499
#
# Coordination Sequence:
#
# PCOD8088286 Si02
#       6
#     8   8   8   8   8   8
#     4  10  19  32  53  78 101 128 167 212 250 290
#     4   9  18  31  50  77 105 134 167 203 247 298
#     4  10  20  33  51  77 105 131 163 206 252 297
#     4   8  16  31  51  74  98 129 167 205 248 293
#     4  10  20  35  54  73  98 134 171 207 248 296
#     4   9  17  32  53  74 100 133 167 205 248 298
#
# _framework density 19.381757
#
# number of rings (size 3 to 8) (size 9 to 14) (size 15 to 20)
#    0.000    2.667    0.000    3.000    0.000    1.667 
#    0.000    9.167    0.000    8.500    0.000    0.000 
#    0.000    0.000    0.000    0.000    0.000    0.000 
#
# Total GULP energy -297578.870379 kJ/mol
# GULP energy per Si atom -12399.119599 kJ/mol
# Density = 1.933764 g / cm^3
# Si number density = 19.381757 Si / 1000 Ang^3
#
#
#
# Elastic Constant Matrix: (Units=GPa)
#
#
# Indices 1 2 3 4 5 6 
#
# 1 141.0666 7.5645 90.5923 0.0000 -16.3150 0.0000
# 2 7.5645 13.2146 2.0368 0.0000 5.9915 0.0000
# 3 90.5923 2.0368 133.8175 0.0000 -13.2755 0.0000
# 4 0.0000 0.0000 0.0000 22.0376 0.0000 -1.7389
# 5 -16.3150 5.9915 -13.2755 0.0000 23.9346 0.0000
# 6 0.0000 0.0000 0.0000 -1.7389 0.0000 19.2949
#
#
#
# Elastic Compliance Matrix: (Units=1/GPa)
#
#
# Indices 1 2 3 4 5 6 
#
# 1 0.013982 -0.009971 -0.008594 0.000000 0.007260 0.000000
# 2 -0.009971 0.094162 0.002439 0.000000 -0.029015 0.000000
# 3 -0.008594 0.002439 0.013346 0.000000 0.000934 0.000000
# 4 0.000000 0.000000 0.000000 0.045702 0.000000 0.004119
# 5 0.007260 -0.029015 0.000934 0.000000 0.054511 0.000000
# 6 0.000000 0.000000 0.000000 0.004119 0.000000 0.052198
#
#
# Mechanical properties :
#
#
# Convention : Reuss Voigt Hill
#
# Bulk Modulus (GPa) = 11.20604 54.27620 32.74112
# Shear Modulus (GPa) = 14.88543 25.58044 20.23293
#
# Velocity S-wave (km/s) = 2.77431 3.63687 3.23447
# Velocity P-wave (km/s) = 4.00708 6.76020 5.55684
#
# Compressibility (1/GPa) = 0.08923760
#
# Stress axis : x y z
#
# Youngs Moduli (GPa) = 71.52084 10.62004 74.92815
#
# Poissons Ratio (x) = 0.10589 0.64390
# Poissons Ratio (y) = 0.71314 -0.18271
# Poissons Ratio (z) = 0.61462 -0.02590
#
# Static dielectric constant tensor:
#      x y z
#    x 3.786220 0.000000 0.120110 
#    y 0.000000 3.139460 0.000000 
#    z 0.120110 0.000000 3.749370 
# 
# 
# High freq. dielectric constant tensor:
#      x y z
#    x 1.751310 0.000000 -0.001160 
#    y 0.000000 1.717860 0.000000 
#    z -0.001160 0.000000 1.767880 
# 
# From -- ./inp_files/221603.got.cif
#   From: 2010.06.25/outbox.cif.g09.slc.cpg/sg12_111_cif.got.tgz:221603.got - 2010.06.28 00:19:55.
