data_PCOD8088965
_publ_section_title
;
Structure prediction by ZEFSAII (Michael W. Deem and Ramdas Pophale) SiO2 
 PCOD8088965
Probable space group: C 2/M
;
_chemical_formula_sum "Si O2"
_cell_formula_units_Z 64
_cell_length_a 20.495390
_cell_length_b 8.891841
_cell_length_c 21.508709
_cell_angle_alpha 90.000000
_cell_angle_beta 61.468922
_cell_angle_gamma 90.000000
_cell_volume 3443.758901
_symmetry_space_group_name_H-M "C 2/M"
_symmetry_group_IT_number 12
_symmetry_cell_setting 'monoclinic'
loop_
_space_group_symop_operation_xyz
x,y,z
-x,y,-z
-x,-y,-z
x,-y,z
1/2+x,1/2+y,z
1/2-x,1/2+y,-z
1/2-x,1/2-y,-z
1/2+x,1/2-y,z
loop_
_atom_site_type_symbol
_atom_site_label
_atom_site_fract_x
_atom_site_fract_y
_atom_site_fract_z
Si Si1 0.293096 0.173161 0.300898
Si Si2 0.579759 0.823084 0.446301
Si Si3 0.227312 0.678500 0.445782
Si Si4 0.931452 0.672190 0.156307
Si Si5 0.349346 0.822500 0.069351
Si Si6 0.680716 0.677522 0.154488
Si Si7 0.583787 0.676103 0.081654
Si Si8 0.165032 0.677370 0.286793
O O1 0.285851 0.266139 0.367703
O O2 0.377494 0.187580 0.239858
O O3 0.240790 0.239912 0.271139
O O4 0.271217 0.000000 0.322217
O O5 0.500000 0.748705 0.500000
O O6 0.644843 0.765615 0.462989
O O7 0.600546 0.781701 0.365808
O O8 0.573937 0.000000 0.457189
O O9 0.231257 0.500000 0.448625
O O10 0.250000 0.750000 0.500000
O O11 0.957245 0.500000 0.135804
O O12 0.890292 0.729975 0.113150
O O13 0.001335 0.776453 0.138302
O O14 0.264891 0.763951 0.109193
O O15 0.349700 0.000000 0.062487
O O16 0.393182 0.755135 0.991972
O O17 0.676424 0.500000 0.168529
O O18 0.638518 0.726801 0.111612
O O19 0.641280 0.762077 0.230120
O O20 0.587374 0.500000 0.069224
O O21 0.179459 0.500000 0.279166
#
# Coordination Sequence:
#
# PCOD8088965 Si02
#       8
#     8   8   8   8   8   8   8   8
#     4  10  19  36  60  82 109 148 190 229 273 329
#     4   8  16  33  55  80 110 141 178 222 265 317
#     4  10  20  35  57  85 115 147 186 230 276 325
#     4  10  21  38  59  80 106 147 188 224 275 337
#     4  10  20  38  61  79 102 144 191 227 268 337
#     4  10  21  39  57  77 111 149 183 223 278 331
#     4  11  24  37  53  82 116 145 176 232 289 325
#     4  10  19  32  57  87 109 140 186 232 272 321
#
# _framework density 18.584343000000001
#
# number of rings (size 3 to 8) (size 9 to 14) (size 15 to 20)
#    0.000    2.125    1.250    3.000    0.000    4.500 
#    2.250    0.000    0.000   12.750    0.000    0.000 
#    0.000    0.000    0.000    0.000    0.000    0.000 
#
# Total GULP energy -396855.037123 kJ/mol
# GULP energy per Si atom -12401.719910 kJ/mol
# Density = 1.854204 g / cm^3
# Si number density = 18.584343 Si / 1000 Ang^3
#
#
#
# Elastic Constant Matrix: (Units=GPa)
#
#
# Indices 1 2 3 4 5 6 
#
# 1 94.0892 24.9271 44.2166 0.0000 -5.0655 -0.0002
# 2 24.9271 45.0175 26.8703 -0.0001 2.3075 -0.0008
# 3 44.2166 26.8703 106.1385 -0.0001 -1.0641 0.0001
# 4 0.0000 -0.0001 -0.0001 33.5409 0.0002 2.9023
# 5 -5.0655 2.3075 -1.0641 0.0002 31.6092 0.0001
# 6 -0.0002 -0.0008 0.0001 2.9023 0.0001 26.4104
#
#
#
# Elastic Compliance Matrix: (Units=1/GPa)
#
#
# Indices 1 2 3 4 5 6 
#
# 1 0.014336 -0.005323 -0.004599 0.000000 0.002531 0.000000
# 2 -0.005323 0.028289 -0.004975 0.000000 -0.003086 0.000001
# 3 -0.004599 -0.004975 0.012598 0.000000 0.000050 0.000000
# 4 0.000000 0.000000 0.000000 0.030101 0.000000 -0.003308
# 5 0.002531 -0.003086 0.000050 0.000000 0.032269 0.000000
# 6 0.000000 0.000001 0.000000 -0.003308 0.000000 0.038227
#
#
# Mechanical properties :
#
#
# Convention : Reuss Voigt Hill
#
# Bulk Modulus (GPa) = 39.32672 48.58592 43.95632
# Shear Modulus (GPa) = 25.76128 28.26086 27.01107
#
# Velocity S-wave (km/s) = 3.72719 3.90382 3.81653
# Velocity P-wave (km/s) = 6.30315 6.82056 6.56695
#
# Compressibility (1/GPa) = 0.02542801
#
# Stress axis : x y z
#
# Youngs Moduli (GPa) = 69.75412 35.34997 79.37896
#
# Poissons Ratio (x) = 0.18815 0.36510
# Poissons Ratio (y) = 0.37127 0.39493
# Poissons Ratio (z) = 0.32083 0.17587
#
# Static dielectric constant tensor:
#      x y z
#    x 3.494970 0.000000 -0.062770 
#    y 0.000000 3.328810 0.000000 
#    z -0.062770 0.000000 3.550460 
# 
# 
# High freq. dielectric constant tensor:
#      x y z
#    x 1.713750 0.000000 0.000590 
#    y 0.000000 1.713290 0.000000 
#    z 0.000590 0.000000 1.731420 
# 
# From -- ./inp_files/319928.got.cif
#   From: 2010.06.25/outbox.cif.g09.slc.cpg/sg12_160_cif.got.tgz:319928.got - 2010.06.28 00:19:55.
