data_PCOD8088397
_publ_section_title
;
Structure prediction by ZEFSAII (Michael W. Deem and Ramdas Pophale) SiO2 
 PCOD8088397
Probable space group: C 2/M
;
_chemical_formula_sum "Si O2"
_cell_formula_units_Z 48
_cell_length_a 14.826158
_cell_length_b 9.125923
_cell_length_c 19.323949
_cell_angle_alpha 90.000000
_cell_angle_beta 115.892670
_cell_angle_gamma 90.000000
_cell_volume 2352.108463
_symmetry_space_group_name_H-M "C 2/M"
_symmetry_group_IT_number 12
_symmetry_cell_setting 'monoclinic'
loop_
_space_group_symop_operation_xyz
x,y,z
-x,y,-z
-x,-y,-z
x,-y,z
1/2+x,1/2+y,z
1/2-x,1/2+y,-z
1/2-x,1/2-y,-z
1/2+x,1/2-y,z
loop_
_atom_site_type_symbol
_atom_site_label
_atom_site_fract_x
_atom_site_fract_y
_atom_site_fract_z
Si Si1 0.886107 0.664689 0.987666
Si Si2 0.327160 0.664387 0.841687
Si Si3 0.554338 0.337854 0.868115
Si Si4 0.968641 0.825330 0.698786
Si Si5 0.278240 0.828395 0.692060
Si Si6 0.056071 0.829072 0.584799
O O1 0.845050 0.500000 0.976410
O O2 0.815481 0.756844 0.912101
O O3 0.877819 0.731675 0.062190
O O4 0.000000 0.668646 0.000000
O O5 0.282641 0.500000 0.831009
O O6 0.442748 0.657580 0.860333
O O7 0.268215 0.758415 0.764800
O O8 0.601918 0.500000 0.887500
O O9 0.546978 0.281592 0.786224
O O10 0.862432 0.747582 0.674022
O O11 0.013015 0.763988 0.641992
O O12 0.951431 0.000000 0.694837
O O13 0.174128 0.800113 0.617489
O O14 0.301711 0.000000 0.708735
O O15 0.000000 0.756535 0.500000
O O16 0.031948 0.000000 0.578632
#
# Coordination Sequence:
#
# PCOD8088397 Si02
#       6
#     8   8   8   8   8   8
#     4   9  15  22  37  65  99 132 169 214 257 297
#     4   9  16  27  44  67  99 138 175 211 256 309
#     4   8  14  24  40  64  94 131 172 209 250 302
#     4   9  18  34  55  77 105 142 178 212 258 317
#     4  10  19  32  53  80 107 136 175 221 262 305
#     4   9  19  36  57  80 106 138 174 212 262 323
#
# _framework density 20.407222999999998
#
# number of rings (size 3 to 8) (size 9 to 14) (size 15 to 20)
#    0.000    3.000    0.000    2.500    0.000    6.667 
#    0.000    1.667    0.000    4.500    0.000    0.000 
#    0.000    0.000    0.000    0.000    0.000    0.000 
#
# Total GULP energy -297535.468954 kJ/mol
# GULP energy per Si atom -12397.311206 kJ/mol
# Density = 2.036078 g / cm^3
# Si number density = 20.407223 Si / 1000 Ang^3
#
#
#
# Elastic Constant Matrix: (Units=GPa)
#
#
# Indices 1 2 3 4 5 6 
#
# 1 42.4764 14.1886 30.2720 0.0000 -17.6027 0.0000
# 2 14.1886 87.3657 35.2650 0.0000 -10.1398 0.0000
# 3 30.2720 35.2650 135.0361 0.0000 -27.2123 0.0000
# 4 0.0000 0.0000 0.0000 24.8147 0.0000 1.5722
# 5 -17.6027 -10.1398 -27.2123 0.0000 26.8986 0.0000
# 6 0.0000 0.0000 0.0000 1.5722 0.0000 10.0785
#
#
#
# Elastic Compliance Matrix: (Units=1/GPa)
#
#
# Indices 1 2 3 4 5 6 
#
# 1 0.034207 -0.002048 -0.003490 0.000000 0.018083 0.000000
# 2 -0.002048 0.012988 -0.002784 0.000000 0.000740 0.000000
# 3 -0.003490 -0.002784 0.010354 0.000000 0.007142 0.000000
# 4 0.000000 0.000000 0.000000 0.040701 0.000000 -0.006349
# 5 0.018083 0.000740 0.007142 0.000000 0.056514 0.000000
# 6 0.000000 0.000000 0.000000 -0.006349 0.000000 0.100212
#
#
# Mechanical properties :
#
#
# Convention : Reuss Voigt Hill
#
# Bulk Modulus (GPa) = 24.44584 47.14772 35.79678
# Shear Modulus (GPa) = 17.52817 24.70184 21.11500
#
# Velocity S-wave (km/s) = 2.93391 3.48292 3.22014
# Velocity P-wave (km/s) = 4.84584 6.27120 5.60402
#
# Compressibility (1/GPa) = 0.04090675
#
# Stress axis : x y z
#
# Youngs Moduli (GPa) = 29.23339 76.99261 96.58242
#
# Poissons Ratio (x) = 0.15769 0.33703
# Poissons Ratio (y) = 0.05987 0.26886
# Poissons Ratio (z) = 0.10201 0.21433
#
# Static dielectric constant tensor:
#      x y z
#    x 3.284020 0.000000 -0.183080 
#    y 0.000000 3.638350 0.000000 
#    z -0.183080 0.000000 4.030820 
# 
# 
# High freq. dielectric constant tensor:
#      x y z
#    x 1.771670 0.000000 -0.006070 
#    y 0.000000 1.781060 0.000000 
#    z -0.006070 0.000000 1.801850 
# 
# From -- ./inp_files/313367.got.cif
#   From: 2010.06.25/outbox.cif.g09.slc.cpg/sg12_157_cif.got.tgz:313367.got - 2010.06.28 00:19:55.
