data_PCOD8088953
_publ_section_title
;
Structure prediction by ZEFSAII (Michael W. Deem and Ramdas Pophale) SiO2 
 PCOD8088953
Probable space group: C 2/M
;
_chemical_formula_sum "Si O2"
_cell_formula_units_Z 56
_cell_length_a 28.838915
_cell_length_b 11.091811
_cell_length_c 9.932476
_cell_angle_alpha 90.000000
_cell_angle_beta 113.444935
_cell_angle_gamma 90.000000
_cell_volume 2914.861568
_symmetry_space_group_name_H-M "C 2/M"
_symmetry_group_IT_number 12
_symmetry_cell_setting 'monoclinic'
loop_
_space_group_symop_operation_xyz
x,y,z
-x,y,-z
-x,-y,-z
x,-y,z
1/2+x,1/2+y,z
1/2-x,1/2+y,-z
1/2-x,1/2-y,-z
1/2+x,1/2-y,z
loop_
_atom_site_type_symbol
_atom_site_label
_atom_site_fract_x
_atom_site_fract_y
_atom_site_fract_z
Si Si1 0.065510 0.500000 0.952315
Si Si2 0.954700 0.500000 0.757105
Si Si3 0.141819 0.700713 0.081305
Si Si4 0.594375 0.358135 0.825964
Si Si5 0.102717 0.263783 0.331654
Si Si6 0.350347 0.639047 0.371791
Si Si7 0.251961 0.137557 0.899163
Si Si8 0.495095 0.360452 0.846679
O O1 0.015311 0.500000 0.799923
O O2 0.051356 0.500000 0.091294
O O3 0.099661 0.616290 0.962769
O O4 0.927205 0.384554 0.661246
O O5 0.133483 0.721218 0.229571
O O6 0.196904 0.644494 0.127707
O O7 0.135203 0.823495 0.988692
O O8 0.595735 0.500000 0.820980
O O9 0.611769 0.310865 0.700079
O O10 0.538316 0.308041 0.797657
O O11 0.142289 0.224442 0.490732
O O12 0.060558 0.159611 0.274104
O O13 0.361797 0.500000 0.421986
O O14 0.293125 0.654929 0.257912
O O15 0.248483 0.000000 0.959074
O O16 0.250000 0.250000 0.000000
O O17 0.505979 0.500000 0.877203
O O18 0.500000 0.296595 0.000000
#
# Coordination Sequence:
#
# PCOD8088953 Si02
#       8
#     4   4   8   8   8   8   8   8
#     4   9  18  34  57  93 115 159 199 249 294 365
#     4   9  20  34  57  83 129 159 198 237 305 365
#     4  11  20  35  64  89 117 154 206 256 304 366
#     4  10  20  35  58  89 122 158 198 249 303 368
#     4  11  22  37  58  89 124 162 199 252 307 371
#     4  10  23  41  59  84 125 162 204 258 320 370
#     4  11  23  43  68  95 121 164 212 264 319 380
#     4  10  19  32  56  90 121 156 204 249 293 361
#
# _framework density 19.211891999999999
#
# number of rings (size 3 to 8) (size 9 to 14) (size 15 to 20)
#    0.000    1.714    3.571    1.286    2.000    1.714 
#    1.286    2.857    0.000    1.714    0.000    0.000 
#    0.000    0.000    0.000    0.000    0.000    0.000 
#
# Total GULP energy -347056.043023 kJ/mol
# GULP energy per Si atom -12394.858679 kJ/mol
# Density = 1.916816 g / cm^3
# Si number density = 19.211892 Si / 1000 Ang^3
#
#
#
# Elastic Constant Matrix: (Units=GPa)
#
#
# Indices 1 2 3 4 5 6 
#
# 1 116.6464 46.3870 46.1808 0.0000 5.5801 0.0000
# 2 46.3870 66.4093 56.2292 0.0000 -0.1985 0.0000
# 3 46.1808 56.2292 107.7677 0.0000 4.2942 0.0000
# 4 0.0000 0.0000 0.0000 30.3687 0.0000 5.4056
# 5 5.5801 -0.1985 4.2942 0.0000 28.1543 0.0000
# 6 0.0000 0.0000 0.0000 5.4056 0.0000 19.3178
#
#
#
# Elastic Compliance Matrix: (Units=1/GPa)
#
#
# Indices 1 2 3 4 5 6 
#
# 1 0.012124 -0.007440 -0.001223 0.000000 -0.002269 0.000000
# 2 -0.007440 0.031696 -0.013499 0.000000 0.003757 0.000000
# 3 -0.001223 -0.013499 0.016944 0.000000 -0.002437 0.000000
# 4 0.000000 0.000000 0.000000 0.034655 0.000000 -0.009697
# 5 -0.002269 0.003757 -0.002437 0.000000 0.036366 0.000000
# 6 0.000000 0.000000 0.000000 -0.009697 0.000000 0.054479
#
#
# Mechanical properties :
#
#
# Convention : Reuss Voigt Hill
#
# Bulk Modulus (GPa) = 60.82965 65.37971 63.10468
# Shear Modulus (GPa) = 21.18013 25.03660 23.10836
#
# Velocity S-wave (km/s) = 3.32392 3.61388 3.47193
# Velocity P-wave (km/s) = 6.81634 7.17762 6.99931
#
# Compressibility (1/GPa) = 0.01643935
#
# Stress axis : x y z
#
# Youngs Moduli (GPa) = 82.47822 31.54948 59.01779
#
# Poissons Ratio (x) = 0.23473 0.07220
# Poissons Ratio (y) = 0.61363 0.79671
# Poissons Ratio (z) = 0.10089 0.42590
#
# Static dielectric constant tensor:
#      x y z
#    x 3.836110 0.000000 -0.011960 
#    y 0.000000 3.640460 0.000000 
#    z -0.011960 0.000000 3.187110 
# 
# 
# High freq. dielectric constant tensor:
#      x y z
#    x 1.758500 0.000000 0.007550 
#    y 0.000000 1.752450 0.000000 
#    z 0.007550 0.000000 1.714570 
# 
# From -- ./inp_files/110576.got.cif
#   From: 2010.06.25/outbox.cif.g09.slc.cpg/sg12_56_cif.got.tgz:110576.got - 2010.06.28 00:19:55.
