data_PCOD8088778
_publ_section_title
;
Structure prediction by ZEFSAII (Michael W. Deem and Ramdas Pophale) SiO2 
 PCOD8088778
Probable space group: C 2/M
;
_chemical_formula_sum "Si O2"
_cell_formula_units_Z 48
_cell_length_a 20.577836
_cell_length_b 9.067169
_cell_length_c 26.625563
_cell_angle_alpha 90.000000
_cell_angle_beta 29.890749
_cell_angle_gamma 90.000000
_cell_volume 2475.726844
_symmetry_space_group_name_H-M "C 2/M"
_symmetry_group_IT_number 12
_symmetry_cell_setting 'monoclinic'
loop_
_space_group_symop_operation_xyz
x,y,z
-x,y,-z
-x,-y,-z
x,-y,z
1/2+x,1/2+y,z
1/2-x,1/2+y,-z
1/2-x,1/2-y,-z
1/2+x,1/2-y,z
loop_
_atom_site_type_symbol
_atom_site_label
_atom_site_fract_x
_atom_site_fract_y
_atom_site_fract_z
Si Si1 0.977202 0.824773 0.126998
Si Si2 0.754988 0.824511 0.100285
Si Si3 0.767547 0.324550 0.772119
Si Si4 0.500686 0.168878 0.214035
Si Si5 0.977414 0.673192 0.457208
Si Si6 0.749761 0.669461 0.447391
O O1 0.958975 0.766437 0.195113
O O2 0.857572 0.764153 0.174083
O O3 0.977181 0.000000 0.128907
O O4 0.110881 0.764410 0.013165
O O5 0.737994 0.760458 0.167799
O O6 0.636398 0.769035 0.145201
O O7 0.755308 0.000000 0.102910
O O8 0.764319 0.500000 0.774584
O O9 0.898883 0.269034 0.657293
O O10 0.394202 0.184118 0.328734
O O11 0.515525 0.000000 0.186572
O O12 0.954590 0.500000 0.464416
O O13 0.850111 0.757707 0.524326
O O14 0.000000 0.711655 0.500000
O O15 0.710694 0.500000 0.481670
O O16 0.750000 0.750000 0.500000
#
# Coordination Sequence:
#
# PCOD8088778 Si02
#       6
#     8   8   8   8   8   8
#     4  10  19  32  55  82 103 131 175 220 256 304
#     4   9  17  31  52  77 104 136 175 214 256 309
#     4   9  17  31  52  78 107 137 172 217 264 306
#     4  10  21  36  53  75 107 142 169 207 267 321
#     4  10  20  35  56  81 111 146 182 222 268 318
#     4  11  23  38  57  80 108 143 182 224 270 321
#
# _framework density 19.388245999999999
#
# number of rings (size 3 to 8) (size 9 to 14) (size 15 to 20)
#    0.000    2.167    0.000    3.500    0.000    7.667 
#    0.000    0.833    0.000    4.000    0.000    0.000 
#    0.000    0.000    0.000    0.000    0.000    0.000 
#
# Total GULP energy -297677.154294 kJ/mol
# GULP energy per Si atom -12403.214762 kJ/mol
# Density = 1.934412 g / cm^3
# Si number density = 19.388246 Si / 1000 Ang^3
#
#
#
# Elastic Constant Matrix: (Units=GPa)
#
#
# Indices 1 2 3 4 5 6 
#
# 1 113.8625 29.9560 18.6475 -0.0046 -1.5644 0.0092
# 2 29.9560 39.5524 19.5682 -0.0046 0.5791 0.0070
# 3 18.6475 19.5682 80.3226 -0.0004 -1.6248 0.0051
# 4 -0.0046 -0.0046 -0.0004 21.7005 0.0008 -1.0918
# 5 -1.5644 0.5791 -1.6248 0.0008 45.1633 -0.0031
# 6 0.0092 0.0070 0.0051 -1.0918 -0.0031 25.6028
#
#
#
# Elastic Compliance Matrix: (Units=1/GPa)
#
#
# Indices 1 2 3 4 5 6 
#
# 1 0.011003 -0.008051 -0.000584 0.000001 0.000463 -0.000002
# 2 -0.008051 0.034657 -0.006593 0.000005 -0.000960 -0.000005
# 3 -0.000584 -0.006593 0.014203 -0.000001 0.000575 -0.000001
# 4 0.000001 0.000005 -0.000001 0.046181 -0.000001 0.001969
# 5 0.000463 -0.000960 0.000575 -0.000001 0.022191 0.000003
# 6 -0.000002 -0.000005 -0.000001 0.001969 0.000003 0.039142
#
#
# Mechanical properties :
#
#
# Convention : Reuss Voigt Hill
#
# Bulk Modulus (GPa) = 34.00624 41.12010 37.56317
# Shear Modulus (GPa) = 24.08071 29.53104 26.80588
#
# Velocity S-wave (km/s) = 3.52806 3.90698 3.72235
# Velocity P-wave (km/s) = 5.84585 6.45038 6.15554
#
# Compressibility (1/GPa) = 0.02940637
#
# Stress axis : x y z
#
# Youngs Moduli (GPa) = 90.88730 28.85439 70.40678
#
# Poissons Ratio (x) = 0.23231 0.04108
# Poissons Ratio (y) = 0.73175 0.46422
# Poissons Ratio (z) = 0.05304 0.19025
#
# Static dielectric constant tensor:
#      x y z
#    x 3.775720 0.000010 -0.131890 
#    y 0.000010 3.148630 0.000000 
#    z -0.131890 0.000000 3.785790 
# 
# 
# High freq. dielectric constant tensor:
#      x y z
#    x 1.772380 0.000000 -0.001880 
#    y 0.000000 1.709950 0.000000 
#    z -0.001880 0.000000 1.772840 
# 
# From -- ./inp_files/221685.got.cif
#   From: 2010.06.25/outbox.cif.g09.slc.cpg/sg12_111_cif.got.tgz:221685.got - 2010.06.28 00:19:55.
