data_PCOD8088233
_publ_section_title
;
Structure prediction by ZEFSAII (Michael W. Deem and Ramdas Pophale) SiO2 
 PCOD8088233
Probable space group: C 2/M
;
_chemical_formula_sum "Si O2"
_cell_formula_units_Z 64
_cell_length_a 29.954308
_cell_length_b 16.866773
_cell_length_c 11.821074
_cell_angle_alpha 90.000000
_cell_angle_beta 36.163646
_cell_angle_gamma 90.000000
_cell_volume 3524.269274
_symmetry_space_group_name_H-M "C 2/M"
_symmetry_group_IT_number 12
_symmetry_cell_setting 'monoclinic'
loop_
_space_group_symop_operation_xyz
x,y,z
-x,y,-z
-x,-y,-z
x,-y,z
1/2+x,1/2+y,z
1/2-x,1/2+y,-z
1/2-x,1/2-y,-z
1/2+x,1/2-y,z
loop_
_atom_site_type_symbol
_atom_site_label
_atom_site_fract_x
_atom_site_fract_y
_atom_site_fract_z
Si Si1 0.928190 0.093416 0.020912
Si Si2 0.722926 0.663136 0.690133
Si Si3 0.571875 0.671268 0.734738
Si Si4 0.124929 0.590688 0.001239
Si Si5 0.584367 0.093392 0.330917
Si Si6 0.512981 0.849258 0.846423
Si Si7 0.146569 0.590092 0.436513
Si Si8 0.758557 0.158325 0.603887
O O1 0.854705 0.123660 0.102433
O O2 0.925891 0.143946 0.140313
O O3 0.924751 0.000000 0.050091
O O4 0.008821 0.117345 0.797373
O O5 0.788575 0.642818 0.642169
O O6 0.716054 0.757510 0.697178
O O7 0.740116 0.628986 0.529241
O O8 0.548302 0.762076 0.773554
O O9 0.657155 0.660523 0.513429
O O10 0.097116 0.500000 0.046878
O O11 0.128249 0.615702 0.126282
O O12 0.066951 0.648058 0.054720
O O13 0.208885 0.597559 0.778218
O O14 0.500000 0.130390 0.500000
O O15 0.629460 0.127041 0.347279
O O16 0.577548 0.000000 0.363553
O O17 0.571014 0.907998 0.666486
O O18 0.500000 0.879603 0.000000
O O19 0.175249 0.500000 0.370723
#
# Coordination Sequence:
#
# PCOD8088233 Si02
#       8
#     8   8   8   8   8   8   8   8
#     4  10  19  32  53  75 102 144 190 219 247 307
#     4  10  20  35  52  80 113 144 175 220 276 323
#     4  10  19  34  51  73 107 148 178 211 261 323
#     4  11  23  36  55  81 110 143 182 226 272 323
#     4   9  18  37  55  74 104 144 186 227 270 313
#     4  12  21  32  52  81 114 145 173 209 273 335
#     4  11  21  34  56  79 107 143 185 228 268 323
#     4  10  21  34  53  77 114 150 171 212 280 334
#
# _framework density 18.159793000000001
#
# number of rings (size 3 to 8) (size 9 to 14) (size 15 to 20)
#    0.000    1.625    3.750    3.000    1.750    5.000 
#    0.000    0.625    0.000    0.000    0.000    0.000 
#    0.000    4.000    0.000    0.250    0.000    0.000 
#
# Total GULP energy -396689.227749 kJ/mol
# GULP energy per Si atom -12396.538367 kJ/mol
# Density = 1.811846 g / cm^3
# Si number density = 18.159793 Si / 1000 Ang^3
#
#
#
# Elastic Constant Matrix: (Units=GPa)
#
#
# Indices 1 2 3 4 5 6 
#
# 1 124.9318 26.8175 62.6150 0.0000 -6.4110 0.0000
# 2 26.8175 57.3540 14.6841 0.0000 -4.9503 0.0000
# 3 62.6150 14.6841 87.0112 0.0000 -15.3670 0.0000
# 4 0.0000 0.0000 0.0000 17.7039 0.0000 -11.7117
# 5 -6.4110 -4.9503 -15.3670 0.0000 35.0423 0.0000
# 6 0.0000 0.0000 0.0000 -11.7117 0.0000 20.1202
#
#
#
# Elastic Compliance Matrix: (Units=1/GPa)
#
#
# Indices 1 2 3 4 5 6 
#
# 1 0.013482 -0.004088 -0.009407 0.000000 -0.002236 0.000000
# 2 -0.004088 0.019520 0.000003 0.000000 0.002011 0.000000
# 3 -0.009407 0.000003 0.019465 0.000000 0.006816 0.000000
# 4 0.000000 0.000000 0.000000 0.091855 0.000000 0.053467
# 5 -0.002236 0.002011 0.006816 0.000000 0.031401 0.000000
# 6 0.000000 0.000000 0.000000 0.053467 0.000000 0.080824
#
#
# Mechanical properties :
#
#
# Convention : Reuss Voigt Hill
#
# Bulk Modulus (GPa) = 39.24218 53.05891 46.15055
# Shear Modulus (GPa) = 17.12180 25.58530 21.35355
#
# Velocity S-wave (km/s) = 3.07390 3.75760 3.43282
# Velocity P-wave (km/s) = 5.85276 6.93594 6.41725
#
# Compressibility (1/GPa) = 0.02548278
#
# Stress axis : x y z
#
# Youngs Moduli (GPa) = 74.17385 51.22942 51.37359
#
# Poissons Ratio (x) = 0.20945 0.48326
# Poissons Ratio (y) = 0.30326 -0.00016
# Poissons Ratio (z) = 0.69774 -0.00016
#
# Static dielectric constant tensor:
#      x y z
#    x 3.541700 0.000000 -0.405800 
#    y 0.000000 3.131190 0.000000 
#    z -0.405800 0.000000 3.625010 
# 
# 
# High freq. dielectric constant tensor:
#      x y z
#    x 1.692290 0.000000 -0.031850 
#    y 0.000000 1.689870 0.000000 
#    z -0.031850 0.000000 1.690170 
# 
# From -- ./inp_files/189444.got.cif
#   From: 2010.06.25/outbox.cif.g09.slc.cpg/sg12_95_cif.got.tgz:189444.got - 2010.06.28 00:19:55.
