data_PCOD8088192
_publ_section_title
;
Structure prediction by ZEFSAII (Michael W. Deem and Ramdas Pophale) SiO2 
 PCOD8088192
Probable space group: C 2/M
;
_chemical_formula_sum "Si O2"
_cell_formula_units_Z 40
_cell_length_a 20.282439
_cell_length_b 8.827364
_cell_length_c 12.616786
_cell_angle_alpha 90.000000
_cell_angle_beta 104.691137
_cell_angle_gamma 90.000000
_cell_volume 2185.064588
_symmetry_space_group_name_H-M "C 2/M"
_symmetry_group_IT_number 12
_symmetry_cell_setting 'monoclinic'
loop_
_space_group_symop_operation_xyz
x,y,z
-x,y,-z
-x,-y,-z
x,-y,z
1/2+x,1/2+y,z
1/2-x,1/2+y,-z
1/2-x,1/2-y,-z
1/2+x,1/2-y,z
loop_
_atom_site_type_symbol
_atom_site_label
_atom_site_fract_x
_atom_site_fract_y
_atom_site_fract_z
Si Si1 0.818825 0.321461 0.571739
Si Si2 0.820680 0.675845 0.999810
Si Si3 0.851361 0.327261 0.241112
Si Si4 0.079040 0.174901 0.544549
Si Si5 0.307618 0.323744 0.786590
O O1 0.809306 0.500000 0.570743
O O2 0.750000 0.250000 0.500000
O O3 0.880995 0.279568 0.521203
O O4 0.836006 0.260490 0.695239
O O5 0.809404 0.500000 0.970316
O O6 0.848734 0.758174 0.905557
O O7 0.750000 0.750000 0.000000
O O8 0.868538 0.697421 0.123051
O O9 0.866959 0.500000 0.280331
O O10 0.898902 0.215148 0.326815
O O11 0.772577 0.290597 0.233951
O O12 0.000000 0.210740 0.500000
O O13 0.095803 0.000000 0.528591
O O14 0.323665 0.500000 0.782983
#
# Coordination Sequence:
#
# PCOD8088192 Si02
#       5
#     8   8   8   8   8
#     4  12  23  36  57  82 111 146 183 228 279 327
#     4   9  17  29  47  75 109 142 179 222 272 325
#     4   9  18  32  52  77 108 145 183 223 269 325
#     4  11  24  39  56  80 111 148 188 228 274 329
#     4  10  19  32  52  81 112 141 179 224 274 328
#
# _framework density 18.306094999999999
#
# number of rings (size 3 to 8) (size 9 to 14) (size 15 to 20)
#    0.000    1.800    2.000    4.800    0.000    5.600 
#    0.000    0.000    0.000    1.200    0.000    8.400 
#    0.000    0.000    0.000    0.000    0.000    0.000 
#
# Total GULP energy -247984.237129 kJ/mol
# GULP energy per Si atom -12399.211856 kJ/mol
# Density = 1.826443 g / cm^3
# Si number density = 18.306095 Si / 1000 Ang^3
#
#
#
# Elastic Constant Matrix: (Units=GPa)
#
#
# Indices 1 2 3 4 5 6 
#
# 1 54.3102 41.4238 41.4057 0.0000 -2.5379 0.0000
# 2 41.4238 134.8483 67.2212 0.0000 -6.5673 0.0000
# 3 41.4057 67.2212 148.7732 0.0000 -19.7540 0.0000
# 4 0.0000 0.0000 0.0000 39.2660 0.0000 -4.2120
# 5 -2.5379 -6.5673 -19.7540 0.0000 20.2893 0.0000
# 6 0.0000 0.0000 0.0000 -4.2120 0.0000 22.5355
#
#
#
# Elastic Compliance Matrix: (Units=1/GPa)
#
#
# Indices 1 2 3 4 5 6 
#
# 1 0.026661 -0.005713 -0.005331 0.000000 -0.003704 0.000000
# 2 -0.005713 0.010825 -0.003366 0.000000 -0.000488 0.000000
# 3 -0.005331 -0.003366 0.010902 0.000000 0.008858 0.000000
# 4 0.000000 0.000000 0.000000 0.025988 0.000000 0.004857
# 5 -0.003704 -0.000488 0.008858 0.000000 0.057290 0.000000
# 6 0.000000 0.000000 0.000000 0.004857 0.000000 0.045282
#
#
# Mechanical properties :
#
#
# Convention : Reuss Voigt Hill
#
# Bulk Modulus (GPa) = 51.10080 70.89257 60.99669
# Shear Modulus (GPa) = 23.55252 28.94356 26.24804
#
# Velocity S-wave (km/s) = 3.59080 3.98060 3.79072
# Velocity P-wave (km/s) = 6.72065 7.74191 7.24929
#
# Compressibility (1/GPa) = 0.01956916
#
# Stress axis : x y z
#
# Youngs Moduli (GPa) = 37.50767 92.38041 91.72451
#
# Poissons Ratio (x) = 0.52778 0.48895
# Poissons Ratio (y) = 0.21429 0.30872
# Poissons Ratio (z) = 0.19994 0.31093
#
# Static dielectric constant tensor:
#      x y z
#    x 3.706580 0.000000 -0.472790 
#    y 0.000000 3.522230 0.000000 
#    z -0.472790 0.000000 4.122130 
# 
# 
# High freq. dielectric constant tensor:
#      x y z
#    x 1.650660 0.000000 -0.016830 
#    y 0.000000 1.726140 0.000000 
#    z -0.016830 0.000000 1.731910 
# 
# From -- ./inp_files/162375.got.cif
#   From: 2010.06.25/outbox.cif.g09.slc.cpg/sg12_82_cif.got.tgz:162375.got - 2010.06.28 00:19:55.
