data_PCOD8088541
_publ_section_title
;
Structure prediction by ZEFSAII (Michael W. Deem and Ramdas Pophale) SiO2 
 PCOD8088541
Probable space group: C 2/M
;
_chemical_formula_sum "Si O2"
_cell_formula_units_Z 64
_cell_length_a 9.465503
_cell_length_b 24.516374
_cell_length_c 14.981478
_cell_angle_alpha 90.000000
_cell_angle_beta 113.871621
_cell_angle_gamma 90.000000
_cell_volume 3179.191610
_symmetry_space_group_name_H-M "C 2/M"
_symmetry_group_IT_number 12
_symmetry_cell_setting 'monoclinic'
loop_
_space_group_symop_operation_xyz
x,y,z
-x,y,-z
-x,-y,-z
x,-y,z
1/2+x,1/2+y,z
1/2-x,1/2+y,-z
1/2-x,1/2-y,-z
1/2+x,1/2-y,z
loop_
_atom_site_type_symbol
_atom_site_label
_atom_site_fract_x
_atom_site_fract_y
_atom_site_fract_z
Si Si1 0.771741 0.333836 0.894096
Si Si2 0.169729 0.564073 0.768187
Si Si3 0.708912 0.773475 0.782339
Si Si4 0.618776 0.355867 0.450587
Si Si5 0.922941 0.641724 0.117360
Si Si6 0.929929 0.379399 0.579252
Si Si7 0.047206 0.259681 0.412983
Si Si8 0.930679 0.138212 0.761676
O O1 0.778179 0.270140 0.869054
O O2 0.603969 0.361091 0.843259
O O3 0.897280 0.363678 0.863379
O O4 0.818389 0.339209 0.008632
O O5 0.187283 0.500000 0.769162
O O6 0.129847 0.582624 0.858980
O O7 0.332886 0.589741 0.780952
O O8 0.027748 0.581868 0.667851
O O9 0.603940 0.816422 0.808692
O O10 0.601731 0.740566 0.684357
O O11 0.846078 0.804222 0.763132
O O12 0.500000 0.355598 0.500000
O O13 0.752850 0.397095 0.517457
O O14 0.669286 0.291369 0.445078
O O15 0.555691 0.375915 0.339663
O O16 0.000000 0.378823 0.500000
O O17 0.907388 0.318610 0.616298
O O18 0.000000 0.273173 0.500000
#
# Coordination Sequence:
#
# PCOD8088541 Si02
#       8
#     8   8   8   8   8   8   8   8
#     4  11  23  39  65  93 132 167 204 262 331 387
#     4  11  25  46  71  91 118 165 223 278 329 377
#     4  11  20  36  62  91 137 177 213 245 305 389
#     4  11  23  35  58  95 136 174 205 247 310 378
#     4  10  24  43  61  96 127 167 216 265 322 392
#     4  11  20  39  61  89 128 166 214 257 305 376
#     4  10  19  32  53  90 130 170 203 237 296 373
#     4  11  22  41  62  95 130 167 220 271 305 379
#
# _framework density 20.130904999999998
#
# number of rings (size 3 to 8) (size 9 to 14) (size 15 to 20)
#    0.000    1.250    5.000    2.250    1.750    4.250 
#    0.000    3.125    0.000    0.750    0.000    0.000 
#    0.000    0.000    0.000    0.000    0.000    0.000 
#
# Total GULP energy -396495.950604 kJ/mol
# GULP energy per Si atom -12390.498456 kJ/mol
# Density = 2.008509 g / cm^3
# Si number density = 20.130905 Si / 1000 Ang^3
#
#
#
# Elastic Constant Matrix: (Units=GPa)
#
#
# Indices 1 2 3 4 5 6 
#
# 1 118.6950 38.4749 54.3313 0.0000 3.3234 0.0000
# 2 38.4749 101.9832 31.9921 0.0000 4.3497 0.0000
# 3 54.3313 31.9921 121.6021 0.0000 2.1438 0.0000
# 4 0.0000 0.0000 0.0000 19.3933 0.0000 0.0848
# 5 3.3234 4.3497 2.1438 0.0000 33.5518 0.0000
# 6 0.0000 0.0000 0.0000 0.0848 0.0000 13.6515
#
#
#
# Elastic Compliance Matrix: (Units=1/GPa)
#
#
# Indices 1 2 3 4 5 6 
#
# 1 0.011349 -0.002914 -0.004296 0.000000 -0.000472 0.000000
# 2 -0.002914 0.011485 -0.001700 0.000000 -0.001092 0.000000
# 3 -0.004296 -0.001700 0.010591 0.000000 -0.000031 0.000000
# 4 0.000000 0.000000 0.000000 0.051566 0.000000 -0.000320
# 5 -0.000472 -0.001092 -0.000031 0.000000 0.029995 0.000000
# 6 0.000000 0.000000 0.000000 -0.000320 0.000000 0.073254
#
#
# Mechanical properties :
#
#
# Convention : Reuss Voigt Hill
#
# Bulk Modulus (GPa) = 64.08385 65.76410 64.92397
# Shear Modulus (GPa) = 23.66744 27.81812 25.74278
#
# Velocity S-wave (km/s) = 3.43253 3.72137 3.57987
# Velocity P-wave (km/s) = 6.90017 7.15569 7.02910
#
# Compressibility (1/GPa) = 0.01560456
#
# Stress axis : x y z
#
# Youngs Moduli (GPa) = 88.11305 87.07141 94.42186
#
# Poissons Ratio (x) = 0.25372 0.40562
# Poissons Ratio (y) = 0.25675 0.16055
# Poissons Ratio (z) = 0.37851 0.14805
#
# Static dielectric constant tensor:
#      x y z
#    x 3.661970 0.000000 -0.039380 
#    y 0.000000 3.325300 0.000000 
#    z -0.039380 0.000000 3.862970 
# 
# 
# High freq. dielectric constant tensor:
#      x y z
#    x 1.792090 0.000000 -0.000410 
#    y 0.000000 1.733120 0.000000 
#    z -0.000410 0.000000 1.804240 
# 
# From -- ./inp_files/199882.got.cif
#   From: 2010.06.25/outbox.cif.g09.slc.cpg/sg12_100_cif.got.tgz:199882.got - 2010.06.28 00:19:55.
