data_PCOD8088906
_publ_section_title
;
Structure prediction by ZEFSAII (Michael W. Deem and Ramdas Pophale) SiO2 
 PCOD8088906
Probable space group: C 2/M
;
_chemical_formula_sum "Si O2"
_cell_formula_units_Z 56
_cell_length_a 14.766221
_cell_length_b 9.349267
_cell_length_c 22.715448
_cell_angle_alpha 90.000000
_cell_angle_beta 111.108299
_cell_angle_gamma 90.000000
_cell_volume 2925.526049
_symmetry_space_group_name_H-M "C 2/M"
_symmetry_group_IT_number 12
_symmetry_cell_setting 'monoclinic'
loop_
_space_group_symop_operation_xyz
x,y,z
-x,y,-z
-x,-y,-z
x,-y,z
1/2+x,1/2+y,z
1/2-x,1/2+y,-z
1/2-x,1/2-y,-z
1/2+x,1/2-y,z
loop_
_atom_site_type_symbol
_atom_site_label
_atom_site_fract_x
_atom_site_fract_y
_atom_site_fract_z
Si Si1 0.880961 0.164253 0.077836
Si Si2 0.017466 0.667783 0.193563
Si Si3 0.446159 0.331956 0.403099
Si Si4 0.396555 0.163579 0.276541
Si Si5 0.319162 0.339904 0.809998
Si Si6 0.346518 0.668565 0.500524
Si Si7 0.304647 0.660944 0.937862
O O1 0.777266 0.219803 0.075306
O O2 0.964912 0.255447 0.127132
O O3 0.892815 0.000000 0.100088
O O4 0.885523 0.180852 0.007785
O O5 0.012130 0.500000 0.181688
O O6 0.127503 0.724864 0.218775
O O7 0.975637 0.710798 0.247118
O O8 0.441450 0.500000 0.393179
O O9 0.404821 0.258051 0.335998
O O10 0.558816 0.287135 0.439040
O O11 0.375173 0.288662 0.440430
O O12 0.294684 0.189329 0.220896
O O13 0.411157 0.000000 0.299057
O O14 0.344196 0.500000 0.793863
O O15 0.353902 0.320620 0.885714
O O16 0.325866 0.500000 0.500824
O O17 0.250000 0.750000 0.500000
O O18 0.259049 0.500000 0.931811
#
# Coordination Sequence:
#
# PCOD8088906 Si02
#       7
#     8   8   8   8   8   8   8
#     4  10  19  32  56  83 105 140 186 230 286 348
#     4  11  23  39  56  79 112 147 186 236 287 336
#     4   9  20  38  59  84 117 152 187 225 271 323
#     4  10  22  40  59  79 113 153 188 230 279 328
#     4  10  21  39  58  78 108 147 188 231 283 341
#     4   9  19  37  60  88 120 152 183 225 272 319
#     4   9  18  35  56  78 109 143 179 232 291 341
#
# _framework density 19.141855
#
# number of rings (size 3 to 8) (size 9 to 14) (size 15 to 20)
#    0.000    2.286    1.429    1.714    0.000    5.714 
#    0.000   10.000    0.000    0.000    0.000    0.000 
#    0.000    0.000    0.000    0.000    0.000    0.000 
#
# Total GULP energy -347135.034405 kJ/mol
# GULP energy per Si atom -12397.679800 kJ/mol
# Density = 1.909829 g / cm^3
# Si number density = 19.141855 Si / 1000 Ang^3
#
#
#
# Elastic Constant Matrix: (Units=GPa)
#
#
# Indices 1 2 3 4 5 6 
#
# 1 109.7474 50.1544 33.2484 0.0000 -16.7892 0.0000
# 2 50.1544 79.2186 44.4015 0.0000 -12.1653 0.0000
# 3 33.2484 44.4015 96.7000 0.0000 -20.8106 0.0000
# 4 0.0000 0.0000 0.0000 34.7252 0.0000 2.0314
# 5 -16.7892 -12.1653 -20.8106 0.0000 16.7935 0.0000
# 6 0.0000 0.0000 0.0000 2.0314 0.0000 37.5357
#
#
#
# Elastic Compliance Matrix: (Units=1/GPa)
#
#
# Indices 1 2 3 4 5 6 
#
# 1 0.013838 -0.007799 0.000797 0.000000 0.009172 0.000000
# 2 -0.007799 0.021555 -0.007546 0.000000 -0.001533 0.000000
# 3 0.000797 -0.007546 0.017083 0.000000 0.016500 0.000000
# 4 0.000000 0.000000 0.000000 0.028889 0.000000 -0.001563
# 5 0.009172 -0.001533 0.016500 0.000000 0.088053 0.000000
# 6 0.000000 0.000000 0.000000 -0.001563 0.000000 0.026726
#
#
# Mechanical properties :
#
#
# Convention : Reuss Voigt Hill
#
# Bulk Modulus (GPa) = 42.77113 60.14163 51.45638
# Shear Modulus (GPa) = 21.45627 28.33499 24.89563
#
# Velocity S-wave (km/s) = 3.35163 3.85159 3.61028
# Velocity P-wave (km/s) = 6.11316 7.16009 6.65723
#
# Compressibility (1/GPa) = 0.02338025
#
# Stress axis : x y z
#
# Youngs Moduli (GPa) = 72.26640 46.39320 58.53837
#
# Poissons Ratio (x) = 0.36183 -0.04667
# Poissons Ratio (y) = 0.56361 0.44171
# Poissons Ratio (z) = -0.05762 0.35007
#
# Static dielectric constant tensor:
#      x y z
#    x 3.449840 0.000000 -0.019410 
#    y 0.000000 3.525460 0.000000 
#    z -0.019410 0.000000 3.524900 
# 
# 
# High freq. dielectric constant tensor:
#      x y z
#    x 1.740430 0.000000 -0.002930 
#    y 0.000000 1.743680 0.000000 
#    z -0.002930 0.000000 1.741710 
# 
# From -- ./inp_files/337915.got.cif
#   From: 2010.06.25/outbox.cif.g09.slc.cpg/sg12_169_cif.got.tgz:337915.got - 2010.06.28 00:19:55.
