data_PCOD8088533
_publ_section_title
;
Structure prediction by ZEFSAII (Michael W. Deem and Ramdas Pophale) SiO2 
 PCOD8088533
Probable space group: C 2/M
;
_chemical_formula_sum "Si O2"
_cell_formula_units_Z 56
_cell_length_a 24.048219
_cell_length_b 12.586779
_cell_length_c 10.277372
_cell_angle_alpha 90.000000
_cell_angle_beta 112.898013
_cell_angle_gamma 90.000000
_cell_volume 2865.715101
_symmetry_space_group_name_H-M "C 2/M"
_symmetry_group_IT_number 12
_symmetry_cell_setting 'monoclinic'
loop_
_space_group_symop_operation_xyz
x,y,z
-x,y,-z
-x,-y,-z
x,-y,z
1/2+x,1/2+y,z
1/2-x,1/2+y,-z
1/2-x,1/2-y,-z
1/2+x,1/2-y,z
loop_
_atom_site_type_symbol
_atom_site_label
_atom_site_fract_x
_atom_site_fract_y
_atom_site_fract_z
Si Si1 0.681822 0.281376 0.462216
Si Si2 0.583262 0.874722 0.474134
Si Si3 0.164313 0.769387 0.165991
Si Si4 0.062400 0.618241 0.012280
Si Si5 0.222077 0.119578 0.745067
Si Si6 0.048146 0.687789 0.721791
Si Si7 0.376249 0.379648 0.127625
O O1 0.750000 0.250000 0.500000
O O2 0.642349 0.178220 0.465823
O O3 0.660672 0.328653 0.303116
O O4 0.680630 0.367211 0.577379
O O5 0.523836 0.818027 0.361793
O O6 0.583620 0.857465 0.629764
O O7 0.582597 0.000000 0.441870
O O8 0.116128 0.676377 0.131951
O O9 0.228134 0.711482 0.200079
O O10 0.147510 0.851380 0.037955
O O11 0.063881 0.500000 0.069544
O O12 0.069052 0.616895 0.862385
O O13 0.000000 0.674062 0.000000
O O14 0.180392 0.136399 0.831077
O O15 0.249593 0.000000 0.769900
O O16 0.067676 0.808737 0.772194
O O17 0.399912 0.500000 0.149025
#
# Coordination Sequence:
#
# PCOD8088533 Si02
#       7
#     8   8   8   8   8   8   8
#     4  10  22  38  57  86 123 159 197 247 297 353
#     4  11  21  37  62  91 122 158 198 248 304 354
#     4  10  21  35  58  83 115 149 199 244 296 347
#     4  10  19  32  53  85 121 154 190 238 302 362
#     4  10  20  38  59  80 112 154 199 243 293 353
#     4  10  20  36  59  89 123 154 198 249 300 358
#     4  10  21  39  61  83 117 157 194 243 300 354
#
# _framework density 19.541370000000001
#
# number of rings (size 3 to 8) (size 9 to 14) (size 15 to 20)
#    0.000    1.857    1.429    3.429    0.000    4.571 
#    0.000    4.286    0.000   14.571    0.000    0.000 
#    0.000    0.000    0.000    0.000    0.000    0.000 
#
# Total GULP energy -347075.765325 kJ/mol
# GULP energy per Si atom -12395.563047 kJ/mol
# Density = 1.949689 g / cm^3
# Si number density = 19.541370 Si / 1000 Ang^3
#
#
#
# Elastic Constant Matrix: (Units=GPa)
#
#
# Indices 1 2 3 4 5 6 
#
# 1 102.9814 43.5977 31.4486 0.0000 0.2300 0.0000
# 2 43.5977 96.7085 19.1323 0.0000 5.5614 0.0000
# 3 31.4486 19.1323 102.4769 0.0000 -1.0217 0.0000
# 4 0.0000 0.0000 0.0000 14.2562 0.0000 4.0320
# 5 0.2300 5.5614 -1.0217 0.0000 26.3318 0.0000
# 6 0.0000 0.0000 0.0000 4.0320 0.0000 21.3719
#
#
#
# Elastic Compliance Matrix: (Units=1/GPa)
#
#
# Indices 1 2 3 4 5 6 
#
# 1 0.012833 -0.005253 -0.002949 0.000000 0.000883 0.000000
# 2 -0.005253 0.013034 -0.000849 0.000000 -0.002740 0.000000
# 3 -0.002949 -0.000849 0.010828 0.000000 0.000625 0.000000
# 4 0.000000 0.000000 0.000000 0.074098 0.000000 -0.013979
# 5 0.000883 -0.002740 0.000625 0.000000 0.038572 0.000000
# 6 0.000000 0.000000 0.000000 -0.013979 0.000000 0.049428
#
#
# Mechanical properties :
#
#
# Convention : Reuss Voigt Hill
#
# Bulk Modulus (GPa) = 53.78007 54.50269 54.14138
# Shear Modulus (GPa) = 22.41237 26.25786 24.33511
#
# Velocity S-wave (km/s) = 3.39029 3.66964 3.53273
# Velocity P-wave (km/s) = 6.55029 6.77543 6.66381
#
# Compressibility (1/GPa) = 0.01859425
#
# Stress axis : x y z
#
# Youngs Moduli (GPa) = 77.92581 76.72375 92.35397
#
# Poissons Ratio (x) = 0.40300 0.27233
# Poissons Ratio (y) = 0.40931 0.07839
# Poissons Ratio (z) = 0.22978 0.06512
#
# Static dielectric constant tensor:
#      x y z
#    x 3.565970 0.000000 -0.151640 
#    y 0.000000 3.414440 0.000000 
#    z -0.151640 0.000000 4.156480 
# 
# 
# High freq. dielectric constant tensor:
#      x y z
#    x 1.761530 0.000000 -0.010410 
#    y 0.000000 1.737740 0.000000 
#    z -0.010410 0.000000 1.784110 
# 
# From -- ./inp_files/103258.got.cif
#   From: 2010.06.25/outbox.cif.g09.slc.cpg/sg12_52_cif.got.tgz:103258.got - 2010.06.28 00:19:55.
