data_PCOD8088122
_publ_section_title
;
Structure prediction by ZEFSAII (Michael W. Deem and Ramdas Pophale) SiO2 
 PCOD8088122
Probable space group: C 2/M
;
_chemical_formula_sum "Si O2"
_cell_formula_units_Z 64
_cell_length_a 24.397635
_cell_length_b 8.725900
_cell_length_c 19.919513
_cell_angle_alpha 90.000000
_cell_angle_beta 124.881279
_cell_angle_gamma 90.000000
_cell_volume 3478.803662
_symmetry_space_group_name_H-M "C 2/M"
_symmetry_group_IT_number 12
_symmetry_cell_setting 'monoclinic'
loop_
_space_group_symop_operation_xyz
x,y,z
-x,y,-z
-x,-y,-z
x,-y,z
1/2+x,1/2+y,z
1/2-x,1/2+y,-z
1/2-x,1/2-y,-z
1/2+x,1/2-y,z
loop_
_atom_site_type_symbol
_atom_site_label
_atom_site_fract_x
_atom_site_fract_y
_atom_site_fract_z
Si Si1 0.072461 0.820282 0.032415
Si Si2 0.590246 0.176765 0.258658
Si Si3 0.407961 0.678281 0.243864
Si Si4 0.177059 0.180982 0.211889
Si Si5 0.953251 0.678379 0.626527
Si Si6 0.547600 0.322714 0.868552
Si Si7 0.926678 0.820437 0.473922
Si Si8 0.327120 0.819462 0.297883
O O1 0.129928 0.747897 0.119947
O O2 0.070365 0.000000 0.045551
O O3 0.088600 0.786199 0.965329
O O4 0.000000 0.749543 0.000000
O O5 0.649992 0.269593 0.265711
O O6 0.591496 0.211915 0.339095
O O7 0.519236 0.223351 0.177950
O O8 0.602185 0.000000 0.251896
O O9 0.395574 0.500000 0.249744
O O10 0.479536 0.722126 0.324528
O O11 0.406041 0.716544 0.162956
O O12 0.350239 0.777166 0.238700
O O13 0.251961 0.242013 0.254430
O O14 0.177603 0.000000 0.207771
O O15 0.972776 0.500000 0.636258
O O16 0.911340 0.730731 0.532383
O O17 0.525141 0.500000 0.850456
O O18 0.872875 0.769833 0.382140
O O19 0.000000 0.773610 0.500000
O O20 0.920512 0.000000 0.482724
O O21 0.333434 0.000000 0.314303
#
# Coordination Sequence:
#
# PCOD8088122 Si02
#       8
#     8   8   8   8   8   8   8   8
#     4   9  15  29  56  82 104 136 183 229 262 304
#     4  10  20  33  52  81 113 142 173 218 272 319
#     4  10  19  32  52  79 109 141 180 221 267 317
#     4  10  21  37  56  79 107 145 187 220 261 321
#     4  10  20  34  55  82 110 139 175 219 269 318
#     4   9  17  31  54  80 106 140 181 225 265 311
#     4  11  22  36  57  84 108 135 179 226 266 313
#     4  11  23  37  55  78 109 146 180 219 268 322
#
# _framework density 18.397129
#
# number of rings (size 3 to 8) (size 9 to 14) (size 15 to 20)
#    0.000    2.000    2.500    1.875    0.000    3.500 
#    0.000    2.500    0.000    0.000    0.000    0.000 
#    0.000    0.000    0.000    0.000    0.000    0.000 
#
# Total GULP energy -396820.257259 kJ/mol
# GULP energy per Si atom -12400.633039 kJ/mol
# Density = 1.835526 g / cm^3
# Si number density = 18.397129 Si / 1000 Ang^3
#
#
#
# Elastic Constant Matrix: (Units=GPa)
#
#
# Indices 1 2 3 4 5 6 
#
# 1 127.4764 22.4739 68.2193 0.0000 -4.6182 0.0000
# 2 22.4739 27.0099 23.5690 0.0000 -1.0462 0.0000
# 3 68.2193 23.5690 112.3183 0.0000 -6.3839 0.0000
# 4 0.0000 0.0000 0.0000 14.5554 0.0000 -5.2831
# 5 -4.6182 -1.0462 -6.3839 0.0000 31.2824 0.0000
# 6 0.0000 0.0000 0.0000 -5.2831 0.0000 28.0370
#
#
#
# Elastic Compliance Matrix: (Units=1/GPa)
#
#
# Indices 1 2 3 4 5 6 
#
# 1 0.012048 -0.004459 -0.006363 0.000000 0.000331 0.000000
# 2 -0.004459 0.046979 -0.007181 0.000000 -0.000553 0.000000
# 3 -0.006363 -0.007181 0.014375 0.000000 0.001754 0.000000
# 4 0.000000 0.000000 0.000000 0.073747 0.000000 0.013896
# 5 0.000331 -0.000553 0.001754 0.000000 0.032355 0.000000
# 6 0.000000 0.000000 0.000000 0.013896 0.000000 0.038286
#
#
# Mechanical properties :
#
#
# Convention : Reuss Voigt Hill
#
# Bulk Modulus (GPa) = 26.74195 55.03654 40.88925
# Shear Modulus (GPa) = 18.77861 24.94445 21.86153
#
# Velocity S-wave (km/s) = 3.19836 3.68623 3.45093
# Velocity P-wave (km/s) = 5.31101 6.93531 6.17679
#
# Compressibility (1/GPa) = 0.03739443
#
# Stress axis : x y z
#
# Youngs Moduli (GPa) = 83.00154 21.28628 69.56733
#
# Poissons Ratio (x) = 0.09492 0.44266
# Poissons Ratio (y) = 0.37014 0.49956
# Poissons Ratio (z) = 0.52814 0.15285
#
# Static dielectric constant tensor:
#      x y z
#    x 3.512100 0.000000 -0.214480 
#    y 0.000000 3.269370 0.000000 
#    z -0.214480 0.000000 3.441740 
# 
# 
# High freq. dielectric constant tensor:
#      x y z
#    x 1.707730 0.000000 -0.026230 
#    y 0.000000 1.705740 0.000000 
#    z -0.026230 0.000000 1.703300 
# 
# From -- ./inp_files/324346.got.cif
#   From: 2010.06.25/outbox.cif.g09.slc.cpg/sg12_163_cif.got.tgz:324346.got - 2010.06.28 00:19:55.
