data_PCOD8088512
_publ_section_title
;
Structure prediction by ZEFSAII (Michael W. Deem and Ramdas Pophale) SiO2 
 PCOD8088512
Probable space group: C 2/M
;
_chemical_formula_sum "Si O2"
_cell_formula_units_Z 56
_cell_length_a 29.886745
_cell_length_b 9.260501
_cell_length_c 12.167214
_cell_angle_alpha 90.000000
_cell_angle_beta 52.724826
_cell_angle_gamma 90.000000
_cell_volume 2679.620195
_symmetry_space_group_name_H-M "C 2/M"
_symmetry_group_IT_number 12
_symmetry_cell_setting 'monoclinic'
loop_
_space_group_symop_operation_xyz
x,y,z
-x,y,-z
-x,-y,-z
x,-y,z
1/2+x,1/2+y,z
1/2-x,1/2+y,-z
1/2-x,1/2-y,-z
1/2+x,1/2-y,z
loop_
_atom_site_type_symbol
_atom_site_label
_atom_site_fract_x
_atom_site_fract_y
_atom_site_fract_z
Si Si1 0.256639 0.328234 0.810993
Si Si2 0.937647 0.666705 0.363191
Si Si3 0.642270 0.328241 0.947059
Si Si4 0.216462 0.843942 0.468212
Si Si5 0.564306 0.835601 0.220091
Si Si6 0.863202 0.667222 0.676914
Si Si7 0.105002 0.158670 0.761290
O O1 0.252874 0.500000 0.838600
O O2 0.196230 0.254497 0.917961
O O3 0.278153 0.278446 0.659775
O O4 0.308070 0.256789 0.802940
O O5 0.926221 0.500000 0.357546
O O6 0.890380 0.722202 0.520690
O O7 0.938289 0.739581 0.239956
O O8 0.998110 0.694062 0.327249
O O9 0.652093 0.500000 0.939502
O O10 0.629282 0.279590 0.840271
O O11 0.589392 0.278756 0.096789
O O12 0.250000 0.750000 0.500000
O O13 0.153071 0.855299 0.599508
O O14 0.245811 0.000000 0.422951
O O15 0.589052 0.809044 0.303429
O O16 0.576415 0.000000 0.162217
O O17 0.845507 0.500000 0.694618
O O18 0.078161 0.000000 0.823148
#
# Coordination Sequence:
#
# PCOD8088512 Si02
#       7
#     8   8   8   8   8   8   8
#     4  11  22  36  59  90 121 152 191 241 294 349
#     4  10  21  38  64  92 116 149 195 245 296 347
#     4  11  24  41  60  85 120 162 200 234 285 353
#     4  10  19  32  53  83 118 153 188 235 291 346
#     4  10  23  43  62  84 117 156 200 246 289 341
#     4  10  21  39  64  90 117 151 193 244 298 348
#     4  10  21  37  57  86 122 154 190 238 292 349
#
# _framework density 20.898484
#
# number of rings (size 3 to 8) (size 9 to 14) (size 15 to 20)
#    0.000    1.714    2.857    1.286    0.000    6.286 
#    0.000    2.857    0.000    2.571    0.000    0.000 
#    0.000    0.000    0.000    0.000    0.000    0.000 
#
# Total GULP energy -347006.761438 kJ/mol
# GULP energy per Si atom -12393.098623 kJ/mol
# Density = 2.085092 g / cm^3
# Si number density = 20.898484 Si / 1000 Ang^3
#
#
#
# Elastic Constant Matrix: (Units=GPa)
#
#
# Indices 1 2 3 4 5 6 
#
# 1 112.9338 48.4699 5.9982 0.0000 -0.1264 0.0000
# 2 48.4699 82.0949 21.2349 0.0000 1.3718 0.0000
# 3 5.9982 21.2349 51.7190 0.0000 0.2070 0.0000
# 4 0.0000 0.0000 0.0000 28.3941 0.0000 -2.5682
# 5 -0.1264 1.3718 0.2070 0.0000 20.8721 0.0000
# 6 0.0000 0.0000 0.0000 -2.5682 0.0000 32.6927
#
#
#
# Elastic Compliance Matrix: (Units=1/GPa)
#
#
# Indices 1 2 3 4 5 6 
#
# 1 0.011998 -0.007532 0.001699 0.000000 0.000551 0.000000
# 2 -0.007532 0.018372 -0.006665 0.000000 -0.001187 0.000000
# 3 0.001699 -0.006665 0.021874 0.000000 0.000231 0.000000
# 4 0.000000 0.000000 0.000000 0.035471 0.000000 0.002786
# 5 0.000551 -0.001187 0.000231 0.000000 0.047990 0.000000
# 6 0.000000 0.000000 0.000000 0.002786 0.000000 0.030807
#
#
# Mechanical properties :
#
#
# Convention : Reuss Voigt Hill
#
# Bulk Modulus (GPa) = 36.70111 44.23928 40.47019
# Shear Modulus (GPa) = 24.92645 27.79475 26.36060
#
# Velocity S-wave (km/s) = 3.45735 3.65086 3.55542
# Velocity P-wave (km/s) = 5.79115 6.24390 6.02178
#
# Compressibility (1/GPa) = 0.02724714
#
# Stress axis : x y z
#
# Youngs Moduli (GPa) = 83.34758 54.43055 45.71682
#
# Poissons Ratio (x) = 0.40999 -0.07767
# Poissons Ratio (y) = 0.62781 0.30470
# Poissons Ratio (z) = -0.14161 0.36277
#
# Static dielectric constant tensor:
#      x y z
#    x 3.778540 0.000000 0.047610 
#    y 0.000000 3.818640 0.000000 
#    z 0.047610 0.000000 3.605590 
# 
# 
# High freq. dielectric constant tensor:
#      x y z
#    x 1.825020 0.000000 0.004460 
#    y 0.000000 1.811430 0.000000 
#    z 0.004460 0.000000 1.811190 
# 
# From -- ./inp_files/187131.got.cif
#   From: 2010.06.25/outbox.cif.g09.slc.cpg/sg12_94_cif.got.tgz:187131.got - 2010.06.28 00:19:55.
