data_PCOD8088411
_publ_section_title
;
Structure prediction by ZEFSAII (Michael W. Deem and Ramdas Pophale) SiO2 
 PCOD8088411
Probable space group: C 2/M
;
_chemical_formula_sum "Si O2"
_cell_formula_units_Z 56
_cell_length_a 18.187708
_cell_length_b 10.317355
_cell_length_c 21.731944
_cell_angle_alpha 90.000000
_cell_angle_beta 46.252831
_cell_angle_gamma 90.000000
_cell_volume 2945.923988
_symmetry_space_group_name_H-M "C 2/M"
_symmetry_group_IT_number 12
_symmetry_cell_setting 'monoclinic'
loop_
_space_group_symop_operation_xyz
x,y,z
-x,y,-z
-x,-y,-z
x,-y,z
1/2+x,1/2+y,z
1/2-x,1/2+y,-z
1/2-x,1/2-y,-z
1/2+x,1/2-y,z
loop_
_atom_site_type_symbol
_atom_site_label
_atom_site_fract_x
_atom_site_fract_y
_atom_site_fract_z
Si Si1 0.868931 0.856244 0.192519
Si Si2 0.827896 0.145322 0.835156
Si Si3 0.388886 0.225876 0.055750
Si Si4 0.454092 0.347818 0.650266
Si Si5 0.682753 0.349081 0.500991
Si Si6 0.220288 0.851622 0.336910
Si Si7 0.597527 0.646062 0.081520
O O1 0.884319 0.837607 0.110178
O O2 0.802079 0.744403 0.260827
O O3 0.977074 0.848782 0.163763
O O4 0.821167 0.000000 0.229990
O O5 0.710773 0.136764 0.879215
O O6 0.896993 0.215150 0.742765
O O7 0.846561 0.211823 0.891265
O O8 0.868343 0.000000 0.819849
O O9 0.500000 0.154875 0.000000
O O10 0.374077 0.278191 0.996017
O O11 0.458037 0.500000 0.657182
O O12 0.568122 0.296412 0.576371
O O13 0.390210 0.314535 0.626063
O O14 0.695037 0.500000 0.515035
O O15 0.750000 0.250000 0.500000
O O16 0.716420 0.334323 0.411577
O O17 0.249486 0.000000 0.302336
O O18 0.636231 0.500000 0.049298
#
# Coordination Sequence:
#
# PCOD8088411 Si02
#       7
#     8   8   8   8   8   8   8
#     4  10  20  34  56  83 109 146 188 229 278 331
#     4  10  19  32  53  80 108 144 188 230 272 327
#     4  10  19  33  52  77 109 143 183 234 284 328
#     4   9  18  35  58  81 107 147 191 223 263 331
#     4  10  22  38  61  88 115 147 182 226 278 329
#     4  10  20  37  59  83 112 145 186 230 273 324
#     4   9  19  33  51  75 106 145 192 232 271 332
#
# _framework density 19.009316999999999
#
# number of rings (size 3 to 8) (size 9 to 14) (size 15 to 20)
#    0.000    2.286    1.429    1.286    2.000    4.286 
#    0.000    2.857    0.000    3.429    0.000    0.000 
#    0.000    0.000    0.000    0.000    0.000    0.000 
#
# Total GULP energy -346934.509648 kJ/mol
# GULP energy per Si atom -12390.518202 kJ/mol
# Density = 1.896605 g / cm^3
# Si number density = 19.009317 Si / 1000 Ang^3
#
#
#
# Elastic Constant Matrix: (Units=GPa)
#
#
# Indices 1 2 3 4 5 6 
#
# 1 122.7290 35.7552 41.9716 0.0000 3.9768 0.0000
# 2 35.7552 61.6763 37.2813 0.0000 -1.3524 0.0000
# 3 41.9716 37.2813 97.2102 0.0000 -3.3865 0.0000
# 4 0.0000 0.0000 0.0000 19.9712 0.0000 -2.9416
# 5 3.9768 -1.3524 -3.3865 0.0000 34.1077 0.0000
# 6 0.0000 0.0000 0.0000 -2.9416 0.0000 25.7580
#
#
#
# Elastic Compliance Matrix: (Units=1/GPa)
#
#
# Indices 1 2 3 4 5 6 
#
# 1 0.010463 -0.004343 -0.002910 0.000000 -0.001681 0.000000
# 2 -0.004343 0.022910 -0.006885 0.000000 0.000731 0.000000
# 3 -0.002910 -0.006885 0.014236 0.000000 0.001480 0.000000
# 4 0.000000 0.000000 0.000000 0.050929 0.000000 0.005816
# 5 -0.001681 0.000731 0.001480 0.000000 0.029691 0.000000
# 6 0.000000 0.000000 0.000000 0.005816 0.000000 0.039487
#
#
# Mechanical properties :
#
#
# Convention : Reuss Voigt Hill
#
# Bulk Modulus (GPa) = 51.73228 56.84798 54.29013
# Shear Modulus (GPa) = 24.69903 27.07454 25.88679
#
# Velocity S-wave (km/s) = 3.60851 3.77805 3.69425
# Velocity P-wave (km/s) = 6.68094 7.00013 6.84240
#
# Compressibility (1/GPa) = 0.01933029
#
# Stress axis : x y z
#
# Youngs Moduli (GPa) = 95.57287 43.64975 70.24562
#
# Poissons Ratio (x) = 0.18959 0.20445
# Poissons Ratio (y) = 0.41511 0.48367
# Poissons Ratio (z) = 0.27816 0.30054
#
# Static dielectric constant tensor:
#      x y z
#    x 3.723300 0.000000 0.016790 
#    y 0.000000 3.123640 0.000000 
#    z 0.016790 0.000000 3.696840 
# 
# 
# High freq. dielectric constant tensor:
#      x y z
#    x 1.754170 0.000000 0.006010 
#    y 0.000000 1.694990 0.000000 
#    z 0.006010 0.000000 1.746570 
# 
# From -- ./inp_files/315270.got.cif
#   From: 2010.06.25/outbox.cif.g09.slc.cpg/sg12_158_cif.got.tgz:315270.got - 2010.06.28 00:19:55.
