data_PCOD8088940
_publ_section_title
;
Structure prediction by ZEFSAII (Michael W. Deem and Ramdas Pophale) SiO2 
 PCOD8088940
Probable space group: C 2/M
;
_chemical_formula_sum "Si O2"
_cell_formula_units_Z 40
_cell_length_a 18.091268
_cell_length_b 8.857823
_cell_length_c 25.915285
_cell_angle_alpha 90.000000
_cell_angle_beta 150.165162
_cell_angle_gamma 90.000000
_cell_volume 2066.076470
_symmetry_space_group_name_H-M "C 2/M"
_symmetry_group_IT_number 12
_symmetry_cell_setting 'monoclinic'
loop_
_space_group_symop_operation_xyz
x,y,z
-x,y,-z
-x,-y,-z
x,-y,z
1/2+x,1/2+y,z
1/2-x,1/2+y,-z
1/2-x,1/2-y,-z
1/2+x,1/2-y,z
loop_
_atom_site_type_symbol
_atom_site_label
_atom_site_fract_x
_atom_site_fract_y
_atom_site_fract_z
Si Si1 0.424137 0.665922 0.009237
Si Si2 0.357863 0.821421 0.219140
Si Si3 0.328433 0.673502 0.404328
Si Si4 0.191473 0.325594 0.211574
Si Si5 0.174100 0.177513 0.404758
O O1 0.423917 0.500000 0.035352
O O2 0.255781 0.721625 0.896328
O O3 0.500000 0.653460 0.000000
O O4 0.517281 0.780532 0.101232
O O5 0.295753 0.769624 0.236823
O O6 0.509299 0.739371 0.297335
O O7 0.382823 0.000000 0.236984
O O8 0.500000 0.710119 0.500000
O O9 0.305709 0.500000 0.407765
O O10 0.239403 0.709173 0.298512
O O11 0.269759 0.783806 0.412632
O O12 0.210993 0.500000 0.209009
O O13 0.250000 0.250000 0.500000
O O14 0.168174 0.000000 0.409357
#
# Coordination Sequence:
#
# PCOD8088940 Si02
#       5
#     8   8   8   8   8
#     4   8  16  31  52  79 112 150 187 227 274 323
#     4  10  20  36  58  83 114 150 188 230 275 325
#     4  10  22  40  59  81 112 147 184 228 277 329
#     4  10  19  32  56  87 116 148 187 232 277 326
#     4  12  25  40  60  84 111 144 183 228 278 333
#
# _framework density 19.360367
#
# number of rings (size 3 to 8) (size 9 to 14) (size 15 to 20)
#    0.000    2.000    0.000    5.400    0.000    8.000 
#    0.000    1.000    0.000    0.000    0.000    0.000 
#    0.000    0.000    0.000    0.000    0.000    0.000 
#
# Total GULP energy -248007.950424 kJ/mol
# GULP energy per Si atom -12400.397521 kJ/mol
# Density = 1.931630 g / cm^3
# Si number density = 19.360367 Si / 1000 Ang^3
#
#
#
# Elastic Constant Matrix: (Units=GPa)
#
#
# Indices 1 2 3 4 5 6 
#
# 1 80.8431 51.3573 58.8826 0.0000 0.5184 0.0000
# 2 51.3573 122.4565 71.7567 0.0000 -3.1075 0.0002
# 3 58.8826 71.7567 168.0436 -0.0002 1.7055 0.0001
# 4 0.0000 0.0000 -0.0002 -35.3781 0.0000 7.4662
# 5 0.5184 -3.1075 1.7055 0.0000 25.4094 0.0000
# 6 0.0000 0.0002 0.0001 7.4662 0.0000 31.7021
#
#
#
# Elastic Compliance Matrix: (Units=1/GPa)
#
#
# Indices 1 2 3 4 5 6 
#
# 1 0.018981 -0.005451 -0.004315 0.000000 -0.000764 0.000000
# 2 -0.005451 0.012526 -0.003458 0.000000 0.001875 0.000000
# 3 -0.004315 -0.003458 0.008949 0.000000 -0.000935 0.000000
# 4 0.000000 0.000000 0.000000 -0.026928 0.000000 0.006342
# 5 -0.000764 0.001875 -0.000935 0.000000 0.039663 0.000000
# 6 0.000000 0.000000 0.000000 0.006342 0.000000 0.030050
#
#
# Mechanical properties :
#
#
# Convention : Reuss Voigt Hill
#
# Bulk Modulus (GPa) = 71.39170 81.70406 76.54788
# Shear Modulus (GPa) = 43.72212 16.96976 30.34594
#
# Velocity S-wave (km/s) = 4.75735 2.96382 3.96337
# Velocity P-wave (km/s) = 8.19339 7.34885 7.78259
#
# Compressibility (1/GPa) = 0.01400723
#
# Stress axis : x y z
#
# Youngs Moduli (GPa) = 52.68563 79.83385 111.74470
#
# Poissons Ratio (x) = 0.43517 0.48222
# Poissons Ratio (y) = 0.28719 0.38639
# Poissons Ratio (z) = 0.22736 0.27605
#
# Static dielectric constant tensor:
#      x y z
#    x 3.253320 0.000000 0.000060 
#    y 0.000000 3.626110 0.000000 
#    z 0.000060 0.000000 4.377590 
# 
# 
# High freq. dielectric constant tensor:
#      x y z
#    x 1.724490 0.000000 0.002230 
#    y 0.000000 1.758830 0.000000 
#    z 0.002230 0.000000 1.777550 
# 
# From -- ./inp_files/274677.got.cif
#   From: 2010.06.25/outbox.cif.g09.slc.cpg/sg12_138_cif.got.tgz:274677.got - 2010.06.28 00:19:55.
