data_PCOD8088721
_publ_section_title
;
Structure prediction by ZEFSAII (Michael W. Deem and Ramdas Pophale) SiO2 
 PCOD8088721
Probable space group: C 2/M
;
_chemical_formula_sum "Si O2"
_cell_formula_units_Z 64
_cell_length_a 19.602484
_cell_length_b 31.634482
_cell_length_c 8.901416
_cell_angle_alpha 90.000000
_cell_angle_beta 144.040754
_cell_angle_gamma 90.000000
_cell_volume 3241.336520
_symmetry_space_group_name_H-M "C 2/M"
_symmetry_group_IT_number 12
_symmetry_cell_setting 'monoclinic'
loop_
_space_group_symop_operation_xyz
x,y,z
-x,y,-z
-x,-y,-z
x,-y,z
1/2+x,1/2+y,z
1/2-x,1/2+y,-z
1/2-x,1/2-y,-z
1/2+x,1/2-y,z
loop_
_atom_site_type_symbol
_atom_site_label
_atom_site_fract_x
_atom_site_fract_y
_atom_site_fract_z
Si Si1 0.807913 0.548099 0.957447
Si Si2 0.247752 0.238691 0.749073
Si Si3 0.865469 0.303535 0.230124
Si Si4 0.135006 0.800693 0.273771
Si Si5 0.194189 0.547751 0.379338
Si Si6 0.628860 0.390049 0.168332
Si Si7 0.069940 0.546984 0.444700
Si Si8 0.749764 0.391622 0.091283
O O1 0.760421 0.500000 0.878896
O O2 0.722049 0.579748 0.894460
O O3 0.936606 0.550406 0.261975
O O4 0.824932 0.566391 0.820766
O O5 0.167433 0.266945 0.712021
O O6 0.163033 0.208888 0.498610
O O7 0.318028 0.265828 0.755221
O O8 0.339428 0.212120 0.013436
O O9 0.786066 0.344456 0.112652
O O10 0.000000 0.314507 0.500000
O O11 0.188811 0.846644 0.332799
O O12 0.000000 0.803688 0.000000
O O13 0.235184 0.500000 0.432188
O O14 0.301179 0.570497 0.647570
O O15 0.078593 0.550566 0.277171
O O16 0.637282 0.390052 0.000198
O O17 0.500000 0.394829 0.000000
O O18 0.118902 0.500000 0.577644
O O19 0.143583 0.585687 0.636672
#
# Coordination Sequence:
#
# PCOD8088721 Si02
#       8
#     8   8   8   8   8   8   8   8
#     4  10  19  32  54  83 117 149 180 221 273 336
#     4  10  22  38  61  85 115 151 185 236 280 342
#     4  11  22  37  56  88 124 150 178 227 291 346
#     4  10  20  40  64  83 107 149 199 238 274 333
#     4   9  19  34  55  82 113 144 185 230 271 326
#     4  10  22  40  60  76 104 144 193 239 279 332
#     4   9  17  32  54  81 113 155 185 211 267 335
#     4  11  21  35  54  82 115 144 184 232 279 335
#
# _framework density 19.744941000000001
#
# number of rings (size 3 to 8) (size 9 to 14) (size 15 to 20)
#    0.000    2.000    1.250    2.625    1.750    3.250 
#    0.000    0.625    0.000    1.500    0.000    0.000 
#    0.000    0.000    0.000    0.000    0.000    0.000 
#
# Total GULP energy -396598.263740 kJ/mol
# GULP energy per Si atom -12393.695742 kJ/mol
# Density = 1.970000 g / cm^3
# Si number density = 19.744941 Si / 1000 Ang^3
#
#
#
# Elastic Constant Matrix: (Units=GPa)
#
#
# Indices 1 2 3 4 5 6 
#
# 1 122.3360 39.1061 23.0671 0.0000 -8.0924 0.0000
# 2 39.1061 62.9321 8.8099 0.0000 -5.5107 0.0000
# 3 23.0671 8.8099 52.2938 0.0000 -9.5549 0.0000
# 4 0.0000 0.0000 0.0000 9.6014 0.0000 -6.4951
# 5 -8.0924 -5.5107 -9.5549 0.0000 32.4167 0.0000
# 6 0.0000 0.0000 0.0000 -6.4951 0.0000 31.0223
#
#
#
# Elastic Compliance Matrix: (Units=1/GPa)
#
#
# Indices 1 2 3 4 5 6 
#
# 1 0.010883 -0.006201 -0.003649 0.000000 0.000587 0.000000
# 2 -0.006201 0.019939 -0.000304 0.000000 0.001752 0.000000
# 3 -0.003649 -0.000304 0.021781 0.000000 0.005457 0.000000
# 4 0.000000 0.000000 0.000000 0.121336 0.000000 0.025404
# 5 0.000587 0.001752 0.005457 0.000000 0.032901 0.000000
# 6 0.000000 0.000000 0.000000 0.025404 0.000000 0.037554
#
#
# Mechanical properties :
#
#
# Convention : Reuss Voigt Hill
#
# Bulk Modulus (GPa) = 30.96313 42.16978 36.56645
# Shear Modulus (GPa) = 18.15107 25.71333 21.93220
#
# Velocity S-wave (km/s) = 3.03525 3.61262 3.33645
# Velocity P-wave (km/s) = 5.29143 6.22936 5.77946
#
# Compressibility (1/GPa) = 0.03229648
#
# Stress axis : x y z
#
# Youngs Moduli (GPa) = 91.88541 50.15263 45.91256
#
# Poissons Ratio (x) = 0.31097 0.16752
# Poissons Ratio (y) = 0.56974 0.01395
# Poissons Ratio (z) = 0.33526 0.01524
#
# Static dielectric constant tensor:
#      x y z
#    x 4.005410 0.000000 -0.337490 
#    y 0.000000 3.837010 0.000000 
#    z -0.337490 0.000000 3.338470 
# 
# 
# High freq. dielectric constant tensor:
#      x y z
#    x 1.789410 0.000000 -0.025020 
#    y 0.000000 1.777620 0.000000 
#    z -0.025020 0.000000 1.735610 
# 
# From -- ./inp_files/80786.got.cif
#   From: 2010.06.25/outbox.cif.g09.slc.cpg/sg12_41_cif.got.tgz:80786.got - 2010.06.28 00:19:55.
