data_PCOD8088710
_publ_section_title
;
Structure prediction by ZEFSAII (Michael W. Deem and Ramdas Pophale) SiO2 
 PCOD8088710
Probable space group: C 2/M
;
_chemical_formula_sum "Si O2"
_cell_formula_units_Z 32
_cell_length_a 20.722520
_cell_length_b 8.847729
_cell_length_c 25.387824
_cell_angle_alpha 90.000000
_cell_angle_beta 157.949632
_cell_angle_gamma 90.000000
_cell_volume 1747.507414
_symmetry_space_group_name_H-M "C 2/M"
_symmetry_group_IT_number 12
_symmetry_cell_setting 'monoclinic'
loop_
_space_group_symop_operation_xyz
x,y,z
-x,y,-z
-x,-y,-z
x,-y,z
1/2+x,1/2+y,z
1/2-x,1/2+y,-z
1/2-x,1/2-y,-z
1/2+x,1/2-y,z
loop_
_atom_site_type_symbol
_atom_site_label
_atom_site_fract_x
_atom_site_fract_y
_atom_site_fract_z
Si Si1 0.987006 0.172433 0.657456
Si Si2 0.405743 0.677559 0.085726
Si Si3 0.348740 0.174677 0.653515
Si Si4 0.873901 0.674345 0.950162
O O1 0.179542 0.195483 0.781859
O O2 0.852997 0.209957 0.509158
O O3 0.957897 0.282805 0.684422
O O4 0.957553 0.000000 0.654640
O O5 0.386064 0.500000 0.074993
O O6 0.586718 0.728688 0.248063
O O7 0.250000 0.750000 0.000000
O O8 0.405245 0.726113 0.025041
O O9 0.381486 0.000000 0.690834
O O10 0.911515 0.500000 0.992705
O O11 0.000000 0.732945 0.000000
#
# Coordination Sequence:
#
# PCOD8088710 Si02
#       4
#     8   8   8   8
#     4   9  18  33  54  81 112 145 183 225 275 329
#     4  12  23  36  56  83 112 145 187 233 278 327
#     4  10  19  32  54  83 111 143 182 230 279 324
#     4  10  21  38  59  83 113 148 184 227 278 332
#
# _framework density 18.311795
#
# number of rings (size 3 to 8) (size 9 to 14) (size 15 to 20)
#    0.000    1.750    2.500    3.000    0.000    1.500 
#    0.000    1.250    0.000    7.500    0.000    0.000 
#    0.000    0.000    0.000    0.000    0.000    0.000 
#
# Total GULP energy -198431.138979 kJ/mol
# GULP energy per Si atom -12401.946186 kJ/mol
# Density = 1.827012 g / cm^3
# Si number density = 18.311795 Si / 1000 Ang^3
#
#
#
# Elastic Constant Matrix: (Units=GPa)
#
#
# Indices 1 2 3 4 5 6 
#
# 1 107.3376 55.2203 71.1458 -0.0014 0.3793 -0.0002
# 2 55.2203 111.9292 54.2281 -0.0026 -8.2817 0.0002
# 3 71.1458 54.2281 145.3308 -0.0133 -4.7838 0.0007
# 4 -0.0014 -0.0026 -0.0133 27.2758 0.0001 -7.0239
# 5 0.3793 -8.2817 -4.7838 0.0001 29.2570 0.0002
# 6 -0.0002 0.0002 0.0007 -7.0239 0.0002 27.7995
#
#
#
# Elastic Compliance Matrix: (Units=1/GPa)
#
#
# Indices 1 2 3 4 5 6 
#
# 1 0.015935 -0.005170 -0.005959 -0.000003 -0.002645 0.000000
# 2 -0.005170 0.012759 -0.002120 0.000000 0.003332 0.000000
# 3 -0.005959 -0.002120 0.010629 0.000005 0.001215 0.000001
# 4 -0.000003 0.000000 0.000005 0.039214 0.000001 0.009908
# 5 -0.002645 0.003332 0.001215 0.000001 0.035356 0.000000
# 6 0.000000 0.000000 0.000001 0.009908 0.000000 0.038475
#
#
# Mechanical properties :
#
#
# Convention : Reuss Voigt Hill
#
# Bulk Modulus (GPa) = 77.97459 80.64291 79.30875
# Shear Modulus (GPa) = 27.30133 29.13336 28.21735
#
# Velocity S-wave (km/s) = 3.86543 3.99301 3.92974
# Velocity P-wave (km/s) = 7.91177 8.08661 7.99967
#
# Compressibility (1/GPa) = 0.01282469
#
# Stress axis : x y z
#
# Youngs Moduli (GPa) = 62.75366 78.37832 94.08255
#
# Poissons Ratio (x) = 0.40525 0.56062
# Poissons Ratio (y) = 0.32446 0.19944
# Poissons Ratio (z) = 0.37394 0.16615
#
# Static dielectric constant tensor:
#      x y z
#    x 3.137570 0.000000 -0.112280 
#    y 0.000000 3.429790 0.000000 
#    z -0.112280 0.000000 3.792480 
# 
# 
# High freq. dielectric constant tensor:
#      x y z
#    x 1.672260 0.000000 -0.012030 
#    y 0.000000 1.714370 0.000000 
#    z -0.012030 0.000000 1.728520 
# 
# From -- ./inp_files/81665.got.cif
#   From: 2010.06.25/outbox.cif.g09.slc.cpg/sg12_41_cif.got.tgz:81665.got - 2010.06.28 00:19:55.
