data_PCOD8088216
_publ_section_title
;
Structure prediction by ZEFSAII (Michael W. Deem and Ramdas Pophale) SiO2 
 PCOD8088216
Probable space group: C 2/M
;
_chemical_formula_sum "Si O2"
_cell_formula_units_Z 48
_cell_length_a 24.716847
_cell_length_b 10.935633
_cell_length_c 9.549066
_cell_angle_alpha 90.000000
_cell_angle_beta 73.384785
_cell_angle_gamma 90.000000
_cell_volume 2473.290973
_symmetry_space_group_name_H-M "C 2/M"
_symmetry_group_IT_number 12
_symmetry_cell_setting 'monoclinic'
loop_
_space_group_symop_operation_xyz
x,y,z
-x,y,-z
-x,-y,-z
x,-y,z
1/2+x,1/2+y,z
1/2-x,1/2+y,-z
1/2-x,1/2-y,-z
1/2+x,1/2-y,z
loop_
_atom_site_type_symbol
_atom_site_label
_atom_site_fract_x
_atom_site_fract_y
_atom_site_fract_z
Si Si1 0.871562 0.640571 0.134545
Si Si2 0.967090 0.639656 0.265915
Si Si3 0.917575 0.750709 0.844268
Si Si4 0.942713 0.000000 0.450057
Si Si5 0.398187 0.246273 0.540307
Si Si6 0.795407 0.356896 0.443673
Si Si7 0.978816 0.000000 0.857687
O O1 0.881519 0.500000 0.086929
O O2 0.924020 0.696275 0.184138
O O3 0.814686 0.655410 0.267504
O O4 0.868668 0.718778 0.992961
O O5 0.951513 0.500000 0.292585
O O6 0.956728 0.699150 0.426701
O O7 0.030229 0.659649 0.166595
O O8 0.893858 0.723178 0.708380
O O9 0.939236 0.887390 0.846882
O O10 0.899466 0.109532 0.512113
O O11 0.000000 0.000000 0.500000
O O12 0.963535 0.000000 0.274411
O O13 0.346772 0.172961 0.509249
O O14 0.775649 0.500000 0.484908
O O15 0.750000 0.250000 0.500000
O O16 0.000000 0.000000 0.000000
#
# Coordination Sequence:
#
# PCOD8088216 Si02
#       7
#     8   8   8   4   8   8   4
#     4   9  20  37  57  84 120 156 195 248 309 369
#     4  10  19  32  52  82 120 162 201 233 288 373
#     4  12  21  34  53  87 125 164 200 246 303 368
#     4  12  20  40  56  90 138 178 210 244 310 377
#     4  11  22  36  60  85 122 164 206 258 308 369
#     4  10  24  47  69  92 116 154 216 276 330 384
#     4  12  24  34  52  86 136 174 214 250 284 369
#
# _framework density 19.407339
#
# number of rings (size 3 to 8) (size 9 to 14) (size 15 to 20)
#    0.000    1.333    3.333    4.000    3.500    4.667 
#    1.500    0.833    0.000    0.000    0.000    0.000 
#    0.000    0.000    0.000    0.000    0.000    0.000 
#
# Total GULP energy -297471.022790 kJ/mol
# GULP energy per Si atom -12394.625950 kJ/mol
# Density = 1.936317 g / cm^3
# Si number density = 19.407339 Si / 1000 Ang^3
#
#
#
# Elastic Constant Matrix: (Units=GPa)
#
#
# Indices 1 2 3 4 5 6 
#
# 1 38.5400 24.4769 24.1385 0.0000 -8.4410 0.0000
# 2 24.4769 106.1569 45.0326 0.0000 -7.0841 0.0000
# 3 24.1385 45.0326 145.8907 0.0000 4.4705 0.0000
# 4 0.0000 0.0000 0.0000 32.8300 0.0000 -7.2941
# 5 -8.4410 -7.0841 4.4705 0.0000 22.4691 0.0000
# 6 0.0000 0.0000 0.0000 -7.2941 0.0000 23.2158
#
#
#
# Elastic Compliance Matrix: (Units=1/GPa)
#
#
# Indices 1 2 3 4 5 6 
#
# 1 0.034830 -0.005298 -0.004505 0.000000 0.012310 0.000000
# 2 -0.005298 0.012036 -0.002912 0.000000 0.002384 0.000000
# 3 -0.004505 -0.002912 0.008631 0.000000 -0.004327 0.000000
# 4 0.000000 0.000000 0.000000 0.032746 0.000000 0.010288
# 5 0.012310 0.002384 -0.004327 0.000000 0.050743 0.000000
# 6 0.000000 0.000000 0.000000 0.010288 0.000000 0.046307
#
#
# Mechanical properties :
#
#
# Convention : Reuss Voigt Hill
#
# Bulk Modulus (GPa) = 33.25841 53.09819 43.17830
# Shear Modulus (GPa) = 22.65078 28.83230 25.74154
#
# Velocity S-wave (km/s) = 3.42003 3.85858 3.64590
# Velocity P-wave (km/s) = 5.72448 6.87537 6.32615
#
# Compressibility (1/GPa) = 0.03006758
#
# Stress axis : x y z
#
# Youngs Moduli (GPa) = 28.71124 83.08522 115.86062
#
# Poissons Ratio (x) = 0.44022 0.52189
# Poissons Ratio (y) = 0.15212 0.33733
# Poissons Ratio (z) = 0.12933 0.24190
#
# Static dielectric constant tensor:
#      x y z
#    x 3.146240 0.000000 0.017800 
#    y 0.000000 6.327960 0.000000 
#    z 0.017800 0.000000 3.788690 
# 
# 
# High freq. dielectric constant tensor:
#      x y z
#    x 1.704960 0.000000 0.007370 
#    y 0.000000 1.770250 0.000000 
#    z 0.007370 0.000000 1.769010 
# 
# From -- ./inp_files/94929.got.cif
#   From: 2010.06.25/outbox.cif.g09.slc.cpg/sg12_48_cif.got.tgz:94929.got - 2010.06.28 00:19:55.
