data_PCOD8088396
_publ_section_title
;
Structure prediction by ZEFSAII (Michael W. Deem and Ramdas Pophale) SiO2 
 PCOD8088396
Probable space group: C 2/M
;
_chemical_formula_sum "Si O2"
_cell_formula_units_Z 56
_cell_length_a 18.004754
_cell_length_b 9.044269
_cell_length_c 18.648361
_cell_angle_alpha 90.000000
_cell_angle_beta 75.962806
_cell_angle_gamma 90.000000
_cell_volume 2946.015721
_symmetry_space_group_name_H-M "C 2/M"
_symmetry_group_IT_number 12
_symmetry_cell_setting 'monoclinic'
loop_
_space_group_symop_operation_xyz
x,y,z
-x,y,-z
-x,-y,-z
x,-y,z
1/2+x,1/2+y,z
1/2-x,1/2+y,-z
1/2-x,1/2-y,-z
1/2+x,1/2-y,z
loop_
_atom_site_type_symbol
_atom_site_label
_atom_site_fract_x
_atom_site_fract_y
_atom_site_fract_z
Si Si1 0.097657 0.175188 0.289422
Si Si2 0.232773 0.326217 0.714763
Si Si3 0.911145 0.666851 0.002200
Si Si4 0.969140 0.170474 0.427600
Si Si5 0.447800 0.326863 0.856142
Si Si6 0.688281 0.173757 0.564288
Si Si7 0.878499 0.826850 0.148738
O O1 0.180293 0.229906 0.296381
O O2 0.080949 0.234273 0.213473
O O3 0.033116 0.234977 0.358673
O O4 0.094314 0.000000 0.291245
O O5 0.225036 0.500000 0.732164
O O6 0.205683 0.284318 0.641979
O O7 0.181669 0.238268 0.782287
O O8 0.880105 0.500000 0.005580
O O9 0.898430 0.744465 0.928540
O O10 0.864646 0.753544 0.074314
O O11 0.000000 0.672069 0.000000
O O12 0.894949 0.269745 0.436701
O O13 0.000000 0.186492 0.500000
O O14 0.948725 0.000000 0.415005
O O15 0.432612 0.500000 0.868888
O O16 0.537356 0.289637 0.841366
O O17 0.750000 0.250000 0.500000
O O18 0.693218 0.000000 0.550421
O O19 0.865435 0.000000 0.143524
#
# Coordination Sequence:
#
# PCOD8088396 Si02
#       7
#     8   8   8   8   8   8   8
#     4   9  18  34  55  77 104 141 181 220 267 322
#     4  10  21  37  55  77 107 143 181 220 265 318
#     4   9  17  30  50  76 105 136 172 216 266 320
#     4  10  20  37  61  85 111 145 184 225 273 329
#     4   9  17  31  52  76 102 134 175 221 266 316
#     4  11  23  38  58  84 114 147 184 226 271 322
#     4  10  19  32  53  80 107 136 174 221 270 319
#
# _framework density 19.008724999999998
#
# number of rings (size 3 to 8) (size 9 to 14) (size 15 to 20)
#    0.000    2.286    0.000    3.000    0.000    7.143 
#    0.000    2.857    0.000    0.000    0.000    0.000 
#    0.000    0.000    0.000    0.000    0.000    0.000 
#
# Total GULP energy -347270.361673 kJ/mol
# GULP energy per Si atom -12402.512917 kJ/mol
# Density = 1.896546 g / cm^3
# Si number density = 19.008725 Si / 1000 Ang^3
#
#
#
# Elastic Constant Matrix: (Units=GPa)
#
#
# Indices 1 2 3 4 5 6 
#
# 1 96.6072 40.6627 63.4772 0.0000 -7.5528 0.0000
# 2 40.6627 69.3989 67.3926 0.0000 -11.2916 0.0000
# 3 63.4772 67.3926 169.1848 0.0000 -9.5974 0.0000
# 4 0.0000 0.0000 0.0000 33.3035 0.0000 -8.8170
# 5 -7.5528 -11.2916 -9.5974 0.0000 29.9604 0.0000
# 6 0.0000 0.0000 0.0000 -8.8170 0.0000 17.6131
#
#
#
# Elastic Compliance Matrix: (Units=1/GPa)
#
#
# Indices 1 2 3 4 5 6 
#
# 1 0.014886 -0.005263 -0.003451 0.000000 0.000664 0.000000
# 2 -0.005263 0.026456 -0.008223 0.000000 0.006010 0.000000
# 3 -0.003451 -0.008223 0.010446 0.000000 -0.000623 0.000000
# 4 0.000000 0.000000 0.000000 0.034614 0.000000 0.017328
# 5 0.000664 0.006010 -0.000623 0.000000 0.035610 0.000000
# 6 0.000000 0.000000 0.000000 0.017328 0.000000 0.065450
#
#
# Mechanical properties :
#
#
# Convention : Reuss Voigt Hill
#
# Bulk Modulus (GPa) = 55.82190 75.36174 65.59182
# Shear Modulus (GPa) = 21.99666 27.08596 24.54131
#
# Velocity S-wave (km/s) = 3.40544 3.77891 3.59702
# Velocity P-wave (km/s) = 6.70021 7.66630 7.19948
#
# Compressibility (1/GPa) = 0.01791412
#
# Stress axis : x y z
#
# Youngs Moduli (GPa) = 67.17821 37.79838 95.73297
#
# Poissons Ratio (x) = 0.19892 0.33038
# Poissons Ratio (y) = 0.35354 0.78721
# Poissons Ratio (z) = 0.23184 0.31082
#
# Static dielectric constant tensor:
#      x y z
#    x 3.519360 0.000000 0.075960 
#    y 0.000000 3.424940 0.000000 
#    z 0.075960 0.000000 3.742470 
# 
# 
# High freq. dielectric constant tensor:
#      x y z
#    x 1.726780 0.000000 0.001540 
#    y 0.000000 1.725410 0.000000 
#    z 0.001540 0.000000 1.759540 
# 
# From -- ./inp_files/275074.got.cif
#   From: 2010.06.25/outbox.cif.g09.slc.cpg/sg12_138_cif.got.tgz:275074.got - 2010.06.28 00:19:55.
