data_PCOD8088322
_publ_section_title
;
Structure prediction by ZEFSAII (Michael W. Deem and Ramdas Pophale) SiO2 
 PCOD8088322
Probable space group: C 2/M
;
_chemical_formula_sum "Si O2"
_cell_formula_units_Z 56
_cell_length_a 29.881806
_cell_length_b 8.995490
_cell_length_c 16.611235
_cell_angle_alpha 90.000000
_cell_angle_beta 46.593645
_cell_angle_gamma 90.000000
_cell_volume 3243.906186
_symmetry_space_group_name_H-M "C 2/M"
_symmetry_group_IT_number 12
_symmetry_cell_setting 'monoclinic'
loop_
_space_group_symop_operation_xyz
x,y,z
-x,y,-z
-x,-y,-z
x,-y,z
1/2+x,1/2+y,z
1/2-x,1/2+y,-z
1/2-x,1/2-y,-z
1/2+x,1/2-y,z
loop_
_atom_site_type_symbol
_atom_site_label
_atom_site_fract_x
_atom_site_fract_y
_atom_site_fract_z
Si Si1 0.697694 0.172482 0.391122
Si Si2 0.912776 0.674379 0.583888
Si Si3 0.023696 0.826444 0.358680
Si Si4 0.055956 0.675436 0.987987
Si Si5 0.627210 0.175208 0.635500
Si Si6 0.823191 0.673959 0.254476
Si Si7 0.495762 0.672580 0.798642
O O1 0.655498 0.203033 0.365387
O O2 0.664072 0.235447 0.512499
O O3 0.762075 0.251379 0.295846
O O4 0.710678 0.000000 0.387896
O O5 0.926738 0.500000 0.574642
O O6 0.919354 0.753993 0.662538
O O7 0.961129 0.744526 0.461799
O O8 0.034759 0.800543 0.250764
O O9 0.018118 0.000000 0.386736
O O10 0.054690 0.500000 0.003572
O O11 0.050624 0.755562 0.080182
O O12 0.118999 0.729958 0.869135
O O13 0.000000 0.725043 0.000000
O O14 0.667096 0.217196 0.664405
O O15 0.562026 0.253341 0.722215
O O16 0.614352 0.000000 0.646031
O O17 0.815318 0.500000 0.254244
O O18 0.503938 0.500000 0.807313
#
# Coordination Sequence:
#
# PCOD8088322 Si02
#       7
#     8   8   8   8   8   8   8
#     4  10  21  34  52  78 109 142 173 215 262 308
#     4  10  19  32  53  78 104 138 176 210 258 316
#     4  10  20  33  50  77 109 137 169 215 267 309
#     4  10  20  37  57  75 102 140 180 220 261 309
#     4  10  19  35  53  74 108 145 177 210 254 313
#     4  10  21  35  54  76 102 143 182 213 258 312
#     4  11  22  33  52  81 109 138 173 218 268 307
#
# _framework density 17.263138999999999
#
# number of rings (size 3 to 8) (size 9 to 14) (size 15 to 20)
#    0.000    1.857    2.857    2.571    0.000    4.857 
#    0.000    0.000    0.000    0.857    0.000    0.000 
#    0.000    0.000    0.000    0.000    0.000    0.000 
#
# Total GULP energy -347258.597704 kJ/mol
# GULP energy per Si atom -12402.092775 kJ/mol
# Density = 1.722385 g / cm^3
# Si number density = 17.263139 Si / 1000 Ang^3
#
#
#
# Elastic Constant Matrix: (Units=GPa)
#
#
# Indices 1 2 3 4 5 6 
#
# 1 119.2625 50.0102 58.9368 -0.0003 -3.8309 0.0002
# 2 50.0102 67.6347 39.3584 0.0010 2.5289 -0.0002
# 3 58.9368 39.3584 95.5445 0.0000 -2.4168 0.0001
# 4 -0.0003 0.0010 0.0000 27.7685 0.0000 -0.6278
# 5 -3.8309 2.5289 -2.4168 0.0000 29.4667 0.0001
# 6 0.0002 -0.0002 0.0001 -0.6278 0.0001 32.1791
#
#
#
# Elastic Compliance Matrix: (Units=1/GPa)
#
#
# Indices 1 2 3 4 5 6 
#
# 1 0.014398 -0.007344 -0.005805 0.000000 0.002026 0.000000
# 2 -0.007344 0.023354 -0.005176 -0.000001 -0.003384 0.000000
# 3 -0.005805 -0.005176 0.016205 0.000000 0.001019 0.000000
# 4 0.000000 -0.000001 0.000000 0.036028 0.000000 0.000703
# 5 0.002026 -0.003384 0.001019 0.000000 0.034574 0.000000
# 6 0.000000 0.000000 0.000000 0.000703 0.000000 0.031090
#
#
# Mechanical properties :
#
#
# Convention : Reuss Voigt Hill
#
# Bulk Modulus (GPa) = 57.77812 64.33915 61.05864
# Shear Modulus (GPa) = 25.24389 26.82529 26.03459
#
# Velocity S-wave (km/s) = 3.82815 3.94624 3.88764
# Velocity P-wave (km/s) = 7.28570 7.62327 7.45640
#
# Compressibility (1/GPa) = 0.01730759
#
# Stress axis : x y z
#
# Youngs Moduli (GPa) = 69.45322 42.81929 61.70889
#
# Poissons Ratio (x) = 0.31446 0.35823
# Poissons Ratio (y) = 0.51005 0.31940
# Poissons Ratio (z) = 0.40318 0.22163
#
# Static dielectric constant tensor:
#      x y z
#    x 3.294340 0.000000 0.169020 
#    y 0.000000 3.224780 0.000000 
#    z 0.169020 0.000000 3.244500 
# 
# 
# High freq. dielectric constant tensor:
#      x y z
#    x 1.666570 0.000000 0.010910 
#    y 0.000000 1.670520 0.000000 
#    z 0.010910 0.000000 1.651080 
# 
# From -- ./inp_files/248868.got.cif
#   From: 2010.06.25/outbox.cif.g09.slc.cpg/sg12_125_cif.got.tgz:248868.got - 2010.06.28 00:19:55.
