data_PCOD8088013
_publ_section_title
;
Structure prediction by ZEFSAII (Michael W. Deem and Ramdas Pophale) SiO2 
 PCOD8088013
Probable space group: C 2/M
;
_chemical_formula_sum "Si O2"
_cell_formula_units_Z 64
_cell_length_a 14.674215
_cell_length_b 9.227432
_cell_length_c 26.935696
_cell_angle_alpha 90.000000
_cell_angle_beta 75.318160
_cell_angle_gamma 90.000000
_cell_volume 3528.147483
_symmetry_space_group_name_H-M "C 2/M"
_symmetry_group_IT_number 12
_symmetry_cell_setting 'monoclinic'
loop_
_space_group_symop_operation_xyz
x,y,z
-x,y,-z
-x,-y,-z
x,-y,z
1/2+x,1/2+y,z
1/2-x,1/2+y,-z
1/2-x,1/2-y,-z
1/2+x,1/2-y,z
loop_
_atom_site_type_symbol
_atom_site_label
_atom_site_fract_x
_atom_site_fract_y
_atom_site_fract_z
Si Si1 0.778359 0.170436 0.924483
Si Si2 0.433733 0.167776 0.362668
Si Si3 0.217572 0.834957 0.381033
Si Si4 0.356047 0.329842 0.810207
Si Si5 0.236428 0.670975 0.734766
Si Si6 0.607921 0.669711 0.993816
Si Si7 0.547023 0.170917 0.443340
Si Si8 0.549789 0.329164 0.738439
O O1 0.819531 0.234162 0.867339
O O2 0.857178 0.205677 0.955237
O O3 0.758549 0.000000 0.924955
O O4 0.678238 0.247494 0.947078
O O5 0.322993 0.192926 0.385252
O O6 0.483359 0.220323 0.405938
O O7 0.473270 0.264330 0.312417
O O8 0.454868 0.000000 0.347544
O O9 0.209479 0.793148 0.323931
O O10 0.150889 0.735311 0.423291
O O11 0.186853 0.000000 0.393566
O O12 0.341348 0.500000 0.813003
O O13 0.297135 0.268016 0.771968
O O14 0.464947 0.291187 0.787450
O O15 0.214987 0.500000 0.740345
O O16 0.139124 0.755865 0.751043
O O17 0.615349 0.500000 0.981070
O O18 0.500000 0.722850 0.000000
O O19 0.500000 0.231853 0.500000
O O20 0.557372 0.000000 0.444783
O O21 0.565022 0.500000 0.730335
#
# Coordination Sequence:
#
# PCOD8088013 Si02
#       8
#     8   8   8   8   8   8   8   8
#     4   9  18  33  51  72  98 130 169 204 240 292
#     4   9  19  36  53  70  99 134 162 195 245 295
#     4   9  18  33  52  71  94 128 164 197 238 293
#     4   9  18  32  50  72 102 135 161 196 245 293
#     4   9  18  34  52  71  99 132 162 194 241 294
#     4   9  18  33  52  72  97 130 166 208 253 288
#     4  10  21  35  51  73  99 126 160 204 249 289
#     4  10  19  32  52  77 100 126 165 203 236 284
#
# _framework density 18.139831000000001
#
# number of rings (size 3 to 8) (size 9 to 14) (size 15 to 20)
#    0.000    2.750    0.000    1.875    0.000    5.500 
#    0.000    4.375    0.000    0.000    0.000    0.000 
#    0.000    0.000    0.000    0.000    0.000    0.000 
#
# Total GULP energy -396785.602397 kJ/mol
# GULP energy per Si atom -12399.550075 kJ/mol
# Density = 1.809854 g / cm^3
# Si number density = 18.139831 Si / 1000 Ang^3
#
#
#
# Elastic Constant Matrix: (Units=GPa)
#
#
# Indices 1 2 3 4 5 6 
#
# 1 85.1710 27.2887 38.6327 0.0000 -17.2426 0.0000
# 2 27.2887 38.4387 28.3544 0.0000 -11.6041 0.0000
# 3 38.6327 28.3544 100.9088 0.0000 -24.4261 0.0000
# 4 0.0000 0.0000 0.0000 24.8728 0.0000 -6.6939
# 5 -17.2426 -11.6041 -24.4261 0.0000 24.5242 0.0000
# 6 0.0000 0.0000 0.0000 -6.6939 0.0000 26.5615
#
#
#
# Elastic Compliance Matrix: (Units=1/GPa)
#
#
# Indices 1 2 3 4 5 6 
#
# 1 0.016687 -0.008225 -0.002872 0.000000 0.004980 0.000000
# 2 -0.008225 0.038226 -0.006079 0.000000 0.006249 0.000000
# 3 -0.002872 -0.006079 0.015196 0.000000 0.010240 0.000000
# 4 0.000000 0.000000 0.000000 0.043130 0.000000 0.010869
# 5 0.004980 0.006249 0.010240 0.000000 0.057433 0.000000
# 6 0.000000 0.000000 0.000000 0.010869 0.000000 0.040388
#
#
# Mechanical properties :
#
#
# Convention : Reuss Voigt Hill
#
# Bulk Modulus (GPa) = 27.96677 45.89670 36.93173
# Shear Modulus (GPa) = 19.43020 23.87456 21.65238
#
# Velocity S-wave (km/s) = 3.27637 3.63180 3.45865
# Velocity P-wave (km/s) = 5.45560 6.55310 6.02938
#
# Compressibility (1/GPa) = 0.03575673
#
# Stress axis : x y z
#
# Youngs Moduli (GPa) = 59.92602 26.16054 65.80503
#
# Poissons Ratio (x) = 0.21516 0.18900
# Poissons Ratio (y) = 0.49287 0.40006
# Poissons Ratio (z) = 0.17211 0.15904
#
# Static dielectric constant tensor:
#      x y z
#    x 3.375570 0.000000 0.077820 
#    y 0.000000 3.156070 0.000000 
#    z 0.077820 0.000000 3.521530 
# 
# 
# High freq. dielectric constant tensor:
#      x y z
#    x 1.709150 0.000000 -0.000600 
#    y 0.000000 1.685390 0.000000 
#    z -0.000600 0.000000 1.701850 
# 
# From -- ./inp_files/359700.got.cif
#   From: 2010.06.25/outbox.cif.g09.slc.cpg/sg12_180_cif.got.tgz:359700.got - 2010.06.28 00:19:55.
