data_PCOD8088084
_publ_section_title
;
Structure prediction by ZEFSAII (Michael W. Deem and Ramdas Pophale) SiO2 
 PCOD8088084
Probable space group: C 2/M
;
_chemical_formula_sum "Si O2"
_cell_formula_units_Z 64
_cell_length_a 29.821553
_cell_length_b 9.226302
_cell_length_c 25.814930
_cell_angle_alpha 90.000000
_cell_angle_beta 30.043199
_cell_angle_gamma 90.000000
_cell_volume 3556.030952
_symmetry_space_group_name_H-M "C 2/M"
_symmetry_group_IT_number 12
_symmetry_cell_setting 'monoclinic'
loop_
_space_group_symop_operation_xyz
x,y,z
-x,y,-z
-x,-y,-z
x,-y,z
1/2+x,1/2+y,z
1/2-x,1/2+y,-z
1/2-x,1/2-y,-z
1/2+x,1/2-y,z
loop_
_atom_site_type_symbol
_atom_site_label
_atom_site_fract_x
_atom_site_fract_y
_atom_site_fract_z
Si Si1 0.136121 0.168871 0.491985
Si Si2 0.664801 0.171713 0.725482
Si Si3 0.999996 0.165515 0.716697
Si Si4 0.398506 0.172591 0.101495
Si Si5 0.500004 0.832985 0.439115
Si Si6 0.000003 0.672430 0.822908
Si Si7 0.363871 0.668874 0.764236
Si Si8 0.664796 0.828286 0.944920
O O1 0.238944 0.220922 0.392701
O O2 0.088538 0.198760 0.594383
O O3 0.088939 0.258236 0.493882
O O4 0.128700 0.000000 0.484560
O O5 0.651291 0.232258 0.797371
O O6 0.587652 0.232935 0.764922
O O7 0.656833 0.000000 0.734727
O O8 0.999999 0.271256 0.764833
O O9 0.911456 0.198770 0.771464
O O10 0.999992 0.000000 0.735939
O O11 0.348709 0.232257 0.099955
O O12 0.398287 0.000000 0.101714
O O13 0.500000 0.230424 0.000000
O O14 0.500000 0.812646 0.500000
O O15 0.588945 0.758230 0.328236
O O16 0.500006 0.000000 0.422357
O O17 0.000001 0.500000 0.820995
O O18 0.912358 0.732937 0.940219
O O19 0.371291 0.500000 0.741972
O O20 0.261049 0.720926 0.870596
O O21 0.656830 0.000000 0.951610
#
# Coordination Sequence:
#
# PCOD8088084 Si02
#       8
#     8   8   8   8   8   8   8   8
#     4   9  19  35  54  75 100 132 173 216 251 294
#     4   9  17  29  48  78 107 130 164 211 256 298
#     4   9  19  35  49  67 100 135 172 220 261 291
#     4   9  14  24  44  73 108 133 153 202 264 301
#     4  10  21  35  50  73 106 137 166 207 256 304
#     4  10  19  32  52  78 105 132 169 212 256 305
#     4   9  19  35  54  75 100 132 173 216 251 294
#     4   9  17  29  48  78 107 130 164 211 256 298
#
# _framework density 17.997592999999998
#
# number of rings (size 3 to 8) (size 9 to 14) (size 15 to 20)
#    0.000    2.750    1.250    1.125    1.750    4.000 
#    0.000    1.250    0.000    0.000    0.000    0.875 
#    0.000    0.000    0.000    0.000    0.000    0.000 
#
# Total GULP energy -396753.023917 kJ/mol
# GULP energy per Si atom -12398.531997 kJ/mol
# Density = 1.795663 g / cm^3
# Si number density = 17.997593 Si / 1000 Ang^3
#
#
#
# Elastic Constant Matrix: (Units=GPa)
#
#
# Indices 1 2 3 4 5 6 
#
# 1 130.6658 35.9095 99.4121 -0.0009 -4.9539 0.0002
# 2 35.9095 39.9095 34.6993 -0.0300 1.5086 0.0055
# 3 99.4121 34.6993 150.5660 -0.0269 -19.4804 -0.0015
# 4 -0.0009 -0.0300 -0.0269 9.9310 -0.0001 11.4981
# 5 -4.9539 1.5086 -19.4804 -0.0001 35.4772 0.0023
# 6 0.0002 0.0055 -0.0015 11.4981 0.0023 19.2642
#
#
#
# Elastic Compliance Matrix: (Units=1/GPa)
#
#
# Indices 1 2 3 4 5 6 
#
# 1 0.017008 -0.006379 -0.010138 -0.000151 -0.002920 0.000091
# 2 -0.006379 0.034838 -0.004439 0.000336 -0.004810 -0.000210
# 3 -0.010138 -0.004439 0.015285 0.000082 0.007166 -0.000047
# 4 -0.000151 0.000336 0.000082 0.325934 0.000023 -0.194539
# 5 -0.002920 -0.004810 0.007166 0.000023 0.031919 -0.000016
# 6 0.000091 -0.000210 -0.000047 -0.194539 -0.000016 0.168024
#
#
# Mechanical properties :
#
#
# Convention : Reuss Voigt Hill
#
# Bulk Modulus (GPa) = 39.65111 73.46479 56.55795
# Shear Modulus (GPa) = 7.77210 23.00918 15.39064
#
# Velocity S-wave (km/s) = 2.08033 3.57943 2.92747
# Velocity P-wave (km/s) = 5.27727 7.61518 6.55136
#
# Compressibility (1/GPa) = 0.02521998
#
# Stress axis : x y z
#
# Youngs Moduli (GPa) = 58.79489 28.70417 65.42298
#
# Poissons Ratio (x) = 0.18311 0.66323
# Poissons Ratio (y) = 0.37507 0.29041
# Poissons Ratio (z) = 0.59603 0.12742
#
# Static dielectric constant tensor:
#      x y z
#    x 3.426540 -0.000060 -0.180600 
#    y -0.000060 2.912710 0.000080 
#    z -0.180600 0.000080 3.573610 
# 
# 
# High freq. dielectric constant tensor:
#      x y z
#    x 1.702560 0.000000 -0.004170 
#    y 0.000000 1.649970 0.000000 
#    z -0.004170 0.000000 1.705960 
# 
# From -- ./inp_files/353422.got.cif
#   From: 2010.06.25/outbox.cif.g09.slc.cpg/sg12_177_cif.got.tgz:353422.got - 2010.06.28 00:19:55.
