data_PCOD8088370
_publ_section_title
;
Structure prediction by ZEFSAII (Michael W. Deem and Ramdas Pophale) SiO2 
 PCOD8088370
Probable space group: C 2/M
;
_chemical_formula_sum "Si O2"
_cell_formula_units_Z 64
_cell_length_a 29.481919
_cell_length_b 13.764655
_cell_length_c 10.187465
_cell_angle_alpha 90.000000
_cell_angle_beta 58.590067
_cell_angle_gamma 90.000000
_cell_volume 3528.341514
_symmetry_space_group_name_H-M "C 2/M"
_symmetry_group_IT_number 12
_symmetry_cell_setting 'monoclinic'
loop_
_space_group_symop_operation_xyz
x,y,z
-x,y,-z
-x,-y,-z
x,-y,z
1/2+x,1/2+y,z
1/2-x,1/2+y,-z
1/2-x,1/2-y,-z
1/2+x,1/2-y,z
loop_
_atom_site_type_symbol
_atom_site_label
_atom_site_fract_x
_atom_site_fract_y
_atom_site_fract_z
Si Si1 0.366836 0.888326 0.085202
Si Si2 0.790451 0.610338 0.950915
Si Si3 0.717977 0.767004 0.678162
Si Si4 0.122662 0.891992 0.509856
Si Si5 0.453259 0.724196 0.963921
Si Si6 0.699932 0.289780 0.223298
Si Si7 0.500430 0.610451 0.650948
Si Si8 0.639878 0.612825 0.775746
O O1 0.331507 0.876969 0.008011
O O2 0.420736 0.824890 0.993940
O O3 0.382930 0.000000 0.086995
O O4 0.328807 0.849247 0.260969
O O5 0.789328 0.500000 0.902491
O O6 0.811630 0.679954 0.803844
O O7 0.729349 0.644340 0.069481
O O8 0.750000 0.750000 0.500000
O O9 0.761304 0.799608 0.714207
O O10 0.688539 0.668704 0.772131
O O11 0.143138 0.830535 0.354784
O O12 0.059989 0.891867 0.610577
O O13 0.142207 0.852067 0.620659
O O14 0.145274 0.000000 0.456246
O O15 0.471245 0.686171 0.792621
O O16 0.500000 0.742110 0.000000
O O17 0.416330 0.639466 0.076455
O O18 0.500000 0.647057 0.500000
O O19 0.476410 0.500000 0.695553
O O20 0.649393 0.500000 0.778509
#
# Coordination Sequence:
#
# PCOD8088370 Si02
#       8
#     8   8   8   8   8   8   8   8
#     4   9  21  38  56  77 105 144 184 223 267 318
#     4   9  19  36  54  76 104 144 184 216 266 320
#     4  10  19  33  51  80 111 139 177 218 265 317
#     4  10  19  32  53  79 108 141 176 217 273 333
#     4  11  21  36  60  82 107 141 184 233 273 323
#     4  10  19  32  56  77 108 142 178 225 261 320
#     4  10  22  37  55  84 115 143 176 221 282 339
#     4  10  20  33  52  79 110 142 175 215 271 332
#
# _framework density 18.138835
#
# number of rings (size 3 to 8) (size 9 to 14) (size 15 to 20)
#    0.000    2.125    2.500    0.750    1.750    2.250 
#    0.000    0.000    0.000    1.125    0.000    0.000 
#    0.000    0.000    0.000    0.000    0.000    0.000 
#
# Total GULP energy -396543.338525 kJ/mol
# GULP energy per Si atom -12391.979329 kJ/mol
# Density = 1.809755 g / cm^3
# Si number density = 18.138835 Si / 1000 Ang^3
#
#
#
# Elastic Constant Matrix: (Units=GPa)
#
#
# Indices 1 2 3 4 5 6 
#
# 1 35.5657 24.0297 15.3092 0.0000 -12.8723 0.0000
# 2 24.0297 122.5493 59.5333 0.0000 -8.9915 0.0000
# 3 15.3092 59.5333 112.9065 0.0000 -12.0192 0.0000
# 4 0.0000 0.0000 0.0000 28.2892 0.0000 1.9619
# 5 -12.8723 -8.9915 -12.0192 0.0000 21.0790 0.0000
# 6 0.0000 0.0000 0.0000 1.9619 0.0000 24.0952
#
#
#
# Elastic Compliance Matrix: (Units=1/GPa)
#
#
# Indices 1 2 3 4 5 6 
#
# 1 0.040312 -0.006415 0.000262 0.000000 0.022030 0.000000
# 2 -0.006415 0.012034 -0.005691 0.000000 -0.002030 0.000000
# 3 0.000262 -0.005691 0.012329 0.000000 0.004762 0.000000
# 4 0.000000 0.000000 0.000000 0.035550 0.000000 -0.002895
# 5 0.022030 -0.002030 0.004762 0.000000 0.062743 0.000000
# 6 0.000000 0.000000 0.000000 -0.002895 0.000000 0.041738
#
#
# Mechanical properties :
#
#
# Convention : Reuss Voigt Hill
#
# Bulk Modulus (GPa) = 24.39892 52.08509 38.24200
# Shear Modulus (GPa) = 20.65626 26.16931 23.41278
#
# Velocity S-wave (km/s) = 3.37825 3.80244 3.59660
# Velocity P-wave (km/s) = 5.35698 6.93218 6.19485
#
# Compressibility (1/GPa) = 0.04098542
#
# Stress axis : x y z
#
# Youngs Moduli (GPa) = 24.80649 83.09929 81.10763
#
# Poissons Ratio (x) = 0.53310 -0.02123
# Poissons Ratio (y) = 0.15914 0.46161
# Poissons Ratio (z) = -0.00649 0.47295
#
# Static dielectric constant tensor:
#      x y z
#    x 3.329670 0.000000 -0.103130 
#    y 0.000000 3.385500 0.000000 
#    z -0.103130 0.000000 3.109660 
# 
# 
# High freq. dielectric constant tensor:
#      x y z
#    x 1.698320 0.000000 -0.005430 
#    y 0.000000 1.695900 0.000000 
#    z -0.005430 0.000000 1.701230 
# 
# From -- ./inp_files/111608.got.cif
#   From: 2010.06.25/outbox.cif.g09.slc.cpg/sg12_56_cif.got.tgz:111608.got - 2010.06.28 00:19:55.
