data_PCOD8088922
_publ_section_title
;
Structure prediction by ZEFSAII (Michael W. Deem and Ramdas Pophale) SiO2 
 PCOD8088922
Probable space group: C 2/M
;
_chemical_formula_sum "Si O2"
_cell_formula_units_Z 32
_cell_length_a 20.708715
_cell_length_b 8.921103
_cell_length_c 25.396669
_cell_angle_alpha 90.000000
_cell_angle_beta 22.026830
_cell_angle_gamma 90.000000
_cell_volume 1759.652435
_symmetry_space_group_name_H-M "C 2/M"
_symmetry_group_IT_number 12
_symmetry_cell_setting 'monoclinic'
loop_
_space_group_symop_operation_xyz
x,y,z
-x,y,-z
-x,-y,-z
x,-y,z
1/2+x,1/2+y,z
1/2-x,1/2+y,-z
1/2-x,1/2-y,-z
1/2+x,1/2-y,z
loop_
_atom_site_type_symbol
_atom_site_label
_atom_site_fract_x
_atom_site_fract_y
_atom_site_fract_z
Si Si1 0.235102 0.175682 0.849579
Si Si2 0.926017 0.325868 0.128420
Si Si3 0.155511 0.826812 0.419098
Si Si4 0.126754 0.325671 0.551572
O O1 0.195379 0.255220 0.824414
O O2 0.431344 0.209284 0.716598
O O3 0.199237 0.000000 0.870592
O O4 0.111540 0.243775 0.988324
O O5 0.951753 0.500000 0.096039
O O6 0.836353 0.303221 0.252488
O O7 0.165394 0.732345 0.464270
O O8 0.000000 0.768197 0.500000
O O9 0.123892 0.000000 0.457529
O O10 0.165501 0.500000 0.522575
O O11 0.250000 0.250000 0.500000
#
# Coordination Sequence:
#
# PCOD8088922 Si02
#       4
#     8   8   8   8
#     4  10  20  34  53  81 114 146 182 229 278 327
#     4  10  19  32  56  85 111 145 183 226 277 328
#     4  10  20  36  58  85 115 145 185 234 277 327
#     4  11  24  39  58  82 113 152 189 230 281 335
#
# _framework density 18.185409
#
# number of rings (size 3 to 8) (size 9 to 14) (size 15 to 20)
#    0.000    1.750    2.500    3.750    0.000    5.500 
#    0.000    1.250    0.000    0.000    0.000    0.000 
#    0.000    0.000    0.000    0.000    0.000    0.000 
#
# Total GULP energy -198425.534609 kJ/mol
# GULP energy per Si atom -12401.595913 kJ/mol
# Density = 1.814402 g / cm^3
# Si number density = 18.185409 Si / 1000 Ang^3
#
#
#
# Elastic Constant Matrix: (Units=GPa)
#
#
# Indices 1 2 3 4 5 6 
#
# 1 118.7485 64.8071 74.2354 0.0013 -7.4664 0.0002
# 2 64.8071 120.2564 73.4129 -0.0035 -4.8075 0.0007
# 3 74.2354 73.4129 133.0087 -0.0171 -1.2403 -0.0004
# 4 0.0013 -0.0035 -0.0171 33.1448 0.0013 0.7100
# 5 -7.4664 -4.8075 -1.2403 0.0013 25.7153 -0.0001
# 6 0.0002 0.0007 -0.0004 0.7100 -0.0001 31.6800
#
#
#
# Elastic Compliance Matrix: (Units=1/GPa)
#
#
# Indices 1 2 3 4 5 6 
#
# 1 0.014495 -0.004170 -0.005759 -0.000004 0.003151 0.000000
# 2 -0.004170 0.013846 -0.005304 -0.000001 0.001122 0.000000
# 3 -0.005759 -0.005304 0.013642 0.000007 -0.002006 0.000000
# 4 -0.000004 -0.000001 0.000007 0.030185 -0.000003 -0.000677
# 5 0.003151 0.001122 -0.002006 -0.000003 0.039915 0.000000
# 6 0.000000 0.000000 0.000000 -0.000677 0.000000 0.031581
#
#
# Mechanical properties :
#
#
# Convention : Reuss Voigt Hill
#
# Bulk Modulus (GPa) = 86.83641 88.54713 87.69177
# Shear Modulus (GPa) = 28.09471 28.74525 28.41998
#
# Velocity S-wave (km/s) = 3.93479 3.98009 3.95750
# Velocity P-wave (km/s) = 8.27633 8.36173 8.31914
#
# Compressibility (1/GPa) = 0.01151591
#
# Stress axis : x y z
#
# Youngs Moduli (GPa) = 68.98720 72.22497 73.30471
#
# Poissons Ratio (x) = 0.30116 0.42219
# Poissons Ratio (y) = 0.28766 0.38883
# Poissons Ratio (z) = 0.39732 0.38310
#
# Static dielectric constant tensor:
#      x y z
#    x 3.784090 -0.000030 -0.024880 
#    y -0.000030 3.485920 0.000020 
#    z -0.024880 0.000020 3.676560 
# 
# 
# High freq. dielectric constant tensor:
#      x y z
#    x 1.673540 0.000000 0.008920 
#    y 0.000000 1.719230 0.000000 
#    z 0.008920 0.000000 1.722260 
# 
# From -- ./inp_files/151056.got.cif
#   From: 2010.06.25/outbox.cif.g09.slc.cpg/sg12_76_cif.got.tgz:151056.got - 2010.06.28 00:19:55.
