data_PCOD8088389
_publ_section_title
;
Structure prediction by ZEFSAII (Michael W. Deem and Ramdas Pophale) SiO2 
 PCOD8088389
Probable space group: C 2/M
;
_chemical_formula_sum "Si O2"
_cell_formula_units_Z 64
_cell_length_a 20.713110
_cell_length_b 9.417675
_cell_length_c 24.414627
_cell_angle_alpha 90.000000
_cell_angle_beta 132.061649
_cell_angle_gamma 90.000000
_cell_volume 3535.829834
_symmetry_space_group_name_H-M "C 2/M"
_symmetry_group_IT_number 12
_symmetry_cell_setting 'monoclinic'
loop_
_space_group_symop_operation_xyz
x,y,z
-x,y,-z
-x,-y,-z
x,-y,z
1/2+x,1/2+y,z
1/2-x,1/2+y,-z
1/2-x,1/2-y,-z
1/2+x,1/2-y,z
loop_
_atom_site_type_symbol
_atom_site_label
_atom_site_fract_x
_atom_site_fract_y
_atom_site_fract_z
Si Si1 0.561444 0.665936 0.287291
Si Si2 0.574742 0.165190 0.583511
Si Si3 0.353874 0.157294 0.812424
Si Si4 0.199727 0.163996 0.015832
Si Si5 0.767787 0.164523 0.672803
Si Si6 0.761071 0.156619 0.149497
Si Si7 0.994349 0.163484 0.132323
Si Si8 0.562103 0.332196 0.689577
O O1 0.550464 0.500000 0.287352
O O2 0.664259 0.707822 0.337619
O O3 0.505966 0.714698 0.202238
O O4 0.519097 0.727052 0.319400
O O5 0.500000 0.216655 0.500000
O O6 0.666010 0.192232 0.602774
O O7 0.564816 0.252500 0.633515
O O8 0.564960 0.000000 0.593067
O O9 0.287484 0.242506 0.736804
O O10 0.313530 0.143541 0.848610
O O11 0.443772 0.241106 0.869992
O O12 0.369880 0.000000 0.796790
O O13 0.227565 0.223833 0.089866
O O14 0.225378 0.000000 0.028180
O O15 0.250000 0.250000 0.000000
O O16 0.099664 0.188714 0.945422
O O17 0.784479 0.000000 0.696772
O O18 0.851555 0.205154 0.227449
O O19 0.773146 0.000000 0.128352
O O20 0.023022 0.000000 0.143893
O O21 0.556272 0.500000 0.674023
#
# Coordination Sequence:
#
# PCOD8088389 Si02
#       8
#     8   8   8   8   8   8   8   8
#     4   8  15  30  55  78  98 136 181 220 261 308
#     4  10  21  36  55  80 111 144 176 218 271 325
#     4  10  19  32  53  80 106 135 175 225 274 316
#     4  11  23  37  54  75 104 143 185 229 276 327
#     4   9  17  33  55  77 106 143 182 218 262 329
#     4  10  21  35  52  76 108 141 175 224 279 326
#     4   9  19  36  54  74 105 144 183 219 266 326
#     4  10  19  35  57  80 107 138 180 226 268 323
#
# _framework density 18.100418000000001
#
# number of rings (size 3 to 8) (size 9 to 14) (size 15 to 20)
#    0.000    2.375    1.250    2.250    0.000    5.250 
#    0.000    5.625    0.000    0.000    0.000    0.000 
#    0.000    0.000    0.000    0.000    0.000    0.000 
#
# Total GULP energy -396569.246002 kJ/mol
# GULP energy per Si atom -12392.788938 kJ/mol
# Density = 1.805922 g / cm^3
# Si number density = 18.100418 Si / 1000 Ang^3
#
#
#
# Elastic Constant Matrix: (Units=GPa)
#
#
# Indices 1 2 3 4 5 6 
#
# 1 134.0516 53.3816 65.1108 0.0000 6.7239 0.0000
# 2 53.3816 77.5541 50.6321 0.0000 14.2070 0.0000
# 3 65.1108 50.6321 105.4201 0.0000 18.7752 0.0000
# 4 0.0000 0.0000 0.0000 25.0378 0.0000 -3.6910
# 5 6.7239 14.2070 18.7752 0.0000 19.4631 0.0000
# 6 0.0000 0.0000 0.0000 -3.6910 0.0000 28.1257
#
#
#
# Elastic Compliance Matrix: (Units=1/GPa)
#
#
# Indices 1 2 3 4 5 6 
#
# 1 0.012271 -0.005635 -0.005856 0.000000 0.005523 0.000000
# 2 -0.005635 0.021980 -0.005513 0.000000 -0.008780 0.000000
# 3 -0.005856 -0.005513 0.017718 0.000000 -0.011044 0.000000
# 4 0.000000 0.000000 0.000000 0.040728 0.000000 0.005345
# 5 0.005523 -0.008780 -0.011044 0.000000 0.066534 0.000000
# 6 0.000000 0.000000 0.000000 0.005345 0.000000 0.036256
#
#
# Mechanical properties :
#
#
# Convention : Reuss Voigt Hill
#
# Bulk Modulus (GPa) = 55.67698 72.80832 64.24265
# Shear Modulus (GPa) = 21.23305 24.38540 22.80922
#
# Velocity S-wave (km/s) = 3.42873 3.67444 3.55371
# Velocity P-wave (km/s) = 6.81922 7.63636 7.23933
#
# Compressibility (1/GPa) = 0.01796075
#
# Stress axis : x y z
#
# Youngs Moduli (GPa) = 81.49154 45.49535 56.44050
#
# Poissons Ratio (x) = 0.25636 0.33054
# Poissons Ratio (y) = 0.45919 0.31116
# Poissons Ratio (z) = 0.47725 0.25082
#
# Static dielectric constant tensor:
#      x y z
#    x 3.601820 0.000000 0.185030 
#    y 0.000000 -12.785900 0.000000 
#    z 0.185030 0.000000 3.133110 
# 
# 
# High freq. dielectric constant tensor:
#      x y z
#    x 1.714900 0.000000 0.012500 
#    y 0.000000 1.693420 0.000000 
#    z 0.012500 0.000000 1.679670 
# 
# From -- ./inp_files/346219.got.cif
#   From: 2010.06.25/outbox.cif.g09.slc.cpg/sg12_174_cif.got.tgz:346219.got - 2010.06.28 00:19:55.
