data_PCOD8088455
_publ_section_title
;
Structure prediction by ZEFSAII (Michael W. Deem and Ramdas Pophale) SiO2 
 PCOD8088455
Probable space group: C 2/M
;
_chemical_formula_sum "Si O2"
_cell_formula_units_Z 56
_cell_length_a 15.797957
_cell_length_b 9.227182
_cell_length_c 23.443382
_cell_angle_alpha 90.000000
_cell_angle_beta 53.096327
_cell_angle_gamma 90.000000
_cell_volume 2732.675971
_symmetry_space_group_name_H-M "C 2/M"
_symmetry_group_IT_number 12
_symmetry_cell_setting 'monoclinic'
loop_
_space_group_symop_operation_xyz
x,y,z
-x,y,-z
-x,-y,-z
x,-y,z
1/2+x,1/2+y,z
1/2-x,1/2+y,-z
1/2-x,1/2-y,-z
1/2+x,1/2-y,z
loop_
_atom_site_type_symbol
_atom_site_label
_atom_site_fract_x
_atom_site_fract_y
_atom_site_fract_z
Si Si1 0.315701 0.342686 0.015495
Si Si2 0.052801 0.831300 0.725521
Si Si3 0.891400 0.659462 0.079131
Si Si4 0.203543 0.673814 0.366784
Si Si5 0.836522 0.831606 0.503005
Si Si6 0.472606 0.658735 0.139379
Si Si7 0.550895 0.332800 0.346859
O O1 0.263283 0.500000 0.044456
O O2 0.430792 0.358157 0.942488
O O3 0.250000 0.250000 0.000000
O O4 0.313038 0.266004 0.077710
O O5 0.173588 0.776036 0.681888
O O6 0.995645 0.794291 0.809208
O O7 0.984582 0.765716 0.700727
O O8 0.057266 0.000000 0.710165
O O9 0.840728 0.500000 0.103646
O O10 0.899029 0.719747 0.140445
O O11 0.000000 0.651471 0.000000
O O12 0.190693 0.500000 0.374597
O O13 0.149711 0.749838 0.442712
O O14 0.146542 0.735241 0.332937
O O15 0.750000 0.750000 0.500000
O O16 0.949837 0.821576 0.428082
O O17 0.803109 0.000000 0.524804
O O18 0.415684 0.500000 0.166105
O O19 0.589282 0.500000 0.326657
#
# Coordination Sequence:
#
# PCOD8088455 Si02
#       7
#     8   8   8   8   8   8   8
#     4  10  19  32  53  81 110 140 179 224 271 323
#     4   9  19  39  60  78 114 156 189 228 282 341
#     4   9  17  31  52  76 103 133 170 218 266 313
#     4  11  22  38  59  86 115 148 190 237 285 335
#     4  11  21  36  60  86 114 149 190 236 287 337
#     4   9  18  35  58  78 103 145 185 217 267 334
#     4  10  21  39  59  82 114 153 190 232 284 338
#
# _framework density 20.492732
#
# number of rings (size 3 to 8) (size 9 to 14) (size 15 to 20)
#    0.000    2.143    1.429    2.143    0.000    5.143 
#    2.571    2.143    0.000    0.000    0.000    0.000 
#    0.000    0.000    0.000    0.000    0.000    0.000 
#
# Total GULP energy -347003.927674 kJ/mol
# GULP energy per Si atom -12392.997417 kJ/mol
# Density = 2.044609 g / cm^3
# Si number density = 20.492732 Si / 1000 Ang^3
#
#
#
# Elastic Constant Matrix: (Units=GPa)
#
#
# Indices 1 2 3 4 5 6 
#
# 1 138.0019 63.5394 25.0263 0.0000 42.1192 0.0001
# 2 63.5394 145.4232 23.6594 0.0000 26.1737 0.0003
# 3 25.0263 23.6594 56.6290 0.0000 36.6081 0.0000
# 4 0.0000 0.0000 0.0000 19.0522 0.0000 8.6354
# 5 42.1192 26.1737 36.6081 0.0000 38.0495 0.0000
# 6 0.0001 0.0003 0.0000 8.6354 0.0000 40.8592
#
#
#
# Elastic Compliance Matrix: (Units=1/GPa)
#
#
# Indices 1 2 3 4 5 6 
#
# 1 0.014013 -0.003683 0.009882 0.000000 -0.022486 0.000000
# 2 -0.003683 0.008823 -0.002039 0.000000 -0.000030 0.000000
# 3 0.009882 -0.002039 0.053721 0.000000 -0.061222 0.000000
# 4 0.000000 0.000000 0.000000 0.058048 0.000000 -0.012268
# 5 -0.022486 -0.000030 -0.061222 0.000000 0.110096 0.000000
# 6 0.000000 0.000000 0.000000 -0.012268 0.000000 0.027067
#
#
# Mechanical properties :
#
#
# Convention : Reuss Voigt Hill
#
# Bulk Modulus (GPa) = 11.78180 62.72270 37.25225
# Shear Modulus (GPa) = 17.13852 34.78078 25.95965
#
# Velocity S-wave (km/s) = 2.89506 4.12421 3.56304
# Velocity P-wave (km/s) = 4.11545 7.30428 5.92830
#
# Compressibility (1/GPa) = 0.08487669
#
# Stress axis : x y z
#
# Youngs Moduli (GPa) = 71.36284 113.34027 18.61474
#
# Poissons Ratio (x) = 0.41747 -0.18395
# Poissons Ratio (y) = 0.26285 0.03795
# Poissons Ratio (z) = -0.70522 0.23108
#
# Static dielectric constant tensor:
#      x y z
#    x 3.600570 0.000000 0.410710 
#    y 0.000000 3.919850 0.000000 
#    z 0.410710 0.000000 3.507800 
# 
# 
# High freq. dielectric constant tensor:
#      x y z
#    x 1.800370 0.000000 0.026170 
#    y 0.000000 1.796700 0.000000 
#    z 0.026170 0.000000 1.785160 
# 
# From -- ./inp_files/338484.got.cif
#   From: 2010.06.25/outbox.cif.g09.slc.cpg/sg12_170_cif.got.tgz:338484.got - 2010.06.28 00:19:55.
