data_PCOD8088851
_publ_section_title
;
Structure prediction by ZEFSAII (Michael W. Deem and Ramdas Pophale) SiO2 
 PCOD8088851
Probable space group: C 2/M
;
_chemical_formula_sum "Si O2"
_cell_formula_units_Z 48
_cell_length_a 14.750765
_cell_length_b 18.567193
_cell_length_c 9.427857
_cell_angle_alpha 90.000000
_cell_angle_beta 62.601185
_cell_angle_gamma 90.000000
_cell_volume 2292.456508
_symmetry_space_group_name_H-M "C 2/M"
_symmetry_group_IT_number 12
_symmetry_cell_setting 'monoclinic'
loop_
_space_group_symop_operation_xyz
x,y,z
-x,y,-z
-x,-y,-z
x,-y,z
1/2+x,1/2+y,z
1/2-x,1/2+y,-z
1/2-x,1/2-y,-z
1/2+x,1/2-y,z
loop_
_atom_site_type_symbol
_atom_site_label
_atom_site_fract_x
_atom_site_fract_y
_atom_site_fract_z
Si Si1 0.320517 0.082168 0.754665
Si Si2 0.216411 0.677323 0.652846
Si Si3 0.270305 0.915148 0.106740
Si Si4 0.657813 0.581257 0.653981
Si Si5 0.890271 0.285836 0.537162
Si Si6 0.044208 0.915853 0.320615
O O1 0.204698 0.087879 0.777259
O O2 0.391553 0.136774 0.616340
O O3 0.361134 0.000000 0.706283
O O4 0.317878 0.104160 0.920881
O O5 0.169798 0.629996 0.815180
O O6 0.282604 0.628427 0.501392
O O7 0.121614 0.707078 0.626370
O O8 0.291410 0.739935 0.659478
O O9 0.154320 0.884366 0.200100
O O10 0.279683 0.000000 0.129654
O O11 0.666497 0.500000 0.589215
O O12 0.538271 0.603681 0.742789
O O13 0.000000 0.250182 0.500000
O O14 0.000000 0.884027 0.500000
O O15 0.061262 0.000000 0.323822
#
# Coordination Sequence:
#
# PCOD8088851 Si02
#       6
#     8   8   8   8   8   8
#     4   9  20  37  54  77 111 145 181 230 280 318
#     4  10  20  35  59  82 110 140 181 224 272 319
#     4  10  19  32  55  85 114 143 175 221 278 329
#     4   9  16  29  51  80 113 145 179 217 264 328
#     4  10  23  40  58  80 105 144 190 227 269 321
#     4   9  15  23  43  79 112 140 176 210 254 319
#
# _framework density 20.938238999999999
#
# number of rings (size 3 to 8) (size 9 to 14) (size 15 to 20)
#    0.000    2.500    1.667    0.500    2.333    2.333 
#    0.000    4.167    0.000    2.000    0.000    0.000 
#    0.000    0.000    0.000    0.000    0.000    0.000 
#
# Total GULP energy -297358.599416 kJ/mol
# GULP energy per Si atom -12389.941642 kJ/mol
# Density = 2.089058 g / cm^3
# Si number density = 20.938239 Si / 1000 Ang^3
#
#
#
# Elastic Constant Matrix: (Units=GPa)
#
#
# Indices 1 2 3 4 5 6 
#
# 1 99.1065 17.1583 17.1370 0.0000 19.6020 0.0000
# 2 17.1583 68.0593 31.0661 0.0000 16.3835 0.0000
# 3 17.1370 31.0661 73.7723 0.0000 24.6624 0.0000
# 4 0.0000 0.0000 0.0000 18.9556 0.0000 10.4317
# 5 19.6020 16.3835 24.6624 0.0000 26.9669 0.0000
# 6 0.0000 0.0000 0.0000 10.4317 0.0000 22.8331
#
#
#
# Elastic Compliance Matrix: (Units=1/GPa)
#
#
# Indices 1 2 3 4 5 6 
#
# 1 0.011866 -0.001229 0.000569 0.000000 -0.008399 0.000000
# 2 -0.001229 0.018976 -0.005977 0.000000 -0.005168 0.000000
# 3 0.000569 -0.005977 0.021410 0.000000 -0.016363 0.000000
# 4 0.000000 0.000000 0.000000 0.070474 0.000000 -0.032197
# 5 -0.008399 -0.005168 -0.016363 0.000000 0.061292 0.000000
# 6 0.000000 0.000000 0.000000 -0.032197 0.000000 0.058506
#
#
# Mechanical properties :
#
#
# Convention : Reuss Voigt Hill
#
# Bulk Modulus (GPa) = 25.65680 41.29566 33.47623
# Shear Modulus (GPa) = 18.60181 25.45622 22.02902
#
# Velocity S-wave (km/s) = 2.98386 3.49058 3.24712
# Velocity P-wave (km/s) = 4.91441 6.00091 5.48463
#
# Compressibility (1/GPa) = 0.03897603
#
# Stress axis : x y z
#
# Youngs Moduli (GPa) = 84.27611 52.69943 46.70631
#
# Poissons Ratio (x) = 0.06479 -0.02658
# Poissons Ratio (y) = 0.10361 0.27918
# Poissons Ratio (z) = -0.04796 0.31501
#
# Static dielectric constant tensor:
#      x y z
#    x 4.050760 0.000000 0.446620 
#    y 0.000000 3.906520 0.000000 
#    z 0.446620 0.000000 3.494170 
# 
# 
# High freq. dielectric constant tensor:
#      x y z
#    x 1.811020 0.000000 0.030010 
#    y 0.000000 1.822940 0.000000 
#    z 0.030010 0.000000 1.775030 
# 
# From -- ./inp_files/63341.got.cif
#   From: 2010.06.25/outbox.cif.g09.slc.cpg/sg12_32_cif.got.tgz:63341.got - 2010.06.28 00:19:55.
