data_PCOD8088184
_publ_section_title
;
Structure prediction by ZEFSAII (Michael W. Deem and Ramdas Pophale) SiO2 
 PCOD8088184
Probable space group: C 2/M
;
_chemical_formula_sum "Si O2"
_cell_formula_units_Z 56
_cell_length_a 24.353329
_cell_length_b 8.953441
_cell_length_c 14.854026
_cell_angle_alpha 90.000000
_cell_angle_beta 58.971056
_cell_angle_gamma 90.000000
_cell_volume 2775.403858
_symmetry_space_group_name_H-M "C 2/M"
_symmetry_group_IT_number 12
_symmetry_cell_setting 'monoclinic'
loop_
_space_group_symop_operation_xyz
x,y,z
-x,y,-z
-x,-y,-z
x,-y,z
1/2+x,1/2+y,z
1/2-x,1/2+y,-z
1/2-x,1/2-y,-z
1/2+x,1/2-y,z
loop_
_atom_site_type_symbol
_atom_site_label
_atom_site_fract_x
_atom_site_fract_y
_atom_site_fract_z
Si Si1 0.435791 0.675569 0.816815
Si Si2 0.809659 0.675978 0.999795
Si Si3 0.732052 0.676279 0.419789
Si Si4 0.332899 0.825743 0.184038
Si Si5 0.516038 0.834574 0.389837
Si Si6 0.073183 0.175676 0.778786
Si Si7 0.378530 0.836235 0.427938
O O1 0.422590 0.500000 0.830530
O O2 0.441500 0.724851 0.707229
O O3 0.499103 0.718579 0.821537
O O4 0.376480 0.763314 0.906873
O O5 0.806438 0.500000 0.986025
O O6 0.807040 0.716798 0.107410
O O7 0.750000 0.750000 0.000000
O O8 0.727072 0.500000 0.431351
O O9 0.750000 0.750000 0.500000
O O10 0.777663 0.725452 0.299808
O O11 0.661243 0.745972 0.462049
O O12 0.400198 0.739569 0.148547
O O13 0.348243 0.000000 0.178475
O O14 0.500000 0.760770 0.500000
O O15 0.450075 0.858263 0.396216
O O16 0.548417 0.000000 0.374177
O O17 0.121991 0.246301 0.665190
O O18 0.081105 0.000000 0.769607
O O19 0.347344 0.000000 0.436047
#
# Coordination Sequence:
#
# PCOD8088184 Si02
#       7
#     8   8   8   8   8   8   8
#     4  10  22  40  62  90 122 158 198 249 306 359
#     4  11  25  46  67  88 117 159 205 254 304 358
#     4  11  21  34  54  83 118 155 193 237 293 355
#     4  10  23  40  60  87 121 159 202 249 303 361
#     4   9  19  36  58  86 118 155 201 247 294 353
#     4  10  20  35  59  89 120 153 194 241 296 358
#     4  10  19  32  52  80 118 157 191 237 293 349
#
# _framework density 20.177244999999999
#
# number of rings (size 3 to 8) (size 9 to 14) (size 15 to 20)
#    0.000    1.857    1.429    2.143    0.000    6.000 
#    0.000    5.714    0.000    0.000    0.000    0.000 
#    0.000    0.000    0.000    0.000    0.000    0.000 
#
# Total GULP energy -347048.511035 kJ/mol
# GULP energy per Si atom -12394.589680 kJ/mol
# Density = 2.013132 g / cm^3
# Si number density = 20.177245 Si / 1000 Ang^3
#
#
#
# Elastic Constant Matrix: (Units=GPa)
#
#
# Indices 1 2 3 4 5 6 
#
# 1 97.9937 62.2269 70.3469 0.0000 4.3058 0.0000
# 2 62.2269 103.0108 65.5342 0.0000 0.1710 0.0001
# 3 70.3469 65.5342 142.1681 0.0000 2.2189 0.0000
# 4 0.0000 0.0000 0.0000 26.2664 0.0000 -1.5510
# 5 4.3058 0.1710 2.2189 0.0000 31.1911 0.0000
# 6 0.0000 0.0001 0.0000 -1.5510 0.0000 32.3499
#
#
#
# Elastic Compliance Matrix: (Units=1/GPa)
#
#
# Indices 1 2 3 4 5 6 
#
# 1 0.019770 -0.008119 -0.006005 0.000000 -0.002257 0.000000
# 2 -0.008119 0.017074 -0.003874 0.000000 0.001303 0.000000
# 3 -0.006005 -0.003874 0.011791 0.000000 0.000011 0.000000
# 4 0.000000 0.000000 0.000000 0.038180 0.000000 0.001831
# 5 -0.002257 0.001303 0.000011 0.000000 0.032364 0.000000
# 6 0.000000 0.000000 0.000000 0.001831 0.000000 0.031000
#
#
# Mechanical properties :
#
#
# Convention : Reuss Voigt Hill
#
# Bulk Modulus (GPa) = 79.11082 82.15426 80.63254
# Shear Modulus (GPa) = 26.26234 27.63247 26.94740
#
# Velocity S-wave (km/s) = 3.61166 3.70467 3.65846
# Velocity P-wave (km/s) = 7.52895 7.68792 7.60885
#
# Compressibility (1/GPa) = 0.01264050
#
# Stress axis : x y z
#
# Youngs Moduli (GPa) = 50.58130 58.56744 84.81292
#
# Poissons Ratio (x) = 0.47550 0.50929
# Poissons Ratio (y) = 0.41066 0.32854
# Poissons Ratio (z) = 0.30373 0.22687
#
# Static dielectric constant tensor:
#      x y z
#    x 3.902350 0.000000 -0.078500 
#    y 0.000000 4.000890 0.000000 
#    z -0.078500 0.000000 3.960320 
# 
# 
# High freq. dielectric constant tensor:
#      x y z
#    x 1.788110 0.000000 -0.004750 
#    y 0.000000 1.794460 0.000000 
#    z -0.004750 0.000000 1.781660 
# 
# From -- ./inp_files/238257.got.cif
#   From: 2010.06.25/outbox.cif.g09.slc.cpg/sg12_120_cif.got.tgz:238257.got - 2010.06.28 00:19:55.
