data_PCOD8088225
_publ_section_title
;
Structure prediction by ZEFSAII (Michael W. Deem and Ramdas Pophale) SiO2 
 PCOD8088225
Probable space group: C 2/M
;
_chemical_formula_sum "Si O2"
_cell_formula_units_Z 64
_cell_length_a 15.050355
_cell_length_b 24.939816
_cell_length_c 17.542422
_cell_angle_alpha 90.000000
_cell_angle_beta 148.802823
_cell_angle_gamma 90.000000
_cell_volume 3410.724281
_symmetry_space_group_name_H-M "C 2/M"
_symmetry_group_IT_number 12
_symmetry_cell_setting 'monoclinic'
loop_
_space_group_symop_operation_xyz
x,y,z
-x,y,-z
-x,-y,-z
x,-y,z
1/2+x,1/2+y,z
1/2-x,1/2+y,-z
1/2-x,1/2-y,-z
1/2+x,1/2-y,z
loop_
_atom_site_type_symbol
_atom_site_label
_atom_site_fract_x
_atom_site_fract_y
_atom_site_fract_z
Si Si1 0.601801 0.756884 0.329626
Si Si2 0.669771 0.674401 0.167757
Si Si3 0.808163 0.221569 0.332548
Si Si4 0.360751 0.144389 0.170385
Si Si5 0.641183 0.062248 0.325719
Si Si6 0.522882 0.561841 0.332390
Si Si7 0.978821 0.148800 0.174672
Si Si8 0.829182 0.896095 0.325269
O O1 0.750000 0.750000 0.500000
O O2 0.679591 0.778400 0.308681
O O3 0.465743 0.800826 0.255711
O O4 0.506118 0.700303 0.248434
O O5 0.773824 0.729482 0.251440
O O6 0.778600 0.633803 0.194146
O O7 0.624560 0.647241 0.215490
O O8 0.500000 0.692153 0.000000
O O9 0.779818 0.165123 0.268594
O O10 0.000000 0.228309 0.500000
O O11 0.476279 0.094067 0.233542
O O12 0.212153 0.151082 0.998778
O O13 0.801657 0.078497 0.496489
O O14 0.680113 0.075945 0.265728
O O15 0.597661 0.000000 0.300788
O O16 0.523784 0.500000 0.309431
O O17 0.503905 0.595234 0.241516
O O18 0.361353 0.572478 0.270076
O O19 0.000000 0.897454 0.500000
#
# Coordination Sequence:
#
# PCOD8088225 Si02
#       8
#     8   8   8   8   8   8   8   8
#     4  11  21  34  57  85 114 147 186 230 279 332
#     4   9  21  39  55  76 112 149 185 227 279 335
#     4  10  19  32  52  85 114 146 183 222 273 334
#     4  11  21  38  58  82 113 147 187 234 280 335
#     4  10  20  37  60  85 112 147 191 234 275 330
#     4  10  21  38  60  84 112 149 190 234 280 328
#     4  10  23  38  57  82 111 149 189 231 284 333
#     4   9  18  33  55  83 114 147 187 225 274 330
#
# _framework density 18.764343
#
# number of rings (size 3 to 8) (size 9 to 14) (size 15 to 20)
#    0.000    2.000    1.250    2.250    5.250    3.000 
#    0.000    1.250    0.000    5.250    0.000    0.000 
#    0.000    0.000    0.000    0.000    0.000    0.000 
#
# Total GULP energy -396802.028382 kJ/mol
# GULP energy per Si atom -12400.063387 kJ/mol
# Density = 1.872163 g / cm^3
# Si number density = 18.764343 Si / 1000 Ang^3
#
#
#
# Elastic Constant Matrix: (Units=GPa)
#
#
# Indices 1 2 3 4 5 6 
#
# 1 99.6997 61.4272 46.3347 0.0000 2.7239 0.0000
# 2 61.4272 112.0739 55.2106 0.0000 1.7115 0.0000
# 3 46.3347 55.2106 88.3052 0.0007 3.1953 0.0000
# 4 0.0000 0.0000 0.0007 32.7351 0.0003 3.9010
# 5 2.7239 1.7115 3.1953 0.0003 27.2763 0.0000
# 6 0.0000 0.0000 0.0000 3.9010 0.0000 30.4919
#
#
#
# Elastic Compliance Matrix: (Units=1/GPa)
#
#
# Indices 1 2 3 4 5 6 
#
# 1 0.016193 -0.006780 -0.004233 0.000000 -0.000696 0.000000
# 2 -0.006780 0.015733 -0.006295 0.000000 0.000427 0.000000
# 3 -0.004233 -0.006295 0.017526 0.000000 -0.001235 0.000000
# 4 0.000000 0.000000 0.000000 0.031021 0.000000 -0.003969
# 5 -0.000696 0.000427 -0.001235 0.000000 0.036849 0.000000
# 6 0.000000 0.000000 0.000000 -0.003969 0.000000 0.033303
#
#
# Mechanical properties :
#
#
# Convention : Reuss Voigt Hill
#
# Bulk Modulus (GPa) = 67.39648 69.55820 68.47734
# Shear Modulus (GPa) = 26.28999 27.24109 26.76554
#
# Velocity S-wave (km/s) = 3.74714 3.81431 3.78087
# Velocity P-wave (km/s) = 7.39707 7.51987 7.45872
#
# Compressibility (1/GPa) = 0.01483757
#
# Stress axis : x y z
#
# Youngs Moduli (GPa) = 61.75333 63.56050 57.05900
#
# Poissons Ratio (x) = 0.43092 0.24152
# Poissons Ratio (y) = 0.41867 0.35917
# Poissons Ratio (z) = 0.26139 0.40010
#
# Static dielectric constant tensor:
#      x y z
#    x 3.673620 0.000000 0.074840 
#    y 0.000000 3.380690 0.000000 
#    z 0.074840 0.000000 3.332700 
# 
# 
# High freq. dielectric constant tensor:
#      x y z
#    x 1.739950 0.000000 0.006570 
#    y 0.000000 1.722200 0.000000 
#    z 0.006570 0.000000 1.715700 
# 
# From -- ./inp_files/272868.got.cif
#   From: 2010.06.25/outbox.cif.g09.slc.cpg/sg12_137_cif.got.tgz:272868.got - 2010.06.28 00:19:55.
