data_PCOD8088717
_publ_section_title
;
Structure prediction by ZEFSAII (Michael W. Deem and Ramdas Pophale) SiO2 
 PCOD8088717
Probable space group: C 2/M
;
_chemical_formula_sum "Si O2"
_cell_formula_units_Z 64
_cell_length_a 20.301985
_cell_length_b 8.973190
_cell_length_c 33.626599
_cell_angle_alpha 90.000000
_cell_angle_beta 33.189143
_cell_angle_gamma 90.000000
_cell_volume 3353.333884
_symmetry_space_group_name_H-M "C 2/M"
_symmetry_group_IT_number 12
_symmetry_cell_setting 'monoclinic'
loop_
_space_group_symop_operation_xyz
x,y,z
-x,y,-z
-x,-y,-z
x,-y,z
1/2+x,1/2+y,z
1/2-x,1/2+y,-z
1/2-x,1/2-y,-z
1/2+x,1/2-y,z
loop_
_atom_site_type_symbol
_atom_site_label
_atom_site_fract_x
_atom_site_fract_y
_atom_site_fract_z
Si Si1 0.387778 0.826433 0.028325
Si Si2 0.420788 0.170153 0.282125
Si Si3 0.090289 0.671451 0.803028
Si Si4 0.667559 0.676158 0.276259
Si Si5 0.236238 0.327004 0.565833
Si Si6 0.627615 0.323378 0.047158
Si Si7 0.434441 0.173942 0.420317
Si Si8 0.154741 0.823826 0.193056
O O1 0.269442 0.766681 0.110470
O O2 0.376744 0.000000 0.022260
O O3 0.500000 0.798152 0.000000
O O4 0.406862 0.730942 0.979256
O O5 0.374694 0.191182 0.260730
O O6 0.312143 0.217307 0.366174
O O7 0.536344 0.271224 0.230545
O O8 0.458190 0.000000 0.272284
O O9 0.056689 0.500000 0.829651
O O10 0.203948 0.724140 0.771259
O O11 0.977642 0.775565 0.869713
O O12 0.650441 0.500000 0.286666
O O13 0.564030 0.749064 0.355251
O O14 0.660254 0.739388 0.235078
O O15 0.269702 0.500000 0.545444
O O16 0.356618 0.233389 0.496784
O O17 0.132716 0.283711 0.586673
O O18 0.642361 0.500000 0.040477
O O19 0.750000 0.250000 0.000000
O O20 0.453195 0.000000 0.415949
O O21 0.156490 0.000000 0.193997
#
# Coordination Sequence:
#
# PCOD8088717 Si02
#       8
#     8   8   8   8   8   8   8   8
#     4  10  21  39  61  85 116 150 188 237 292 349
#     4  10  20  36  57  82 109 141 183 234 281 326
#     4  10  22  40  61  83 112 150 190 233 285 343
#     4  10  20  36  57  83 114 149 185 223 277 341
#     4   9  18  33  53  80 112 144 183 230 278 328
#     4  12  25  41  61  85 115 154 198 242 289 345
#     4  10  19  32  54  83 113 146 184 229 276 325
#     4  10  20  33  55  83 109 141 181 226 277 334
#
# _framework density 19.085484999999998
#
# number of rings (size 3 to 8) (size 9 to 14) (size 15 to 20)
#    0.000    1.875    1.250    3.000    0.000    6.750 
#    0.000    1.875    0.000    3.750    0.000    0.000 
#    0.000    0.000    0.000    0.000    0.000    0.000 
#
# Total GULP energy -396942.715920 kJ/mol
# GULP energy per Si atom -12404.459872 kJ/mol
# Density = 1.904205 g / cm^3
# Si number density = 19.085485 Si / 1000 Ang^3
#
#
#
# Elastic Constant Matrix: (Units=GPa)
#
#
# Indices 1 2 3 4 5 6 
#
# 1 77.2025 28.4791 31.2737 0.0190 2.6468 0.0750
# 2 28.4791 63.6541 41.4312 0.0997 -2.0976 -0.1086
# 3 31.2737 41.4312 129.3683 -0.0047 5.8660 -0.0022
# 4 0.0190 0.0997 -0.0047 29.4644 0.0130 -6.0106
# 5 2.6468 -2.0976 5.8660 0.0130 29.4502 -0.0071
# 6 0.0750 -0.1086 -0.0022 -6.0106 -0.0071 22.0992
#
#
#
# Elastic Compliance Matrix: (Units=1/GPa)
#
#
# Indices 1 2 3 4 5 6 
#
# 1 0.015968 -0.005969 -0.001881 -0.000007 -0.001486 -0.000086
# 2 -0.005969 0.022294 -0.005846 -0.000050 0.003289 0.000117
# 3 -0.001881 -0.005846 0.010160 0.000020 -0.002271 -0.000017
# 4 -0.000007 -0.000050 0.000020 0.035933 -0.000020 0.009773
# 5 -0.001486 0.003289 -0.002271 -0.000020 0.034776 0.000027
# 6 -0.000086 0.000117 -0.000017 0.009773 0.000027 0.047909
#
#
# Mechanical properties :
#
#
# Convention : Reuss Voigt Hill
#
# Bulk Modulus (GPa) = 47.55169 52.51032 50.03101
# Shear Modulus (GPa) = 24.82105 27.47217 26.14661
#
# Velocity S-wave (km/s) = 3.61018 3.79809 3.70533
# Velocity P-wave (km/s) = 6.50746 6.84156 6.67660
#
# Compressibility (1/GPa) = 0.02102975
#
# Stress axis : x y z
#
# Youngs Moduli (GPa) = 62.62598 44.85489 98.42653
#
# Poissons Ratio (x) = 0.26773 0.18516
# Poissons Ratio (y) = 0.37380 0.57541
# Poissons Ratio (z) = 0.11781 0.26223
#
# Static dielectric constant tensor:
#      x y z
#    x 3.516600 0.000080 0.283200 
#    y 0.000080 3.398630 0.000130 
#    z 0.283200 0.000130 3.964270 
# 
# 
# High freq. dielectric constant tensor:
#      x y z
#    x 1.732740 0.000000 0.003860 
#    y 0.000000 1.732000 0.000000 
#    z 0.003860 0.000000 1.757170 
# 
# From -- ./inp_files/378125.got.cif
#   From: 2010.06.25/outbox.cif.g09.slc.cpg/sg12_190_cif.got.tgz:378125.got - 2010.06.28 00:19:55.
