data_PCOD8088456
_publ_section_title
;
Structure prediction by ZEFSAII (Michael W. Deem and Ramdas Pophale) SiO2 
 PCOD8088456
Probable space group: C 2/M
;
_chemical_formula_sum "Si O2"
_cell_formula_units_Z 64
_cell_length_a 14.565028
_cell_length_b 16.650507
_cell_length_c 23.996106
_cell_angle_alpha 90.000000
_cell_angle_beta 145.917691
_cell_angle_gamma 90.000000
_cell_volume 3261.104644
_symmetry_space_group_name_H-M "C 2/M"
_symmetry_group_IT_number 12
_symmetry_cell_setting 'monoclinic'
loop_
_space_group_symop_operation_xyz
x,y,z
-x,y,-z
-x,-y,-z
x,-y,z
1/2+x,1/2+y,z
1/2-x,1/2+y,-z
1/2-x,1/2-y,-z
1/2+x,1/2-y,z
loop_
_atom_site_type_symbol
_atom_site_label
_atom_site_fract_x
_atom_site_fract_y
_atom_site_fract_z
Si Si1 0.448467 0.911696 0.037153
Si Si2 0.561884 0.179102 0.798672
Si Si3 0.713030 0.592240 0.747786
Si Si4 0.606990 0.595209 0.001500
Si Si5 0.642630 0.686293 0.915604
Si Si6 0.619726 0.742885 0.513245
Si Si7 0.766043 0.908814 0.367532
Si Si8 0.975449 0.222549 0.658800
O O1 0.601288 0.872927 0.148938
O O2 0.416821 0.000000 0.046321
O O3 0.500000 0.915454 0.000000
O O4 0.275567 0.867389 0.950693
O O5 0.715723 0.131369 0.898686
O O6 0.527272 0.263245 0.815172
O O7 0.421951 0.113671 0.734398
O O8 0.573918 0.206423 0.740091
O O9 0.709132 0.500000 0.766487
O O10 0.657864 0.600056 0.655810
O O11 0.578855 0.640615 0.716418
O O12 0.611726 0.500000 0.998053
O O13 0.500000 0.623073 0.000000
O O14 0.540045 0.633672 0.909600
O O15 0.750000 0.750000 0.000000
O O16 0.500000 0.783158 0.500000
O O17 0.645863 0.649663 0.544218
O O18 0.795766 0.787738 0.597370
O O19 0.534911 0.748878 0.410705
O O20 0.785230 0.000000 0.399397
#
# Coordination Sequence:
#
# PCOD8088456 Si02
#       8
#     8   8   8   8   8   8   8   8
#     4  10  20  33  51  75 107 146 183 224 276 325
#     4  10  21  35  54  83 111 146 189 231 278 333
#     4  10  19  32  53  81 110 140 180 232 278 327
#     4  10  21  37  55  77 110 153 196 233 263 307
#     4  10  20  33  52  78 112 147 184 226 276 329
#     4  10  20  38  56  82 114 145 179 227 287 344
#     4  10  20  34  57  83 108 140 179 234 292 334
#     4  10  21  35  56  83 113 145 182 225 284 341
#
# _framework density 19.625253000000001
#
# number of rings (size 3 to 8) (size 9 to 14) (size 15 to 20)
#    0.000    2.000    1.250    3.000    0.000    6.750 
#    0.000    0.625    0.000    0.375    0.000    0.000 
#    0.000    0.000    0.000    0.000    0.000    0.000 
#
# Total GULP energy -396493.963552 kJ/mol
# GULP energy per Si atom -12390.436361 kJ/mol
# Density = 1.958059 g / cm^3
# Si number density = 19.625253 Si / 1000 Ang^3
#
#
#
# Elastic Constant Matrix: (Units=GPa)
#
#
# Indices 1 2 3 4 5 6 
#
# 1 88.4328 22.0751 -5.5537 -0.0001 -5.0619 0.0000
# 2 22.0751 63.9193 0.3575 -0.0001 -4.1272 0.0000
# 3 -5.5537 0.3575 42.6165 -0.0002 -18.7390 0.0001
# 4 -0.0001 -0.0001 -0.0002 25.0636 0.0000 4.3108
# 5 -5.0619 -4.1272 -18.7390 0.0000 28.3413 0.0001
# 6 0.0000 0.0000 0.0001 4.3108 0.0001 27.5457
#
#
#
# Elastic Compliance Matrix: (Units=1/GPa)
#
#
# Indices 1 2 3 4 5 6 
#
# 1 0.012794 -0.004183 0.003439 0.000000 0.003950 0.000000
# 2 -0.004183 0.017207 0.000118 0.000000 0.001837 0.000000
# 3 0.003439 0.000118 0.034106 0.000000 0.023182 0.000000
# 4 0.000000 0.000000 0.000000 0.041002 0.000000 -0.006417
# 5 0.003950 0.001837 0.023182 0.000000 0.051585 0.000000
# 6 0.000000 0.000000 0.000000 -0.006417 0.000000 0.037307
#
#
# Mechanical properties :
#
#
# Convention : Reuss Voigt Hill
#
# Bulk Modulus (GPa) = 15.90922 25.41406 20.66164
# Shear Modulus (GPa) = 23.12626 28.06276 25.59451
#
# Velocity S-wave (km/s) = 3.43650 3.78555 3.61524
# Velocity P-wave (km/s) = 4.88571 5.66436 5.28938
#
# Compressibility (1/GPa) = 0.06285662
#
# Stress axis : x y z
#
# Youngs Moduli (GPa) = 78.16011 58.11510 29.32065
#
# Poissons Ratio (x) = 0.24308 -0.10084
# Poissons Ratio (y) = 0.32693 -0.00347
# Poissons Ratio (z) = -0.26882 -0.00687
#
# Static dielectric constant tensor:
#      x y z
#    x 4.291450 0.000000 -0.577990 
#    y 0.000000 4.019920 0.000000 
#    z -0.577990 0.000000 3.984730 
# 
# 
# High freq. dielectric constant tensor:
#      x y z
#    x 1.763270 0.000000 -0.011110 
#    y 0.000000 1.748400 0.000000 
#    z -0.011110 0.000000 1.768720 
# 
# From -- ./inp_files/340191.got.cif
#   From: 2010.06.25/outbox.cif.g09.slc.cpg/sg12_171_cif.got.tgz:340191.got - 2010.06.28 00:19:55.
