data_PCOD8088276
_publ_section_title
;
Structure prediction by ZEFSAII (Michael W. Deem and Ramdas Pophale) SiO2 
 PCOD8088276
Probable space group: C 2/M
;
_chemical_formula_sum "Si O2"
_cell_formula_units_Z 64
_cell_length_a 14.625561
_cell_length_b 9.206148
_cell_length_c 29.862121
_cell_angle_alpha 90.000000
_cell_angle_beta 60.066233
_cell_angle_gamma 90.000000
_cell_volume 3484.425900
_symmetry_space_group_name_H-M "C 2/M"
_symmetry_group_IT_number 12
_symmetry_cell_setting 'monoclinic'
loop_
_space_group_symop_operation_xyz
x,y,z
-x,y,-z
-x,-y,-z
x,-y,z
1/2+x,1/2+y,z
1/2-x,1/2+y,-z
1/2-x,1/2-y,-z
1/2+x,1/2-y,z
loop_
_atom_site_type_symbol
_atom_site_label
_atom_site_fract_x
_atom_site_fract_y
_atom_site_fract_z
Si Si1 0.459260 0.169476 0.371140
Si Si2 0.917073 0.829913 0.081174
Si Si3 0.409851 0.665974 0.249781
Si Si4 0.548323 0.169327 0.443177
Si Si5 0.168629 0.670949 0.812858
Si Si6 0.596761 0.332437 0.270265
Si Si7 0.779346 0.828569 0.366311
Si Si8 0.652489 0.330491 0.000512
O O1 0.469925 0.197900 0.421379
O O2 0.560145 0.234782 0.320807
O O3 0.352373 0.247984 0.383930
O O4 0.453606 0.000000 0.361021
O O5 0.859944 0.737777 0.132757
O O6 0.858361 0.789811 0.049168
O O7 0.904959 0.000000 0.094056
O O8 0.041037 0.787919 0.050506
O O9 0.398401 0.500000 0.236766
O O10 0.407352 0.767889 0.207147
O O11 0.521318 0.693242 0.246320
O O12 0.315569 0.708570 0.306949
O O13 0.500000 0.241888 0.500000
O O14 0.662730 0.234151 0.402977
O O15 0.565396 0.000000 0.447588
O O16 0.153885 0.500000 0.819307
O O17 0.287523 0.717040 0.772287
O O18 0.592690 0.500000 0.286483
O O19 0.790743 0.000000 0.371714
O O20 0.674095 0.500000 0.000946
O O21 0.750000 0.250000 0.000000
#
# Coordination Sequence:
#
# PCOD8088276 Si02
#       8
#     8   8   8   8   8   8   8   8
#     4  10  19  32  53  77  98 127 171 214 249 296
#     4   9  20  38  55  76 109 144 173 204 253 312
#     4   9  18  34  53  72  99 138 174 202 248 312
#     4   9  18  32  50  73 101 133 167 203 251 312
#     4  11  22  34  52  80 109 135 169 216 257 291
#     4   9  20  37  53  72 103 139 170 204 254 309
#     4   9  18  34  54  73  98 134 170 205 252 307
#     4   9  19  37  60  81 103 137 178 215 253 298
#
# _framework density 18.367445
#
# number of rings (size 3 to 8) (size 9 to 14) (size 15 to 20)
#    0.000    2.625    0.000    3.000    0.000    6.500 
#    0.000    6.250    0.000    2.625    0.000    0.000 
#    0.000    0.000    0.000    0.000    0.000    0.000 
#
# Total GULP energy -396791.006065 kJ/mol
# GULP energy per Si atom -12399.718940 kJ/mol
# Density = 1.832564 g / cm^3
# Si number density = 18.367445 Si / 1000 Ang^3
#
#
#
# Elastic Constant Matrix: (Units=GPa)
#
#
# Indices 1 2 3 4 5 6 
#
# 1 81.6875 28.8248 27.8909 0.0000 8.0777 0.0000
# 2 28.8248 52.1587 30.4450 0.0000 9.7950 0.0000
# 3 27.8909 30.4450 80.5376 0.0000 16.6946 0.0000
# 4 0.0000 0.0000 0.0000 24.0727 0.0000 1.8400
# 5 8.0777 9.7950 16.6946 0.0000 21.6210 0.0000
# 6 0.0000 0.0000 0.0000 1.8400 0.0000 31.3206
#
#
#
# Elastic Compliance Matrix: (Units=1/GPa)
#
#
# Indices 1 2 3 4 5 6 
#
# 1 0.015680 -0.006997 -0.002652 0.000000 -0.000640 0.000000
# 2 -0.006997 0.028134 -0.007277 0.000000 -0.004513 0.000000
# 3 -0.002652 -0.007277 0.018093 0.000000 -0.009683 0.000000
# 4 0.000000 0.000000 0.000000 0.041728 0.000000 -0.002451
# 5 -0.000640 -0.004513 -0.009683 0.000000 0.056012 0.000000
# 6 0.000000 0.000000 0.000000 -0.002451 0.000000 0.032072
#
#
# Mechanical properties :
#
#
# Convention : Reuss Voigt Hill
#
# Bulk Modulus (GPa) = 35.64440 43.18944 39.41692
# Shear Modulus (GPa) = 21.28373 23.88442 22.58408
#
# Velocity S-wave (km/s) = 3.40777 3.60997 3.51033
# Velocity P-wave (km/s) = 5.91035 6.39852 6.15927
#
# Compressibility (1/GPa) = 0.02805490
#
# Stress axis : x y z
#
# Youngs Moduli (GPa) = 63.77721 35.54448 55.26998
#
# Poissons Ratio (x) = 0.24869 0.14660
# Poissons Ratio (y) = 0.44623 0.40218
# Poissons Ratio (z) = 0.16916 0.25865
#
# Static dielectric constant tensor:
#      x y z
#    x 3.392200 0.000000 -0.072530 
#    y 0.000000 3.213010 0.000000 
#    z -0.072530 0.000000 3.446200 
# 
# 
# High freq. dielectric constant tensor:
#      x y z
#    x 1.719370 0.000000 0.001050 
#    y 0.000000 1.698110 0.000000 
#    z 0.001050 0.000000 1.711510 
# 
# From -- ./inp_files/375030.got.cif
#   From: 2010.06.25/outbox.cif.g09.slc.cpg/sg12_188_cif.got.tgz:375030.got - 2010.06.28 00:19:55.
