data_PCOD8088602
_publ_section_title
;
Structure prediction by ZEFSAII (Michael W. Deem and Ramdas Pophale) SiO2 
 PCOD8088602
Probable space group: C 2/M
;
_chemical_formula_sum "Si O2"
_cell_formula_units_Z 56
_cell_length_a 14.408509
_cell_length_b 9.320036
_cell_length_c 22.016700
_cell_angle_alpha 90.000000
_cell_angle_beta 106.268850
_cell_angle_gamma 90.000000
_cell_volume 2838.186771
_symmetry_space_group_name_H-M "C 2/M"
_symmetry_group_IT_number 12
_symmetry_cell_setting 'monoclinic'
loop_
_space_group_symop_operation_xyz
x,y,z
-x,y,-z
-x,-y,-z
x,-y,z
1/2+x,1/2+y,z
1/2-x,1/2+y,-z
1/2-x,1/2-y,-z
1/2+x,1/2-y,z
loop_
_atom_site_type_symbol
_atom_site_label
_atom_site_fract_x
_atom_site_fract_y
_atom_site_fract_z
Si Si1 0.346111 0.833493 0.499533
Si Si2 0.525326 0.662670 0.827263
Si Si3 0.607892 0.161785 0.948870
Si Si4 0.820611 0.838300 0.933694
Si Si5 0.042947 0.667348 0.600780
Si Si6 0.190894 0.836560 0.205258
Si Si7 0.132819 0.830184 0.726176
O O1 0.250000 0.750000 0.500000
O O2 0.380733 0.793240 0.438099
O O3 0.433690 0.795837 0.561008
O O4 0.320843 0.000000 0.498800
O O5 0.552739 0.500000 0.850287
O O6 0.537864 0.759083 0.888999
O O7 0.414881 0.672288 0.784448
O O8 0.590930 0.716084 0.783861
O O9 0.715276 0.165782 0.942875
O O10 0.570794 0.000000 0.950804
O O11 0.606086 0.240034 0.013978
O O12 0.814641 0.777256 0.864552
O O13 0.862244 0.000000 0.940456
O O14 0.052201 0.500000 0.619174
O O15 0.064750 0.765086 0.662357
O O16 0.260297 0.737112 0.258469
O O17 0.230298 0.000000 0.213001
O O18 0.137491 0.000000 0.718581
#
# Coordination Sequence:
#
# PCOD8088602 Si02
#       7
#     8   8   8   8   8   8   8
#     4   9  19  37  62  91 120 152 189 228 270 317
#     4  10  22  38  56  78 108 144 184 231 282 336
#     4  10  19  32  54  80 105 137 180 230 284 338
#     4   9  18  33  54  77 102 139 183 225 280 345
#     4   9  20  39  60  83 117 159 191 218 268 334
#     4  10  21  39  59  78 105 148 191 226 278 346
#     4  11  23  38  57  84 115 146 186 237 280 316
#
# _framework density 19.730906000000001
#
# number of rings (size 3 to 8) (size 9 to 14) (size 15 to 20)
#    0.000    2.286    1.429    1.714    0.000    5.143 
#    0.000    8.571    0.000    0.000    0.000    0.000 
#    0.000    0.000    0.000    0.000    0.000    0.000 
#
# Total GULP energy -347254.186175 kJ/mol
# GULP energy per Si atom -12401.935221 kJ/mol
# Density = 1.968600 g / cm^3
# Si number density = 19.730906 Si / 1000 Ang^3
#
#
#
# Elastic Constant Matrix: (Units=GPa)
#
#
# Indices 1 2 3 4 5 6 
#
# 1 73.4111 36.6747 27.6008 0.0000 14.3867 0.0000
# 2 36.6747 98.1146 62.8631 0.0000 11.3873 0.0000
# 3 27.6008 62.8631 105.8130 0.0000 14.8483 0.0000
# 4 0.0000 0.0000 0.0000 40.0876 0.0000 3.8912
# 5 14.3867 11.3873 14.8483 0.0000 19.1044 0.0000
# 6 0.0000 0.0000 0.0000 3.8912 0.0000 29.2718
#
#
#
# Elastic Compliance Matrix: (Units=1/GPa)
#
#
# Indices 1 2 3 4 5 6 
#
# 1 0.018542 -0.005740 0.000059 0.000000 -0.010588 0.000000
# 2 -0.005740 0.018338 -0.009507 0.000000 0.000781 0.000000
# 3 0.000059 -0.009507 0.016044 0.000000 -0.006848 0.000000
# 4 0.000000 0.000000 0.000000 0.025271 0.000000 -0.003359
# 5 -0.010588 0.000781 -0.006848 0.000000 0.065174 0.000000
# 6 0.000000 0.000000 0.000000 -0.003359 0.000000 0.034609
#
#
# Mechanical properties :
#
#
# Convention : Reuss Voigt Hill
#
# Bulk Modulus (GPa) = 44.34778 59.06844 51.70811
# Shear Modulus (GPa) = 23.16190 27.70609 25.43400
#
# Velocity S-wave (km/s) = 3.42992 3.75133 3.59422
# Velocity P-wave (km/s) = 6.18150 6.98321 6.59455
#
# Compressibility (1/GPa) = 0.02254904
#
# Stress axis : x y z
#
# Youngs Moduli (GPa) = 53.93083 54.53020 62.32773
#
# Poissons Ratio (x) = 0.31301 -0.00370
# Poissons Ratio (y) = 0.30957 0.59256
# Poissons Ratio (z) = -0.00320 0.51842
#
# Static dielectric constant tensor:
#      x y z
#    x 3.496060 0.000000 -0.003570 
#    y 0.000000 3.568450 0.000000 
#    z -0.003570 0.000000 3.489090 
# 
# 
# High freq. dielectric constant tensor:
#      x y z
#    x 1.769750 0.000000 0.004180 
#    y 0.000000 1.764910 0.000000 
#    z 0.004180 0.000000 1.763360 
# 
# From -- ./inp_files/338200.got.cif
#   From: 2010.06.25/outbox.cif.g09.slc.cpg/sg12_170_cif.got.tgz:338200.got - 2010.06.28 00:19:55.
