data_PCOD8088495
_publ_section_title
;
Structure prediction by ZEFSAII (Michael W. Deem and Ramdas Pophale) SiO2 
 PCOD8088495
Probable space group: C 2/M
;
_chemical_formula_sum "Si O2"
_cell_formula_units_Z 60
_cell_length_a 17.929608
_cell_length_b 9.160937
_cell_length_c 20.174759
_cell_angle_alpha 90.000000
_cell_angle_beta 102.299000
_cell_angle_gamma 90.000000
_cell_volume 3237.691917
_symmetry_space_group_name_H-M "C 2/M"
_symmetry_group_IT_number 12
_symmetry_cell_setting 'monoclinic'
loop_
_space_group_symop_operation_xyz
x,y,z
-x,y,-z
-x,-y,-z
x,-y,z
1/2+x,1/2+y,z
1/2-x,1/2+y,-z
1/2-x,1/2-y,-z
1/2+x,1/2-y,z
loop_
_atom_site_type_symbol
_atom_site_label
_atom_site_fract_x
_atom_site_fract_y
_atom_site_fract_z
Si Si1 0.171361 0.829260 0.998254
Si Si2 0.440559 0.333857 0.282744
Si Si3 0.000000 0.746356 0.500000
Si Si4 0.264754 0.827506 0.571339
Si Si5 0.436708 0.164391 0.931636
Si Si6 0.545654 0.668354 0.865086
Si Si7 0.633905 0.163321 0.617174
Si Si8 0.587610 0.340695 0.390382
O O1 0.118089 0.799830 0.924923
O O2 0.184748 0.000000 0.013112
O O3 0.250000 0.750000 0.000000
O O4 0.134760 0.760118 0.057519
O O5 0.411961 0.500000 0.289456
O O6 0.431108 0.287945 0.204746
O O7 0.392228 0.220892 0.316556
O O8 0.528875 0.320120 0.319429
O O9 0.935517 0.654010 0.449057
O O10 0.955757 0.840189 0.546862
O O11 0.250000 0.750000 0.500000
O O12 0.201490 0.771915 0.610095
O O13 0.350279 0.785395 0.609061
O O14 0.258418 0.000000 0.562627
O O15 0.472678 0.236232 0.872836
O O16 0.409360 0.000000 0.910234
O O17 0.500000 0.164136 0.000000
O O18 0.520796 0.500000 0.865067
O O19 0.666098 0.000000 0.631192
O O20 0.627170 0.500000 0.393336
#
# Coordination Sequence:
#
# PCOD8088495 Si02
#       8
#     8   8   4   8   8   8   8   8
#     4  10  19  32  53  82 114 145 180 223 269 315
#     4   9  20  38  58  80 107 141 180 221 267 322
#     4  10  20  32  56  78 108 132 172 218 268 314
#     4  12  24  37  55  78 106 137 172 218 273 323
#     4   9  17  30  51  79 108 138 176 221 264 310
#     4   9  18  35  57  79 108 145 181 219 266 319
#     4  11  22  36  55  80 109 139 178 222 270 322
#     4  10  20  35  56  80 106 135 173 217 268 321
#
# _framework density 18.53172
#
# number of rings (size 3 to 8) (size 9 to 14) (size 15 to 20)
#    0.000    2.000    1.333    2.800    0.000    5.867 
#    0.000    1.333    0.000    0.000    0.000    0.000 
#    0.000    0.000    0.000    0.000    0.000    0.000 
#
# Total GULP energy -371960.608665 kJ/mol
# GULP energy per Si atom -12398.686956 kJ/mol
# Density = 1.848954 g / cm^3
# Si number density = 18.531720 Si / 1000 Ang^3
#
#
#
# Elastic Constant Matrix: (Units=GPa)
#
#
# Indices 1 2 3 4 5 6 
#
# 1 111.4772 67.1502 33.9081 0.0000 -14.8187 0.0000
# 2 67.1502 153.8505 43.3534 0.0000 -12.9837 0.0000
# 3 33.9081 43.3534 88.0226 0.0000 -15.1981 0.0000
# 4 0.0000 0.0000 0.0000 20.9291 0.0000 -4.4062
# 5 -14.8187 -12.9837 -15.1981 0.0000 17.5070 0.0000
# 6 0.0000 0.0000 0.0000 -4.4062 0.0000 35.9632
#
#
#
# Elastic Compliance Matrix: (Units=1/GPa)
#
#
# Indices 1 2 3 4 5 6 
#
# 1 0.013161 -0.004755 -0.001662 0.000000 0.006170 0.000000
# 2 -0.004755 0.009383 -0.002686 0.000000 0.000602 0.000000
# 3 -0.001662 -0.002686 0.014983 0.000000 0.009608 0.000000
# 4 0.000000 0.000000 0.000000 0.049046 0.000000 0.006009
# 5 0.006170 0.000602 0.009608 0.000000 0.071130 0.000000
# 6 0.000000 0.000000 0.000000 0.006009 0.000000 0.028542
#
#
# Mechanical properties :
#
#
# Convention : Reuss Voigt Hill
#
# Bulk Modulus (GPa) = 51.75930 71.35263 61.55596
# Shear Modulus (GPa) = 23.70904 28.80911 26.25907
#
# Velocity S-wave (km/s) = 3.58072 3.94710 3.76836
# Velocity P-wave (km/s) = 6.71462 7.70450 7.22653
#
# Compressibility (1/GPa) = 0.01932020
#
# Stress axis : x y z
#
# Youngs Moduli (GPa) = 75.98490 106.57840 66.74338
#
# Poissons Ratio (x) = 0.50677 0.11096
# Poissons Ratio (y) = 0.36130 0.17924
# Poissons Ratio (z) = 0.12632 0.28622
#
# Static dielectric constant tensor:
#      x y z
#    x 3.323400 0.000000 -0.083490 
#    y 0.000000 3.512230 0.000000 
#    z -0.083490 0.000000 3.307340 
# 
# 
# High freq. dielectric constant tensor:
#      x y z
#    x 1.716430 0.000000 -0.012600 
#    y 0.000000 1.727090 0.000000 
#    z -0.012600 0.000000 1.697890 
# 
# From -- ./inp_files/314233.got.cif
#   From: 2010.06.25/outbox.cif.g09.slc.cpg/sg12_158_cif.got.tgz:314233.got - 2010.06.28 00:19:55.
