data_PCOD8088466
_publ_section_title
;
Structure prediction by ZEFSAII (Michael W. Deem and Ramdas Pophale) SiO2 
 PCOD8088466
Probable space group: C 2/M
;
_chemical_formula_sum "Si O2"
_cell_formula_units_Z 56
_cell_length_a 29.896277
_cell_length_b 8.606686
_cell_length_c 11.832769
_cell_angle_alpha 90.000000
_cell_angle_beta 70.553855
_cell_angle_gamma 90.000000
_cell_volume 2870.981181
_symmetry_space_group_name_H-M "C 2/M"
_symmetry_group_IT_number 12
_symmetry_cell_setting 'monoclinic'
loop_
_space_group_symop_operation_xyz
x,y,z
-x,y,-z
-x,-y,-z
x,-y,z
1/2+x,1/2+y,z
1/2-x,1/2+y,-z
1/2-x,1/2-y,-z
1/2+x,1/2-y,z
loop_
_atom_site_type_symbol
_atom_site_label
_atom_site_fract_x
_atom_site_fract_y
_atom_site_fract_z
Si Si1 0.648627 0.181335 0.632859
Si Si2 0.065452 0.184076 0.847380
Si Si3 0.770446 0.817243 0.295637
Si Si4 0.166033 0.183137 0.388169
Si Si5 0.462458 0.683973 0.881598
Si Si6 0.379411 0.684537 0.803929
Si Si7 0.294381 0.317099 0.026321
O O1 0.609443 0.227237 0.756941
O O2 0.701081 0.226977 0.631329
O O3 0.638084 0.272764 0.525433
O O4 0.647049 0.000000 0.609351
O O5 0.017136 0.236652 0.823154
O O6 0.074412 0.000000 0.830757
O O7 0.060690 0.240016 0.980961
O O8 0.715750 0.771438 0.343543
O O9 0.793820 0.766578 0.157227
O O10 0.775305 0.000000 0.313295
O O11 0.133745 0.242910 0.310462
O O12 0.175236 0.000000 0.372653
O O13 0.461968 0.500000 0.886849
O O14 0.431079 0.746407 0.802142
O O15 0.379469 0.500000 0.805140
O O16 0.341435 0.748220 0.926681
O O17 0.291650 0.500000 0.017633
O O18 0.250000 0.250000 0.000000
#
# Coordination Sequence:
#
# PCOD8088466 Si02
#       7
#     8   8   8   8   8   8   8
#     4  12  25  39  55  76 108 146 188 232 275 327
#     4   9  17  34  61  88 112 138 176 223 273 327
#     4  11  22  37  58  82 110 144 184 229 276 326
#     4  11  22  37  56  77 109 148 188 230 270 324
#     4   8  15  31  59  90 114 138 172 220 274 329
#     4   9  17  31  53  82 113 144 178 219 267 320
#     4  10  19  32  53  81 113 143 174 217 264 317
#
# _framework density 19.505527000000001
#
# number of rings (size 3 to 8) (size 9 to 14) (size 15 to 20)
#    0.000    2.000    1.429    4.286    0.000    2.857 
#    0.000    2.143    0.000    7.714    0.000    0.000 
#    0.000    0.000    0.000    0.000    0.000    0.000 
#
# Total GULP energy -347150.096529 kJ/mol
# GULP energy per Si atom -12398.217733 kJ/mol
# Density = 1.946113 g / cm^3
# Si number density = 19.505527 Si / 1000 Ang^3
#
#
#
# Elastic Constant Matrix: (Units=GPa)
#
#
# Indices 1 2 3 4 5 6 
#
# 1 133.7886 9.9355 34.9581 0.0000 18.8818 0.0000
# 2 9.9355 28.7004 17.3123 0.0000 3.2006 0.0000
# 3 34.9581 17.3123 79.3325 0.0000 16.5109 0.0000
# 4 0.0000 0.0000 0.0000 21.3422 0.0000 -4.1962
# 5 18.8818 3.2006 16.5109 0.0000 29.5466 0.0000
# 6 0.0000 0.0000 0.0000 -4.1962 0.0000 21.5694
#
#
#
# Elastic Compliance Matrix: (Units=1/GPa)
#
#
# Indices 1 2 3 4 5 6 
#
# 1 0.008851 -0.000883 -0.002886 0.000000 -0.003948 0.000000
# 2 -0.000883 0.040223 -0.008599 0.000000 0.001013 0.000000
# 3 -0.002886 -0.008599 0.017173 0.000000 -0.006821 0.000000
# 4 0.000000 0.000000 0.000000 0.048719 0.000000 0.009478
# 5 -0.003948 0.001013 -0.006821 0.000000 0.040070 0.000000
# 6 0.000000 0.000000 0.000000 0.009478 0.000000 0.048206
#
#
# Mechanical properties :
#
#
# Convention : Reuss Voigt Hill
#
# Bulk Modulus (GPa) = 24.09027 40.69260 32.39143
# Shear Modulus (GPa) = 20.67697 26.46600 23.57149
#
# Velocity S-wave (km/s) = 3.25938 3.68754 3.48005
# Velocity P-wave (km/s) = 5.15190 6.24803 5.72626
#
# Compressibility (1/GPa) = 0.04151054
#
# Stress axis : x y z
#
# Youngs Moduli (GPa) = 112.97720 24.86161 58.23094
#
# Poissons Ratio (x) = 0.02195 0.16805
# Poissons Ratio (y) = 0.09976 0.50074
# Poissons Ratio (z) = 0.32605 0.21379
#
# Static dielectric constant tensor:
#      x y z
#    x 4.004580 0.000000 0.314430 
#    y 0.000000 3.253420 0.000000 
#    z 0.314430 0.000000 3.957590 
# 
# 
# High freq. dielectric constant tensor:
#      x y z
#    x 1.766720 0.000000 0.008890 
#    y 0.000000 1.727820 0.000000 
#    z 0.008890 0.000000 1.758690 
# 
# From -- ./inp_files/186451.got.cif
#   From: 2010.06.25/outbox.cif.g09.slc.cpg/sg12_94_cif.got.tgz:186451.got - 2010.06.28 00:19:55.
