data_PCOD8088868
_publ_section_title
;
Structure prediction by ZEFSAII (Michael W. Deem and Ramdas Pophale) SiO2 
 PCOD8088868
Probable space group: C 2/M
;
_chemical_formula_sum "Si O2"
_cell_formula_units_Z 64
_cell_length_a 23.405948
_cell_length_b 18.804193
_cell_length_c 19.404117
_cell_angle_alpha 90.000000
_cell_angle_beta 157.840605
_cell_angle_gamma 90.000000
_cell_volume 3221.281655
_symmetry_space_group_name_H-M "C 2/M"
_symmetry_group_IT_number 12
_symmetry_cell_setting 'monoclinic'
loop_
_space_group_symop_operation_xyz
x,y,z
-x,y,-z
-x,-y,-z
x,-y,z
1/2+x,1/2+y,z
1/2-x,1/2+y,-z
1/2-x,1/2-y,-z
1/2+x,1/2-y,z
loop_
_atom_site_type_symbol
_atom_site_label
_atom_site_fract_x
_atom_site_fract_y
_atom_site_fract_z
Si Si1 0.332559 0.329874 0.298285
Si Si2 0.785110 0.709503 0.632958
Si Si3 0.145049 0.078299 0.804001
Si Si4 0.676137 0.703939 0.192706
Si Si5 0.301994 0.421730 0.390658
Si Si6 0.008835 0.745972 0.768418
Si Si7 0.280718 0.850444 0.082350
Si Si8 0.169889 0.580476 0.714800
O O1 0.500000 0.297595 0.500000
O O2 0.304069 0.356838 0.188813
O O3 0.216314 0.266530 0.183481
O O4 0.316601 0.399981 0.327266
O O5 0.768924 0.774143 0.669436
O O6 0.808840 0.634132 0.696974
O O7 0.626037 0.707580 0.415209
O O8 0.934053 0.711677 0.752428
O O9 0.964426 0.079984 0.609106
O O10 0.195640 0.000000 0.833933
O O11 0.221033 0.090478 0.962685
O O12 0.741378 0.628702 0.241107
O O13 0.500000 0.694383 0.000000
O O14 0.229254 0.500000 0.314005
O O15 0.070333 0.687784 0.782735
O O16 0.146899 0.794686 0.947348
O O17 0.324159 0.887521 0.201999
O O18 0.237184 0.500000 0.789948
O O19 0.000000 0.578510 0.500000
#
# Coordination Sequence:
#
# PCOD8088868 Si02
#       8
#     8   8   8   8   8   8   8   8
#     4   9  19  33  57  86 117 155 198 239 284 347
#     4  10  20  39  57  88 117 159 193 248 292 363
#     4  10  19  32  55  86 118 150 191 239 290 349
#     4  11  23  37  63  88 122 154 204 247 297 355
#     4   9  17  33  55  82 117 156 192 231 288 352
#     4  10  22  36  61  86 120 147 200 246 305 347
#     4  11  22  37  62  88 115 152 197 255 298 356
#     4  11  25  44  64  87 120 159 202 256 311 362
#
# _framework density 19.867868000000001
#
# number of rings (size 3 to 8) (size 9 to 14) (size 15 to 20)
#    0.000    1.875    1.250    2.625    5.250    1.750 
#    0.000    1.250    0.000    4.875    0.000    0.000 
#    0.000    0.000    0.000    0.000    0.000    0.000 
#
# Total GULP energy -396722.502399 kJ/mol
# GULP energy per Si atom -12397.578200 kJ/mol
# Density = 1.982265 g / cm^3
# Si number density = 19.867868 Si / 1000 Ang^3
#
#
#
# Elastic Constant Matrix: (Units=GPa)
#
#
# Indices 1 2 3 4 5 6 
#
# 1 115.6828 59.6498 42.4801 -0.0062 10.6540 0.0058
# 2 59.6498 136.8687 38.4847 0.0183 16.6723 -0.0028
# 3 42.4801 38.4847 65.5275 0.0153 4.8229 0.0018
# 4 -0.0062 0.0183 0.0153 -10.6393 0.0176 8.4881
# 5 10.6540 16.6723 4.8229 0.0176 35.5716 -0.0010
# 6 0.0058 -0.0028 0.0018 8.4881 -0.0010 9.3502
#
#
#
# Elastic Compliance Matrix: (Units=1/GPa)
#
#
# Indices 1 2 3 4 5 6 
#
# 1 0.012941 -0.003775 -0.006078 -0.000018 -0.001283 0.000008
# 2 -0.003775 0.010290 -0.003358 0.000008 -0.003237 -0.000002
# 3 -0.006078 -0.003358 0.021134 0.000016 0.000529 -0.000016
# 4 -0.000018 0.000008 0.000016 -0.054512 0.000028 0.049485
# 5 -0.001283 -0.003237 0.000529 0.000028 0.029942 -0.000022
# 6 0.000008 -0.000002 -0.000016 0.049485 -0.000022 0.062027
#
#
# Mechanical properties :
#
#
# Convention : Reuss Voigt Hill
#
# Bulk Modulus (GPa) = 55.73007 66.58980 61.15993
# Shear Modulus (GPa) = 43.77357 18.68746 31.23051
#
# Velocity S-wave (km/s) = 4.69895 3.07023 3.96903
# Velocity P-wave (km/s) = 7.58627 6.79393 7.20101
#
# Compressibility (1/GPa) = 0.01794363
#
# Stress axis : x y z
#
# Youngs Moduli (GPa) = 77.27616 97.18355 47.31658
#
# Poissons Ratio (x) = 0.36682 0.28759
# Poissons Ratio (y) = 0.29168 0.15889
# Poissons Ratio (z) = 0.46968 0.32635
#
# Static dielectric constant tensor:
#      x y z
#    x 3.050050 0.000000 -0.004570 
#    y 0.000000 3.715990 0.000000 
#    z -0.004570 0.000000 3.469800 
# 
# 
# High freq. dielectric constant tensor:
#      x y z
#    x 1.777920 0.000000 -0.007330 
#    y 0.000000 1.771240 0.000000 
#    z -0.007330 0.000000 1.768960 
# 
# From -- ./inp_files/326168.got.cif
#   From: 2010.06.25/outbox.cif.g09.slc.cpg/sg12_164_cif.got.tgz:326168.got - 2010.06.28 00:19:55.
