data_PCOD8088241
_publ_section_title
;
Structure prediction by ZEFSAII (Michael W. Deem and Ramdas Pophale) SiO2 
 PCOD8088241
Probable space group: C 2/M
;
_chemical_formula_sum "Si O2"
_cell_formula_units_Z 64
_cell_length_a 12.053302
_cell_length_b 14.208013
_cell_length_c 26.161691
_cell_angle_alpha 90.000000
_cell_angle_beta 44.029792
_cell_angle_gamma 90.000000
_cell_volume 3113.939641
_symmetry_space_group_name_H-M "C 2/M"
_symmetry_group_IT_number 12
_symmetry_cell_setting 'monoclinic'
loop_
_space_group_symop_operation_xyz
x,y,z
-x,y,-z
-x,-y,-z
x,-y,z
1/2+x,1/2+y,z
1/2-x,1/2+y,-z
1/2-x,1/2-y,-z
1/2+x,1/2-y,z
loop_
_atom_site_type_symbol
_atom_site_label
_atom_site_fract_x
_atom_site_fract_y
_atom_site_fract_z
Si Si1 0.905716 0.603509 0.834129
Si Si2 0.870884 0.213258 0.717102
Si Si3 0.447921 0.606130 0.072534
Si Si4 0.093986 0.111697 0.720865
Si Si5 0.940568 0.391525 0.572284
Si Si6 0.565230 0.892768 0.635752
Si Si7 0.529776 0.270638 0.843056
Si Si8 0.757014 0.605475 0.330083
O O1 0.916598 0.500000 0.856776
O O2 0.742885 0.609917 0.855958
O O3 0.901823 0.686895 0.877218
O O4 0.057624 0.620264 0.747258
O O5 0.695863 0.216805 0.799517
O O6 0.860019 0.175122 0.661700
O O7 0.977003 0.140544 0.713814
O O8 0.935194 0.318721 0.697879
O O9 0.512862 0.500000 0.057252
O O10 0.528750 0.669976 0.089085
O O11 0.500000 0.645271 0.000000
O O12 0.271543 0.149787 0.647971
O O13 0.041223 0.161678 0.790256
O O14 0.088229 0.000000 0.731025
O O15 0.907016 0.500000 0.571196
O O16 0.000000 0.341896 0.500000
O O17 0.079615 0.379628 0.569482
O O18 0.732634 0.875937 0.611437
O O19 0.504252 0.000000 0.667486
O O20 0.697575 0.500000 0.338253
#
# Coordination Sequence:
#
# PCOD8088241 Si02
#       8
#     8   8   8   8   8   8   8   8
#     4   9  19  34  52  77 108 143 178 217 269 322
#     4  11  20  33  53  81 114 135 173 224 278 314
#     4  10  21  36  54  78 109 142 180 229 275 314
#     4  11  22  35  56  84 111 141 178 227 277 321
#     4   9  19  36  56  78 107 144 182 223 274 325
#     4  10  19  32  53  76 101 138 183 218 257 321
#     4  11  20  34  57  81 108 143 183 223 265 329
#     4   9  18  32  52  76 105 142 175 216 266 320
#
# _framework density 20.552743
#
# number of rings (size 3 to 8) (size 9 to 14) (size 15 to 20)
#    0.000    2.000    1.250    3.750    0.000    2.500 
#    0.000    0.625    0.000    0.375    0.000    4.375 
#    0.000    1.500    0.000    0.000    0.000    0.000 
#
# Total GULP energy -396531.656340 kJ/mol
# GULP energy per Si atom -12391.614261 kJ/mol
# Density = 2.050596 g / cm^3
# Si number density = 20.552743 Si / 1000 Ang^3
#
#
#
# Elastic Constant Matrix: (Units=GPa)
#
#
# Indices 1 2 3 4 5 6 
#
# 1 139.3357 57.6550 30.8922 0.0000 29.4980 0.0000
# 2 57.6550 109.1408 18.9987 0.0000 15.2277 0.0000
# 3 30.8922 18.9987 43.4082 0.0000 22.1956 0.0000
# 4 0.0000 0.0000 0.0000 7.6602 0.0000 1.0331
# 5 29.4980 15.2277 22.1956 0.0000 29.5270 0.0000
# 6 0.0000 0.0000 0.0000 1.0331 0.0000 40.6220
#
#
#
# Elastic Compliance Matrix: (Units=1/GPa)
#
#
# Indices 1 2 3 4 5 6 
#
# 1 0.011001 -0.004435 -0.002335 0.000000 -0.006947 0.000000
# 2 -0.004435 0.011874 -0.001908 0.000000 -0.000258 0.000000
# 3 -0.002335 -0.001908 0.038721 0.000000 -0.025790 0.000000
# 4 0.000000 0.000000 0.000000 0.130995 0.000000 -0.003332
# 5 -0.006947 -0.000258 -0.025790 0.000000 0.060327 0.000000
# 6 0.000000 0.000000 0.000000 -0.003332 0.000000 0.024702
#
#
# Mechanical properties :
#
#
# Convention : Reuss Voigt Hill
#
# Bulk Modulus (GPa) = 22.60544 56.33071 39.46808
# Shear Modulus (GPa) = 16.14343 27.85109 21.99726
#
# Velocity S-wave (km/s) = 2.80565 3.68517 3.27507
# Velocity P-wave (km/s) = 4.63877 6.75090 5.79193
#
# Compressibility (1/GPa) = 0.04423714
#
# Stress axis : x y z
#
# Youngs Moduli (GPa) = 90.90303 84.21930 25.82554
#
# Poissons Ratio (x) = 0.37355 0.06031
# Poissons Ratio (y) = 0.40320 0.04929
# Poissons Ratio (z) = 0.21230 0.16073
#
# Static dielectric constant tensor:
#      x y z
#    x 3.994630 0.000000 0.177070 
#    y 0.000000 3.926900 0.000000 
#    z 0.177070 0.000000 3.325400 
# 
# 
# High freq. dielectric constant tensor:
#      x y z
#    x 1.812520 0.000000 0.014670 
#    y 0.000000 1.815450 0.000000 
#    z 0.014670 0.000000 1.745690 
# 
# From -- ./inp_files/358430.got.cif
#   From: 2010.06.25/outbox.cif.g09.slc.cpg/sg12_180_cif.got.tgz:358430.got - 2010.06.28 00:19:55.
