data_PCOD8088272
_publ_section_title
;
Structure prediction by ZEFSAII (Michael W. Deem and Ramdas Pophale) SiO2 
 PCOD8088272
Probable space group: C 2/M
;
_chemical_formula_sum "Si O2"
_cell_formula_units_Z 64
_cell_length_a 31.245489
_cell_length_b 13.248410
_cell_length_c 9.456278
_cell_angle_alpha 90.000000
_cell_angle_beta 115.904430
_cell_angle_gamma 90.000000
_cell_volume 3521.146332
_symmetry_space_group_name_H-M "C 2/M"
_symmetry_group_IT_number 12
_symmetry_cell_setting 'monoclinic'
loop_
_space_group_symop_operation_xyz
x,y,z
-x,y,-z
-x,-y,-z
x,-y,z
1/2+x,1/2+y,z
1/2-x,1/2+y,-z
1/2-x,1/2-y,-z
1/2+x,1/2-y,z
loop_
_atom_site_type_symbol
_atom_site_label
_atom_site_fract_x
_atom_site_fract_y
_atom_site_fract_z
Si Si1 0.951623 0.619530 0.346507
Si Si2 0.199005 0.713262 0.135180
Si Si3 0.816459 0.386178 0.431157
Si Si4 0.041325 0.620083 0.963217
Si Si5 0.298180 0.381327 0.315959
Si Si6 0.789342 0.885619 0.629887
Si Si7 0.647562 0.232455 0.763506
Si Si8 0.866909 0.615239 0.766051
O O1 0.938677 0.500000 0.342367
O O2 0.964219 0.652533 0.206169
O O3 0.906213 0.687903 0.328200
O O4 0.000000 0.645536 0.500000
O O5 0.253501 0.681755 0.186023
O O6 0.189608 0.811859 0.220268
O O7 0.176970 0.619612 0.188645
O O8 0.168436 0.730233 0.950126
O O9 0.829802 0.500000 0.417210
O O10 0.767185 0.377440 0.442829
O O11 0.816510 0.332471 0.281331
O O12 0.854886 0.337197 0.595316
O O13 0.042744 0.500000 0.973707
O O14 0.088473 0.670367 0.097444
O O15 0.000000 0.665686 0.000000
O O16 0.291098 0.500000 0.281555
O O17 0.303903 0.354354 0.490728
O O18 0.345304 0.344440 0.296024
O O19 0.806633 0.000000 0.686950
O O20 0.879573 0.500000 0.756771
#
# Coordination Sequence:
#
# PCOD8088272 Si02
#       8
#     8   8   8   8   8   8   8   8
#     4  10  22  39  57  82 117 147 177 226 284 339
#     4  12  21  36  54  81 115 151 188 229 276 326
#     4  10  20  33  52  78 107 148 191 225 268 320
#     4   9  18  33  52  76 106 141 183 225 271 326
#     4  11  23  38  56  80 113 153 194 234 271 318
#     4  10  21  38  56  76 108 149 193 236 270 313
#     4  12  24  36  53  83 116 151 185 225 281 345
#     4  10  19  32  53  77 107 149 191 227 267 321
#
# _framework density 18.175899000000001
#
# number of rings (size 3 to 8) (size 9 to 14) (size 15 to 20)
#    0.000    1.500    3.750    2.250    1.750    2.000 
#    0.000    0.000    0.000    0.375    0.000    0.000 
#    0.000    3.000    0.000    0.000    0.000    0.000 
#
# Total GULP energy -396431.635108 kJ/mol
# GULP energy per Si atom -12388.488597 kJ/mol
# Density = 1.813453 g / cm^3
# Si number density = 18.175899 Si / 1000 Ang^3
#
#
#
# Elastic Constant Matrix: (Units=GPa)
#
#
# Indices 1 2 3 4 5 6 
#
# 1 89.1601 32.8046 39.3784 0.0000 -0.4646 0.0000
# 2 32.8046 59.9816 43.4703 0.0000 2.6503 0.0000
# 3 39.3784 43.4703 136.3647 0.0000 -1.8569 0.0000
# 4 0.0000 0.0000 0.0000 18.6292 0.0000 -3.9199
# 5 -0.4646 2.6503 -1.8569 0.0000 27.7360 0.0000
# 6 0.0000 0.0000 0.0000 -3.9199 0.0000 29.5236
#
#
#
# Elastic Compliance Matrix: (Units=1/GPa)
#
#
# Indices 1 2 3 4 5 6 
#
# 1 0.014528 -0.006429 -0.002136 0.000000 0.000715 0.000000
# 2 -0.006429 0.024705 -0.006058 0.000000 -0.002874 0.000000
# 3 -0.002136 -0.006058 0.009898 0.000000 0.001206 0.000000
# 4 0.000000 0.000000 0.000000 0.055222 0.000000 0.007332
# 5 0.000715 -0.002874 0.001206 0.000000 0.036422 0.000000
# 6 0.000000 0.000000 0.000000 0.007332 0.000000 0.034845
#
#
# Mechanical properties :
#
#
# Convention : Reuss Voigt Hill
#
# Bulk Modulus (GPa) = 50.29012 57.42366 53.85689
# Shear Modulus (GPa) = 23.64119 26.50129 25.07124
#
# Velocity S-wave (km/s) = 3.61042 3.82258 3.71801
# Velocity P-wave (km/s) = 6.71631 7.15155 6.93734
#
# Compressibility (1/GPa) = 0.01988462
#
# Stress axis : x y z
#
# Youngs Moduli (GPa) = 68.83047 40.47689 101.03276
#
# Poissons Ratio (x) = 0.26023 0.21583
# Poissons Ratio (y) = 0.44252 0.61207
# Poissons Ratio (z) = 0.14704 0.24522
#
# Static dielectric constant tensor:
#      x y z
#    x 3.424060 0.000000 -0.038530 
#    y 0.000000 3.361290 0.000000 
#    z -0.038530 0.000000 3.540960 
# 
# 
# High freq. dielectric constant tensor:
#      x y z
#    x 1.690520 0.000000 -0.014650 
#    y 0.000000 1.674160 0.000000 
#    z -0.014650 0.000000 1.715780 
# 
# From -- ./inp_files/111668.got.cif
#   From: 2010.06.25/outbox.cif.g09.slc.cpg/sg12_56_cif.got.tgz:111668.got - 2010.06.28 00:19:55.
