data_PCOD8088418
_publ_section_title
;
Structure prediction by ZEFSAII (Michael W. Deem and Ramdas Pophale) SiO2 
 PCOD8088418
Probable space group: C 2/M
;
_chemical_formula_sum "Si O2"
_cell_formula_units_Z 48
_cell_length_a 22.200326
_cell_length_b 25.225867
_cell_length_c 11.345902
_cell_angle_alpha 90.000000
_cell_angle_beta 155.045872
_cell_angle_gamma 90.000000
_cell_volume 2680.688231
_symmetry_space_group_name_H-M "C 2/M"
_symmetry_group_IT_number 12
_symmetry_cell_setting 'monoclinic'
loop_
_space_group_symop_operation_xyz
x,y,z
-x,y,-z
-x,-y,-z
x,-y,z
1/2+x,1/2+y,z
1/2-x,1/2+y,-z
1/2-x,1/2-y,-z
1/2+x,1/2-y,z
loop_
_atom_site_type_symbol
_atom_site_label
_atom_site_fract_x
_atom_site_fract_y
_atom_site_fract_z
Si Si1 0.341736 0.798571 0.705504
Si Si2 0.164661 0.061042 0.782172
Si Si3 0.109938 0.601508 0.363626
Si Si4 0.214707 0.614445 0.224739
Si Si5 0.869190 0.560464 0.350526
Si Si6 0.133988 0.059087 0.306782
O O1 0.250000 0.750000 0.500000
O O2 0.335859 0.843007 0.593302
O O3 0.289020 0.823965 0.737876
O O4 0.500000 0.775987 0.000000
O O5 0.242690 0.103560 0.834886
O O6 0.000000 0.075318 0.500000
O O7 0.190456 0.000000 0.784704
O O8 0.225097 0.068308 0.020772
O O9 0.126857 0.601415 0.534477
O O10 0.218966 0.557749 0.507014
O O11 0.944807 0.590692 0.034065
O O12 0.338001 0.586656 0.519067
O O13 0.883870 0.500000 0.423316
O O14 0.000000 0.575253 0.500000
O O15 0.085621 0.000000 0.251313
O O16 0.000000 0.086516 0.000000
#
# Coordination Sequence:
#
# PCOD8088418 Si02
#       6
#     8   8   8   8   8   8
#     4   9  20  38  59  80 100 129 172 227 284 326
#     4  10  21  34  51  78 115 150 177 212 253 302
#     4  10  20  35  55  77 103 138 179 219 260 319
#     4  10  20  36  55  75 103 140 180 216 263 321
#     4  10  19  32  53  80 109 145 182 211 247 304
#     4  10  21  31  45  74 108 138 172 218 264 307
#
# _framework density 17.905849
#
# number of rings (size 3 to 8) (size 9 to 14) (size 15 to 20)
#    0.000    2.167    1.667    2.500    2.333    5.333 
#    0.000    0.000    0.000    2.000    0.000    0.000 
#    0.000    0.000    0.000    0.000    0.000    0.000 
#
# Total GULP energy -297423.995024 kJ/mol
# GULP energy per Si atom -12392.666459 kJ/mol
# Density = 1.786509 g / cm^3
# Si number density = 17.905849 Si / 1000 Ang^3
#
#
#
# Elastic Constant Matrix: (Units=GPa)
#
#
# Indices 1 2 3 4 5 6 
#
# 1 68.3700 28.5071 12.3152 0.0000 -5.8137 0.0000
# 2 28.5071 67.8539 29.0695 0.0000 -1.3215 0.0000
# 3 12.3152 29.0695 111.5259 0.0000 -0.8014 0.0000
# 4 0.0000 0.0000 0.0000 27.7848 0.0000 -3.0700
# 5 -5.8137 -1.3215 -0.8014 0.0000 28.1222 0.0000
# 6 0.0000 0.0000 0.0000 -3.0700 0.0000 18.0597
#
#
#
# Elastic Compliance Matrix: (Units=1/GPa)
#
#
# Indices 1 2 3 4 5 6 
#
# 1 0.018048 -0.007512 -0.000011 0.000000 0.003378 0.000000
# 2 -0.007512 0.019729 -0.004318 0.000000 -0.000749 0.000000
# 3 -0.000011 -0.004318 0.010094 0.000000 0.000083 0.000000
# 4 0.000000 0.000000 0.000000 0.036680 0.000000 0.006235
# 5 0.003378 -0.000749 0.000083 0.000000 0.036225 0.000000
# 6 0.000000 0.000000 0.000000 0.006235 0.000000 0.056432
#
#
# Mechanical properties :
#
#
# Convention : Reuss Voigt Hill
#
# Bulk Modulus (GPa) = 41.34157 43.05927 42.20042
# Shear Modulus (GPa) = 23.92905 26.65053 25.28979
#
# Velocity S-wave (km/s) = 3.65962 3.86213 3.76224
# Velocity P-wave (km/s) = 6.40278 6.63233 6.51856
#
# Compressibility (1/GPa) = 0.02418873
#
# Stress axis : x y z
#
# Youngs Moduli (GPa) = 55.40924 50.68706 99.07012
#
# Poissons Ratio (x) = 0.38076 0.00105
# Poissons Ratio (y) = 0.41623 0.42781
# Poissons Ratio (z) = 0.00059 0.21888
#
# Static dielectric constant tensor:
#      x y z
#    x 3.335830 0.000000 -0.068220 
#    y 0.000000 2.940960 0.000000 
#    z -0.068220 0.000000 3.649630 
# 
# 
# High freq. dielectric constant tensor:
#      x y z
#    x 1.686070 0.000000 -0.002640 
#    y 0.000000 1.643400 0.000000 
#    z -0.002640 0.000000 1.718780 
# 
# From -- ./inp_files/122066.got.cif
#   From: 2010.06.25/outbox.cif.g09.slc.cpg/sg12_62_cif.got.tgz:122066.got - 2010.06.28 00:19:55.
