data_PCOD8088248
_publ_section_title
;
Structure prediction by ZEFSAII (Michael W. Deem and Ramdas Pophale) SiO2 
 PCOD8088248
Probable space group: C 2/M
;
_chemical_formula_sum "Si O2"
_cell_formula_units_Z 64
_cell_length_a 20.782814
_cell_length_b 13.217138
_cell_length_c 13.833044
_cell_angle_alpha 90.000000
_cell_angle_beta 108.016036
_cell_angle_gamma 90.000000
_cell_volume 3613.485748
_symmetry_space_group_name_H-M "C 2/M"
_symmetry_group_IT_number 12
_symmetry_cell_setting 'monoclinic'
loop_
_space_group_symop_operation_xyz
x,y,z
-x,y,-z
-x,-y,-z
x,-y,z
1/2+x,1/2+y,z
1/2-x,1/2+y,-z
1/2-x,1/2-y,-z
1/2+x,1/2-y,z
loop_
_atom_site_type_symbol
_atom_site_label
_atom_site_fract_x
_atom_site_fract_y
_atom_site_fract_z
Si Si1 0.853136 0.685968 0.013435
Si Si2 0.195819 0.112298 0.235295
Si Si3 0.717730 0.883667 0.390995
Si Si4 0.559047 0.116864 0.601561
Si Si5 0.976671 0.382951 0.197630
Si Si6 0.884452 0.693365 0.808484
Si Si7 0.691600 0.800668 0.582499
Si Si8 0.215031 0.887564 0.026973
O O1 0.908078 0.644821 0.112187
O O2 0.782848 0.628264 0.997598
O O3 0.876178 0.661484 0.915739
O O4 0.842324 0.805952 0.028042
O O5 0.133583 0.189175 0.216495
O O6 0.250908 0.130468 0.343046
O O7 0.232494 0.125770 0.148640
O O8 0.165686 0.000000 0.233350
O O9 0.664738 0.876414 0.278534
O O10 0.680273 0.840909 0.468712
O O11 0.785143 0.816839 0.403490
O O12 0.739759 0.000000 0.413835
O O13 0.500000 0.142190 0.500000
O O14 0.531680 0.143048 0.694261
O O15 0.622053 0.189395 0.608220
O O16 0.582315 0.000000 0.604310
O O17 0.993928 0.500000 0.189688
O O18 0.037822 0.317723 0.184154
O O19 0.186510 0.000000 0.992119
#
# Coordination Sequence:
#
# PCOD8088248 Si02
#       8
#     8   8   8   8   8   8   8   8
#     4  10  20  33  50  73 100 130 165 201 241 295
#     4   9  17  32  54  75  96 125 163 207 249 288
#     4  10  20  33  51  76 103 130 162 201 245 293
#     4  10  20  34  53  75  99 127 160 202 247 288
#     4  11  22  34  50  72  99 132 167 201 241 292
#     4  10  21  34  48  71 103 134 162 199 245 292
#     4  10  19  32  53  77 100 128 163 204 246 289
#     4   9  18  33  52  74  98 125 162 207 250 288
#
# _framework density 17.71143
#
# number of rings (size 3 to 8) (size 9 to 14) (size 15 to 20)
#    0.000    2.125    0.000    3.750    0.000    6.500 
#    0.000    0.625    0.000    4.125    0.000    0.000 
#    0.000    0.000    0.000    0.000    0.000    0.000 
#
# Total GULP energy -396875.176440 kJ/mol
# GULP energy per Si atom -12402.349264 kJ/mol
# Density = 1.767112 g / cm^3
# Si number density = 17.711430 Si / 1000 Ang^3
#
#
#
# Elastic Constant Matrix: (Units=GPa)
#
#
# Indices 1 2 3 4 5 6 
#
# 1 104.1620 32.2754 27.5606 0.0000 -14.7649 0.0000
# 2 32.2754 93.0762 14.5881 0.0000 -11.7289 0.0000
# 3 27.5606 14.5881 94.0299 0.0000 -9.6760 0.0000
# 4 0.0000 0.0000 0.0000 22.3323 0.0000 -1.3579
# 5 -14.7649 -11.7289 -9.6760 0.0000 17.2540 0.0000
# 6 0.0000 0.0000 0.0000 -1.3579 0.0000 21.7158
#
#
#
# Elastic Compliance Matrix: (Units=1/GPa)
#
#
# Indices 1 2 3 4 5 6 
#
# 1 0.012143 -0.002949 -0.002376 0.000000 0.007054 0.000000
# 2 -0.002949 0.012568 -0.000494 0.000000 0.005742 0.000000
# 3 -0.002376 -0.000494 0.011848 0.000000 0.004275 0.000000
# 4 0.000000 0.000000 0.000000 0.044949 0.000000 0.002811
# 5 0.007054 0.005742 0.004275 0.000000 0.070295 0.000000
# 6 0.000000 0.000000 0.000000 0.002811 0.000000 0.046225
#
#
# Mechanical properties :
#
#
# Convention : Reuss Voigt Hill
#
# Bulk Modulus (GPa) = 40.12952 48.90181 44.51567
# Shear Modulus (GPa) = 22.93867 26.71671 24.82769
#
# Velocity S-wave (km/s) = 3.60270 3.88808 3.74811
# Velocity P-wave (km/s) = 6.32555 6.91567 6.62718
#
# Compressibility (1/GPa) = 0.02491931
#
# Stress axis : x y z
#
# Youngs Moduli (GPa) = 82.35333 79.56896 84.40340
#
# Poissons Ratio (x) = 0.23468 0.20051
# Poissons Ratio (y) = 0.24290 0.04173
# Poissons Ratio (z) = 0.19564 0.03934
#
# Static dielectric constant tensor:
#      x y z
#    x 3.127310 0.000000 -0.130540 
#    y 0.000000 3.373460 0.000000 
#    z -0.130540 0.000000 3.417170 
# 
# 
# High freq. dielectric constant tensor:
#      x y z
#    x 1.670860 0.000000 -0.012060 
#    y 0.000000 1.681970 0.000000 
#    z -0.012060 0.000000 1.697130 
# 
# From -- ./inp_files/232490.got.cif
#   From: 2010.06.25/outbox.cif.g09.slc.cpg/sg12_117_cif.got.tgz:232490.got - 2010.06.28 00:19:55.
