data_PCOD8088799
_publ_section_title
;
Structure prediction by ZEFSAII (Michael W. Deem and Ramdas Pophale) SiO2 
 PCOD8088799
Probable space group: C 2/M
;
_chemical_formula_sum "Si O2"
_cell_formula_units_Z 48
_cell_length_a 18.109356
_cell_length_b 8.970558
_cell_length_c 15.419359
_cell_angle_alpha 90.000000
_cell_angle_beta 92.519268
_cell_angle_gamma 90.000000
_cell_volume 2502.469740
_symmetry_space_group_name_H-M "C 2/M"
_symmetry_group_IT_number 12
_symmetry_cell_setting 'monoclinic'
loop_
_space_group_symop_operation_xyz
x,y,z
-x,y,-z
-x,-y,-z
x,-y,z
1/2+x,1/2+y,z
1/2-x,1/2+y,-z
1/2-x,1/2-y,-z
1/2+x,1/2-y,z
loop_
_atom_site_type_symbol
_atom_site_label
_atom_site_fract_x
_atom_site_fract_y
_atom_site_fract_z
Si Si1 0.582469 0.823194 0.509609
Si Si2 0.828382 0.326760 0.652727
Si Si3 0.175266 0.676398 0.678731
Si Si4 0.587022 0.663967 0.017171
Si Si5 0.063737 0.671692 0.182309
Si Si6 0.091945 0.176670 0.827081
O O1 0.500000 0.754809 0.500000
O O2 0.630056 0.767443 0.430551
O O3 0.620200 0.768720 0.600231
O O4 0.577844 0.000000 0.506393
O O5 0.805656 0.500000 0.643486
O O6 0.757105 0.225288 0.658882
O O7 0.881124 0.300133 0.736616
O O8 0.172226 0.500000 0.690114
O O9 0.151915 0.753375 0.766666
O O10 0.618583 0.500000 0.042409
O O11 0.605312 0.776373 0.096306
O O12 0.500000 0.652653 0.000000
O O13 0.618946 0.719589 0.926165
O O14 0.041783 0.500000 0.171673
O O15 0.989404 0.761912 0.197716
O O16 0.089288 0.000000 0.815551
#
# Coordination Sequence:
#
# PCOD8088799 Si02
#       6
#     8   8   8   8   8   8
#     4   9  18  35  58  81 106 137 174 217 264 315
#     4  10  21  37  55  77 111 148 175 210 267 323
#     4  11  22  35  55  81 107 140 182 222 261 311
#     4   8  16  31  51  76 106 140 175 217 270 317
#     4  10  19  32  55  83 107 138 181 223 263 312
#     4  10  20  35  55  78 108 144 178 218 271 321
#
# _framework density 19.181052000000001
#
# number of rings (size 3 to 8) (size 9 to 14) (size 15 to 20)
#    0.000    2.333    0.000    4.000    0.000    7.667 
#    0.000    1.667    0.000    3.500    0.000    0.000 
#    0.000    0.000    0.000    0.000    0.000    0.000 
#
# Total GULP energy -297592.573084 kJ/mol
# GULP energy per Si atom -12399.690545 kJ/mol
# Density = 1.913739 g / cm^3
# Si number density = 19.181052 Si / 1000 Ang^3
#
#
#
# Elastic Constant Matrix: (Units=GPa)
#
#
# Indices 1 2 3 4 5 6 
#
# 1 77.8930 31.2375 38.0825 0.0000 -28.6289 0.0000
# 2 31.2375 69.8212 43.0135 0.0000 -7.3842 0.0000
# 3 38.0825 43.0135 130.7085 0.0000 -36.1473 0.0000
# 4 0.0000 0.0000 0.0000 22.1650 0.0000 -4.4710
# 5 -28.6289 -7.3842 -36.1473 0.0000 22.7218 0.0000
# 6 0.0000 0.0000 0.0000 -4.4710 0.0000 19.2041
#
#
#
# Elastic Compliance Matrix: (Units=1/GPa)
#
#
# Indices 1 2 3 4 5 6 
#
# 1 0.034026 -0.015809 0.010221 0.000000 0.053995 0.000000
# 2 -0.015809 0.025841 -0.012649 0.000000 -0.031644 0.000000
# 3 0.010221 -0.012649 0.020105 0.000000 0.040752 0.000000
# 4 0.000000 0.000000 0.000000 0.047339 0.000000 0.011021
# 5 0.053995 -0.031644 0.040752 0.000000 0.166589 0.000000
# 6 0.000000 0.000000 0.000000 0.011021 0.000000 0.054638
#
#
# Mechanical properties :
#
#
# Convention : Reuss Voigt Hill
#
# Bulk Modulus (GPa) = 22.98948 55.89885 39.44417
# Shear Modulus (GPa) = 12.51525 23.89080 18.20303
#
# Velocity S-wave (km/s) = 2.55714 3.53305 3.08394
# Velocity P-wave (km/s) = 4.55304 6.77121 5.76972
#
# Compressibility (1/GPa) = 0.04349816
#
# Stress axis : x y z
#
# Youngs Moduli (GPa) = 29.38903 38.69831 49.73889
#
# Poissons Ratio (x) = 0.61180 -0.50838
# Poissons Ratio (y) = 0.46462 0.62913
# Poissons Ratio (z) = -0.30039 0.48948
#
# Static dielectric constant tensor:
#      x y z
#    x 3.332960 0.000000 -0.150420 
#    y 0.000000 3.423600 0.000000 
#    z -0.150420 0.000000 4.004830 
# 
# 
# High freq. dielectric constant tensor:
#      x y z
#    x 1.726830 0.000000 -0.008250 
#    y 0.000000 1.733850 0.000000 
#    z -0.008250 0.000000 1.766680 
# 
# From -- ./inp_files/221724.got.cif
#   From: 2010.06.25/outbox.cif.g09.slc.cpg/sg12_111_cif.got.tgz:221724.got - 2010.06.28 00:19:55.
