data_PCOD8088595
_publ_section_title
;
Structure prediction by ZEFSAII (Michael W. Deem and Ramdas Pophale) SiO2 
 PCOD8088595
Probable space group: C 2/M
;
_chemical_formula_sum "Si O2"
_cell_formula_units_Z 56
_cell_length_a 14.885958
_cell_length_b 9.222538
_cell_length_c 25.275488
_cell_angle_alpha 90.000000
_cell_angle_beta 122.528157
_cell_angle_gamma 90.000000
_cell_volume 2925.633650
_symmetry_space_group_name_H-M "C 2/M"
_symmetry_group_IT_number 12
_symmetry_cell_setting 'monoclinic'
loop_
_space_group_symop_operation_xyz
x,y,z
-x,y,-z
-x,-y,-z
x,-y,z
1/2+x,1/2+y,z
1/2-x,1/2+y,-z
1/2-x,1/2-y,-z
1/2+x,1/2-y,z
loop_
_atom_site_type_symbol
_atom_site_label
_atom_site_fract_x
_atom_site_fract_y
_atom_site_fract_z
Si Si1 0.273097 0.333442 0.702805
Si Si2 0.415698 0.670926 0.320446
Si Si3 0.760006 0.663475 0.428542
Si Si4 0.914778 0.333933 0.566541
Si Si5 0.989312 0.171751 0.229793
Si Si6 0.888903 0.830255 0.992598
Si Si7 0.326327 0.329710 0.091087
O O1 0.264601 0.500000 0.718397
O O2 0.203917 0.231321 0.718476
O O3 0.227077 0.314384 0.629370
O O4 0.392807 0.274509 0.747254
O O5 0.414957 0.500000 0.326480
O O6 0.480301 0.739206 0.390013
O O7 0.466646 0.724944 0.281821
O O8 0.716004 0.500000 0.426211
O O9 0.874926 0.683902 0.493260
O O10 0.678647 0.781687 0.424325
O O11 0.942058 0.500000 0.588269
O O12 0.904033 0.233255 0.161036
O O13 0.985429 0.000000 0.227020
O O14 0.787157 0.747916 0.936117
O O15 0.874138 0.000000 0.976769
O O16 0.886019 0.795909 0.054469
O O17 0.000000 0.777302 0.000000
O O18 0.305258 0.500000 0.090243
#
# Coordination Sequence:
#
# PCOD8088595 Si02
#       7
#     8   8   8   8   8   8   8
#     4  10  20  37  57  77 103 140 180 219 272 327
#     4  11  22  37  54  76 106 140 180 226 273 316
#     4   9  18  34  55  77 104 137 172 220 276 329
#     4  10  19  32  54  80 103 134 178 221 271 328
#     4   9  19  37  57  74 105 147 180 214 261 319
#     4   9  18  33  54  83 115 140 169 217 265 303
#     4   9  18  34  56  80 106 144 183 210 255 315
#
# _framework density 19.141151000000001
#
# number of rings (size 3 to 8) (size 9 to 14) (size 15 to 20)
#    0.000    2.429    1.429    0.857    0.000    3.143 
#    0.000    6.429    0.000    0.000    0.000    0.000 
#    0.000    0.000    0.000    0.000    0.000    0.000 
#
# Total GULP energy -347124.266146 kJ/mol
# GULP energy per Si atom -12397.295220 kJ/mol
# Density = 1.909759 g / cm^3
# Si number density = 19.141151 Si / 1000 Ang^3
#
#
#
# Elastic Constant Matrix: (Units=GPa)
#
#
# Indices 1 2 3 4 5 6 
#
# 1 122.7829 44.3434 44.3759 0.0000 32.1081 0.0000
# 2 44.3434 67.4269 39.7414 0.0000 11.9510 0.0000
# 3 44.3759 39.7414 111.7293 0.0000 29.7829 0.0000
# 4 0.0000 0.0000 0.0000 22.4578 0.0000 5.9738
# 5 32.1081 11.9510 29.7829 0.0000 20.7491 0.0000
# 6 0.0000 0.0000 0.0000 5.9738 0.0000 32.3692
#
#
#
# Elastic Compliance Matrix: (Units=1/GPa)
#
#
# Indices 1 2 3 4 5 6 
#
# 1 0.016686 -0.008292 0.003129 0.000000 -0.025536 0.000000
# 2 -0.008292 0.022936 -0.007716 0.000000 0.010696 0.000000
# 3 0.003129 -0.007716 0.017101 0.000000 -0.024945 0.000000
# 4 0.000000 0.000000 0.000000 0.046827 0.000000 -0.008642
# 5 -0.025536 0.010696 -0.024945 0.000000 0.117355 0.000000
# 6 0.000000 0.000000 0.000000 -0.008642 0.000000 0.032488
#
#
# Mechanical properties :
#
#
# Convention : Reuss Voigt Hill
#
# Bulk Modulus (GPa) = 32.29364 62.09560 47.19462
# Shear Modulus (GPa) = 17.27281 26.68045 21.97663
#
# Velocity S-wave (km/s) = 3.00724 3.73752 3.39209
# Velocity P-wave (km/s) = 5.38200 7.15099 6.32861
#
# Compressibility (1/GPa) = 0.03096585
#
# Stress axis : x y z
#
# Youngs Moduli (GPa) = 59.93096 43.59966 58.47512
#
# Poissons Ratio (x) = 0.36151 -0.18297
# Poissons Ratio (y) = 0.49693 0.45120
# Poissons Ratio (z) = -0.18753 0.33642
#
# Static dielectric constant tensor:
#      x y z
#    x 3.456440 0.000000 0.102220 
#    y 0.000000 3.339720 0.000000 
#    z 0.102220 0.000000 3.690470 
# 
# 
# High freq. dielectric constant tensor:
#      x y z
#    x 1.740750 0.000000 0.009880 
#    y 0.000000 1.727310 0.000000 
#    z 0.009880 0.000000 1.744070 
# 
# From -- ./inp_files/360031.got.cif
#   From: 2010.06.25/outbox.cif.g09.slc.cpg/sg12_181_cif.got.tgz:360031.got - 2010.06.28 00:19:55.
