data_PCOD8088730
_publ_section_title
;
Structure prediction by ZEFSAII (Michael W. Deem and Ramdas Pophale) SiO2 
 PCOD8088730
Probable space group: C 2/M
;
_chemical_formula_sum "Si O2"
_cell_formula_units_Z 56
_cell_length_a 12.103876
_cell_length_b 16.454971
_cell_length_c 16.695505
_cell_angle_alpha 90.000000
_cell_angle_beta 61.782159
_cell_angle_gamma 90.000000
_cell_volume 2930.043582
_symmetry_space_group_name_H-M "C 2/M"
_symmetry_group_IT_number 12
_symmetry_cell_setting 'monoclinic'
loop_
_space_group_symop_operation_xyz
x,y,z
-x,y,-z
-x,-y,-z
x,-y,z
1/2+x,1/2+y,z
1/2-x,1/2+y,-z
1/2-x,1/2-y,-z
1/2+x,1/2-y,z
loop_
_atom_site_type_symbol
_atom_site_label
_atom_site_fract_x
_atom_site_fract_y
_atom_site_fract_z
Si Si1 0.995858 0.096384 0.705461
Si Si2 0.772696 0.657665 0.617747
Si Si3 0.158267 0.405358 0.572300
Si Si4 0.307200 0.597026 0.095399
Si Si5 0.597469 0.092873 0.276765
Si Si6 0.375376 0.332210 0.593168
Si Si7 0.448952 0.404154 0.897943
O O1 0.903482 0.126173 0.668163
O O2 0.929955 0.121000 0.812219
O O3 0.126356 0.143326 0.652923
O O4 0.019698 0.000000 0.690549
O O5 0.844618 0.642112 0.510235
O O6 0.821570 0.598014 0.669779
O O7 0.799379 0.749783 0.634819
O O8 0.138963 0.500000 0.560485
O O9 0.287647 0.393953 0.574630
O O10 0.040580 0.368145 0.663450
O O11 0.301501 0.500000 0.103146
O O12 0.176058 0.633150 0.175852
O O13 0.419510 0.630244 0.113375
O O14 0.333667 0.626143 0.994606
O O15 0.575251 0.000000 0.262789
O O16 0.500000 0.315761 0.500000
O O17 0.454848 0.500000 0.903920
#
# Coordination Sequence:
#
# PCOD8088730 Si02
#       7
#     8   8   8   8   8   8   8
#     4  11  22  38  62  87 113 149 193 236 278 333
#     4  12  23  36  57  82 113 148 188 234 286 334
#     4  11  23  38  57  80 112 151 192 235 280 336
#     4   8  13  25  49  84 115 137 175 239 289 321
#     4  10  19  32  54  84 114 143 183 235 289 334
#     4  12  26  39  56  78 117 155 194 228 283 341
#     4   8  14  27  51  84 113 137 180 237 284 321
#
# _framework density 19.112344
#
# number of rings (size 3 to 8) (size 9 to 14) (size 15 to 20)
#    0.000    1.714    2.857    4.286    2.000    1.714 
#    0.000    0.000    0.000    1.714    3.714    5.000 
#    0.000    0.000    0.000    0.000    0.000    0.000 
#
# Total GULP energy -347057.252510 kJ/mol
# GULP energy per Si atom -12394.901875 kJ/mol
# Density = 1.906884 g / cm^3
# Si number density = 19.112344 Si / 1000 Ang^3
#
#
#
# Elastic Constant Matrix: (Units=GPa)
#
#
# Indices 1 2 3 4 5 6 
#
# 1 75.8372 19.1275 51.7698 0.0000 -3.8763 0.0000
# 2 19.1275 43.5339 28.3520 0.0000 -0.0310 0.0000
# 3 51.7698 28.3520 175.1461 0.0000 -8.4916 0.0000
# 4 0.0000 0.0000 0.0000 5.3675 0.0000 -0.2952
# 5 -3.8763 -0.0310 -8.4916 0.0000 31.7601 0.0000
# 6 0.0000 0.0000 0.0000 -0.2952 0.0000 25.7394
#
#
#
# Elastic Compliance Matrix: (Units=1/GPa)
#
#
# Indices 1 2 3 4 5 6 
#
# 1 0.017400 -0.004835 -0.004313 0.000000 0.000966 0.000000
# 2 -0.004835 0.027059 -0.003018 0.000000 -0.001370 0.000000
# 3 -0.004313 -0.003018 0.007545 0.000000 0.001488 0.000000
# 4 0.000000 0.000000 0.000000 0.186424 0.000000 0.002138
# 5 0.000966 -0.001370 0.001488 0.000000 0.032000 0.000000
# 6 0.000000 0.000000 0.000000 0.002138 0.000000 0.038875
#
#
# Mechanical properties :
#
#
# Convention : Reuss Voigt Hill
#
# Bulk Modulus (GPa) = 36.13782 54.77951 45.45867
# Shear Modulus (GPa) = 14.58324 25.59127 20.08726
#
# Velocity S-wave (km/s) = 2.76529 3.66319 3.24544
# Velocity P-wave (km/s) = 5.39860 6.82759 6.15471
#
# Compressibility (1/GPa) = 0.02767184
#
# Stress axis : x y z
#
# Youngs Moduli (GPa) = 57.47284 36.95606 132.53609
#
# Poissons Ratio (x) = 0.17868 0.57169
# Poissons Ratio (y) = 0.27788 0.39994
# Poissons Ratio (z) = 0.24791 0.11152
#
# Static dielectric constant tensor:
#      x y z
#    x 3.414470 0.000000 -0.122210 
#    y 0.000000 3.095510 0.000000 
#    z -0.122210 0.000000 4.133700 
# 
# 
# High freq. dielectric constant tensor:
#      x y z
#    x 1.726550 0.000000 -0.006000 
#    y 0.000000 1.706290 0.000000 
#    z -0.006000 0.000000 1.758670 
# 
# From -- ./inp_files/263209.got.cif
#   From: 2010.06.25/outbox.cif.g09.slc.cpg/sg12_132_cif.got.tgz:263209.got - 2010.06.28 00:19:55.
