data_PCOD8088720
_publ_section_title
;
Structure prediction by ZEFSAII (Michael W. Deem and Ramdas Pophale) SiO2 
 PCOD8088720
Probable space group: C 2/M
;
_chemical_formula_sum "Si O2"
_cell_formula_units_Z 40
_cell_length_a 28.027238
_cell_length_b 7.894331
_cell_length_c 10.254265
_cell_angle_alpha 90.000000
_cell_angle_beta 76.166801
_cell_angle_gamma 90.000000
_cell_volume 2203.015575
_symmetry_space_group_name_H-M "C 2/M"
_symmetry_group_IT_number 12
_symmetry_cell_setting 'monoclinic'
loop_
_space_group_symop_operation_xyz
x,y,z
-x,y,-z
-x,-y,-z
x,-y,z
1/2+x,1/2+y,z
1/2-x,1/2+y,-z
1/2-x,1/2-y,-z
1/2+x,1/2-y,z
loop_
_atom_site_type_symbol
_atom_site_label
_atom_site_fract_x
_atom_site_fract_y
_atom_site_fract_z
Si Si1 0.039642 0.000000 0.360775
Si Si2 0.473719 0.500000 0.154077
Si Si3 0.305760 0.312038 0.320362
Si Si4 0.591102 0.809958 0.724288
Si Si5 0.203292 0.187941 0.366097
Si Si6 0.399901 0.189897 0.586205
O O1 0.071846 0.170903 0.347405
O O2 0.000000 0.000000 0.500000
O O3 0.014798 0.000000 0.237439
O O4 0.441516 0.670417 0.182825
O O5 0.500000 0.500000 0.000000
O O6 0.318265 0.500000 0.263499
O O7 0.352999 0.196495 0.257851
O O8 0.256382 0.249921 0.278737
O O9 0.295346 0.309464 0.479771
O O10 0.590430 0.767040 0.571287
O O11 0.570893 0.000000 0.763833
O O12 0.158446 0.303608 0.344740
O O13 0.193644 0.000000 0.319281
O O14 0.418567 0.000000 0.608448
#
# Coordination Sequence:
#
# PCOD8088720 Si02
#       6
#     4   4   8   8   8   8
#     4  12  22  38  60  80 108 150 188 232 284 326
#     4  12  26  42  58  80 110 148 192 238 280 325
#     4   9  15  24  43  72 112 150 177 212 273 331
#     4  10  19  34  55  80 112 147 185 230 278 332
#     4   9  15  24  41  73 116 148 173 216 269 329
#     4  10  19  32  54  83 115 145 182 227 278 332
#
# _framework density 18.156929000000002
#
# number of rings (size 3 to 8) (size 9 to 14) (size 15 to 20)
#    0.000    2.000    4.000    1.200    0.000    6.400 
#    0.000    0.000    0.000    0.000    0.000    1.400 
#    0.000    0.000    0.000    0.000    0.000    0.000 
#
# Total GULP energy -247899.183053 kJ/mol
# GULP energy per Si atom -12394.959153 kJ/mol
# Density = 1.811560 g / cm^3
# Si number density = 18.156929 Si / 1000 Ang^3
#
#
#
# Elastic Constant Matrix: (Units=GPa)
#
#
# Indices 1 2 3 4 5 6 
#
# 1 116.9521 59.5256 41.5434 0.0000 -9.1755 0.0000
# 2 59.5256 137.3633 31.3748 0.0000 -10.1621 0.0000
# 3 41.5434 31.3748 54.6939 0.0000 -4.0012 0.0000
# 4 0.0000 0.0000 0.0000 10.0130 0.0000 -5.7991
# 5 -9.1755 -10.1621 -4.0012 0.0000 11.3462 0.0000
# 6 0.0000 0.0000 0.0000 -5.7991 0.0000 35.0643
#
#
#
# Elastic Compliance Matrix: (Units=1/GPa)
#
#
# Indices 1 2 3 4 5 6 
#
# 1 0.013631 -0.003753 -0.007842 0.000000 0.004896 0.000000
# 2 -0.003753 0.009823 -0.002425 0.000000 0.004908 0.000000
# 3 -0.007842 -0.002425 0.025671 0.000000 0.000539 0.000000
# 4 0.000000 0.000000 0.000000 0.110449 0.000000 0.018266
# 5 0.004896 0.004908 0.000539 0.000000 0.096680 0.000000
# 6 0.000000 0.000000 0.000000 0.018266 0.000000 0.031540
#
#
# Mechanical properties :
#
#
# Convention : Reuss Voigt Hill
#
# Bulk Modulus (GPa) = 47.43034 63.76630 55.59832
# Shear Modulus (GPa) = 15.48645 23.05574 19.27110
#
# Velocity S-wave (km/s) = 2.92365 3.56730 3.26139
# Velocity P-wave (km/s) = 6.12994 7.22241 6.69849
#
# Compressibility (1/GPa) = 0.02108355
#
# Stress axis : x y z
#
# Youngs Moduli (GPa) = 73.36436 101.79688 38.95495
#
# Poissons Ratio (x) = 0.38208 0.30549
# Poissons Ratio (y) = 0.27536 0.09447
# Poissons Ratio (z) = 0.57532 0.24688
#
# Static dielectric constant tensor:
#      x y z
#    x 3.525370 0.000000 -0.173260 
#    y 0.000000 3.549570 0.000000 
#    z -0.173260 0.000000 2.540490 
# 
# 
# High freq. dielectric constant tensor:
#      x y z
#    x 1.719890 0.000000 -0.014760 
#    y 0.000000 1.723510 0.000000 
#    z -0.014760 0.000000 1.606770 
# 
# From -- ./inp_files/171433.got.cif
#   From: 2010.06.25/outbox.cif.g09.slc.cpg/sg12_86_cif.got.tgz:171433.got - 2010.06.28 00:19:55.
