data_PCOD8088062
_publ_section_title
;
Structure prediction by ZEFSAII (Michael W. Deem and Ramdas Pophale) SiO2 
 PCOD8088062
Probable space group: C 2/M
;
_chemical_formula_sum "Si O2"
_cell_formula_units_Z 56
_cell_length_a 10.589560
_cell_length_b 28.167442
_cell_length_c 16.248814
_cell_angle_alpha 90.000000
_cell_angle_beta 37.564853
_cell_angle_gamma 90.000000
_cell_volume 2954.840243
_symmetry_space_group_name_H-M "C 2/M"
_symmetry_group_IT_number 12
_symmetry_cell_setting 'monoclinic'
loop_
_space_group_symop_operation_xyz
x,y,z
-x,y,-z
-x,-y,-z
x,-y,z
1/2+x,1/2+y,z
1/2-x,1/2+y,-z
1/2-x,1/2-y,-z
1/2+x,1/2-y,z
loop_
_atom_site_type_symbol
_atom_site_label
_atom_site_fract_x
_atom_site_fract_y
_atom_site_fract_z
Si Si1 0.791114 0.349062 0.016261
Si Si2 0.158955 0.053450 0.037524
Si Si3 0.813927 0.696777 0.183393
Si Si4 0.001035 0.363799 0.403647
Si Si5 0.859446 0.203601 0.410592
Si Si6 0.388023 0.700938 0.201495
Si Si7 0.205754 0.552944 0.217716
O O1 0.798009 0.322680 0.099462
O O2 0.593591 0.328524 0.068515
O O3 0.764376 0.406144 0.040235
O O4 0.012839 0.335672 0.858415
O O5 0.241479 0.062717 0.903761
O O6 0.217861 0.000000 0.037255
O O7 0.911151 0.059668 0.167232
O O8 0.581384 0.694704 0.340874
O O9 0.890930 0.751010 0.147340
O O10 0.184891 0.328520 0.282411
O O11 0.025373 0.412258 0.340661
O O12 0.000000 0.375879 0.500000
O O13 0.780575 0.341443 0.494188
O O14 0.750000 0.250000 0.500000
O O15 0.886498 0.211361 0.299405
O O16 0.119110 0.500000 0.273442
#
# Coordination Sequence:
#
# PCOD8088062 Si02
#       7
#     8   8   8   8   8   8   8
#     4  10  20  36  53  78 106 136 175 229 268 310
#     4   9  18  35  58  81 105 135 174 223 280 328
#     4  10  21  35  49  73 110 143 182 212 255 320
#     4  10  19  32  52  77 106 139 174 209 263 316
#     4  10  20  33  51  71 103 147 185 211 246 311
#     4  10  19  34  51  74 107 142 173 220 265 305
#     4   9  18  34  55  83 107 129 170 226 281 327
#
# _framework density 18.951955999999999
#
# number of rings (size 3 to 8) (size 9 to 14) (size 15 to 20)
#    0.000    2.286    2.857    1.286    0.000    1.429 
#    5.143    1.429    0.000    0.857    0.000    2.000 
#    0.000    0.000    0.000    0.000    0.000    0.000 
#
# Total GULP energy -346999.124743 kJ/mol
# GULP energy per Si atom -12392.825884 kJ/mol
# Density = 1.890882 g / cm^3
# Si number density = 18.951956 Si / 1000 Ang^3
#
#
#
# Elastic Constant Matrix: (Units=GPa)
#
#
# Indices 1 2 3 4 5 6 
#
# 1 33.1372 40.8980 28.8094 0.0000 -15.2911 0.0000
# 2 40.8980 162.4571 62.2632 0.0000 -8.4033 0.0000
# 3 28.8094 62.2632 112.9425 0.0000 -32.3903 0.0000
# 4 0.0000 0.0000 0.0000 36.3178 0.0000 4.3893
# 5 -15.2911 -8.4033 -32.3903 0.0000 29.6895 0.0000
# 6 0.0000 0.0000 0.0000 4.3893 0.0000 18.3152
#
#
#
# Elastic Compliance Matrix: (Units=1/GPa)
#
#
# Indices 1 2 3 4 5 6 
#
# 1 0.059146 -0.013513 0.000002 0.000000 0.026640 0.000000
# 2 -0.013513 0.011168 -0.005529 0.000000 -0.009831 0.000000
# 3 0.000002 -0.005529 0.016668 0.000000 0.016621 0.000000
# 4 0.000000 0.000000 0.000000 0.028356 0.000000 -0.006796
# 5 0.026640 -0.009831 0.016621 0.000000 0.062753 0.000000
# 6 0.000000 0.000000 0.000000 -0.006796 0.000000 0.056228
#
#
# Mechanical properties :
#
#
# Convention : Reuss Voigt Hill
#
# Bulk Modulus (GPa) = 20.44859 63.60866 42.02862
# Shear Modulus (GPa) = 17.31910 28.63558 22.97734
#
# Velocity S-wave (km/s) = 3.02626 3.89132 3.48573
# Velocity P-wave (km/s) = 4.79835 7.33661 6.19879
#
# Compressibility (1/GPa) = 0.04890312
#
# Stress axis : x y z
#
# Youngs Moduli (GPa) = 16.90730 89.54294 59.99475
#
# Poissons Ratio (x) = 1.20997 -0.00014
# Poissons Ratio (y) = 0.22846 0.33172
# Poissons Ratio (z) = -0.00004 0.49509
#
# Static dielectric constant tensor:
#      x y z
#    x 3.422140 0.000000 -0.681240 
#    y 0.000000 3.535140 0.000000 
#    z -0.681240 0.000000 4.354640 
# 
# 
# High freq. dielectric constant tensor:
#      x y z
#    x 1.700020 0.000000 -0.015760 
#    y 0.000000 1.738180 0.000000 
#    z -0.015760 0.000000 1.738930 
# 
# From -- ./inp_files/135277.got.cif
#   From: 2010.06.25/outbox.cif.g09.slc.cpg/sg12_68_cif.got.tgz:135277.got - 2010.06.28 00:19:55.
