data_PCOD8088945
_publ_section_title
;
Structure prediction by ZEFSAII (Michael W. Deem and Ramdas Pophale) SiO2 
 PCOD8088945
Probable space group: C 2/M
;
_chemical_formula_sum "Si O2"
_cell_formula_units_Z 56
_cell_length_a 20.322191
_cell_length_b 8.778706
_cell_length_c 30.630592
_cell_angle_alpha 90.000000
_cell_angle_beta 32.615057
_cell_angle_gamma 90.000000
_cell_volume 2945.363296
_symmetry_space_group_name_H-M "C 2/M"
_symmetry_group_IT_number 12
_symmetry_cell_setting 'monoclinic'
loop_
_space_group_symop_operation_xyz
x,y,z
-x,y,-z
-x,-y,-z
x,-y,z
1/2+x,1/2+y,z
1/2-x,1/2+y,-z
1/2-x,1/2-y,-z
1/2+x,1/2-y,z
loop_
_atom_site_type_symbol
_atom_site_label
_atom_site_fract_x
_atom_site_fract_y
_atom_site_fract_z
Si Si1 0.576047 0.322190 0.736940
Si Si2 0.327492 0.677236 0.995142
Si Si3 0.340761 0.823334 0.829965
Si Si4 0.698933 0.323986 0.237692
Si Si5 0.073434 0.174493 0.593040
Si Si6 0.928016 0.679028 0.166320
Si Si7 0.779914 0.675378 0.414185
O O1 0.577178 0.500000 0.745991
O O2 0.458756 0.278740 0.773669
O O3 0.572318 0.233713 0.784065
O O4 0.696543 0.275156 0.642270
O O5 0.337574 0.500000 0.979511
O O6 0.462070 0.746999 0.922129
O O7 0.250000 0.750000 0.000000
O O8 0.264254 0.711809 0.076450
O O9 0.287902 0.778520 0.812556
O O10 0.378826 0.000000 0.809634
O O11 0.714702 0.500000 0.215414
O O12 0.569766 0.296320 0.334010
O O13 0.802171 0.272007 0.213884
O O14 0.121343 0.285260 0.603855
O O15 0.143787 0.209693 0.508343
O O16 0.099696 0.000000 0.592779
O O17 0.947697 0.500000 0.155390
O O18 0.796403 0.500000 0.392131
#
# Coordination Sequence:
#
# PCOD8088945 Si02
#       7
#     8   8   8   8   8   8   8
#     4  12  23  37  59  86 117 155 199 244 294 350
#     4  11  23  39  61  88 119 154 195 246 294 344
#     4  11  23  38  61  89 117 151 195 244 291 346
#     4  10  22  40  61  87 120 158 195 239 294 353
#     4   9  18  34  56  85 119 154 193 239 293 348
#     4  11  24  41  61  86 119 156 198 243 295 353
#     4  10  19  32  56  88 118 150 194 246 293 343
#
# _framework density 19.012936
#
# number of rings (size 3 to 8) (size 9 to 14) (size 15 to 20)
#    0.000    1.429    2.857    3.000    0.000    4.000 
#    0.000    3.571    0.000    4.286    0.000    0.000 
#    0.000    0.000    0.000    0.000    0.000    0.000 
#
# Total GULP energy -347323.374285 kJ/mol
# GULP energy per Si atom -12404.406224 kJ/mol
# Density = 1.896966 g / cm^3
# Si number density = 19.012936 Si / 1000 Ang^3
#
#
#
# Elastic Constant Matrix: (Units=GPa)
#
#
# Indices 1 2 3 4 5 6 
#
# 1 60.6441 19.9929 36.5501 0.0029 -10.7796 -0.0210
# 2 19.9929 73.1970 44.5918 0.0010 -3.8023 -0.0652
# 3 36.5501 44.5918 137.9589 0.0006 -4.9017 -0.0132
# 4 0.0029 0.0010 0.0006 33.9150 0.0041 3.3271
# 5 -10.7796 -3.8023 -4.9017 0.0041 31.2385 -0.0001
# 6 -0.0210 -0.0652 -0.0132 3.3271 -0.0001 27.1429
#
#
#
# Elastic Compliance Matrix: (Units=1/GPa)
#
#
# Indices 1 2 3 4 5 6 
#
# 1 0.021228 -0.002716 -0.004523 -0.000003 0.006285 0.000008
# 2 -0.002716 0.017405 -0.004891 -0.000004 0.000414 0.000038
# 3 -0.004523 -0.004891 0.010007 0.000001 -0.000586 -0.000011
# 4 -0.000003 -0.000004 0.000001 0.029844 -0.000005 -0.003658
# 5 0.006285 0.000414 -0.000586 -0.000005 0.034139 0.000006
# 6 0.000008 0.000038 -0.000011 -0.003658 0.000006 0.037291
#
#
# Mechanical properties :
#
#
# Convention : Reuss Voigt Hill
#
# Bulk Modulus (GPa) = 41.01877 52.67440 46.84658
# Shear Modulus (GPa) = 27.42705 29.83696 28.63200
#
# Velocity S-wave (km/s) = 3.80221 3.96573 3.88483
# Velocity P-wave (km/s) = 6.39505 6.98098 6.69443
#
# Compressibility (1/GPa) = 0.02437909
#
# Stress axis : x y z
#
# Youngs Moduli (GPa) = 47.10708 57.45443 99.93024
#
# Poissons Ratio (x) = 0.15607 0.45196
# Poissons Ratio (y) = 0.12796 0.48880
# Poissons Ratio (z) = 0.21305 0.28103
#
# Static dielectric constant tensor:
#      x y z
#    x 3.258270 0.000000 0.009340 
#    y 0.000000 3.565040 0.000010 
#    z 0.009340 0.000010 3.811120 
# 
# 
# High freq. dielectric constant tensor:
#      x y z
#    x 1.712320 0.000000 0.004470 
#    y 0.000000 1.748430 0.000000 
#    z 0.004470 0.000000 1.759760 
# 
# From -- ./inp_files/362946.got.cif
#   From: 2010.06.25/outbox.cif.g09.slc.cpg/sg12_182_cif.got.tgz:362946.got - 2010.06.28 00:19:55.
