data_PCOD8088259
_publ_section_title
;
Structure prediction by ZEFSAII (Michael W. Deem and Ramdas Pophale) SiO2 
 PCOD8088259
Probable space group: C 2/M
;
_chemical_formula_sum "Si O2"
_cell_formula_units_Z 56
_cell_length_a 15.368823
_cell_length_b 8.849777
_cell_length_c 24.493253
_cell_angle_alpha 90.000000
_cell_angle_beta 62.045759
_cell_angle_gamma 90.000000
_cell_volume 2942.649769
_symmetry_space_group_name_H-M "C 2/M"
_symmetry_group_IT_number 12
_symmetry_cell_setting 'monoclinic'
loop_
_space_group_symop_operation_xyz
x,y,z
-x,y,-z
-x,-y,-z
x,-y,z
1/2+x,1/2+y,z
1/2-x,1/2+y,-z
1/2-x,1/2-y,-z
1/2+x,1/2-y,z
loop_
_atom_site_type_symbol
_atom_site_label
_atom_site_fract_x
_atom_site_fract_y
_atom_site_fract_z
Si Si1 0.016644 0.822074 0.932239
Si Si2 0.097385 0.320350 0.500004
Si Si3 0.063377 0.679278 0.631234
Si Si4 0.740486 0.320740 0.631199
Si Si5 0.342330 0.820103 0.711051
Si Si6 0.237982 0.820700 0.849756
Si Si7 0.671096 0.820646 0.063607
O O1 0.938401 0.736531 0.917311
O O2 0.125303 0.763116 0.884397
O O3 0.003679 0.000000 0.926475
O O4 0.000000 0.779815 0.000000
O O5 0.092746 0.500000 0.499977
O O6 0.100308 0.261865 0.561261
O O7 0.191846 0.261827 0.438758
O O8 0.000000 0.254224 0.500000
O O9 0.067352 0.500000 0.633353
O O10 0.132761 0.749903 0.656929
O O11 0.953854 0.739681 0.675144
O O12 0.733194 0.500000 0.633291
O O13 0.784413 0.260656 0.675134
O O14 0.290426 0.754120 0.780449
O O15 0.342065 0.000000 0.711776
O O16 0.299570 0.766369 0.884251
O O17 0.236584 0.000000 0.848724
O O18 0.675627 0.000000 0.056727
O O19 0.750000 0.750000 0.000000
#
# Coordination Sequence:
#
# PCOD8088259 Si02
#       7
#     8   8   8   8   8   8   8
#     4  10  19  35  56  79 106 138 171 209 261 312
#     4   9  15  28  51  76  99 131 175 215 248 298
#     4  10  19  32  53  77 103 135 173 213 257 304
#     4  10  19  32  53  77 102 133 174 216 255 302
#     4   9  18  34  54  74  99 141 181 206 246 313
#     4   9  19  35  54  76 106 138 172 212 258 310
#     4  11  21  35  56  82 108 136 171 214 261 310
#
# _framework density 19.030467000000002
#
# number of rings (size 3 to 8) (size 9 to 14) (size 15 to 20)
#    0.000    2.286    2.857    0.857    0.000    1.429 
#    0.000    0.714    0.000    4.286    0.000    0.000 
#    0.000    0.000    0.000    0.000    0.000    0.000 
#
# Total GULP energy -347194.964165 kJ/mol
# GULP energy per Si atom -12399.820149 kJ/mol
# Density = 1.898715 g / cm^3
# Si number density = 19.030467 Si / 1000 Ang^3
#
#
#
# Elastic Constant Matrix: (Units=GPa)
#
#
# Indices 1 2 3 4 5 6 
#
# 1 200.3978 32.2706 93.6073 0.0000 -1.0803 0.0000
# 2 32.2706 25.0861 24.4742 -0.0001 1.1256 0.0000
# 3 93.6073 24.4742 172.4269 0.0000 0.2981 0.0000
# 4 0.0000 -0.0001 0.0000 9.9159 0.0000 0.1690
# 5 -1.0803 1.1256 0.2981 0.0000 19.9348 0.0000
# 6 0.0000 0.0000 0.0000 0.1690 0.0000 32.1731
#
#
#
# Elastic Compliance Matrix: (Units=1/GPa)
#
#
# Indices 1 2 3 4 5 6 
#
# 1 0.007538 -0.006663 -0.003148 0.000000 0.000832 0.000000
# 2 -0.006663 0.052286 -0.003799 0.000000 -0.003257 0.000000
# 3 -0.003148 -0.003799 0.008048 0.000000 -0.000076 0.000000
# 4 0.000000 0.000000 0.000000 0.100857 0.000000 -0.000530
# 5 0.000832 -0.003257 -0.000076 0.000000 0.050394 0.000000
# 6 0.000000 0.000000 0.000000 -0.000530 0.000000 0.031085
#
#
# Mechanical properties :
#
#
# Convention : Reuss Voigt Hill
#
# Bulk Modulus (GPa) = 24.59859 77.62390 51.11124
# Shear Modulus (GPa) = 17.18349 28.90869 23.04609
#
# Velocity S-wave (km/s) = 3.00817 3.90176 3.48373
# Velocity P-wave (km/s) = 5.00194 7.82152 6.56489
#
# Compressibility (1/GPa) = 0.04065274
#
# Stress axis : x y z
#
# Youngs Moduli (GPa) = 132.66267 19.12559 124.25761
#
# Poissons Ratio (x) = 0.12743 0.39115
# Poissons Ratio (y) = 0.88392 0.47201
# Poissons Ratio (z) = 0.41761 0.07265
#
# Static dielectric constant tensor:
#      x y z
#    x 3.715640 0.000000 -0.000300 
#    y 0.000000 2.948800 0.000000 
#    z -0.000300 0.000000 3.736940 
# 
# 
# High freq. dielectric constant tensor:
#      x y z
#    x 1.757700 0.000000 -0.000840 
#    y 0.000000 1.688700 0.000000 
#    z -0.000840 0.000000 1.742730 
# 
# From -- ./inp_files/308918.got.cif
#   From: 2010.06.25/outbox.cif.g09.slc.cpg/sg12_155_cif.got.tgz:308918.got - 2010.06.28 00:19:55.
