data_PCOD8088354
_publ_section_title
;
Structure prediction by ZEFSAII (Michael W. Deem and Ramdas Pophale) SiO2 
 PCOD8088354
Probable space group: C 2/M
;
_chemical_formula_sum "Si O2"
_cell_formula_units_Z 56
_cell_length_a 18.263956
_cell_length_b 9.001746
_cell_length_c 20.004622
_cell_angle_alpha 90.000000
_cell_angle_beta 62.967827
_cell_angle_gamma 90.000000
_cell_volume 2929.601150
_symmetry_space_group_name_H-M "C 2/M"
_symmetry_group_IT_number 12
_symmetry_cell_setting 'monoclinic'
loop_
_space_group_symop_operation_xyz
x,y,z
-x,y,-z
-x,-y,-z
x,-y,z
1/2+x,1/2+y,z
1/2-x,1/2+y,-z
1/2-x,1/2-y,-z
1/2+x,1/2-y,z
loop_
_atom_site_type_symbol
_atom_site_label
_atom_site_fract_x
_atom_site_fract_y
_atom_site_fract_z
Si Si1 0.025029 0.675830 0.791469
Si Si2 0.329903 0.176703 0.497563
Si Si3 0.316934 0.326831 0.218054
Si Si4 0.990702 0.676501 0.353262
Si Si5 0.223645 0.170961 0.914401
Si Si6 0.651661 0.175863 0.359032
Si Si7 0.372143 0.326948 0.913861
O O1 0.020522 0.500000 0.798374
O O2 0.114511 0.728667 0.775619
O O3 0.007973 0.732755 0.723478
O O4 0.958154 0.744835 0.868795
O O5 0.250000 0.250000 0.500000
O O6 0.408383 0.233674 0.423419
O O7 0.340678 0.234754 0.568705
O O8 0.320465 0.000000 0.498519
O O9 0.333243 0.500000 0.226216
O O10 0.318279 0.293679 0.138640
O O11 0.230213 0.273621 0.283855
O O12 0.993008 0.500000 0.354596
O O13 0.069968 0.743443 0.358545
O O14 0.305135 0.269141 0.888748
O O15 0.252087 0.000000 0.906835
O O16 0.157383 0.209250 0.998804
O O17 0.644065 0.000000 0.362581
O O18 0.385654 0.500000 0.896475
#
# Coordination Sequence:
#
# PCOD8088354 Si02
#       7
#     8   8   8   8   8   8   8
#     4  11  22  35  52  75 106 141 176 216 262 309
#     4  10  19  32  53  79 106 134 167 209 255 306
#     4  10  20  35  54  76 105 138 173 214 261 314
#     4   9  18  33  53  76 102 135 175 215 255 303
#     4   9  19  36  57  79 105 138 172 211 262 315
#     4   9  17  31  54  79 100 130 174 216 253 302
#     4  10  20  35  56  80 105 135 174 217 260 310
#
# _framework density 19.115231000000001
#
# number of rings (size 3 to 8) (size 9 to 14) (size 15 to 20)
#    0.000    2.286    0.000    3.000    0.000    5.714 
#    0.000    3.571    0.000    4.286    0.000    0.000 
#    0.000    0.000    0.000    0.000    0.000    0.000 
#
# Total GULP energy -347287.144195 kJ/mol
# GULP energy per Si atom -12403.112293 kJ/mol
# Density = 1.907172 g / cm^3
# Si number density = 19.115231 Si / 1000 Ang^3
#
#
#
# Elastic Constant Matrix: (Units=GPa)
#
#
# Indices 1 2 3 4 5 6 
#
# 1 165.6031 41.8268 77.0001 0.0000 -6.9348 -0.0001
# 2 41.8268 48.0632 34.6283 -0.0002 -3.1738 -0.0006
# 3 77.0001 34.6283 126.5166 0.0000 -6.1297 0.0000
# 4 0.0000 -0.0002 0.0000 18.6671 0.0000 -3.3185
# 5 -6.9348 -3.1738 -6.1297 0.0000 33.8055 0.0000
# 6 -0.0001 -0.0006 0.0000 -3.3185 0.0000 35.7497
#
#
#
# Elastic Compliance Matrix: (Units=1/GPa)
#
#
# Indices 1 2 3 4 5 6 
#
# 1 0.009310 -0.004981 -0.004271 0.000000 0.000668 0.000000
# 2 -0.004981 0.028627 -0.004765 0.000000 0.000802 0.000000
# 3 -0.004271 -0.004765 0.011847 0.000000 0.000825 0.000000
# 4 0.000000 0.000000 0.000000 0.054469 0.000000 0.005056
# 5 0.000668 0.000802 0.000825 0.000000 0.029943 0.000000
# 6 0.000000 0.000000 0.000000 0.005056 0.000000 0.028442
#
#
# Mechanical properties :
#
#
# Convention : Reuss Voigt Hill
#
# Bulk Modulus (GPa) = 45.97479 71.89927 58.93703
# Shear Modulus (GPa) = 25.26251 30.09298 27.67775
#
# Velocity S-wave (km/s) = 3.63931 3.97204 3.80931
# Velocity P-wave (km/s) = 6.46244 7.66364 7.08853
#
# Compressibility (1/GPa) = 0.02175105
#
# Stress axis : x y z
#
# Youngs Moduli (GPa) = 107.40707 34.93239 84.40663
#
# Poissons Ratio (x) = 0.17401 0.36047
# Poissons Ratio (y) = 0.53503 0.40218
# Poissons Ratio (z) = 0.45870 0.16644
#
# Static dielectric constant tensor:
#      x y z
#    x 3.546750 0.000000 0.032920 
#    y 0.000000 3.193820 0.000000 
#    z 0.032920 0.000000 3.754760 
# 
# 
# High freq. dielectric constant tensor:
#      x y z
#    x 1.751570 0.000000 -0.001000 
#    y 0.000000 1.710330 0.000000 
#    z -0.001000 0.000000 1.760150 
# 
# From -- ./inp_files/275232.got.cif
#   From: 2010.06.25/outbox.cif.g09.slc.cpg/sg12_138_cif.got.tgz:275232.got - 2010.06.28 00:19:55.
