data_PCOD8088199
_publ_section_title
;
Structure prediction by ZEFSAII (Michael W. Deem and Ramdas Pophale) SiO2 
 PCOD8088199
Probable space group: C 2/M
;
_chemical_formula_sum "Si O2"
_cell_formula_units_Z 56
_cell_length_a 19.878712
_cell_length_b 9.473744
_cell_length_c 14.792042
_cell_angle_alpha 90.000000
_cell_angle_beta 69.925318
_cell_angle_gamma 90.000000
_cell_volume 2616.479765
_symmetry_space_group_name_H-M "C 2/M"
_symmetry_group_IT_number 12
_symmetry_cell_setting 'monoclinic'
loop_
_space_group_symop_operation_xyz
x,y,z
-x,y,-z
-x,-y,-z
x,-y,z
1/2+x,1/2+y,z
1/2-x,1/2+y,-z
1/2-x,1/2-y,-z
1/2+x,1/2-y,z
loop_
_atom_site_type_symbol
_atom_site_label
_atom_site_fract_x
_atom_site_fract_y
_atom_site_fract_z
Si Si1 0.874378 0.841902 0.283950
Si Si2 0.213793 0.654053 0.785868
Si Si3 0.904912 0.343825 0.802408
Si Si4 0.988252 0.835159 0.900187
Si Si5 0.873791 0.844140 0.661807
Si Si6 0.256653 0.653753 0.081597
Si Si7 0.180129 0.837892 0.503663
O O1 0.812988 0.726363 0.293389
O O2 0.880931 0.833951 0.389697
O O3 0.944668 0.799556 0.195658
O O4 0.850034 0.000000 0.266396
O O5 0.178028 0.500000 0.816977
O O6 0.298528 0.636787 0.747187
O O7 0.189993 0.763067 0.875603
O O8 0.941844 0.500000 0.783727
O O9 0.925392 0.258196 0.884419
O O10 0.923932 0.256661 0.701261
O O11 0.820448 0.368493 0.839156
O O12 0.967892 0.000000 0.903916
O O13 0.000000 0.791143 0.000000
O O14 0.858906 0.778832 0.568835
O O15 0.910192 0.000000 0.638034
O O16 0.290646 0.500000 0.043373
O O17 0.250000 0.750000 0.000000
O O18 0.250000 0.750000 0.500000
O O19 0.204673 0.000000 0.473334
#
# Coordination Sequence:
#
# PCOD8088199 Si02
#       7
#     8   8   8   8   8   8   8
#     4  10  21  36  56  84 116 150 192 239 284 339
#     4  10  19  32  52  81 115 149 184 225 279 340
#     4  10  22  39  58  82 110 146 191 240 286 334
#     4  10  23  42  61  81 109 153 199 238 284 340
#     4   9  18  34  56  83 115 152 184 221 279 346
#     4  10  21  35  53  80 111 143 185 234 291 346
#     4  10  19  33  56  87 121 152 187 231 287 345
#
# _framework density 21.402804
#
# number of rings (size 3 to 8) (size 9 to 14) (size 15 to 20)
#    0.000    2.143    1.429    1.286    2.000    3.714 
#    0.000    0.714    0.000    4.286    0.000    0.000 
#    0.000    0.000    0.000    0.000    0.000    0.000 
#
# Total GULP energy -346916.380668 kJ/mol
# GULP energy per Si atom -12389.870738 kJ/mol
# Density = 2.135409 g / cm^3
# Si number density = 21.402804 Si / 1000 Ang^3
#
#
#
# Elastic Constant Matrix: (Units=GPa)
#
#
# Indices 1 2 3 4 5 6 
#
# 1 40.0913 29.8146 21.9406 0.0000 21.9625 0.0000
# 2 29.8146 151.5215 52.5050 0.0000 33.1172 0.0000
# 3 21.9406 52.5050 127.9749 0.0000 33.8782 0.0000
# 4 0.0000 0.0000 0.0000 25.9745 0.0000 10.2670
# 5 21.9625 33.1172 33.8782 0.0000 42.7236 0.0000
# 6 0.0000 0.0000 0.0000 10.2670 0.0000 23.8663
#
#
#
# Elastic Compliance Matrix: (Units=1/GPa)
#
#
# Indices 1 2 3 4 5 6 
#
# 1 0.036410 -0.003553 -0.000707 0.000000 -0.015402 0.000000
# 2 -0.003553 0.008747 -0.002111 0.000000 -0.003280 0.000000
# 3 -0.000707 -0.002111 0.010470 0.000000 -0.006302 0.000000
# 4 0.000000 0.000000 0.000000 0.046387 0.000000 -0.019955
# 5 -0.015402 -0.003280 -0.006302 0.000000 0.038863 0.000000
# 6 0.000000 0.000000 0.000000 -0.019955 0.000000 0.050484
#
#
# Mechanical properties :
#
#
# Convention : Reuss Voigt Hill
#
# Bulk Modulus (GPa) = 23.31901 58.67868 40.99884
# Shear Modulus (GPa) = 22.89388 32.86806 27.88097
#
# Velocity S-wave (km/s) = 3.27412 3.92304 3.61318
# Velocity P-wave (km/s) = 5.02117 6.92793 6.05014
#
# Compressibility (1/GPa) = 0.04288347
#
# Stress axis : x y z
#
# Youngs Moduli (GPa) = 27.46526 114.32075 95.51250
#
# Poissons Ratio (x) = 0.40617 0.06756
# Poissons Ratio (y) = 0.09758 0.20167
# Poissons Ratio (z) = 0.01943 0.24138
#
# Static dielectric constant tensor:
#      x y z
#    x 6.622490 0.000000 2.311300 
#    y 0.000000 4.353850 0.000000 
#    z 2.311300 0.000000 5.569100 
# 
# 
# High freq. dielectric constant tensor:
#      x y z
#    x 1.796930 0.000000 0.024580 
#    y 0.000000 1.848500 0.000000 
#    z 0.024580 0.000000 1.842340 
# 
# From -- ./inp_files/237310.got.cif
#   From: 2010.06.25/outbox.cif.g09.slc.cpg/sg12_119_cif.got.tgz:237310.got - 2010.06.28 00:19:55.
