data_PCOD8088990
_publ_section_title
;
Structure prediction by ZEFSAII (Michael W. Deem and Ramdas Pophale) SiO2 
 PCOD8088990
Probable space group: C 2/M
;
_chemical_formula_sum "Si O2"
_cell_formula_units_Z 60
_cell_length_a 19.979812
_cell_length_b 18.149291
_cell_length_c 8.888012
_cell_angle_alpha 90.000000
_cell_angle_beta 98.320418
_cell_angle_gamma 90.000000
_cell_volume 3189.041750
_symmetry_space_group_name_H-M "C 2/M"
_symmetry_group_IT_number 12
_symmetry_cell_setting 'monoclinic'
loop_
_space_group_symop_operation_xyz
x,y,z
-x,y,-z
-x,-y,-z
x,-y,z
1/2+x,1/2+y,z
1/2-x,1/2+y,-z
1/2-x,1/2-y,-z
1/2+x,1/2-y,z
loop_
_atom_site_type_symbol
_atom_site_label
_atom_site_fract_x
_atom_site_fract_y
_atom_site_fract_z
Si Si1 0.722193 0.825437 0.057941
Si Si2 0.108878 0.306476 0.242746
Si Si3 0.000000 0.620662 0.000000
Si Si4 0.577701 0.084247 0.496967
Si Si5 0.855378 0.912132 0.098264
Si Si6 0.619583 0.919681 0.843543
Si Si7 0.939730 0.841537 0.871972
Si Si8 0.024145 0.084818 0.663337
O O1 0.684921 0.812257 0.204109
O O2 0.780652 0.884143 0.109843
O O3 0.750000 0.750000 0.000000
O O4 0.667716 0.857144 0.923668
O O5 0.054645 0.332380 0.104780
O O6 0.106750 0.354996 0.392362
O O7 0.089450 0.220480 0.251893
O O8 0.044008 0.575509 0.891957
O O9 0.500000 0.101209 0.500000
O O10 0.616029 0.096026 0.665490
O O11 0.587881 0.000000 0.439591
O O12 0.904154 0.884625 0.250461
O O13 0.856590 0.000000 0.081835
O O14 0.879137 0.875436 0.949945
O O15 0.652569 0.000000 0.882055
O O16 0.968236 0.905552 0.774440
O O17 0.000000 0.811566 0.000000
O O18 0.000000 0.124402 0.500000
O O19 0.034415 0.000000 0.631932
#
# Coordination Sequence:
#
# PCOD8088990 Si02
#       8
#     8   8   4   8   8   8   8   8
#     4  11  23  40  58  83 120 157 200 247 286 345
#     4  11  21  35  57  85 119 157 193 238 298 349
#     4  10  19  32  58  88 117 148 194 248 289 342
#     4  10  21  38  57  85 125 157 190 242 298 354
#     4  10  20  38  63  83 111 154 196 240 293 348
#     4  10  21  37  60  87 117 156 201 244 290 348
#     4  10  19  34  58  85 113 146 190 246 297 347
#     4   9  19  36  58  89 116 139 184 244 299 351
#
# _framework density 18.814430000000002
#
# number of rings (size 3 to 8) (size 9 to 14) (size 15 to 20)
#    0.000    1.867    3.333    1.000    0.000    4.800 
#    2.400    2.000    0.000    3.200    0.000    0.000 
#    0.000    0.000    0.000    0.000    0.000    0.000 
#
# Total GULP energy -371800.697276 kJ/mol
# GULP energy per Si atom -12393.356576 kJ/mol
# Density = 1.877161 g / cm^3
# Si number density = 18.814430 Si / 1000 Ang^3
#
#
#
# Elastic Constant Matrix: (Units=GPa)
#
#
# Indices 1 2 3 4 5 6 
#
# 1 111.5503 37.1999 41.7201 0.0000 -6.9405 0.0000
# 2 37.1999 85.5443 34.4980 0.0000 -3.3256 0.0000
# 3 41.7201 34.4980 94.8985 0.0000 -10.8895 0.0000
# 4 0.0000 0.0000 0.0000 24.4916 0.0000 3.9129
# 5 -6.9405 -3.3256 -10.8895 0.0000 21.6950 0.0000
# 6 0.0000 0.0000 0.0000 3.9129 0.0000 21.6766
#
#
#
# Elastic Compliance Matrix: (Units=1/GPa)
#
#
# Indices 1 2 3 4 5 6 
#
# 1 0.011589 -0.003509 -0.003667 0.000000 0.001329 0.000000
# 2 -0.003509 0.014764 -0.003919 0.000000 -0.000827 0.000000
# 3 -0.003667 -0.003919 0.014188 0.000000 0.005348 0.000000
# 4 0.000000 0.000000 0.000000 0.042043 0.000000 -0.007589
# 5 0.001329 -0.000827 0.005348 0.000000 0.049076 0.000000
# 6 0.000000 0.000000 0.000000 -0.007589 0.000000 0.047503
#
#
# Mechanical properties :
#
#
# Convention : Reuss Voigt Hill
#
# Bulk Modulus (GPa) = 54.49342 57.64766 56.07054
# Shear Modulus (GPa) = 24.09989 25.47765 24.78877
#
# Velocity S-wave (km/s) = 3.58288 3.68388 3.63373
# Velocity P-wave (km/s) = 6.79283 6.98579 6.88999
#
# Compressibility (1/GPa) = 0.01835084
#
# Stress axis : x y z
#
# Youngs Moduli (GPa) = 86.29001 67.73094 70.48261
#
# Poissons Ratio (x) = 0.23768 0.25843
# Poissons Ratio (y) = 0.30281 0.27624
# Poissons Ratio (z) = 0.31639 0.26546
#
# Static dielectric constant tensor:
#      x y z
#    x 3.524580 0.000000 -0.036600 
#    y 0.000000 3.417070 0.000000 
#    z -0.036600 0.000000 3.548350 
# 
# 
# High freq. dielectric constant tensor:
#      x y z
#    x 1.725040 0.000000 -0.003130 
#    y 0.000000 1.732470 0.000000 
#    z -0.003130 0.000000 1.721860 
# 
# From -- ./inp_files/88014.got.cif
#   From: 2010.06.25/outbox.cif.g09.slc.cpg/sg12_45_cif.got.tgz:88014.got - 2010.06.28 00:19:55.
