data_PCOD8088071
_publ_section_title
;
Structure prediction by ZEFSAII (Michael W. Deem and Ramdas Pophale) SiO2 
 PCOD8088071
Probable space group: C 2/M
;
_chemical_formula_sum "Si O2"
_cell_formula_units_Z 48
_cell_length_a 22.469637
_cell_length_b 21.682699
_cell_length_c 12.274478
_cell_angle_alpha 90.000000
_cell_angle_beta 25.811261
_cell_angle_gamma 90.000000
_cell_volume 2603.807505
_symmetry_space_group_name_H-M "C 2/M"
_symmetry_group_IT_number 12
_symmetry_cell_setting 'monoclinic'
loop_
_space_group_symop_operation_xyz
x,y,z
-x,y,-z
-x,-y,-z
x,-y,z
1/2+x,1/2+y,z
1/2-x,1/2+y,-z
1/2-x,1/2-y,-z
1/2+x,1/2-y,z
loop_
_atom_site_type_symbol
_atom_site_label
_atom_site_fract_x
_atom_site_fract_y
_atom_site_fract_z
Si Si1 0.588729 0.930630 0.959748
Si Si2 0.628393 0.331675 0.228571
Si Si3 0.506721 0.237344 0.700196
Si Si4 0.474264 0.901774 0.373856
Si Si5 0.281647 0.932912 0.869042
Si Si6 0.772791 0.308906 0.209838
O O1 0.703731 0.876752 0.776457
O O2 0.653764 0.000000 0.848369
O O3 0.500000 0.917723 0.000000
O O4 0.487391 0.926413 0.229804
O O5 0.500000 0.362604 0.500000
O O6 0.584532 0.268895 0.242345
O O7 0.742414 0.317744 0.131220
O O8 0.670576 0.379778 0.066200
O O9 0.547210 0.171317 0.586830
O O10 0.650915 0.275169 0.477587
O O11 0.417295 0.229963 0.960955
O O12 0.340575 0.930566 0.649742
O O13 0.604159 0.923100 0.228021
O O14 0.214235 0.000000 0.997626
#
# Coordination Sequence:
#
# PCOD8088071 Si02
#       6
#     8   8   8   8   8   8
#     4  10  20  37  57  76 103 142 187 224 259 308
#     4  10  20  30  49  77 110 144 174 208 260 331
#     4  10  19  32  52  77 108 142 172 213 263 326
#     4  10  20  31  53  77 101 134 175 218 259 311
#     4  11  20  30  47  74 109 136 165 215 267 314
#     4  10  20  32  52  80 108 136 181 222 260 315
#
# _framework density 18.434543000000001
#
# number of rings (size 3 to 8) (size 9 to 14) (size 15 to 20)
#    0.000    1.833    3.333    3.500    7.000    0.333 
#    0.000    5.833    0.000    0.000    0.000    3.500 
#    0.000   48.000    0.000    0.000    0.000    0.000 
#
# Total GULP energy -297373.794463 kJ/mol
# GULP energy per Si atom -12390.574769 kJ/mol
# Density = 1.839258 g / cm^3
# Si number density = 18.434543 Si / 1000 Ang^3
#
#
#
# Elastic Constant Matrix: (Units=GPa)
#
#
# Indices 1 2 3 4 5 6 
#
# 1 65.2098 30.8693 20.8333 -0.0003 9.6610 -0.0003
# 2 30.8693 139.7745 40.6204 -0.0031 -10.4907 0.0000
# 3 20.8333 40.6204 90.2579 -0.0078 2.5069 -0.0002
# 4 -0.0003 -0.0031 -0.0078 13.7503 0.0002 -3.4439
# 5 9.6610 -10.4907 2.5069 0.0002 16.0906 0.0005
# 6 -0.0003 0.0000 -0.0002 -3.4439 0.0005 21.9328
#
#
#
# Elastic Compliance Matrix: (Units=1/GPa)
#
#
# Indices 1 2 3 4 5 6 
#
# 1 0.020713 -0.005144 -0.002036 -0.000001 -0.015473 0.000000
# 2 -0.005144 0.010122 -0.003653 0.000000 0.010257 0.000000
# 3 -0.002036 -0.003653 0.013283 0.000007 -0.003229 0.000001
# 4 -0.000001 0.000000 0.000007 0.075703 -0.000002 0.011887
# 5 -0.015473 0.010257 -0.003229 -0.000002 0.078628 -0.000002
# 6 0.000000 0.000000 0.000001 0.011887 -0.000002 0.047460
#
#
# Mechanical properties :
#
#
# Convention : Reuss Voigt Hill
#
# Bulk Modulus (GPa) = 44.53987 53.32090 48.93039
# Shear Modulus (GPa) = 18.17785 23.88268 21.03026
#
# Velocity S-wave (km/s) = 3.14359 3.60327 3.38125
# Velocity P-wave (km/s) = 6.11472 6.80431 6.46871
#
# Compressibility (1/GPa) = 0.02245179
#
# Stress axis : x y z
#
# Youngs Moduli (GPa) = 48.27855 98.79604 75.28428
#
# Poissons Ratio (x) = 0.50822 0.15329
# Poissons Ratio (y) = 0.24835 0.27500
# Poissons Ratio (z) = 0.09830 0.36089
#
# Static dielectric constant tensor:
#      x y z
#    x 2.992840 0.000000 0.127320 
#    y 0.000000 3.601290 0.000000 
#    z 0.127320 0.000000 3.614290 
# 
# 
# High freq. dielectric constant tensor:
#      x y z
#    x 1.661950 0.000000 0.014300 
#    y 0.000000 1.732790 0.000000 
#    z 0.014300 0.000000 1.711010 
# 
# From -- ./inp_files/133408.got.cif
#   From: 2010.06.25/outbox.cif.g09.slc.cpg/sg12_67_cif.got.tgz:133408.got - 2010.06.28 00:19:55.
