data_PCOD8088896
_publ_section_title
;
Structure prediction by ZEFSAII (Michael W. Deem and Ramdas Pophale) SiO2 
 PCOD8088896
Probable space group: C 2/M
;
_chemical_formula_sum "Si O2"
_cell_formula_units_Z 60
_cell_length_a 12.897884
_cell_length_b 13.270794
_cell_length_c 29.611327
_cell_angle_alpha 90.000000
_cell_angle_beta 43.287020
_cell_angle_gamma 90.000000
_cell_volume 3475.184916
_symmetry_space_group_name_H-M "C 2/M"
_symmetry_group_IT_number 12
_symmetry_cell_setting 'monoclinic'
loop_
_space_group_symop_operation_xyz
x,y,z
-x,y,-z
-x,-y,-z
x,-y,z
1/2+x,1/2+y,z
1/2-x,1/2+y,-z
1/2-x,1/2-y,-z
1/2+x,1/2-y,z
loop_
_atom_site_type_symbol
_atom_site_label
_atom_site_fract_x
_atom_site_fract_y
_atom_site_fract_z
Si Si1 0.973952 0.113353 0.926868
Si Si2 0.032236 0.117115 0.663368
Si Si3 0.128369 0.382306 0.425253
Si Si4 0.491525 0.727189 0.767221
Si Si5 0.707272 0.116906 0.216169
Si Si6 0.789967 0.115112 0.899849
Si Si7 0.000000 0.258342 0.000000
Si Si8 0.668923 0.227096 0.320712
O O1 0.828335 0.119474 0.940721
O O2 0.120794 0.143071 0.851093
O O3 0.992236 0.000000 0.940289
O O4 0.943192 0.188627 0.977437
O O5 0.979133 0.148956 0.729931
O O6 0.938569 0.177843 0.655381
O O7 0.210474 0.141282 0.602554
O O8 0.997322 0.000000 0.667107
O O9 0.112344 0.500000 0.420109
O O10 0.104181 0.326825 0.385498
O O11 0.000000 0.343414 0.500000
O O12 0.398689 0.827777 0.786328
O O13 0.425390 0.669213 0.830876
O O14 0.660858 0.763733 0.723990
O O15 0.668945 0.149765 0.279109
O O16 0.671785 0.000000 0.223229
O O17 0.633807 0.171385 0.939688
O O18 0.774971 0.000000 0.887983
#
# Coordination Sequence:
#
# PCOD8088896 Si02
#       8
#     8   8   8   8   8   8   4   8
#     4  10  21  36  55  75  99 132 168 210 259 310
#     4   9  19  33  51  78 107 137 172 211 254 300
#     4   9  18  33  53  79 109 140 174 211 251 298
#     4  10  19  34  52  75 102 132 168 213 260 305
#     4  10  19  33  53  77  99 128 171 212 253 302
#     4  11  22  36  54  75 100 133 171 213 259 310
#     4  12  22  38  54  74 104 134 168 214 260 318
#     4  10  19  32  56  77 103 138 172 212 256 299
#
# _framework density 17.265267999999999
#
# number of rings (size 3 to 8) (size 9 to 14) (size 15 to 20)
#    0.000    2.000    2.667    1.600    0.000    2.133 
#    0.000    0.000    0.000    1.200    0.000    0.000 
#    0.000    0.000    0.000    0.000    0.000    0.000 
#
# Total GULP energy -372067.891581 kJ/mol
# GULP energy per Si atom -12402.263053 kJ/mol
# Density = 1.722597 g / cm^3
# Si number density = 17.265268 Si / 1000 Ang^3
#
#
#
# Elastic Constant Matrix: (Units=GPa)
#
#
# Indices 1 2 3 4 5 6 
#
# 1 84.4223 46.7398 21.9336 0.0000 0.0367 0.0000
# 2 46.7398 94.2100 31.6716 0.0000 -0.0004 0.0000
# 3 21.9336 31.6716 70.1539 0.0000 -0.0056 0.0000
# 4 0.0000 0.0000 0.0000 22.6998 0.0001 -1.0895
# 5 0.0367 -0.0004 -0.0056 0.0001 23.5800 0.0000
# 6 0.0000 0.0000 0.0000 -1.0895 0.0000 29.3070
#
#
#
# Elastic Compliance Matrix: (Units=1/GPa)
#
#
# Indices 1 2 3 4 5 6 
#
# 1 0.016506 -0.007609 -0.001725 0.000000 -0.000026 0.000000
# 2 -0.007609 0.016021 -0.004854 0.000000 0.000011 0.000000
# 3 -0.001725 -0.004854 0.016985 0.000000 0.000007 0.000000
# 4 0.000000 0.000000 0.000000 0.044132 0.000000 0.001641
# 5 -0.000026 0.000011 0.000007 0.000000 0.042409 0.000000
# 6 0.000000 0.000000 0.000000 0.001641 0.000000 0.034183
#
#
# Mechanical properties :
#
#
# Convention : Reuss Voigt Hill
#
# Bulk Modulus (GPa) = 47.31324 49.94179 48.62752
# Shear Modulus (GPa) = 24.31210 25.01342 24.66276
#
# Velocity S-wave (km/s) = 3.75660 3.81040 3.78360
# Velocity P-wave (km/s) = 6.80289 6.95326 6.87849
#
# Compressibility (1/GPa) = 0.02113573
#
# Stress axis : x y z
#
# Youngs Moduli (GPa) = 60.58322 62.41626 58.87458
#
# Poissons Ratio (x) = 0.47493 0.10159
# Poissons Ratio (y) = 0.46098 0.28578
# Poissons Ratio (z) = 0.10454 0.30297
#
# Static dielectric constant tensor:
#      x y z
#    x 3.224380 0.000000 -0.047960 
#    y 0.000000 3.176790 0.000000 
#    z -0.047960 0.000000 3.173570 
# 
# 
# High freq. dielectric constant tensor:
#      x y z
#    x 1.668670 0.000000 -0.002490 
#    y 0.000000 1.665260 0.000000 
#    z -0.002490 0.000000 1.662730 
# 
# From -- ./inp_files/335921.got.cif
#   From: 2010.06.25/outbox.cif.g09.slc.cpg/sg12_168_cif.got.tgz:335921.got - 2010.06.28 00:19:55.
