data_PCOD8088624
_publ_section_title
;
Structure prediction by ZEFSAII (Michael W. Deem and Ramdas Pophale) SiO2 
 PCOD8088624
Probable space group: C 2/M
;
_chemical_formula_sum "Si O2"
_cell_formula_units_Z 64
_cell_length_a 14.327833
_cell_length_b 8.840301
_cell_length_c 30.037140
_cell_angle_alpha 90.000000
_cell_angle_beta 61.629908
_cell_angle_gamma 90.000000
_cell_volume 3347.633025
_symmetry_space_group_name_H-M "C 2/M"
_symmetry_group_IT_number 12
_symmetry_cell_setting 'monoclinic'
loop_
_space_group_symop_operation_xyz
x,y,z
-x,y,-z
-x,-y,-z
x,-y,z
1/2+x,1/2+y,z
1/2-x,1/2+y,-z
1/2-x,1/2-y,-z
1/2+x,1/2-y,z
loop_
_atom_site_type_symbol
_atom_site_label
_atom_site_fract_x
_atom_site_fract_y
_atom_site_fract_z
Si Si1 0.215294 0.677676 0.134620
Si Si2 0.144247 0.174349 0.508722
Si Si3 0.221308 0.822409 0.400371
Si Si4 0.938367 0.177925 0.382669
Si Si5 0.505942 0.820109 0.135010
Si Si6 0.649463 0.177230 0.326288
Si Si7 0.446296 0.321460 0.057553
Si Si8 0.206065 0.821993 0.789285
O O1 0.200837 0.500000 0.137105
O O2 0.322250 0.724684 0.084084
O O3 0.225661 0.732991 0.183460
O O4 0.111827 0.747846 0.134443
O O5 0.250000 0.250000 0.500000
O O6 0.129398 0.211280 0.459283
O O7 0.053964 0.217801 0.565461
O O8 0.165970 0.000000 0.509783
O O9 0.327778 0.730879 0.386963
O O10 0.178398 0.771144 0.363110
O O11 0.247408 0.000000 0.393125
O O12 0.032478 0.270287 0.337548
O O13 0.952625 0.000000 0.370414
O O14 0.504578 0.759848 0.085068
O O15 0.406318 0.762245 0.186235
O O16 0.504904 0.000000 0.134439
O O17 0.730959 0.221749 0.269210
O O18 0.651517 0.000000 0.335909
O O19 0.459672 0.500000 0.061395
O O20 0.500000 0.264911 0.000000
O O21 0.183739 0.000000 0.797863
#
# Coordination Sequence:
#
# PCOD8088624 Si02
#       8
#     8   8   8   8   8   8   8   8
#     4   8  16  33  54  75 101 136 174 212 258 306
#     4   8  16  31  52  75 101 135 172 211 260 317
#     4  10  20  36  56  78 106 140 176 217 267 323
#     4  10  20  36  56  79 107 137 173 219 267 324
#     4  10  19  32  54  81 106 134 173 221 269 310
#     4  11  23  37  54  79 107 139 179 223 273 325
#     4   9  18  34  54  76 109 151 184 209 248 307
#     4   9  20  39  56  71 100 138 176 217 260 314
#
# _framework density 19.117985000000001
#
# number of rings (size 3 to 8) (size 9 to 14) (size 15 to 20)
#    0.000    2.625    0.000    2.250    0.000    4.250 
#    0.000    8.750    0.000    0.000    0.000    0.000 
#    0.000    0.000    0.000    0.000    0.000    0.000 
#
# Total GULP energy -396554.810413 kJ/mol
# GULP energy per Si atom -12392.337825 kJ/mol
# Density = 1.907447 g / cm^3
# Si number density = 19.117985 Si / 1000 Ang^3
#
#
#
# Elastic Constant Matrix: (Units=GPa)
#
#
# Indices 1 2 3 4 5 6 
#
# 1 103.7005 21.4640 37.8339 0.0000 -5.2687 0.0000
# 2 21.4640 38.7499 36.8382 0.0000 -3.8163 0.0000
# 3 37.8339 36.8382 115.6094 0.0000 -6.9569 0.0000
# 4 0.0000 0.0000 0.0000 28.0734 0.0000 1.2091
# 5 -5.2687 -3.8163 -6.9569 0.0000 18.4508 0.0000
# 6 0.0000 0.0000 0.0000 1.2091 0.0000 28.9370
#
#
#
# Elastic Compliance Matrix: (Units=1/GPa)
#
#
# Indices 1 2 3 4 5 6 
#
# 1 0.011401 -0.003879 -0.002402 0.000000 0.001548 0.000000
# 2 -0.003879 0.038537 -0.010843 0.000000 0.002775 0.000000
# 3 -0.002402 -0.010843 0.013010 0.000000 0.001977 0.000000
# 4 0.000000 0.000000 0.000000 0.035685 0.000000 -0.001491
# 5 0.001548 0.002775 0.001977 0.000000 0.055960 0.000000
# 6 0.000000 0.000000 0.000000 -0.001491 0.000000 0.034620
#
#
# Mechanical properties :
#
#
# Convention : Reuss Voigt Hill
#
# Bulk Modulus (GPa) = 34.84419 50.03690 42.44054
# Shear Modulus (GPa) = 21.45674 25.88714 23.67194
#
# Velocity S-wave (km/s) = 3.35376 3.68376 3.52263
# Velocity P-wave (km/s) = 5.76735 6.65755 6.22838
#
# Compressibility (1/GPa) = 0.02869919
#
# Stress axis : x y z
#
# Youngs Moduli (GPa) = 87.71149 25.94927 76.86518
#
# Poissons Ratio (x) = 0.10067 0.18461
# Poissons Ratio (y) = 0.34028 0.83344
# Poissons Ratio (z) = 0.21066 0.28137
#
# Static dielectric constant tensor:
#      x y z
#    x 3.515070 0.000000 -0.011240 
#    y 0.000000 3.338250 0.000000 
#    z -0.011240 0.000000 3.798970 
# 
# 
# High freq. dielectric constant tensor:
#      x y z
#    x 1.739290 0.000000 -0.002050 
#    y 0.000000 1.733370 0.000000 
#    z -0.002050 0.000000 1.749550 
# 
# From -- ./inp_files/375063.got.cif
#   From: 2010.06.25/outbox.cif.g09.slc.cpg/sg12_188_cif.got.tgz:375063.got - 2010.06.28 00:19:55.
