data_PCOD8088689
_publ_section_title
;
Structure prediction by ZEFSAII (Michael W. Deem and Ramdas Pophale) SiO2 
 PCOD8088689
Probable space group: C 2/M
;
_chemical_formula_sum "Si O2"
_cell_formula_units_Z 48
_cell_length_a 24.587270
_cell_length_b 9.315799
_cell_length_c 12.402327
_cell_angle_alpha 90.000000
_cell_angle_beta 70.410218
_cell_angle_gamma 90.000000
_cell_volume 2676.323199
_symmetry_space_group_name_H-M "C 2/M"
_symmetry_group_IT_number 12
_symmetry_cell_setting 'monoclinic'
loop_
_space_group_symop_operation_xyz
x,y,z
-x,y,-z
-x,-y,-z
x,-y,z
1/2+x,1/2+y,z
1/2-x,1/2+y,-z
1/2-x,1/2-y,-z
1/2+x,1/2-y,z
loop_
_atom_site_type_symbol
_atom_site_label
_atom_site_fract_x
_atom_site_fract_y
_atom_site_fract_z
Si Si1 0.997392 0.830260 0.626668
Si Si2 0.304487 0.834014 0.256141
Si Si3 0.107558 0.333320 0.620421
Si Si4 0.692720 0.833959 0.375797
Si Si5 0.696730 0.833795 0.986866
Si Si6 0.386779 0.835403 0.770751
O O1 0.050255 0.761093 0.655725
O O2 0.000000 0.784401 0.500000
O O3 0.939220 0.771682 0.718048
O O4 0.999432 0.000000 0.639606
O O5 0.362746 0.805541 0.284148
O O6 0.252215 0.750430 0.346250
O O7 0.315688 0.781935 0.126593
O O8 0.287306 0.000000 0.271606
O O9 0.091170 0.500000 0.614898
O O10 0.149965 0.280554 0.497629
O O11 0.663930 0.801675 0.280015
O O12 0.707457 0.000000 0.381638
O O13 0.713704 0.000000 0.979854
O O14 0.750000 0.750000 0.000000
O O15 0.638745 0.805474 0.093790
O O16 0.407945 0.000000 0.743575
#
# Coordination Sequence:
#
# PCOD8088689 Si02
#       6
#     8   8   8   8   8   8
#     4  11  23  37  56  82 108 137 178 227 272 314
#     4  10  21  35  54  81 112 144 179 219 265 315
#     4  10  21  37  55  78 110 147 180 215 266 325
#     4  10  19  32  54  82 111 142 177 216 266 322
#     4  10  20  35  55  80 109 142 180 219 261 312
#     4  10  20  35  56  81 108 141 180 219 263 318
#
# _framework density 17.935054000000001
#
# number of rings (size 3 to 8) (size 9 to 14) (size 15 to 20)
#    0.000    1.833    3.333    1.000    0.000    3.333 
#    0.000    0.833    0.000    5.000    0.000    0.000 
#    0.000    0.000    0.000    0.000    0.000    0.000 
#
# Total GULP energy -297706.330045 kJ/mol
# GULP energy per Si atom -12404.430419 kJ/mol
# Density = 1.789423 g / cm^3
# Si number density = 17.935054 Si / 1000 Ang^3
#
#
#
# Elastic Constant Matrix: (Units=GPa)
#
#
# Indices 1 2 3 4 5 6 
#
# 1 92.4944 49.1824 29.0379 0.0000 -5.8930 0.0000
# 2 49.1824 61.9261 28.1586 0.0000 -7.3507 0.0000
# 3 29.0379 28.1586 81.3923 0.0000 1.6515 0.0000
# 4 0.0000 0.0000 0.0000 24.1504 0.0000 -5.9766
# 5 -5.8930 -7.3507 1.6515 0.0000 26.7138 0.0000
# 6 0.0000 0.0000 0.0000 -5.9766 0.0000 36.2662
#
#
#
# Elastic Compliance Matrix: (Units=1/GPa)
#
#
# Indices 1 2 3 4 5 6 
#
# 1 0.018949 -0.014150 -0.001873 0.000000 0.000402 0.000000
# 2 -0.014150 0.030634 -0.005665 0.000000 0.005658 0.000000
# 3 -0.001873 -0.005665 0.014973 0.000000 -0.002898 0.000000
# 4 0.000000 0.000000 0.000000 0.043168 0.000000 0.007114
# 5 0.000402 0.005658 -0.002898 0.000000 0.039259 0.000000
# 6 0.000000 0.000000 0.000000 0.007114 0.000000 0.028746
#
#
# Mechanical properties :
#
#
# Convention : Reuss Voigt Hill
#
# Bulk Modulus (GPa) = 47.21404 49.84116 48.52760
# Shear Modulus (GPa) = 22.10773 26.05499 24.08136
#
# Velocity S-wave (km/s) = 3.51473 3.81562 3.66826
# Velocity P-wave (km/s) = 6.54624 6.87474 6.71250
#
# Compressibility (1/GPa) = 0.02118014
#
# Stress axis : x y z
#
# Youngs Moduli (GPa) = 52.77238 32.64347 66.78688
#
# Poissons Ratio (x) = 0.46191 0.12510
# Poissons Ratio (y) = 0.74674 0.37833
# Poissons Ratio (z) = 0.09885 0.18491
#
# Static dielectric constant tensor:
#      x y z
#    x 3.193830 0.000000 0.125460 
#    y 0.000000 3.256870 0.000000 
#    z 0.125460 0.000000 3.500920 
# 
# 
# High freq. dielectric constant tensor:
#      x y z
#    x 1.688360 0.000000 0.002530 
#    y 0.000000 1.690490 0.000000 
#    z 0.002530 0.000000 1.698710 
# 
# From -- ./inp_files/172168.got.cif
#   From: 2010.06.25/outbox.cif.g09.slc.cpg/sg12_87_cif.got.tgz:172168.got - 2010.06.28 00:19:55.
