data_PCOD8088473
_publ_section_title
;
Structure prediction by ZEFSAII (Michael W. Deem and Ramdas Pophale) SiO2 
 PCOD8088473
Probable space group: C 2/M
;
_chemical_formula_sum "Si O2"
_cell_formula_units_Z 64
_cell_length_a 16.118987
_cell_length_b 9.254430
_cell_length_c 25.418314
_cell_angle_alpha 90.000000
_cell_angle_beta 121.085620
_cell_angle_gamma 90.000000
_cell_volume 3247.200786
_symmetry_space_group_name_H-M "C 2/M"
_symmetry_group_IT_number 12
_symmetry_cell_setting 'monoclinic'
loop_
_space_group_symop_operation_xyz
x,y,z
-x,y,-z
-x,-y,-z
x,-y,z
1/2+x,1/2+y,z
1/2-x,1/2+y,-z
1/2-x,1/2-y,-z
1/2+x,1/2-y,z
loop_
_atom_site_type_symbol
_atom_site_label
_atom_site_fract_x
_atom_site_fract_y
_atom_site_fract_z
Si Si1 0.061701 0.673263 0.680986
Si Si2 0.396408 0.668360 0.572912
Si Si3 0.513154 0.840369 0.124108
Si Si4 0.225246 0.836153 0.566251
Si Si5 0.823236 0.341288 0.992306
Si Si6 0.267310 0.332720 0.313519
Si Si7 0.404075 0.659317 0.933481
Si Si8 0.953410 0.331941 0.749895
O O1 0.067049 0.500000 0.679393
O O2 0.993132 0.738510 0.613146
O O3 0.016984 0.730591 0.722255
O O4 0.169367 0.738475 0.706921
O O5 0.415920 0.500000 0.591652
O O6 0.312337 0.725717 0.583875
O O7 0.364561 0.692421 0.502047
O O8 0.419669 0.847671 0.057551
O O9 0.581940 0.720147 0.120715
O O10 0.490344 0.797120 0.176959
O O11 0.562634 0.000000 0.139918
O O12 0.187561 0.815088 0.613297
O O13 0.265222 0.000000 0.571524
O O14 0.781149 0.500000 0.968788
O O15 0.750000 0.250000 0.000000
O O16 0.832090 0.268483 0.938427
O O17 0.269567 0.500000 0.295967
O O18 0.156527 0.272200 0.280095
O O19 0.357889 0.500000 0.913459
O O20 0.500000 0.651129 0.000000
O O21 0.944124 0.500000 0.735092
#
# Coordination Sequence:
#
# PCOD8088473 Si02
#       8
#     8   8   8   8   8   8   8   8
#     4  11  22  38  58  82 113 150 189 233 284 338
#     4  10  19  32  55  84 111 143 187 235 284 342
#     4   9  18  35  58  80 103 142 185 220 267 327
#     4   9  18  34  56  81 111 147 185 230 290 346
#     4  10  19  32  53  81 114 145 180 224 273 326
#     4  10  20  38  60  81 108 146 188 230 282 341
#     4   9  17  31  52  77 105 136 172 214 263 316
#     4   9  19  39  62  78 109 153 190 229 281 337
#
# _framework density 19.709282000000002
#
# number of rings (size 3 to 8) (size 9 to 14) (size 15 to 20)
#    0.000    2.375    1.250    1.500    0.000    3.500 
#    2.250    4.375    0.000    0.000    0.000    0.000 
#    0.000    0.000    0.000    0.000    0.000    0.000 
#
# Total GULP energy -396598.653908 kJ/mol
# GULP energy per Si atom -12393.707935 kJ/mol
# Density = 1.966442 g / cm^3
# Si number density = 19.709282 Si / 1000 Ang^3
#
#
#
# Elastic Constant Matrix: (Units=GPa)
#
#
# Indices 1 2 3 4 5 6 
#
# 1 106.1184 47.7405 20.1630 0.0000 -24.7382 0.0000
# 2 47.7405 118.9998 21.8520 0.0000 -16.1311 0.0000
# 3 20.1630 21.8520 58.0107 0.0000 -23.8606 0.0000
# 4 0.0000 0.0000 0.0000 19.0949 0.0000 -4.6387
# 5 -24.7382 -16.1311 -23.8606 0.0000 21.8254 0.0000
# 6 0.0000 0.0000 0.0000 -4.6387 0.0000 36.8818
#
#
#
# Elastic Compliance Matrix: (Units=1/GPa)
#
#
# Indices 1 2 3 4 5 6 
#
# 1 0.014719 -0.004196 0.003727 0.000000 0.017657 0.000000
# 2 -0.004196 0.010584 -0.002302 0.000000 0.000549 0.000000
# 3 0.003727 -0.002302 0.032431 0.000000 0.037978 0.000000
# 4 0.000000 0.000000 0.000000 0.054021 0.000000 0.006794
# 5 0.017657 0.000549 0.037978 0.000000 0.107757 0.000000
# 6 0.000000 0.000000 0.000000 0.006794 0.000000 0.027968
#
#
# Mechanical properties :
#
#
# Convention : Reuss Voigt Hill
#
# Bulk Modulus (GPa) = 19.16018 51.40444 35.28231
# Shear Modulus (GPa) = 18.48977 28.45198 23.47088
#
# Velocity S-wave (km/s) = 3.06621 3.80357 3.45462
# Velocity P-wave (km/s) = 4.71996 6.73999 5.81831
#
# Compressibility (1/GPa) = 0.05219157
#
# Stress axis : x y z
#
# Youngs Moduli (GPa) = 67.93883 94.48224 30.83477
#
# Poissons Ratio (x) = 0.39644 -0.11493
# Poissons Ratio (y) = 0.28507 0.07100
# Poissons Ratio (z) = -0.25322 0.21754
#
# Static dielectric constant tensor:
#      x y z
#    x 3.370320 0.000000 -0.231540 
#    y 0.000000 3.666470 0.000000 
#    z -0.231540 0.000000 3.537010 
# 
# 
# High freq. dielectric constant tensor:
#      x y z
#    x 1.752000 0.000000 -0.015190 
#    y 0.000000 1.761680 0.000000 
#    z -0.015190 0.000000 1.760380 
# 
# From -- ./inp_files/359985.got.cif
#   From: 2010.06.25/outbox.cif.g09.slc.cpg/sg12_180_cif.got.tgz:359985.got - 2010.06.28 00:19:55.
