data_PCOD8088420
_publ_section_title
;
Structure prediction by ZEFSAII (Michael W. Deem and Ramdas Pophale) SiO2 
 PCOD8088420
Probable space group: C 2/M
;
_chemical_formula_sum "Si O2"
_cell_formula_units_Z 48
_cell_length_a 18.722157
_cell_length_b 13.397523
_cell_length_c 16.923282
_cell_angle_alpha 90.000000
_cell_angle_beta 37.102589
_cell_angle_gamma 90.000000
_cell_volume 2560.695959
_symmetry_space_group_name_H-M "C 2/M"
_symmetry_group_IT_number 12
_symmetry_cell_setting 'monoclinic'
loop_
_space_group_symop_operation_xyz
x,y,z
-x,y,-z
-x,-y,-z
x,-y,z
1/2+x,1/2+y,z
1/2-x,1/2+y,-z
1/2-x,1/2-y,-z
1/2+x,1/2-y,z
loop_
_atom_site_type_symbol
_atom_site_label
_atom_site_fract_x
_atom_site_fract_y
_atom_site_fract_z
Si Si1 0.338361 0.288772 0.304187
Si Si2 0.802539 0.616307 0.444057
Si Si3 0.386264 0.700123 0.969492
Si Si4 0.285596 0.888730 0.996596
Si Si5 0.541466 0.888443 0.302839
Si Si6 0.743377 0.118432 0.234152
O O1 0.313539 0.361758 0.400983
O O2 0.301752 0.176307 0.361941
O O3 0.473380 0.295999 0.159010
O O4 0.257415 0.322045 0.302596
O O5 0.814788 0.500000 0.412577
O O6 0.914193 0.660628 0.396894
O O7 0.328179 0.811306 0.026325
O O8 0.338785 0.645345 0.932201
O O9 0.351416 0.639966 0.078809
O O10 0.384640 0.886476 0.842341
O O11 0.272342 0.000000 0.044436
O O12 0.620341 0.840740 0.303523
O O13 0.514223 0.000000 0.354327
O O14 0.740397 0.000000 0.252841
#
# Coordination Sequence:
#
# PCOD8088420 Si02
#       6
#     8   8   8   8   8   8
#     4  11  22  34  53  83 108 141 176 217 271 317
#     4  10  21  37  56  77 105 143 184 221 256 307
#     4  10  19  32  53  80 110 138 174 217 267 322
#     4   9  17  31  53  78 105 140 178 218 260 311
#     4   8  15  32  55  75  99 136 176 216 259 301
#     4  10  21  35  54  81 111 138 171 222 275 316
#
# _framework density 18.744903999999998
#
# number of rings (size 3 to 8) (size 9 to 14) (size 15 to 20)
#    0.000    2.333    1.667    2.500    0.000    4.000 
#    0.000    3.333    0.000    2.000    0.000    2.333 
#    0.000    0.000    0.000    0.000    0.000    0.000 
#
# Total GULP energy -297428.940773 kJ/mol
# GULP energy per Si atom -12392.872532 kJ/mol
# Density = 1.870224 g / cm^3
# Si number density = 18.744904 Si / 1000 Ang^3
#
#
#
# Elastic Constant Matrix: (Units=GPa)
#
#
# Indices 1 2 3 4 5 6 
#
# 1 73.4660 50.2271 20.0633 0.0000 16.2384 0.0000
# 2 50.2271 112.2961 23.0677 0.0000 1.0146 0.0000
# 3 20.0633 23.0677 42.5137 0.0000 10.5800 0.0000
# 4 0.0000 0.0000 0.0000 20.0480 0.0000 5.1373
# 5 16.2384 1.0146 10.5800 0.0000 13.3070 0.0000
# 6 0.0000 0.0000 0.0000 5.1373 0.0000 29.1086
#
#
#
# Elastic Compliance Matrix: (Units=1/GPa)
#
#
# Indices 1 2 3 4 5 6 
#
# 1 0.031209 -0.014159 0.002697 0.000000 -0.039148 0.000000
# 2 -0.014159 0.016661 -0.007906 0.000000 0.022294 0.000000
# 3 0.002697 -0.007906 0.033919 0.000000 -0.029656 0.000000
# 4 0.000000 0.000000 0.000000 0.052243 0.000000 -0.009220
# 5 -0.039148 0.022294 -0.029656 0.000000 0.144800 0.000000
# 6 0.000000 0.000000 0.000000 -0.009220 0.000000 0.035981
#
#
# Mechanical properties :
#
#
# Convention : Reuss Voigt Hill
#
# Bulk Modulus (GPa) = 23.22763 46.11024 34.66894
# Shear Modulus (GPa) = 13.59067 21.48723 17.53895
#
# Velocity S-wave (km/s) = 2.69556 3.38937 3.06218
# Velocity P-wave (km/s) = 4.70175 6.32213 5.57117
#
# Compressibility (1/GPa) = 0.04305218
#
# Stress axis : x y z
#
# Youngs Moduli (GPa) = 32.04250 60.02173 29.48196
#
# Poissons Ratio (x) = 0.84985 -0.07951
# Poissons Ratio (y) = 0.45369 0.23308
# Poissons Ratio (z) = -0.08642 0.47453
#
# Static dielectric constant tensor:
#      x y z
#    x 3.517400 0.000000 -0.178140 
#    y 0.000000 3.573610 0.000000 
#    z -0.178140 0.000000 3.310580 
# 
# 
# High freq. dielectric constant tensor:
#      x y z
#    x 1.716310 0.000000 -0.017410 
#    y 0.000000 1.716340 0.000000 
#    z -0.017410 0.000000 1.716260 
# 
# From -- ./inp_files/225104.got.cif
#   From: 2010.06.25/outbox.cif.g09.slc.cpg/sg12_113_cif.got.tgz:225104.got - 2010.06.28 00:19:55.
