data_PCOD8088583
_publ_section_title
;
Structure prediction by ZEFSAII (Michael W. Deem and Ramdas Pophale) SiO2 
 PCOD8088583
Probable space group: C 2/M
;
_chemical_formula_sum "Si O2"
_cell_formula_units_Z 48
_cell_length_a 19.311445
_cell_length_b 8.883554
_cell_length_c 21.911370
_cell_angle_alpha 90.000000
_cell_angle_beta 44.626531
_cell_angle_gamma 90.000000
_cell_volume 2640.624656
_symmetry_space_group_name_H-M "C 2/M"
_symmetry_group_IT_number 12
_symmetry_cell_setting 'monoclinic'
loop_
_space_group_symop_operation_xyz
x,y,z
-x,y,-z
-x,-y,-z
x,-y,z
1/2+x,1/2+y,z
1/2-x,1/2+y,-z
1/2-x,1/2-y,-z
1/2+x,1/2-y,z
loop_
_atom_site_type_symbol
_atom_site_label
_atom_site_fract_x
_atom_site_fract_y
_atom_site_fract_z
Si Si1 0.021957 0.676102 0.287447
Si Si2 0.709269 0.824079 0.247238
Si Si3 0.429230 0.322245 0.095658
Si Si4 0.767103 0.172602 0.645263
Si Si5 0.845726 0.173076 0.467240
Si Si6 0.060803 0.822329 0.774034
O O1 0.000935 0.500000 0.296571
O O2 0.943436 0.746931 0.382488
O O3 0.016635 0.746290 0.223258
O O4 0.130745 0.712328 0.244162
O O5 0.816518 0.768244 0.156646
O O6 0.680612 0.736378 0.326972
O O7 0.712239 0.000000 0.261834
O O8 0.433450 0.500000 0.086421
O O9 0.466425 0.274293 0.139694
O O10 0.500000 0.247328 0.000000
O O11 0.844269 0.187329 0.541517
O O12 0.670109 0.267152 0.688850
O O13 0.735730 0.000000 0.675214
O O14 0.750000 0.250000 0.500000
O O15 0.847412 0.000000 0.445134
O O16 0.056891 0.000000 0.767936
#
# Coordination Sequence:
#
# PCOD8088583 Si02
#       6
#     8   8   8   8   8   8
#     4  11  22  35  51  75 109 144 178 219 263 307
#     4   9  20  36  54  77 106 141 176 214 266 317
#     4   8  15  32  58  82 101 129 174 219 259 315
#     4  10  20  34  53  76 103 137 177 222 263 306
#     4  11  22  34  52  77 105 140 182 223 261 306
#     4  10  19  32  54  79 104 138 177 215 262 318
#
# _framework density 18.177517999999999
#
# number of rings (size 3 to 8) (size 9 to 14) (size 15 to 20)
#    0.000    2.167    1.667    3.000    0.000    4.000 
#    0.000    4.167    0.000   12.500    0.000    0.000 
#    0.000    0.000    0.000    0.000    0.000    0.000 
#
# Total GULP energy -297597.861139 kJ/mol
# GULP energy per Si atom -12399.910881 kJ/mol
# Density = 1.813614 g / cm^3
# Si number density = 18.177518 Si / 1000 Ang^3
#
#
#
# Elastic Constant Matrix: (Units=GPa)
#
#
# Indices 1 2 3 4 5 6 
#
# 1 142.5084 61.8454 71.2566 0.0000 10.5851 0.0001
# 2 61.8454 90.4466 45.3215 0.0000 4.8509 0.0002
# 3 71.2566 45.3215 131.5323 0.0000 12.2594 0.0000
# 4 0.0000 0.0000 0.0000 17.9705 0.0000 5.3050
# 5 10.5851 4.8509 12.2594 0.0000 22.0440 0.0000
# 6 0.0001 0.0002 0.0000 5.3050 0.0000 29.9827
#
#
#
# Elastic Compliance Matrix: (Units=1/GPa)
#
#
# Indices 1 2 3 4 5 6 
#
# 1 0.011808 -0.005867 -0.004184 0.000000 -0.002052 0.000000
# 2 -0.005867 0.016283 -0.002489 0.000000 0.000619 0.000000
# 3 -0.004184 -0.002489 0.011062 0.000000 -0.003595 0.000000
# 4 0.000000 0.000000 0.000000 0.058714 0.000000 -0.010389
# 5 -0.002052 0.000619 -0.003595 0.000000 0.048212 0.000000
# 6 0.000000 0.000000 0.000000 -0.010389 0.000000 0.035191
#
#
# Mechanical properties :
#
#
# Convention : Reuss Voigt Hill
#
# Bulk Modulus (GPa) = 71.06784 80.14825 75.60804
# Shear Modulus (GPa) = 23.69209 26.40370 25.04789
#
# Velocity S-wave (km/s) = 3.61414 3.81536 3.71612
# Velocity P-wave (km/s) = 7.52313 7.97477 7.75224
#
# Compressibility (1/GPa) = 0.01407106
#
# Stress axis : x y z
#
# Youngs Moduli (GPa) = 84.68925 61.41561 90.39850
#
# Poissons Ratio (x) = 0.36035 0.37821
# Poissons Ratio (y) = 0.49691 0.22504
# Poissons Ratio (z) = 0.35433 0.15289
#
# Static dielectric constant tensor:
#      x y z
#    x 3.376130 0.000000 0.197220 
#    y 0.000000 3.366540 0.000000 
#    z 0.197220 0.000000 3.485070 
# 
# 
# High freq. dielectric constant tensor:
#      x y z
#    x 1.701840 0.000000 0.014780 
#    y 0.000000 1.701940 0.000000 
#    z 0.014780 0.000000 1.692720 
# 
# From -- ./inp_files/249360.got.cif
#   From: 2010.06.25/outbox.cif.g09.slc.cpg/sg12_125_cif.got.tgz:249360.got - 2010.06.28 00:19:55.
