data_PCOD8088951
_publ_section_title
;
Structure prediction by ZEFSAII (Michael W. Deem and Ramdas Pophale) SiO2 
 PCOD8088951
Probable space group: C 2/M
;
_chemical_formula_sum "Si O2"
_cell_formula_units_Z 56
_cell_length_a 20.353012
_cell_length_b 8.534559
_cell_length_c 17.157524
_cell_angle_alpha 90.000000
_cell_angle_beta 105.817337
_cell_angle_gamma 90.000000
_cell_volume 2867.481703
_symmetry_space_group_name_H-M "C 2/M"
_symmetry_group_IT_number 12
_symmetry_cell_setting 'monoclinic'
loop_
_space_group_symop_operation_xyz
x,y,z
-x,y,-z
-x,-y,-z
x,-y,z
1/2+x,1/2+y,z
1/2-x,1/2+y,-z
1/2-x,1/2-y,-z
1/2+x,1/2-y,z
loop_
_atom_site_type_symbol
_atom_site_label
_atom_site_fract_x
_atom_site_fract_y
_atom_site_fract_z
Si Si1 0.576343 0.317874 0.002641
Si Si2 0.063112 0.819911 0.261120
Si Si3 0.197378 0.680961 0.762954
Si Si4 0.158971 0.680627 0.165010
Si Si5 0.287706 0.180326 0.407202
Si Si6 0.349987 0.820090 0.585535
Si Si7 0.076113 0.318112 0.836165
O O1 0.587602 0.500000 0.024156
O O2 0.628966 0.218192 0.070503
O O3 0.500000 0.265120 0.000000
O O4 0.590239 0.284101 0.917021
O O5 0.122988 0.785852 0.218866
O O6 0.090536 0.784044 0.356818
O O7 0.998335 0.713137 0.222441
O O8 0.041359 0.000000 0.247350
O O9 0.215811 0.500000 0.783634
O O10 0.260822 0.784428 0.810949
O O11 0.179324 0.710817 0.666372
O O12 0.131471 0.733158 0.790129
O O13 0.146395 0.500000 0.181204
O O14 0.343628 0.222051 0.491692
O O15 0.221865 0.289320 0.395057
O O16 0.264068 0.000000 0.409775
O O17 0.369747 0.000000 0.604889
O O18 0.082038 0.500000 0.859871
#
# Coordination Sequence:
#
# PCOD8088951 Si02
#       7
#     8   8   8   8   8   8   8
#     4  11  23  40  63  89 119 157 195 241 297 352
#     4  12  23  38  59  86 120 159 199 245 299 351
#     4  10  22  41  62  88 123 160 194 239 301 357
#     4  12  24  38  63  92 118 153 199 248 291 348
#     4   9  18  34  57  85 121 157 192 241 299 351
#     4  10  19  32  56  90 118 151 200 248 291 345
#     4  11  24  41  63  89 119 156 199 246 294 352
#
# _framework density 19.529330000000002
#
# number of rings (size 3 to 8) (size 9 to 14) (size 15 to 20)
#    0.000    1.286    2.857    3.857    0.000    2.857 
#    0.000    0.714    0.000    4.286    0.000    0.000 
#    0.000    0.000    0.000    0.000    0.000    0.000 
#
# Total GULP energy -347357.258338 kJ/mol
# GULP energy per Si atom -12405.616369 kJ/mol
# Density = 1.948488 g / cm^3
# Si number density = 19.529330 Si / 1000 Ang^3
#
#
#
# Elastic Constant Matrix: (Units=GPa)
#
#
# Indices 1 2 3 4 5 6 
#
# 1 84.5764 17.0227 44.3022 0.0000 -8.8636 0.0000
# 2 17.0227 60.0561 22.2871 0.0000 -1.7216 0.0000
# 3 44.3022 22.2871 139.2185 0.0000 -1.1057 0.0000
# 4 0.0000 0.0000 0.0000 31.1411 0.0000 2.3135
# 5 -8.8636 -1.7216 -1.1057 0.0000 32.1288 0.0000
# 6 0.0000 0.0000 0.0000 2.3135 0.0000 24.5778
#
#
#
# Elastic Compliance Matrix: (Units=1/GPa)
#
#
# Indices 1 2 3 4 5 6 
#
# 1 0.015011 -0.002534 -0.004341 0.000000 0.003856 0.000000
# 2 -0.002534 0.018154 -0.002098 0.000000 0.000202 0.000000
# 3 -0.004341 -0.002098 0.008892 0.000000 -0.001004 0.000000
# 4 0.000000 0.000000 0.000000 0.032338 0.000000 -0.003044
# 5 0.003856 0.000202 -0.001004 0.000000 0.032165 0.000000
# 6 0.000000 0.000000 0.000000 -0.003044 0.000000 0.040974
#
#
# Mechanical properties :
#
#
# Convention : Reuss Voigt Hill
#
# Bulk Modulus (GPa) = 41.47294 50.11946 45.79620
# Shear Modulus (GPa) = 28.81571 30.91880 29.86725
#
# Velocity S-wave (km/s) = 3.84540 3.98326 3.91494
# Velocity P-wave (km/s) = 6.40301 6.84650 6.62846
#
# Compressibility (1/GPa) = 0.02411211
#
# Stress axis : x y z
#
# Youngs Moduli (GPa) = 66.61595 55.08512 112.45791
#
# Poissons Ratio (x) = 0.13956 0.48815
# Poissons Ratio (y) = 0.16877 0.23598
# Poissons Ratio (z) = 0.28916 0.11559
#
# Static dielectric constant tensor:
#      x y z
#    x 3.330370 0.000000 0.014320 
#    y 0.000000 3.558890 0.000000 
#    z 0.014320 0.000000 3.805680 
# 
# 
# High freq. dielectric constant tensor:
#      x y z
#    x 1.733130 0.000000 0.004760 
#    y 0.000000 1.765040 0.000000 
#    z 0.004760 0.000000 1.778660 
# 
# From -- ./inp_files/275593.got.cif
#   From: 2010.06.25/outbox.cif.g09.slc.cpg/sg12_138_cif.got.tgz:275593.got - 2010.06.28 00:19:55.
