data_PCOD8088238
_publ_section_title
;
Structure prediction by ZEFSAII (Michael W. Deem and Ramdas Pophale) SiO2 
 PCOD8088238
Probable space group: C 2/M
;
_chemical_formula_sum "Si O2"
_cell_formula_units_Z 48
_cell_length_a 18.974243
_cell_length_b 7.781178
_cell_length_c 25.294833
_cell_angle_alpha 90.000000
_cell_angle_beta 136.973631
_cell_angle_gamma 90.000000
_cell_volume 2548.233346
_symmetry_space_group_name_H-M "C 2/M"
_symmetry_group_IT_number 12
_symmetry_cell_setting 'monoclinic'
loop_
_space_group_symop_operation_xyz
x,y,z
-x,y,-z
-x,-y,-z
x,-y,z
1/2+x,1/2+y,z
1/2-x,1/2+y,-z
1/2-x,1/2-y,-z
1/2+x,1/2-y,z
loop_
_atom_site_type_symbol
_atom_site_label
_atom_site_fract_x
_atom_site_fract_y
_atom_site_fract_z
Si Si1 0.016000 0.695716 0.824403
Si Si2 0.157101 0.199410 0.986351
Si Si3 0.305522 0.204529 0.154217
Si Si4 0.213695 0.700440 0.315819
Si Si5 0.665115 0.000000 0.573209
Si Si6 0.023314 0.500000 0.597722
Si Si7 0.858406 0.191537 0.297020
O O1 0.004087 0.500000 0.802950
O O2 0.053767 0.712129 0.906484
O O3 0.099385 0.777534 0.829513
O O4 0.902284 0.774462 0.754501
O O5 0.134640 0.000000 0.971885
O O6 0.250000 0.250000 0.000000
O O7 0.195011 0.253473 0.066069
O O8 0.307199 0.294382 0.211521
O O9 0.314537 0.000000 0.164753
O O10 0.220198 0.500000 0.337605
O O11 0.267544 0.824609 0.388537
O O12 0.267953 0.726139 0.289154
O O13 0.588352 0.000000 0.580229
O O14 0.598499 0.000000 0.482646
O O15 0.049435 0.329352 0.645926
O O16 0.904659 0.000000 0.330047
#
# Coordination Sequence:
#
# PCOD8088238 Si02
#       7
#     8   8   8   8   4   4   8
#     4   9  18  32  50  72 100 134 166 212 248 287
#     4   9  17  28  45  69  99 130 170 210 244 283
#     4   9  17  31  49  71 100 135 167 209 248 289
#     4   9  19  34  51  77 104 127 167 209 246 299
#     4   9  18  32  56  77  97 135 158 201 262 293
#     4   9  18  34  52  77 105 123 164 209 244 305
#     4  10  19  32  53  76 101 133 164 205 253 296
#
# _framework density 18.836580000000001
#
# number of rings (size 3 to 8) (size 9 to 14) (size 15 to 20)
#    0.000    2.833    0.833    1.500    1.167    4.000 
#    0.000    4.167    0.000    6.000    0.000    0.000 
#    0.000    0.000    0.000    0.000    0.000    0.000 
#
# Total GULP energy -297351.238839 kJ/mol
# GULP energy per Si atom -12389.634952 kJ/mol
# Density = 1.879371 g / cm^3
# Si number density = 18.836580 Si / 1000 Ang^3
#
#
#
# Elastic Constant Matrix: (Units=GPa)
#
#
# Indices 1 2 3 4 5 6 
#
# 1 23.7186 10.1304 5.2706 0.0000 8.4219 0.0002
# 2 10.1304 70.0417 20.6369 -0.0001 8.5432 0.0009
# 3 5.2706 20.6369 71.4116 0.0000 19.1270 -0.0002
# 4 0.0000 -0.0001 0.0000 28.2463 0.0000 2.1124
# 5 8.4219 8.5432 19.1270 0.0000 28.0479 -0.0001
# 6 0.0002 0.0009 -0.0002 2.1124 -0.0001 15.1507
#
#
#
# Elastic Compliance Matrix: (Units=1/GPa)
#
#
# Indices 1 2 3 4 5 6 
#
# 1 0.049362 -0.005957 0.001911 0.000000 -0.014311 -0.000001
# 2 -0.005957 0.016422 -0.004215 0.000000 -0.000339 -0.000001
# 3 0.001911 -0.004215 0.018218 0.000000 -0.011713 0.000000
# 4 0.000000 0.000000 0.000000 0.035776 0.000000 -0.004988
# 5 -0.014311 -0.000339 -0.011713 0.000000 0.048041 0.000000
# 6 -0.000001 -0.000001 0.000000 -0.004988 0.000000 0.066699
#
#
# Mechanical properties :
#
#
# Convention : Reuss Voigt Hill
#
# Bulk Modulus (GPa) = 14.81928 26.36087 20.59007
# Shear Modulus (GPa) = 18.27929 22.89790 20.58860
#
# Velocity S-wave (km/s) = 3.11853 3.49034 3.30966
# Velocity P-wave (km/s) = 4.56632 5.50165 5.05567
#
# Compressibility (1/GPa) = 0.06747967
#
# Stress axis : x y z
#
# Youngs Moduli (GPa) = 20.25851 60.89352 54.89150
#
# Poissons Ratio (x) = 0.36274 -0.10491
# Poissons Ratio (y) = 0.12068 0.23139
# Poissons Ratio (z) = -0.03872 0.25669
#
# Static dielectric constant tensor:
#      x y z
#    x 3.192480 0.000000 0.110460 
#    y 0.000000 3.556900 0.000000 
#    z 0.110460 0.000000 3.859820 
# 
# 
# High freq. dielectric constant tensor:
#      x y z
#    x 1.680060 0.000000 0.005070 
#    y 0.000000 1.735850 0.000000 
#    z 0.005070 0.000000 1.736040 
# 
# From -- ./inp_files/342067.got.cif
#   From: 2010.06.25/outbox.cif.g09.slc.cpg/sg12_172_cif.got.tgz:342067.got - 2010.06.28 00:19:55.
