data_PCOD8088393
_publ_section_title
;
Structure prediction by ZEFSAII (Michael W. Deem and Ramdas Pophale) SiO2 
 PCOD8088393
Probable space group: C 2/M
;
_chemical_formula_sum "Si O2"
_cell_formula_units_Z 64
_cell_length_a 15.142893
_cell_length_b 9.212523
_cell_length_c 25.248144
_cell_angle_alpha 90.000000
_cell_angle_beta 107.666773
_cell_angle_gamma 90.000000
_cell_volume 3356.107012
_symmetry_space_group_name_H-M "C 2/M"
_symmetry_group_IT_number 12
_symmetry_cell_setting 'monoclinic'
loop_
_space_group_symop_operation_xyz
x,y,z
-x,y,-z
-x,-y,-z
x,-y,z
1/2+x,1/2+y,z
1/2-x,1/2+y,-z
1/2-x,1/2-y,-z
1/2+x,1/2-y,z
loop_
_atom_site_type_symbol
_atom_site_label
_atom_site_fract_x
_atom_site_fract_y
_atom_site_fract_z
Si Si1 0.398088 0.669767 0.998636
Si Si2 0.906026 0.332744 0.105584
Si Si3 0.599485 0.340761 0.491652
Si Si4 0.601727 0.827352 0.184937
Si Si5 0.142026 0.328315 0.309358
Si Si6 0.781141 0.833311 0.876896
Si Si7 0.838013 0.172149 0.386416
Si Si8 0.477989 0.171740 0.614184
O O1 0.391909 0.500000 0.008763
O O2 0.370927 0.749414 0.047547
O O3 0.500000 0.718769 0.000000
O O4 0.328412 0.719069 0.939978
O O5 0.916388 0.500000 0.091539
O O6 0.829360 0.313492 0.137635
O O7 0.003294 0.270403 0.144837
O O8 0.500000 0.353672 0.500000
O O9 0.628569 0.500000 0.474843
O O10 0.667864 0.290478 0.551626
O O11 0.595709 0.224283 0.443762
O O12 0.613451 0.767982 0.246680
O O13 0.685066 0.764234 0.165350
O O14 0.606846 0.000000 0.184273
O O15 0.148623 0.500000 0.309903
O O16 0.243395 0.268281 0.343473
O O17 0.063772 0.280483 0.336908
O O18 0.808283 0.000000 0.870367
O O19 0.922591 0.253136 0.373161
O O20 0.852627 0.000000 0.381374
O O21 0.489678 0.000000 0.610827
#
# Coordination Sequence:
#
# PCOD8088393 Si02
#       8
#     8   8   8   8   8   8   8   8
#     4  10  19  33  55  80 110 142 169 207 259 310
#     4  10  21  35  55  81 107 136 172 214 260 309
#     4   8  15  29  50  75 104 137 169 204 254 314
#     4  10  21  38  56  75 101 137 179 218 256 306
#     4   9  20  37  54  73 102 139 176 213 260 311
#     4  10  21  37  55  79 109 139 171 213 263 308
#     4   9  18  35  55  73 101 141 175 206 253 315
#     4  10  19  32  53  80 107 134 168 216 264 304
#
# _framework density 19.069714000000001
#
# number of rings (size 3 to 8) (size 9 to 14) (size 15 to 20)
#    0.000    2.500    1.250    1.500    0.000    5.000 
#    0.000    4.375    0.000    0.000    0.000    0.000 
#    0.000    0.000    0.000    0.000    0.000    0.000 
#
# Total GULP energy -396770.925701 kJ/mol
# GULP energy per Si atom -12399.091428 kJ/mol
# Density = 1.902631 g / cm^3
# Si number density = 19.069714 Si / 1000 Ang^3
#
#
#
# Elastic Constant Matrix: (Units=GPa)
#
#
# Indices 1 2 3 4 5 6 
#
# 1 77.3834 25.7709 33.5327 0.0000 -9.3793 0.0000
# 2 25.7709 45.6990 32.4164 0.0000 -8.9238 0.0000
# 3 33.5327 32.4164 116.1285 0.0000 -11.7259 0.0000
# 4 0.0000 0.0000 0.0000 24.4502 0.0000 -5.9410
# 5 -9.3793 -8.9238 -11.7259 0.0000 26.1283 0.0000
# 6 0.0000 0.0000 0.0000 -5.9410 0.0000 24.9567
#
#
#
# Elastic Compliance Matrix: (Units=1/GPa)
#
#
# Indices 1 2 3 4 5 6 
#
# 1 0.016707 -0.007110 -0.002597 0.000000 0.002404 0.000000
# 2 -0.007110 0.031298 -0.006140 0.000000 0.005382 0.000000
# 3 -0.002597 -0.006140 0.011280 0.000000 0.002033 0.000000
# 4 0.000000 0.000000 0.000000 0.043410 0.000000 0.010334
# 5 0.002404 0.005382 0.002033 0.000000 0.041886 0.000000
# 6 0.000000 0.000000 0.000000 0.010334 0.000000 0.042529
#
#
# Mechanical properties :
#
#
# Convention : Reuss Voigt Hill
#
# Bulk Modulus (GPa) = 36.24326 46.96122 41.60224
# Shear Modulus (GPa) = 21.92951 24.93975 23.43463
#
# Velocity S-wave (km/s) = 3.39479 3.62030 3.50936
# Velocity P-wave (km/s) = 5.86627 6.49269 6.18741
#
# Compressibility (1/GPa) = 0.02759133
#
# Stress axis : x y z
#
# Youngs Moduli (GPa) = 59.85448 31.95060 88.65037
#
# Poissons Ratio (x) = 0.22718 0.23021
# Poissons Ratio (y) = 0.42558 0.54433
# Poissons Ratio (z) = 0.15543 0.19618
#
# Static dielectric constant tensor:
#      x y z
#    x 3.475800 0.000000 0.147610 
#    y 0.000000 3.260940 0.000000 
#    z 0.147610 0.000000 3.730460 
# 
# 
# High freq. dielectric constant tensor:
#      x y z
#    x 1.742830 0.000000 0.003780 
#    y 0.000000 1.720040 0.000000 
#    z 0.003780 0.000000 1.740140 
# 
# From -- ./inp_files/359905.got.cif
#   From: 2010.06.25/outbox.cif.g09.slc.cpg/sg12_180_cif.got.tgz:359905.got - 2010.06.28 00:19:55.
