data_PCOD8088682
_publ_section_title
;
Structure prediction by ZEFSAII (Michael W. Deem and Ramdas Pophale) SiO2 
 PCOD8088682
Probable space group: C 2/M
;
_chemical_formula_sum "Si O2"
_cell_formula_units_Z 64
_cell_length_a 10.459942
_cell_length_b 37.328331
_cell_length_c 17.957843
_cell_angle_alpha 90.000000
_cell_angle_beta 152.233392
_cell_angle_gamma 90.000000
_cell_volume 3266.538049
_symmetry_space_group_name_H-M "C 2/M"
_symmetry_group_IT_number 12
_symmetry_cell_setting 'monoclinic'
loop_
_space_group_symop_operation_xyz
x,y,z
-x,y,-z
-x,-y,-z
x,-y,z
1/2+x,1/2+y,z
1/2-x,1/2+y,-z
1/2-x,1/2-y,-z
1/2+x,1/2-y,z
loop_
_atom_site_type_symbol
_atom_site_label
_atom_site_fract_x
_atom_site_fract_y
_atom_site_fract_z
Si Si1 0.278482 0.081244 0.600541
Si Si2 0.555901 0.150321 0.404578
Si Si3 0.067088 0.459413 0.873760
Si Si4 0.927695 0.157140 0.731903
Si Si5 0.008697 0.765080 0.826750
Si Si6 0.492840 0.461030 0.659910
Si Si7 0.797741 0.284278 0.194621
Si Si8 0.711800 0.585448 0.889586
O O1 0.397553 0.115218 0.619611
O O2 0.511201 0.064202 0.772104
O O3 0.000000 0.092704 0.500000
O O4 0.220320 0.049626 0.512978
O O5 0.827521 0.159794 0.593855
O O6 0.315653 0.144941 0.339796
O O7 0.467368 0.179767 0.297793
O O8 0.174403 0.500000 0.911521
O O9 0.794231 0.462712 0.781050
O O10 0.292645 0.435780 0.034412
O O11 0.061358 0.194752 0.824809
O O12 0.162682 0.127864 0.867529
O O13 0.992143 0.739617 0.745958
O O14 0.745760 0.765203 0.746595
O O15 0.250000 0.750000 0.000000
O O16 0.412589 0.500000 0.649983
O O17 0.474357 0.432221 0.716628
O O18 0.500000 0.290923 0.000000
O O19 0.000000 0.578798 0.000000
#
# Coordination Sequence:
#
# PCOD8088682 Si02
#       8
#     8   8   8   8   8   8   8   8
#     4  10  19  33  53  81 113 142 187 235 277 333
#     4  10  21  38  58  79 114 151 186 224 279 344
#     4   9  18  30  49  80 111 142 182 236 289 327
#     4  10  21  38  59  80 112 151 186 227 278 339
#     4   9  19  36  57  81 110 143 185 226 275 333
#     4   9  16  30  52  76 107 145 183 230 284 333
#     4   9  19  37  59  84 112 146 188 231 279 340
#     4  10  19  32  54  82 110 142 190 237 277 329
#
# _framework density 19.592608999999999
#
# number of rings (size 3 to 8) (size 9 to 14) (size 15 to 20)
#    0.000    2.500    1.250    0.750    0.000    8.000 
#    2.250    0.000    0.000    4.500    0.000    0.000 
#    0.000    0.000    0.000    0.000    0.000    0.000 
#
# Total GULP energy -396490.863852 kJ/mol
# GULP energy per Si atom -12390.339495 kJ/mol
# Density = 1.954801 g / cm^3
# Si number density = 19.592609 Si / 1000 Ang^3
#
#
#
# Elastic Constant Matrix: (Units=GPa)
#
#
# Indices 1 2 3 4 5 6 
#
# 1 51.6354 46.3432 27.2535 0.0000 -23.8854 0.0000
# 2 46.3432 150.2118 59.6897 0.0000 -24.0177 0.0000
# 3 27.2535 59.6897 88.6885 0.0000 -27.8877 0.0000
# 4 0.0000 0.0000 0.0000 25.9893 0.0000 -11.2205
# 5 -23.8854 -24.0177 -27.8877 0.0000 25.0912 0.0000
# 6 0.0000 0.0000 0.0000 -11.2205 0.0000 32.7687
#
#
#
# Elastic Compliance Matrix: (Units=1/GPa)
#
#
# Indices 1 2 3 4 5 6 
#
# 1 0.041711 -0.008883 0.004570 0.000000 0.036283 0.000000
# 2 -0.008883 0.011121 -0.006252 0.000000 -0.004759 0.000000
# 3 0.004570 -0.006252 0.020853 0.000000 0.021543 0.000000
# 4 0.000000 0.000000 0.000000 0.045152 0.000000 0.015461
# 5 0.036283 -0.004759 0.021543 0.000000 0.093782 0.000000
# 6 0.000000 0.000000 0.000000 0.015461 0.000000 0.035811
#
#
# Mechanical properties :
#
#
# Convention : Reuss Voigt Hill
#
# Bulk Modulus (GPa) = 19.02767 61.90094 40.46430
# Shear Modulus (GPa) = 17.41686 27.25312 22.33499
#
# Velocity S-wave (km/s) = 2.98476 3.73364 3.38001
# Velocity P-wave (km/s) = 4.64878 7.08868 5.99419
#
# Compressibility (1/GPa) = 0.05255506
#
# Stress axis : x y z
#
# Youngs Moduli (GPa) = 23.97462 89.91895 47.95539
#
# Poissons Ratio (x) = 0.79877 -0.21916
# Poissons Ratio (y) = 0.21297 0.29980
# Poissons Ratio (z) = -0.10957 0.56214
#
# Static dielectric constant tensor:
#      x y z
#    x 3.634040 0.000000 -0.326170 
#    y 0.000000 3.697840 0.000000 
#    z -0.326170 0.000000 3.715550 
# 
# 
# High freq. dielectric constant tensor:
#      x y z
#    x 1.737860 0.000000 -0.031010 
#    y 0.000000 1.771650 0.000000 
#    z -0.031010 0.000000 1.757460 
# 
# From -- ./inp_files/266296.got.cif
#   From: 2010.06.25/outbox.cif.g09.slc.cpg/sg12_134_cif.got.tgz:266296.got - 2010.06.28 00:19:55.
