data_PCOD8088823
_publ_section_title
;
Structure prediction by ZEFSAII (Michael W. Deem and Ramdas Pophale) SiO2 
 PCOD8088823
Probable space group: C 2/M
;
_chemical_formula_sum "Si O2"
_cell_formula_units_Z 56
_cell_length_a 25.274668
_cell_length_b 8.879697
_cell_length_c 14.613183
_cell_angle_alpha 90.000000
_cell_angle_beta 120.528724
_cell_angle_gamma 90.000000
_cell_volume 2825.013288
_symmetry_space_group_name_H-M "C 2/M"
_symmetry_group_IT_number 12
_symmetry_cell_setting 'monoclinic'
loop_
_space_group_symop_operation_xyz
x,y,z
-x,y,-z
-x,-y,-z
x,-y,z
1/2+x,1/2+y,z
1/2-x,1/2+y,-z
1/2-x,1/2-y,-z
1/2+x,1/2-y,z
loop_
_atom_site_type_symbol
_atom_site_label
_atom_site_fract_x
_atom_site_fract_y
_atom_site_fract_z
Si Si1 0.456260 0.322234 0.380367
Si Si2 0.180045 0.822581 0.686347
Si Si3 0.228773 0.677228 0.073569
Si Si4 0.615528 0.824264 0.227170
Si Si5 0.495831 0.176611 0.225892
Si Si6 0.758773 0.178244 0.605781
Si Si7 0.904629 0.322249 0.992619
O O1 0.500000 0.264503 0.500000
O O2 0.459851 0.500000 0.372516
O O3 0.387779 0.269261 0.344890
O O4 0.478329 0.253296 0.304878
O O5 0.224839 0.773962 0.806823
O O6 0.201298 0.733573 0.615392
O O7 0.182470 0.000000 0.667870
O O8 0.227668 0.500000 0.060309
O O9 0.161923 0.741666 0.038797
O O10 0.250000 0.750000 0.000000
O O11 0.567139 0.790383 0.265410
O O12 0.676695 0.728510 0.294356
O O13 0.583024 0.778639 0.102392
O O14 0.634546 0.000000 0.241499
O O15 0.484056 0.000000 0.225686
O O16 0.454869 0.245258 0.106779
O O17 0.750000 0.250000 0.500000
O O18 0.757169 0.000000 0.596178
O O19 0.906492 0.500000 0.004165
#
# Coordination Sequence:
#
# PCOD8088823 Si02
#       7
#     8   8   8   8   8   8   8
#     4  10  23  41  60  84 119 162 201 246 307 363
#     4  10  21  41  63  86 119 161 201 246 301 357
#     4  10  19  32  55  83 117 157 197 243 293 349
#     4  10  20  39  63  90 124 160 200 243 296 360
#     4  10  21  36  61  92 121 159 204 249 292 349
#     4  12  26  42  64  92 121 156 199 251 306 360
#     4   9  17  34  58  86 121 158 195 239 296 353
#
# _framework density 19.822914999999998
#
# number of rings (size 3 to 8) (size 9 to 14) (size 15 to 20)
#    0.000    1.857    1.429    2.571    2.000    3.714 
#    0.000    0.714    0.000    1.714    0.000    0.000 
#    0.000    0.000    0.000    0.000    0.000    0.000 
#
# Total GULP energy -347230.307416 kJ/mol
# GULP energy per Si atom -12401.082408 kJ/mol
# Density = 1.977780 g / cm^3
# Si number density = 19.822915 Si / 1000 Ang^3
#
#
#
# Elastic Constant Matrix: (Units=GPa)
#
#
# Indices 1 2 3 4 5 6 
#
# 1 143.2344 38.9920 51.7544 0.0000 -20.7492 0.0000
# 2 38.9920 50.6872 30.3455 0.0000 -12.6649 0.0000
# 3 51.7544 30.3455 108.7912 0.0000 -19.3751 0.0000
# 4 0.0000 0.0000 0.0000 21.0549 0.0000 -9.3712
# 5 -20.7492 -12.6649 -19.3751 0.0000 39.8698 0.0000
# 6 0.0000 0.0000 0.0000 -9.3712 0.0000 30.2786
#
#
#
# Elastic Compliance Matrix: (Units=1/GPa)
#
#
# Indices 1 2 3 4 5 6 
#
# 1 0.009726 -0.005309 -0.002786 0.000000 0.002021 0.000000
# 2 -0.005309 0.027423 -0.004449 0.000000 0.003786 0.000000
# 3 -0.002786 -0.004449 0.012314 0.000000 0.003121 0.000000
# 4 0.000000 0.000000 0.000000 0.055083 0.000000 0.017048
# 5 0.002021 0.003786 0.003121 0.000000 0.028853 0.000000
# 6 0.000000 0.000000 0.000000 0.017048 0.000000 0.038303
#
#
# Mechanical properties :
#
#
# Convention : Reuss Voigt Hill
#
# Bulk Modulus (GPa) = 41.02689 60.54406 50.78548
# Shear Modulus (GPa) = 24.40032 30.34871 27.37451
#
# Velocity S-wave (km/s) = 3.51225 3.91703 3.72015
# Velocity P-wave (km/s) = 6.09832 7.14607 6.64288
#
# Compressibility (1/GPa) = 0.02437426
#
# Stress axis : x y z
#
# Youngs Moduli (GPa) = 102.81326 36.46639 81.20700
#
# Poissons Ratio (x) = 0.19360 0.22626
# Poissons Ratio (y) = 0.54584 0.36130
# Poissons Ratio (z) = 0.28646 0.16225
#
# Static dielectric constant tensor:
#      x y z
#    x 3.808910 0.000000 0.115930 
#    y 0.000000 3.325160 0.000000 
#    z 0.115930 0.000000 3.805670 
# 
# 
# High freq. dielectric constant tensor:
#      x y z
#    x 1.791320 0.000000 -0.001910 
#    y 0.000000 1.741550 0.000000 
#    z -0.001910 0.000000 1.785860 
# 
# From -- ./inp_files/239026.got.cif
#   From: 2010.06.25/outbox.cif.g09.slc.cpg/sg12_120_cif.got.tgz:239026.got - 2010.06.28 00:19:55.
