data_PCOD8088827
_publ_section_title
;
Structure prediction by ZEFSAII (Michael W. Deem and Ramdas Pophale) SiO2 
 PCOD8088827
Probable space group: C 2/M
;
_chemical_formula_sum "Si O2"
_cell_formula_units_Z 40
_cell_length_a 27.728571
_cell_length_b 8.864051
_cell_length_c 18.943402
_cell_angle_alpha 90.000000
_cell_angle_beta 27.050454
_cell_angle_gamma 90.000000
_cell_volume 2117.455195
_symmetry_space_group_name_H-M "C 2/M"
_symmetry_group_IT_number 12
_symmetry_cell_setting 'monoclinic'
loop_
_space_group_symop_operation_xyz
x,y,z
-x,y,-z
-x,-y,-z
x,-y,z
1/2+x,1/2+y,z
1/2-x,1/2+y,-z
1/2-x,1/2-y,-z
1/2+x,1/2-y,z
loop_
_atom_site_type_symbol
_atom_site_label
_atom_site_fract_x
_atom_site_fract_y
_atom_site_fract_z
Si Si1 0.621923 0.675999 0.854480
Si Si2 0.773022 0.822345 0.544664
Si Si3 0.175720 0.826847 0.151790
Si Si4 0.511386 0.323592 0.259302
Si Si5 0.334812 0.177582 0.054158
O O1 0.645237 0.500000 0.815111
O O2 0.688547 0.766641 0.710830
O O3 0.654626 0.727167 0.889304
O O4 0.500000 0.714735 0.000000
O O5 0.750000 0.750000 0.500000
O O6 0.889695 0.773333 0.418301
O O7 0.763370 0.000000 0.549629
O O8 0.055135 0.792562 0.282990
O O9 0.216029 0.781761 0.177914
O O10 0.201450 0.000000 0.110074
O O11 0.250000 0.750000 0.000000
O O12 0.523801 0.500000 0.223148
O O13 0.574378 0.226212 0.119431
O O14 0.347002 0.000000 0.054655
#
# Coordination Sequence:
#
# PCOD8088827 Si02
#       5
#     8   8   8   8   8
#     4  11  24  40  56  75 103 140 178 217 264 315
#     4  11  23  38  57  80 106 138 175 216 263 313
#     4   8  15  29  50  77 107 138 173 210 251 304
#     4   9  18  34  55  79 109 143 175 210 257 312
#     4  10  19  32  55  84 109 137 175 218 260 303
#
# _framework density 18.890599999999999
#
# number of rings (size 3 to 8) (size 9 to 14) (size 15 to 20)
#    0.000    2.200    0.000    3.000    0.000    8.800 
#    0.000    1.000    0.000    6.000    0.000    0.000 
#    0.000    0.000    0.000    0.000    0.000    0.000 
#
# Total GULP energy -247805.919529 kJ/mol
# GULP energy per Si atom -12390.295976 kJ/mol
# Density = 1.884760 g / cm^3
# Si number density = 18.890600 Si / 1000 Ang^3
#
#
#
# Elastic Constant Matrix: (Units=GPa)
#
#
# Indices 1 2 3 4 5 6 
#
# 1 176.7097 49.0145 65.9941 -0.0009 -19.6438 -0.0003
# 2 49.0145 48.4902 35.8113 -0.0013 -11.8102 0.0011
# 3 65.9941 35.8113 92.6102 -0.0033 -12.5183 -0.0002
# 4 -0.0009 -0.0013 -0.0033 26.3106 0.0011 -1.6035
# 5 -19.6438 -11.8102 -12.5183 0.0011 31.8399 0.0005
# 6 -0.0003 0.0011 -0.0002 -1.6035 0.0005 20.3550
#
#
#
# Elastic Compliance Matrix: (Units=1/GPa)
#
#
# Indices 1 2 3 4 5 6 
#
# 1 0.008889 -0.005656 -0.003897 -0.000001 0.001854 0.000000
# 2 -0.005656 0.033873 -0.008281 0.000000 0.005819 -0.000002
# 3 -0.003897 -0.008281 0.016937 0.000002 0.001183 0.000001
# 4 -0.000001 0.000000 0.000002 0.038191 -0.000001 0.003009
# 5 0.001854 0.005819 0.001183 -0.000001 0.035175 -0.000001
# 6 0.000000 -0.000002 0.000001 0.003009 -0.000001 0.049365
#
#
# Mechanical properties :
#
#
# Convention : Reuss Voigt Hill
#
# Bulk Modulus (GPa) = 41.61250 68.82778 55.22014
# Shear Modulus (GPa) = 22.11332 26.83378 24.47355
#
# Velocity S-wave (km/s) = 3.42511 3.77302 3.60327
# Velocity P-wave (km/s) = 6.14149 7.44949 6.82689
#
# Compressibility (1/GPa) = 0.02403124
#
# Stress axis : x y z
#
# Youngs Moduli (GPa) = 112.49638 29.52206 59.04227
#
# Poissons Ratio (x) = 0.16697 0.23007
# Poissons Ratio (y) = 0.63626 0.48895
# Poissons Ratio (z) = 0.43837 0.24448
#
# Static dielectric constant tensor:
#      x y z
#    x 4.201450 0.000000 -0.555400 
#    y 0.000000 3.661440 0.000000 
#    z -0.555400 0.000000 3.214030 
# 
# 
# High freq. dielectric constant tensor:
#      x y z
#    x 1.762800 0.000000 -0.018210 
#    y 0.000000 1.742260 0.000000 
#    z -0.018210 0.000000 1.704200 
# 
# From -- ./inp_files/211162.got.cif
#   From: 2010.06.25/outbox.cif.g09.slc.cpg/sg12_106_cif.got.tgz:211162.got - 2010.06.28 00:19:55.
