data_PCOD8088905
_publ_section_title
;
Structure prediction by ZEFSAII (Michael W. Deem and Ramdas Pophale) SiO2 
 PCOD8088905
Probable space group: C 2/M
;
_chemical_formula_sum "Si O2"
_cell_formula_units_Z 48
_cell_length_a 23.276477
_cell_length_b 23.138531
_cell_length_c 8.781934
_cell_angle_alpha 90.000000
_cell_angle_beta 149.422308
_cell_angle_gamma 90.000000
_cell_volume 2406.081164
_symmetry_space_group_name_H-M "C 2/M"
_symmetry_group_IT_number 12
_symmetry_cell_setting 'monoclinic'
loop_
_space_group_symop_operation_xyz
x,y,z
-x,y,-z
-x,-y,-z
x,-y,z
1/2+x,1/2+y,z
1/2-x,1/2+y,-z
1/2-x,1/2-y,-z
1/2+x,1/2-y,z
loop_
_atom_site_type_symbol
_atom_site_label
_atom_site_fract_x
_atom_site_fract_y
_atom_site_fract_z
Si Si1 0.322850 0.884307 0.817038
Si Si2 0.573217 0.121328 0.359232
Si Si3 0.393097 0.000000 0.466883
Si Si4 0.344455 0.000000 0.016893
Si Si5 0.879128 0.194941 0.185378
Si Si6 0.156598 0.324389 0.828767
Si Si7 0.742629 0.309826 0.392549
O O1 0.227400 0.861483 0.481775
O O2 0.444213 0.885606 0.003391
O O3 0.285914 0.945028 0.803962
O O4 0.338680 0.837939 0.984272
O O5 0.565360 0.138946 0.522386
O O6 0.642153 0.173167 0.435351
O O7 0.633115 0.057526 0.492095
O O8 0.321085 0.000000 0.145012
O O9 0.523715 0.000000 0.717850
O O10 0.876851 0.257620 0.259003
O O11 0.000000 0.166153 0.500000
O O12 0.778303 0.159447 0.033017
O O13 0.861542 0.194389 0.961908
O O14 0.750000 0.250000 0.500000
#
# Coordination Sequence:
#
# PCOD8088905 Si02
#       7
#     8   8   4   4   8   8   8
#     4  11  19  35  53  86 119 148 179 230 284 336
#     4  10  20  33  56  82 120 153 181 226 277 339
#     4   9  16  31  53  87 110 151 194 212 268 352
#     4   9  18  29  55  83 118 148 180 224 282 343
#     4  10  21  38  54  76 108 150 194 233 270 325
#     4  10  19  32  56  82 109 147 191 223 272 342
#     4  11  23  36  49  80 115 148 191 226 279 337
#
# _framework density 19.949452999999998
#
# number of rings (size 3 to 8) (size 9 to 14) (size 15 to 20)
#    0.000    1.833    3.333    2.000    0.000    0.667 
#    3.000    3.333    0.000    0.000    0.000   22.167 
#    0.000    0.000    0.000    0.000    0.000    0.000 
#
# Total GULP energy -297409.634202 kJ/mol
# GULP energy per Si atom -12392.068092 kJ/mol
# Density = 1.990405 g / cm^3
# Si number density = 19.949453 Si / 1000 Ang^3
#
#
#
# Elastic Constant Matrix: (Units=GPa)
#
#
# Indices 1 2 3 4 5 6 
#
# 1 55.1042 20.2405 21.6458 0.0000 -4.8934 0.0000
# 2 20.2405 101.1456 31.4203 0.0000 -11.9413 0.0000
# 3 21.6458 31.4203 116.1039 0.0000 -14.1387 0.0000
# 4 0.0000 0.0000 0.0000 23.3126 0.0000 -9.8750
# 5 -4.8934 -11.9413 -14.1387 0.0000 22.2321 0.0000
# 6 0.0000 0.0000 0.0000 -9.8750 0.0000 31.9965
#
#
#
# Elastic Compliance Matrix: (Units=1/GPa)
#
#
# Indices 1 2 3 4 5 6 
#
# 1 0.020498 -0.003092 -0.002859 0.000000 0.001033 0.000000
# 2 -0.003092 0.011648 -0.002056 0.000000 0.004268 0.000000
# 3 -0.002859 -0.002056 0.010288 0.000000 0.004809 0.000000
# 4 0.000000 0.000000 0.000000 0.049346 0.000000 0.015230
# 5 0.001033 0.004268 0.004809 0.000000 0.050558 0.000000
# 6 0.000000 0.000000 0.000000 0.015230 0.000000 0.035954
#
#
# Mechanical properties :
#
#
# Convention : Reuss Voigt Hill
#
# Bulk Modulus (GPa) = 37.84974 46.55187 42.20081
# Shear Modulus (GPa) = 24.61685 28.77805 26.69745
#
# Velocity S-wave (km/s) = 3.51659 3.80221 3.66219
# Velocity P-wave (km/s) = 5.95840 6.53156 6.25155
#
# Compressibility (1/GPa) = 0.02642026
#
# Stress axis : x y z
#
# Youngs Moduli (GPa) = 48.78555 85.85121 97.20019
#
# Poissons Ratio (x) = 0.26543 0.27790
# Poissons Ratio (y) = 0.15084 0.19985
# Poissons Ratio (z) = 0.13948 0.17651
#
# Static dielectric constant tensor:
#      x y z
#    x 3.638580 0.000000 -0.280060 
#    y 0.000000 3.692600 0.000000 
#    z -0.280060 0.000000 3.690680 
# 
# 
# High freq. dielectric constant tensor:
#      x y z
#    x 1.769700 0.000000 -0.041820 
#    y 0.000000 1.768910 0.000000 
#    z -0.041820 0.000000 1.752420 
# 
# From -- ./inp_files/50846.got.cif
#   From: 2010.06.25/outbox.cif.g09.slc.cpg/sg12_26_cif.got.tgz:50846.got - 2010.06.28 00:19:55.
