data_PCOD8088149
_publ_section_title
;
Structure prediction by ZEFSAII (Michael W. Deem and Ramdas Pophale) SiO2 
 PCOD8088149
Probable space group: C 2/M
;
_chemical_formula_sum "Si O2"
_cell_formula_units_Z 56
_cell_length_a 23.601864
_cell_length_b 9.034828
_cell_length_c 14.955224
_cell_angle_alpha 90.000000
_cell_angle_beta 61.237988
_cell_angle_gamma 90.000000
_cell_volume 2795.589570
_symmetry_space_group_name_H-M "C 2/M"
_symmetry_group_IT_number 12
_symmetry_cell_setting 'monoclinic'
loop_
_space_group_symop_operation_xyz
x,y,z
-x,y,-z
-x,-y,-z
x,-y,z
1/2+x,1/2+y,z
1/2-x,1/2+y,-z
1/2-x,1/2-y,-z
1/2+x,1/2-y,z
loop_
_atom_site_type_symbol
_atom_site_label
_atom_site_fract_x
_atom_site_fract_y
_atom_site_fract_z
Si Si1 0.787331 0.323821 0.388176
Si Si2 0.747177 0.329737 0.767548
Si Si3 0.440750 0.669303 0.822721
Si Si4 0.369691 0.668462 0.699743
Si Si5 0.808773 0.172350 0.006444
Si Si6 0.432983 0.162473 0.502989
Si Si7 0.066272 0.327661 0.699678
O O1 0.780579 0.500000 0.403259
O O2 0.750000 0.250000 0.500000
O O3 0.759166 0.271279 0.315180
O O4 0.862346 0.273533 0.327039
O O5 0.751226 0.500000 0.734454
O O6 0.811807 0.278155 0.770207
O O7 0.692525 0.305853 0.884784
O O8 0.450678 0.500000 0.842176
O O9 0.427234 0.689081 0.727092
O O10 0.507815 0.750072 0.798376
O O11 0.378608 0.735541 0.922467
O O12 0.345008 0.500000 0.717064
O O13 0.391721 0.713112 0.583802
O O14 0.803919 0.000000 0.983792
O O15 0.750000 0.250000 0.000000
O O16 0.500000 0.142941 0.500000
O O17 0.442837 0.218311 0.395819
O O18 0.397913 0.000000 0.529847
O O19 0.058241 0.500000 0.723036
#
# Coordination Sequence:
#
# PCOD8088149 Si02
#       7
#     8   8   8   8   8   8   8
#     4  11  24  43  66  91 122 160 205 254 299 357
#     4  11  23  39  62  88 118 160 206 249 302 362
#     4  10  21  36  56  86 121 153 192 245 302 359
#     4  11  21  33  54  85 120 153 193 245 300 359
#     4  10  21  38  60  89 123 159 201 250 304 362
#     4  10  19  32  52  79 114 150 189 236 293 363
#     4  10  22  39  58  83 116 157 199 242 298 362
#
# _framework density 20.031554
#
# number of rings (size 3 to 8) (size 9 to 14) (size 15 to 20)
#    0.000    1.571    2.857    2.143    0.000    4.857 
#    0.000    0.714    0.000    4.286    0.000    0.000 
#    0.000    0.000    0.000    0.000    0.000    0.000 
#
# Total GULP energy -347072.984856 kJ/mol
# GULP energy per Si atom -12395.463745 kJ/mol
# Density = 1.998596 g / cm^3
# Si number density = 20.031554 Si / 1000 Ang^3
#
#
#
# Elastic Constant Matrix: (Units=GPa)
#
#
# Indices 1 2 3 4 5 6 
#
# 1 87.9415 38.3451 35.9061 0.0000 -23.3371 0.0000
# 2 38.3451 76.1946 44.6711 0.0000 -11.6969 -0.0001
# 3 35.9061 44.6711 105.0476 0.0000 -20.3781 0.0000
# 4 0.0000 0.0000 0.0000 30.9377 0.0000 -4.0001
# 5 -23.3371 -11.6969 -20.3781 0.0000 38.7420 0.0000
# 6 0.0000 -0.0001 0.0000 -4.0001 0.0000 33.2666
#
#
#
# Elastic Compliance Matrix: (Units=1/GPa)
#
#
# Indices 1 2 3 4 5 6 
#
# 1 0.016742 -0.006366 -0.001594 0.000000 0.007324 0.000000
# 2 -0.006366 0.019985 -0.006566 0.000000 -0.001255 0.000000
# 3 -0.001594 -0.006566 0.013682 0.000000 0.004254 0.000000
# 4 0.000000 0.000000 0.000000 0.032833 0.000000 0.003948
# 5 0.007324 -0.001255 0.004254 0.000000 0.032082 0.000000
# 6 0.000000 0.000000 0.000000 0.003948 0.000000 0.030535
#
#
# Mechanical properties :
#
#
# Convention : Reuss Voigt Hill
#
# Bulk Modulus (GPa) = 46.82678 56.33648 51.58163
# Shear Modulus (GPa) = 27.46798 30.60669 29.03733
#
# Velocity S-wave (km/s) = 3.70704 3.91311 3.81146
# Velocity P-wave (km/s) = 6.46143 6.97148 6.72129
#
# Compressibility (1/GPa) = 0.02135530
#
# Stress axis : x y z
#
# Youngs Moduli (GPa) = 59.73158 50.03789 73.08980
#
# Poissons Ratio (x) = 0.31855 0.11654
# Poissons Ratio (y) = 0.38026 0.47990
# Poissons Ratio (z) = 0.09524 0.32854
#
# Static dielectric constant tensor:
#      x y z
#    x 3.619760 0.000000 -0.168660 
#    y 0.000000 3.615800 0.000000 
#    z -0.168660 0.000000 3.827650 
# 
# 
# High freq. dielectric constant tensor:
#      x y z
#    x 1.770160 0.000000 -0.013420 
#    y 0.000000 1.777970 0.000000 
#    z -0.013420 0.000000 1.783150 
# 
# From -- ./inp_files/238386.got.cif
#   From: 2010.06.25/outbox.cif.g09.slc.cpg/sg12_120_cif.got.tgz:238386.got - 2010.06.28 00:19:55.
