data_PCOD8088247
_publ_section_title
;
Structure prediction by ZEFSAII (Michael W. Deem and Ramdas Pophale) SiO2 
 PCOD8088247
Probable space group: C 2/M
;
_chemical_formula_sum "Si O2"
_cell_formula_units_Z 56
_cell_length_a 14.538607
_cell_length_b 9.322544
_cell_length_c 22.484095
_cell_angle_alpha 90.000000
_cell_angle_beta 106.528401
_cell_angle_gamma 90.000000
_cell_volume 2921.499317
_symmetry_space_group_name_H-M "C 2/M"
_symmetry_group_IT_number 12
_symmetry_cell_setting 'monoclinic'
loop_
_space_group_symop_operation_xyz
x,y,z
-x,y,-z
-x,-y,-z
x,-y,z
1/2+x,1/2+y,z
1/2-x,1/2+y,-z
1/2-x,1/2-y,-z
1/2+x,1/2-y,z
loop_
_atom_site_type_symbol
_atom_site_label
_atom_site_fract_x
_atom_site_fract_y
_atom_site_fract_z
Si Si1 0.864008 0.670350 0.268115
Si Si2 0.390341 0.337972 0.052297
Si Si3 0.152511 0.670193 0.498928
Si Si4 0.811385 0.662880 0.800783
Si Si5 0.974271 0.336973 0.172144
Si Si6 0.958048 0.330356 0.405453
Si Si7 0.822478 0.338125 0.936535
O O1 0.854660 0.500000 0.268796
O O2 0.758780 0.739144 0.250994
O O3 0.914828 0.723200 0.217014
O O4 0.924270 0.729184 0.335363
O O5 0.427188 0.500000 0.051210
O O6 0.459091 0.257309 0.110881
O O7 0.283488 0.333494 0.057201
O O8 0.393479 0.260197 0.988767
O O9 0.170291 0.500000 0.498661
O O10 0.250000 0.750000 0.500000
O O11 0.118042 0.719174 0.558321
O O12 0.066995 0.720443 0.438625
O O13 0.771917 0.500000 0.795157
O O14 0.819837 0.723662 0.869405
O O15 0.914705 0.669828 0.788568
O O16 0.943269 0.500000 0.151564
O O17 0.959102 0.500000 0.406252
O O18 0.863498 0.500000 0.944186
#
# Coordination Sequence:
#
# PCOD8088247 Si02
#       7
#     8   8   8   8   8   8   8
#     4  10  20  36  56  77 104 140 181 217 250 305
#     4  10  19  32  53  76  99 130 172 219 264 315
#     4   9  17  33  57  82 111 143 176 215 255 302
#     4  10  21  37  54  76 105 138 173 215 270 318
#     4  10  21  35  53  75 102 136 173 214 264 319
#     4   8  17  34  54  77 109 148 177 204 258 315
#     4   9  18  33  52  72  99 134 169 211 268 325
#
# _framework density 19.168240000000001
#
# number of rings (size 3 to 8) (size 9 to 14) (size 15 to 20)
#    0.000    2.571    1.429    1.286    0.000    3.429 
#    0.000    7.143    0.000    0.000    0.000    0.000 
#    0.000    0.000    0.000    0.000    0.000    0.000 
#
# Total GULP energy -347179.858189 kJ/mol
# GULP energy per Si atom -12399.280650 kJ/mol
# Density = 1.912461 g / cm^3
# Si number density = 19.168240 Si / 1000 Ang^3
#
#
#
# Elastic Constant Matrix: (Units=GPa)
#
#
# Indices 1 2 3 4 5 6 
#
# 1 84.4163 31.4916 40.3237 0.0000 16.5421 0.0000
# 2 31.4916 60.5122 42.6533 0.0000 11.8803 0.0000
# 3 40.3237 42.6533 126.1695 0.0000 21.0688 0.0000
# 4 0.0000 0.0000 0.0000 22.6949 0.0000 6.2086
# 5 16.5421 11.8803 21.0688 0.0000 19.9154 0.0000
# 6 0.0000 0.0000 0.0000 6.2086 0.0000 29.1545
#
#
#
# Elastic Compliance Matrix: (Units=1/GPa)
#
#
# Indices 1 2 3 4 5 6 
#
# 1 0.016496 -0.005539 -0.002020 0.000000 -0.008261 0.000000
# 2 -0.005539 0.024225 -0.005799 0.000000 -0.003716 0.000000
# 3 -0.002020 -0.005799 0.011750 0.000000 -0.007293 0.000000
# 4 0.000000 0.000000 0.000000 0.046788 0.000000 -0.009964
# 5 -0.008261 -0.003716 -0.007293 0.000000 0.067006 0.000000
# 6 0.000000 0.000000 0.000000 -0.009964 0.000000 0.036422
#
#
# Mechanical properties :
#
#
# Convention : Reuss Voigt Hill
#
# Bulk Modulus (GPa) = 38.82786 55.55948 47.19367
# Shear Modulus (GPa) = 21.00943 24.79492 22.90217
#
# Velocity S-wave (km/s) = 3.31426 3.60049 3.46033
# Velocity P-wave (km/s) = 5.91152 6.80682 6.37491
#
# Compressibility (1/GPa) = 0.02575470
#
# Stress axis : x y z
#
# Youngs Moduli (GPa) = 60.62023 41.27930 85.10845
#
# Poissons Ratio (x) = 0.22865 0.17193
# Poissons Ratio (y) = 0.33578 0.49353
# Poissons Ratio (z) = 0.12246 0.23937
#
# Static dielectric constant tensor:
#      x y z
#    x 3.404310 0.000000 0.003410 
#    y 0.000000 3.329120 0.000000 
#    z 0.003410 0.000000 3.753580 
# 
# 
# High freq. dielectric constant tensor:
#      x y z
#    x 1.746570 0.000000 0.001820 
#    y 0.000000 1.722010 0.000000 
#    z 0.001820 0.000000 1.742540 
# 
# From -- ./inp_files/338183.got.cif
#   From: 2010.06.25/outbox.cif.g09.slc.cpg/sg12_170_cif.got.tgz:338183.got - 2010.06.28 00:19:55.
