data_PCOD8088711
_publ_section_title
;
Structure prediction by ZEFSAII (Michael W. Deem and Ramdas Pophale) SiO2 
 PCOD8088711
Probable space group: C 2/M
;
_chemical_formula_sum "Si O2"
_cell_formula_units_Z 64
_cell_length_a 16.269536
_cell_length_b 8.565517
_cell_length_c 33.317417
_cell_angle_alpha 90.000000
_cell_angle_beta 137.653174
_cell_angle_gamma 90.000000
_cell_volume 3127.612648
_symmetry_space_group_name_H-M "C 2/M"
_symmetry_group_IT_number 12
_symmetry_cell_setting 'monoclinic'
loop_
_space_group_symop_operation_xyz
x,y,z
-x,y,-z
-x,-y,-z
x,-y,z
1/2+x,1/2+y,z
1/2-x,1/2+y,-z
1/2-x,1/2-y,-z
1/2+x,1/2-y,z
loop_
_atom_site_type_symbol
_atom_site_label
_atom_site_fract_x
_atom_site_fract_y
_atom_site_fract_z
Si Si1 0.011388 0.819879 0.122546
Si Si2 0.085989 0.185468 0.997059
Si Si3 0.221216 0.178349 0.253854
Si Si4 0.164842 0.677983 0.882098
Si Si5 0.529686 0.184753 0.246160
Si Si6 0.600480 0.184280 0.566677
Si Si7 0.370388 0.684477 0.640296
Si Si8 0.456561 0.680438 0.367308
O O1 0.943780 0.698327 0.126210
O O2 0.154072 0.804927 0.186173
O O3 0.968904 0.000000 0.113644
O O4 0.977012 0.756609 0.066378
O O5 0.216840 0.263300 0.055903
O O6 0.094016 0.000000 0.998426
O O7 0.000000 0.250324 0.000000
O O8 0.133885 0.225444 0.259120
O O9 0.341506 0.284473 0.296989
O O10 0.260631 0.000000 0.275541
O O11 0.203725 0.500000 0.890748
O O12 0.106672 0.736641 0.818741
O O13 0.539079 0.230902 0.295915
O O14 0.547224 0.000000 0.246235
O O15 0.500000 0.254386 0.500000
O O16 0.732988 0.247469 0.599550
O O17 0.560912 0.227762 0.597462
O O18 0.603173 0.000000 0.564718
O O19 0.378626 0.500000 0.649894
O O20 0.420063 0.726729 0.613220
O O21 0.460031 0.500000 0.379810
#
# Coordination Sequence:
#
# PCOD8088711 Si02
#       8
#     8   8   8   8   8   8   8   8
#     4   9  18  31  51  75  98 134 180 223 273 335
#     4   9  17  30  47  68  98 135 176 225 276 324
#     4  10  19  33  54  80 111 146 186 236 289 339
#     4   9  18  31  50  75 102 134 175 227 276 325
#     4  10  19  32  54  83 111 144 188 235 285 342
#     4  10  22  42  66  89 118 158 197 234 280 336
#     4  10  22  39  59  86 122 157 189 235 289 335
#     4  11  23  38  59  89 121 155 195 237 284 337
#
# _framework density 20.462893000000001
#
# number of rings (size 3 to 8) (size 9 to 14) (size 15 to 20)
#    0.000    2.250    1.250    1.500    0.000    3.750 
#    0.000    2.500    0.000    1.500    0.000    0.000 
#    0.000    0.000    0.000    0.000    0.000    0.000 
#
# Total GULP energy -396431.703370 kJ/mol
# GULP energy per Si atom -12388.490730 kJ/mol
# Density = 2.041632 g / cm^3
# Si number density = 20.462893 Si / 1000 Ang^3
#
#
#
# Elastic Constant Matrix: (Units=GPa)
#
#
# Indices 1 2 3 4 5 6 
#
# 1 100.7349 5.2952 59.9542 0.0000 -4.2806 0.0000
# 2 5.2952 13.3350 11.8090 0.0001 -0.2159 0.0000
# 3 59.9542 11.8090 157.2037 0.0001 -0.7554 0.0000
# 4 0.0000 0.0001 0.0001 20.3024 0.0000 -0.9469
# 5 -4.2806 -0.2159 -0.7554 0.0000 18.0202 0.0000
# 6 0.0000 0.0000 0.0000 -0.9469 0.0000 22.0387
#
#
#
# Elastic Compliance Matrix: (Units=1/GPa)
#
#
# Indices 1 2 3 4 5 6 
#
# 1 0.012997 -0.000790 -0.004884 0.000000 0.002873 0.000000
# 2 -0.000790 0.080392 -0.005735 0.000000 0.000535 0.000000
# 3 -0.004884 -0.005735 0.008650 0.000000 -0.000866 0.000000
# 4 0.000000 0.000000 0.000000 0.049354 0.000000 0.002120
# 5 0.002873 0.000535 -0.000866 0.000000 0.056146 0.000000
# 6 0.000000 0.000000 0.000000 0.002120 0.000000 0.045466
#
#
# Mechanical properties :
#
#
# Convention : Reuss Voigt Hill
#
# Bulk Modulus (GPa) = 12.62273 47.26562 29.94418
# Shear Modulus (GPa) = 16.54368 25.01994 20.78181
#
# Velocity S-wave (km/s) = 2.84645 3.50050 3.19028
# Velocity P-wave (km/s) = 4.12129 6.28382 5.31373
#
# Compressibility (1/GPa) = 0.07922215
#
# Stress axis : x y z
#
# Youngs Moduli (GPa) = 76.93891 12.43907 115.60148
#
# Poissons Ratio (x) = 0.00982 0.56457
# Poissons Ratio (y) = 0.06076 0.66300
# Poissons Ratio (z) = 0.37575 0.07134
#
# Static dielectric constant tensor:
#      x y z
#    x 3.628400 0.000000 0.134820 
#    y 0.000000 3.397490 0.000000 
#    z 0.134820 0.000000 4.303930 
# 
# 
# High freq. dielectric constant tensor:
#      x y z
#    x 1.782910 0.000000 0.002100 
#    y 0.000000 1.772730 0.000000 
#    z 0.002100 0.000000 1.817850 
# 
# From -- ./inp_files/375528.got.cif
#   From: 2010.06.25/outbox.cif.g09.slc.cpg/sg12_188_cif.got.tgz:375528.got - 2010.06.28 00:19:55.
