data_PCOD8088972
_publ_section_title
;
Structure prediction by ZEFSAII (Michael W. Deem and Ramdas Pophale) SiO2 
 PCOD8088972
Probable space group: C 2/M
;
_chemical_formula_sum "Si O2"
_cell_formula_units_Z 64
_cell_length_a 15.154093
_cell_length_b 9.273835
_cell_length_c 30.771788
_cell_angle_alpha 90.000000
_cell_angle_beta 49.377522
_cell_angle_gamma 90.000000
_cell_volume 3282.410864
_symmetry_space_group_name_H-M "C 2/M"
_symmetry_group_IT_number 12
_symmetry_cell_setting 'monoclinic'
loop_
_space_group_symop_operation_xyz
x,y,z
-x,y,-z
-x,-y,-z
x,-y,z
1/2+x,1/2+y,z
1/2-x,1/2+y,-z
1/2-x,1/2-y,-z
1/2+x,1/2-y,z
loop_
_atom_site_type_symbol
_atom_site_label
_atom_site_fract_x
_atom_site_fract_y
_atom_site_fract_z
Si Si1 0.292264 0.166048 0.838007
Si Si2 0.268216 0.165337 0.061790
Si Si3 0.060883 0.167847 0.435497
Si Si4 0.157043 0.664977 0.817220
Si Si5 0.063445 0.665845 0.753927
Si Si6 0.150226 0.832898 0.556750
Si Si7 0.800264 0.169954 0.361198
Si Si8 0.587447 0.163064 0.065366
O O1 0.215975 0.243774 0.899496
O O2 0.261470 0.235728 0.801204
O O3 0.427218 0.189622 0.804808
O O4 0.257394 0.000000 0.848160
O O5 0.157706 0.221502 0.070559
O O6 0.245621 0.000000 0.081894
O O7 0.383448 0.181434 0.995079
O O8 0.175547 0.260711 0.392112
O O9 0.000000 0.212341 0.500000
O O10 0.975202 0.205590 0.423136
O O11 0.095412 0.000000 0.424844
O O12 0.198362 0.500000 0.805065
O O13 0.127404 0.711001 0.777718
O O14 0.048104 0.690051 0.884045
O O15 0.089907 0.500000 0.733304
O O16 0.106353 0.768789 0.702148
O O17 0.250000 0.750000 0.500000
O O18 0.151909 0.789058 0.606575
O O19 0.177622 0.000000 0.541203
O O20 0.788683 0.000000 0.358723
O O21 0.620531 0.000000 0.070352
#
# Coordination Sequence:
#
# PCOD8088972 Si02
#       8
#     8   8   8   8   8   8   8   8
#     4  11  23  40  61  87 119 155 199 249 300 358
#     4  10  19  32  57  88 117 154 196 243 301 363
#     4  10  20  37  62  89 120 159 197 230 281 351
#     4  10  21  40  63  85 113 155 201 246 299 356
#     4  10  23  44  64  80 114 161 200 241 296 356
#     4  10  21  37  59  89 122 156 192 234 283 340
#     4  11  24  39  60  91 123 152 193 249 295 338
#     4   9  18  35  57  84 119 154 195 246 303 361
#
# _framework density 19.497864
#
# number of rings (size 3 to 8) (size 9 to 14) (size 15 to 20)
#    0.000    1.875    2.500    1.125    0.000    5.250 
#    0.000    6.250    0.000    0.000    0.000    0.000 
#    0.000    0.000    0.000    0.000    0.000    0.000 
#
# Total GULP energy -396902.079775 kJ/mol
# GULP energy per Si atom -12403.189993 kJ/mol
# Density = 1.945349 g / cm^3
# Si number density = 19.497864 Si / 1000 Ang^3
#
#
#
# Elastic Constant Matrix: (Units=GPa)
#
#
# Indices 1 2 3 4 5 6 
#
# 1 109.0643 49.5514 31.9032 0.0001 27.4860 0.0001
# 2 49.5514 94.5724 49.3623 0.0001 15.4689 0.0002
# 3 31.9032 49.3623 92.4520 0.0000 20.6996 0.0000
# 4 0.0001 0.0001 0.0000 35.5345 0.0000 2.0462
# 5 27.4860 15.4689 20.6996 0.0000 23.8051 0.0001
# 6 0.0001 0.0002 0.0000 2.0462 0.0001 31.8312
#
#
#
# Elastic Compliance Matrix: (Units=1/GPa)
#
#
# Indices 1 2 3 4 5 6 
#
# 1 0.015398 -0.006377 0.001421 0.000000 -0.014871 0.000000
# 2 -0.006377 0.017522 -0.007766 0.000000 0.002730 0.000000
# 3 0.001421 -0.007766 0.017025 0.000000 -0.011397 0.000000
# 4 0.000000 0.000000 0.000000 0.028246 0.000000 -0.001816
# 5 -0.014871 0.002730 -0.011397 0.000000 0.067314 0.000000
# 6 0.000000 0.000000 0.000000 -0.001816 0.000000 0.031532
#
#
# Mechanical properties :
#
#
# Convention : Reuss Voigt Hill
#
# Bulk Modulus (GPa) = 40.81642 61.96920 51.39281
# Shear Modulus (GPa) = 23.73604 29.25229 26.49417
#
# Velocity S-wave (km/s) = 3.49286 3.87755 3.69022
# Velocity P-wave (km/s) = 6.10295 7.20408 6.67625
#
# Compressibility (1/GPa) = 0.02449995
#
# Stress axis : x y z
#
# Youngs Moduli (GPa) = 64.94201 57.07017 58.73878
#
# Poissons Ratio (x) = 0.36395 -0.08346
# Poissons Ratio (y) = 0.41415 0.45618
# Poissons Ratio (z) = -0.09227 0.44322
#
# Static dielectric constant tensor:
#      x y z
#    x 3.382460 0.000000 0.067540 
#    y 0.000000 3.580450 0.000000 
#    z 0.067540 0.000000 3.497130 
# 
# 
# High freq. dielectric constant tensor:
#      x y z
#    x 1.761550 0.000000 0.009200 
#    y 0.000000 1.760080 0.000000 
#    z 0.009200 0.000000 1.755780 
# 
# From -- ./inp_files/375446.got.cif
#   From: 2010.06.25/outbox.cif.g09.slc.cpg/sg12_188_cif.got.tgz:375446.got - 2010.06.28 00:19:55.
