data_PCOD8088484
_publ_section_title
;
Structure prediction by ZEFSAII (Michael W. Deem and Ramdas Pophale) SiO2 
 PCOD8088484
Probable space group: C 2/M
;
_chemical_formula_sum "Si O2"
_cell_formula_units_Z 48
_cell_length_a 27.548932
_cell_length_b 8.997134
_cell_length_c 11.387489
_cell_angle_alpha 90.000000
_cell_angle_beta 57.597680
_cell_angle_gamma 90.000000
_cell_volume 2383.070658
_symmetry_space_group_name_H-M "C 2/M"
_symmetry_group_IT_number 12
_symmetry_cell_setting 'monoclinic'
loop_
_space_group_symop_operation_xyz
x,y,z
-x,y,-z
-x,-y,-z
x,-y,z
1/2+x,1/2+y,z
1/2-x,1/2+y,-z
1/2-x,1/2-y,-z
1/2+x,1/2-y,z
loop_
_atom_site_type_symbol
_atom_site_label
_atom_site_fract_x
_atom_site_fract_y
_atom_site_fract_z
Si Si1 0.175039 0.171540 0.827723
Si Si2 0.215298 0.327303 0.443283
Si Si3 0.471759 0.172010 0.357571
Si Si4 0.614538 0.323850 0.673976
Si Si5 0.587973 0.172620 0.323334
Si Si6 0.311806 0.677012 0.933138
O O1 0.244245 0.195605 0.722976
O O2 0.136206 0.242217 0.772500
O O3 0.159973 0.000000 0.839345
O O4 0.161082 0.230423 0.976190
O O5 0.204910 0.500000 0.483348
O O6 0.250000 0.250000 0.500000
O O7 0.154043 0.244561 0.517216
O O8 0.449646 0.268024 0.274279
O O9 0.539393 0.202920 0.287388
O O10 0.437585 0.220912 0.518670
O O11 0.460663 0.000000 0.345346
O O12 0.618240 0.500000 0.665280
O O13 0.644726 0.268091 0.223503
O O14 0.605528 0.000000 0.302517
O O15 0.305023 0.500000 0.936174
O O16 0.250000 0.750000 0.000000
#
# Coordination Sequence:
#
# PCOD8088484 Si02
#       6
#     8   8   8   8   8   8
#     4   8  18  35  51  72 109 149 180 217 271 330
#     4   9  16  29  48  72 104 143 179 219 268 319
#     4   9  19  37  61  83 109 145 182 227 284 334
#     4  10  19  32  53  82 110 140 183 229 274 327
#     4   9  20  40  60  81 110 146 186 227 277 334
#     4  11  23  39  58  81 111 150 188 225 272 329
#
# _framework density 20.142081000000001
#
# number of rings (size 3 to 8) (size 9 to 14) (size 15 to 20)
#    0.000    2.667    0.000    3.500    2.333    1.333 
#    0.000   11.667    0.000    5.000    0.000    0.000 
#    0.000    0.000    0.000    0.000    0.000    0.000 
#
# Total GULP energy -297357.224841 kJ/mol
# GULP energy per Si atom -12389.884368 kJ/mol
# Density = 2.009624 g / cm^3
# Si number density = 20.142081 Si / 1000 Ang^3
#
#
#
# Elastic Constant Matrix: (Units=GPa)
#
#
# Indices 1 2 3 4 5 6 
#
# 1 102.1114 34.4547 20.1615 0.0000 -2.1278 0.0000
# 2 34.4547 75.6530 25.4967 0.0000 -6.5519 0.0000
# 3 20.1615 25.4967 61.4206 0.0000 -7.7667 0.0000
# 4 0.0000 0.0000 0.0000 22.7829 0.0000 -3.1001
# 5 -2.1278 -6.5519 -7.7667 0.0000 25.3422 0.0000
# 6 0.0000 0.0000 0.0000 -3.1001 0.0000 34.7116
#
#
#
# Elastic Compliance Matrix: (Units=1/GPa)
#
#
# Indices 1 2 3 4 5 6 
#
# 1 0.011777 -0.004765 -0.001996 0.000000 -0.000855 0.000000
# 2 -0.004765 0.017404 -0.005350 0.000000 0.002460 0.000000
# 3 -0.001996 -0.005350 0.019725 0.000000 0.004495 0.000000
# 4 0.000000 0.000000 0.000000 0.044433 0.000000 0.003968
# 5 -0.000855 0.002460 0.004495 0.000000 0.041402 0.000000
# 6 0.000000 0.000000 0.000000 0.003968 0.000000 0.029163
#
#
# Mechanical properties :
#
#
# Convention : Reuss Voigt Hill
#
# Bulk Modulus (GPa) = 40.50910 44.37897 42.44404
# Shear Modulus (GPa) = 25.46412 27.17214 26.31813
#
# Velocity S-wave (km/s) = 3.55945 3.67689 3.61865
# Velocity P-wave (km/s) = 6.08673 6.33299 6.21108
#
# Compressibility (1/GPa) = 0.02468581
#
# Stress axis : x y z
#
# Youngs Moduli (GPa) = 84.90862 57.45666 50.69592
#
# Poissons Ratio (x) = 0.27379 0.10119
# Poissons Ratio (y) = 0.40460 0.27120
# Poissons Ratio (z) = 0.16948 0.30737
#
# Static dielectric constant tensor:
#      x y z
#    x 3.953500 0.000000 -0.090890 
#    y 0.000000 3.469040 0.000000 
#    z -0.090890 0.000000 3.953170 
# 
# 
# High freq. dielectric constant tensor:
#      x y z
#    x 1.796330 0.000000 0.003960 
#    y 0.000000 1.768760 0.000000 
#    z 0.003960 0.000000 1.762210 
# 
# From -- ./inp_files/179739.got.cif
#   From: 2010.06.25/outbox.cif.g09.slc.cpg/sg12_90_cif.got.tgz:179739.got - 2010.06.28 00:19:55.
