data_PCOD8088944
_publ_section_title
;
Structure prediction by ZEFSAII (Michael W. Deem and Ramdas Pophale) SiO2 
 PCOD8088944
Probable space group: C 2/M
;
_chemical_formula_sum "Si O2"
_cell_formula_units_Z 48
_cell_length_a 28.478758
_cell_length_b 13.390949
_cell_length_c 9.811907
_cell_angle_alpha 90.000000
_cell_angle_beta 143.838727
_cell_angle_gamma 90.000000
_cell_volume 2207.913581
_symmetry_space_group_name_H-M "C 2/M"
_symmetry_group_IT_number 12
_symmetry_cell_setting 'monoclinic'
loop_
_space_group_symop_operation_xyz
x,y,z
-x,y,-z
-x,-y,-z
x,-y,z
1/2+x,1/2+y,z
1/2-x,1/2+y,-z
1/2-x,1/2-y,-z
1/2+x,1/2-y,z
loop_
_atom_site_type_symbol
_atom_site_label
_atom_site_fract_x
_atom_site_fract_y
_atom_site_fract_z
Si Si1 0.758488 0.383374 0.534143
Si Si2 0.241074 0.881951 0.067273
Si Si3 0.971931 0.801937 0.787532
Si Si4 0.378696 0.116551 0.590016
Si Si5 0.299960 0.382097 0.321187
Si Si6 0.876943 0.882175 0.980832
O O1 0.744628 0.500000 0.501084
O O2 0.841234 0.359768 0.651606
O O3 0.754014 0.341979 0.678607
O O4 0.684019 0.338072 0.275811
O O5 0.316978 0.842411 0.330630
O O6 0.159145 0.859047 0.954945
O O7 0.252985 0.000000 0.086740
O O8 0.235359 0.833976 0.901651
O O9 0.958225 0.681849 0.761197
O O10 0.891805 0.857445 0.557772
O O11 0.000000 0.843030 0.000000
O O12 0.039401 0.825006 0.834395
O O13 0.399856 0.000000 0.622583
O O14 0.292464 0.500000 0.290335
O O15 0.890878 0.000000 0.993261
#
# Coordination Sequence:
#
# PCOD8088944 Si02
#       6
#     8   8   8   8   8   8
#     4   8  15  32  57  80 104 137 175 225 273 312
#     4   8  17  36  60  81 105 141 180 224 272 318
#     4  12  23  32  51  84 113 148 178 214 273 325
#     4   9  20  39  58  75 103 144 192 232 260 303
#     4  10  19  32  56  88 114 134 171 222 279 334
#     4   9  17  33  55  82 115 142 169 213 276 338
#
# _framework density 21.739981
#
# number of rings (size 3 to 8) (size 9 to 14) (size 15 to 20)
#    0.000    2.667    1.667    2.500    0.000    3.000 
#    0.000    2.500    3.667    0.000    0.000    2.333 
#    0.000    0.000    0.000    0.000    0.000    0.000 
#
# Total GULP energy -297495.874828 kJ/mol
# GULP energy per Si atom -12395.661451 kJ/mol
# Density = 2.169050 g / cm^3
# Si number density = 21.739981 Si / 1000 Ang^3
#
#
#
# Elastic Constant Matrix: (Units=GPa)
#
#
# Indices 1 2 3 4 5 6 
#
# 1 125.4362 42.0236 54.4380 0.0000 -17.9254 0.0000
# 2 42.0236 40.8581 12.5128 0.0000 0.1165 0.0000
# 3 54.4380 12.5128 80.8284 0.0000 -22.3506 0.0000
# 4 0.0000 0.0000 0.0000 21.6142 0.0000 0.5972
# 5 -17.9254 0.1165 -22.3506 0.0000 39.9584 0.0000
# 6 0.0000 0.0000 0.0000 0.5972 0.0000 17.0832
#
#
#
# Elastic Compliance Matrix: (Units=1/GPa)
#
#
# Indices 1 2 3 4 5 6 
#
# 1 0.017033 -0.014981 -0.008313 0.000000 0.003035 0.000000
# 2 -0.014981 0.039123 0.002536 0.000000 -0.005416 0.000000
# 3 -0.008313 0.002536 0.019572 0.000000 0.007211 0.000000
# 4 0.000000 0.000000 0.000000 0.046311 0.000000 -0.001619
# 5 0.003035 -0.005416 0.007211 0.000000 0.030437 0.000000
# 6 0.000000 0.000000 0.000000 -0.001619 0.000000 0.058594
#
#
# Mechanical properties :
#
#
# Convention : Reuss Voigt Hill
#
# Bulk Modulus (GPa) = 29.23123 51.67460 40.45292
# Shear Modulus (GPa) = 18.94017 24.94104 21.94061
#
# Velocity S-wave (km/s) = 2.95483 3.39077 3.18028
# Velocity P-wave (km/s) = 5.01163 6.25706 5.66865
#
# Compressibility (1/GPa) = 0.03420998
#
# Stress axis : x y z
#
# Youngs Moduli (GPa) = 58.71049 25.56073 51.09271
#
# Poissons Ratio (x) = 0.38293 0.42474
# Poissons Ratio (y) = 0.87956 -0.12956
# Poissons Ratio (z) = 0.48807 -0.06482
#
# Static dielectric constant tensor:
#      x y z
#    x 4.259980 0.000000 -0.517600 
#    y 0.000000 3.868110 0.000000 
#    z -0.517600 0.000000 4.020820 
# 
# 
# High freq. dielectric constant tensor:
#      x y z
#    x 1.844580 0.000000 -0.013740 
#    y 0.000000 1.868040 0.000000 
#    z -0.013740 0.000000 1.833700 
# 
# From -- ./inp_files/104921.got.cif
#   From: 2010.06.25/outbox.cif.g09.slc.cpg/sg12_53_cif.got.tgz:104921.got - 2010.06.28 00:19:55.
