data_PCOD8088459
_publ_section_title
;
Structure prediction by ZEFSAII (Michael W. Deem and Ramdas Pophale) SiO2 
 PCOD8088459
Probable space group: C 2/M
;
_chemical_formula_sum "Si O2"
_cell_formula_units_Z 64
_cell_length_a 21.711417
_cell_length_b 13.651788
_cell_length_c 12.694648
_cell_angle_alpha 90.000000
_cell_angle_beta 58.207149
_cell_angle_gamma 90.000000
_cell_volume 3198.129580
_symmetry_space_group_name_H-M "C 2/M"
_symmetry_group_IT_number 12
_symmetry_cell_setting 'monoclinic'
loop_
_space_group_symop_operation_xyz
x,y,z
-x,y,-z
-x,-y,-z
x,-y,z
1/2+x,1/2+y,z
1/2-x,1/2+y,-z
1/2-x,1/2-y,-z
1/2+x,1/2-y,z
loop_
_atom_site_type_symbol
_atom_site_label
_atom_site_fract_x
_atom_site_fract_y
_atom_site_fract_z
Si Si1 0.823796 0.389101 0.809350
Si Si2 0.906739 0.387632 0.933460
Si Si3 0.434264 0.114367 0.270692
Si Si4 0.165448 0.707015 0.803480
Si Si5 0.341015 0.610067 0.057818
Si Si6 0.831240 0.205942 0.673432
Si Si7 0.540064 0.254583 0.571417
Si Si8 0.581629 0.384933 0.223423
O O1 0.847777 0.500000 0.759392
O O2 0.870538 0.339520 0.861950
O O3 0.739574 0.385014 0.917969
O O4 0.837642 0.321359 0.695935
O O5 0.887890 0.500000 0.935703
O O6 0.992445 0.369498 0.862102
O O7 0.869476 0.355939 0.073316
O O8 0.371839 0.178862 0.272476
O O9 0.444880 0.154764 0.378787
O O10 0.412765 0.000000 0.295038
O O11 0.152254 0.820897 0.845454
O O12 0.249645 0.679231 0.715368
O O13 0.359842 0.500000 0.078070
O O14 0.394631 0.645431 0.916524
O O15 0.884635 0.190229 0.525773
O O16 0.854928 0.139346 0.750696
O O17 0.500000 0.224536 0.500000
O O18 0.492536 0.328733 0.683804
O O19 0.566202 0.500000 0.242657
#
# Coordination Sequence:
#
# PCOD8088459 Si02
#       8
#     8   8   8   8   8   8   8   8
#     4   9  17  31  54  85 114 139 175 224 276 327
#     4  10  19  32  53  81 111 142 176 218 274 333
#     4  11  24  39  57  82 110 143 182 224 275 333
#     4  11  21  35  55  80 116 148 177 219 271 331
#     4   9  18  33  56  85 114 145 180 220 270 324
#     4  10  21  34  55  83 111 146 186 223 270 322
#     4  10  22  40  59  80 105 140 188 234 275 316
#     4  10  20  36  58  84 113 145 185 230 270 312
#
# _framework density 20.011697000000002
#
# number of rings (size 3 to 8) (size 9 to 14) (size 15 to 20)
#    0.000    2.000    0.000    4.500    0.000    8.500 
#    0.000    0.625    0.000    3.000    0.000    0.000 
#    0.000    0.000    0.000    0.000    0.000    0.000 
#
# Total GULP energy -396806.865298 kJ/mol
# GULP energy per Si atom -12400.214541 kJ/mol
# Density = 1.996615 g / cm^3
# Si number density = 20.011697 Si / 1000 Ang^3
#
#
#
# Elastic Constant Matrix: (Units=GPa)
#
#
# Indices 1 2 3 4 5 6 
#
# 1 97.2811 46.8503 42.1700 0.0000 -1.6304 0.0000
# 2 46.8503 74.4993 37.4669 0.0000 5.2993 0.0000
# 3 42.1700 37.4669 75.8882 0.0000 -12.6937 0.0000
# 4 0.0000 0.0000 0.0000 20.2153 0.0000 1.4178
# 5 -1.6304 5.2993 -12.6937 0.0000 28.5251 0.0000
# 6 0.0000 0.0000 0.0000 1.4178 0.0000 29.0044
#
#
#
# Elastic Compliance Matrix: (Units=1/GPa)
#
#
# Indices 1 2 3 4 5 6 
#
# 1 0.016195 -0.007521 -0.005291 0.000000 -0.000032 0.000000
# 2 -0.007521 0.023126 -0.008674 0.000000 -0.008586 0.000000
# 3 -0.005291 -0.008674 0.022277 0.000000 0.011223 0.000000
# 4 0.000000 0.000000 0.000000 0.049638 0.000000 -0.002426
# 5 -0.000032 -0.008586 0.011223 0.000000 0.041644 0.000000
# 6 0.000000 0.000000 0.000000 -0.002426 0.000000 0.034596
#
#
# Mechanical properties :
#
#
# Convention : Reuss Voigt Hill
#
# Bulk Modulus (GPa) = 53.69238 55.62701 54.65970
# Shear Modulus (GPa) = 21.12754 23.62772 22.37763
#
# Velocity S-wave (km/s) = 3.25277 3.43985 3.34762
# Velocity P-wave (km/s) = 6.40282 6.60563 6.50502
#
# Compressibility (1/GPa) = 0.01862462
#
# Stress axis : x y z
#
# Youngs Moduli (GPa) = 61.74836 43.24148 44.88849
#
# Poissons Ratio (x) = 0.32522 0.23752
# Poissons Ratio (y) = 0.46441 0.38938
# Poissons Ratio (z) = 0.32673 0.37510
#
# Static dielectric constant tensor:
#      x y z
#    x 3.668000 0.000000 -0.233910 
#    y 0.000000 3.720610 0.000000 
#    z -0.233910 0.000000 3.554410 
# 
# 
# High freq. dielectric constant tensor:
#      x y z
#    x 1.771090 0.000000 -0.016590 
#    y 0.000000 1.785370 0.000000 
#    z -0.016590 0.000000 1.767920 
# 
# From -- ./inp_files/167266.got.cif
#   From: 2010.06.25/outbox.cif.g09.slc.cpg/sg12_84_cif.got.tgz:167266.got - 2010.06.28 00:19:55.
