data_PCOD8088530
_publ_section_title
;
Structure prediction by ZEFSAII (Michael W. Deem and Ramdas Pophale) SiO2 
 PCOD8088530
Probable space group: C 2/M
;
_chemical_formula_sum "Si O2"
_cell_formula_units_Z 64
_cell_length_a 27.589464
_cell_length_b 8.930052
_cell_length_c 12.972566
_cell_angle_alpha 90.000000
_cell_angle_beta 85.235165
_cell_angle_gamma 90.000000
_cell_volume 3185.074763
_symmetry_space_group_name_H-M "C 2/M"
_symmetry_group_IT_number 12
_symmetry_cell_setting 'monoclinic'
loop_
_space_group_symop_operation_xyz
x,y,z
-x,y,-z
-x,-y,-z
x,-y,z
1/2+x,1/2+y,z
1/2-x,1/2+y,-z
1/2-x,1/2-y,-z
1/2+x,1/2-y,z
loop_
_atom_site_type_symbol
_atom_site_label
_atom_site_fract_x
_atom_site_fract_y
_atom_site_fract_z
Si Si1 0.051301 0.322118 0.541831
Si Si2 0.907943 0.176328 0.264677
Si Si3 0.371415 0.175543 0.637835
Si Si4 0.920714 0.669305 0.836185
Si Si5 0.680695 0.175964 0.814186
Si Si6 0.977152 0.330006 0.110506
Si Si7 0.656724 0.323548 0.033966
Si Si8 0.708720 0.673634 0.234259
O O1 0.050487 0.500000 0.556925
O O2 0.059623 0.245296 0.650106
O O3 0.097787 0.269160 0.465933
O O4 0.000000 0.270116 0.500000
O O5 0.854375 0.247646 0.264495
O O6 0.934639 0.218532 0.152781
O O7 0.903543 0.000000 0.278850
O O8 0.402919 0.226887 0.729665
O O9 0.318482 0.249809 0.663207
O O10 0.363619 0.000000 0.632388
O O11 0.903530 0.500000 0.861931
O O12 0.898566 0.772042 0.931414
O O13 0.978737 0.677884 0.816421
O O14 0.734712 0.211088 0.764862
O O15 0.670055 0.000000 0.820332
O O16 0.675544 0.242698 0.928897
O O17 0.956541 0.500000 0.104313
O O18 0.000000 0.274390 0.000000
O O19 0.658893 0.500000 0.014420
O O20 0.689668 0.270344 0.125563
O O21 0.697558 0.500000 0.244848
#
# Coordination Sequence:
#
# PCOD8088530 Si02
#       8
#     8   8   8   8   8   8   8   8
#     4  10  21  41  67  90 114 147 187 228 274 337
#     4  12  26  40  57  85 117 148 186 236 290 335
#     4   9  18  33  57  85 110 141 183 231 278 327
#     4   9  17  31  52  80 112 147 186 224 270 333
#     4  11  22  38  57  77 109 155 199 234 276 334
#     4  10  20  35  56  80 110 151 192 226 267 329
#     4  10  19  32  53  85 120 150 185 233 286 332
#     4   9  20  36  56  83 115 151 189 234 284 333
#
# _framework density 20.093722
#
# number of rings (size 3 to 8) (size 9 to 14) (size 15 to 20)
#    0.000    2.000    0.000    3.750    0.000    6.000 
#    0.000    3.125    0.000    0.000    0.000    0.000 
#    0.000    0.000    0.000    0.000    0.000    0.000 
#
# Total GULP energy -396747.822644 kJ/mol
# GULP energy per Si atom -12398.369458 kJ/mol
# Density = 2.004799 g / cm^3
# Si number density = 20.093722 Si / 1000 Ang^3
#
#
#
# Elastic Constant Matrix: (Units=GPa)
#
#
# Indices 1 2 3 4 5 6 
#
# 1 108.3363 43.5262 39.0716 0.0000 -7.9011 0.0000
# 2 43.5262 75.1140 36.5116 0.0000 -6.0021 0.0000
# 3 39.0716 36.5116 81.8723 0.0000 -8.5642 0.0000
# 4 0.0000 0.0000 0.0000 28.1759 0.0000 -4.2654
# 5 -7.9011 -6.0021 -8.5642 0.0000 30.5995 0.0000
# 6 0.0000 0.0000 0.0000 -4.2654 0.0000 29.0321
#
#
#
# Elastic Compliance Matrix: (Units=1/GPa)
#
#
# Indices 1 2 3 4 5 6 
#
# 1 0.012847 -0.005654 -0.003480 0.000000 0.001234 0.000000
# 2 -0.005654 0.019533 -0.005938 0.000000 0.000709 0.000000
# 3 -0.003480 -0.005938 0.016799 0.000000 0.002638 0.000000
# 4 0.000000 0.000000 0.000000 0.036299 0.000000 0.005333
# 5 0.001234 0.000709 0.002638 0.000000 0.033877 0.000000
# 6 0.000000 0.000000 0.000000 0.005333 0.000000 0.035228
#
#
# Mechanical properties :
#
#
# Convention : Reuss Voigt Hill
#
# Bulk Modulus (GPa) = 52.53882 55.94905 54.24393
# Shear Modulus (GPa) = 26.16796 27.30904 26.73850
#
# Velocity S-wave (km/s) = 3.61265 3.69057 3.65182
# Velocity P-wave (km/s) = 6.60343 6.78712 6.69590
#
# Compressibility (1/GPa) = 0.01903355
#
# Stress axis : x y z
#
# Youngs Moduli (GPa) = 77.83625 51.19611 59.52633
#
# Poissons Ratio (x) = 0.28948 0.20718
# Poissons Ratio (y) = 0.44011 0.35348
# Poissons Ratio (z) = 0.27091 0.30401
#
# Static dielectric constant tensor:
#      x y z
#    x 3.895810 0.000000 -0.053130 
#    y 0.000000 3.510480 0.000000 
#    z -0.053130 0.000000 3.629550 
# 
# 
# High freq. dielectric constant tensor:
#      x y z
#    x 1.791660 0.000000 -0.004420 
#    y 0.000000 1.771130 0.000000 
#    z -0.004420 0.000000 1.774160 
# 
# From -- ./inp_files/187571.got.cif
#   From: 2010.06.25/outbox.cif.g09.slc.cpg/sg12_94_cif.got.tgz:187571.got - 2010.06.28 00:19:55.
