data_PCOD8088898
_publ_section_title
;
Structure prediction by ZEFSAII (Michael W. Deem and Ramdas Pophale) SiO2 
 PCOD8088898
Probable space group: C 2/M
;
_chemical_formula_sum "Si O2"
_cell_formula_units_Z 48
_cell_length_a 12.495046
_cell_length_b 21.732044
_cell_length_c 9.436302
_cell_angle_alpha 90.000000
_cell_angle_beta 89.523300
_cell_angle_gamma 90.000000
_cell_volume 2562.272025
_symmetry_space_group_name_H-M "C 2/M"
_symmetry_group_IT_number 12
_symmetry_cell_setting 'monoclinic'
loop_
_space_group_symop_operation_xyz
x,y,z
-x,y,-z
-x,-y,-z
x,-y,z
1/2+x,1/2+y,z
1/2-x,1/2+y,-z
1/2-x,1/2-y,-z
1/2+x,1/2-y,z
loop_
_atom_site_type_symbol
_atom_site_label
_atom_site_fract_x
_atom_site_fract_y
_atom_site_fract_z
Si Si1 0.899782 0.127546 0.914087
Si Si2 0.649749 0.181915 0.135528
Si Si3 0.032123 0.882193 0.656325
Si Si4 0.218400 0.070316 0.829573
Si Si5 0.703552 0.211359 0.845896
Si Si6 0.974156 0.264623 0.344127
O O1 0.815682 0.175721 0.850169
O O2 0.947008 0.093225 0.774401
O O3 0.842792 0.079537 0.019820
O O4 0.000000 0.158961 0.000000
O O5 0.672933 0.110971 0.174754
O O6 0.766412 0.216343 0.140211
O O7 0.566815 0.212662 0.240344
O O8 0.619597 0.189368 0.969284
O O9 0.146724 0.910772 0.695030
O O10 0.034973 0.808444 0.663448
O O11 0.000000 0.905156 0.500000
O O12 0.253921 0.000000 0.815481
O O13 0.638536 0.203919 0.699879
O O14 0.000000 0.288412 0.500000
#
# Coordination Sequence:
#
# PCOD8088898 Si02
#       6
#     8   8   8   8   8   8
#     4   9  19  34  55  81 110 141 178 231 278 325
#     4  10  20  33  56  79 108 144 184 226 276 327
#     4  10  20  32  51  82 116 146 176 222 281 334
#     4  10  21  37  55  78 108 147 191 227 269 324
#     4  10  19  32  56  80 107 143 183 225 279 325
#     4  11  22  33  52  85 121 145 176 227 281 334
#
# _framework density 18.733374000000001
#
# number of rings (size 3 to 8) (size 9 to 14) (size 15 to 20)
#    0.000    2.000    3.333    0.500    2.333    5.333 
#    0.000    0.000    0.000    8.500    0.000    0.000 
#    0.000    0.000    0.000    0.000    0.000    0.000 
#
# Total GULP energy -297390.327044 kJ/mol
# GULP energy per Si atom -12391.263627 kJ/mol
# Density = 1.869074 g / cm^3
# Si number density = 18.733374 Si / 1000 Ang^3
#
#
#
# Elastic Constant Matrix: (Units=GPa)
#
#
# Indices 1 2 3 4 5 6 
#
# 1 40.8314 22.6894 19.2292 0.0000 14.5107 0.0000
# 2 22.6894 96.4757 15.1629 0.0000 13.6067 0.0000
# 3 19.2292 15.1629 102.2279 0.0000 24.5401 0.0000
# 4 0.0000 0.0000 0.0000 14.8233 0.0000 2.4164
# 5 14.5107 13.6067 24.5401 0.0000 30.1360 0.0000
# 6 0.0000 0.0000 0.0000 2.4164 0.0000 20.4659
#
#
#
# Elastic Compliance Matrix: (Units=1/GPa)
#
#
# Indices 1 2 3 4 5 6 
#
# 1 0.032876 -0.005752 -0.002678 0.000000 -0.011053 0.000000
# 2 -0.005752 0.012102 -0.000082 0.000000 -0.002627 0.000000
# 3 -0.002678 -0.000082 0.012404 0.000000 -0.008774 0.000000
# 4 0.000000 0.000000 0.000000 0.068785 0.000000 -0.008121
# 5 -0.011053 -0.002627 -0.008774 0.000000 0.046836 0.000000
# 6 0.000000 0.000000 0.000000 -0.008121 0.000000 0.049821
#
#
# Mechanical properties :
#
#
# Convention : Reuss Voigt Hill
#
# Bulk Modulus (GPa) = 24.77840 39.29977 32.03909
# Shear Modulus (GPa) = 19.73933 25.24860 22.49397
#
# Velocity S-wave (km/s) = 3.24959 3.67521 3.46893
# Velocity P-wave (km/s) = 5.22833 6.24768 5.76060
#
# Compressibility (1/GPa) = 0.04035773
#
# Stress axis : x y z
#
# Youngs Moduli (GPa) = 30.41704 82.63359 80.61733
#
# Poissons Ratio (x) = 0.47533 0.21587
# Poissons Ratio (y) = 0.17497 0.00663
# Poissons Ratio (z) = 0.08145 0.00680
#
# Static dielectric constant tensor:
#      x y z
#    x 3.272420 0.000000 0.126280 
#    y 0.000000 3.079360 0.000000 
#    z 0.126280 0.000000 3.715200 
# 
# 
# High freq. dielectric constant tensor:
#      x y z
#    x 1.716670 0.000000 0.008500 
#    y 0.000000 1.685850 0.000000 
#    z 0.008500 0.000000 1.733820 
# 
# From -- ./inp_files/50736.got.cif
#   From: 2010.06.25/outbox.cif.g09.slc.cpg/sg12_26_cif.got.tgz:50736.got - 2010.06.28 00:19:55.
