data_PCOD8088294
_publ_section_title
;
Structure prediction by ZEFSAII (Michael W. Deem and Ramdas Pophale) SiO2 
 PCOD8088294
Probable space group: C 2/M
;
_chemical_formula_sum "Si O2"
_cell_formula_units_Z 64
_cell_length_a 20.657437
_cell_length_b 8.526253
_cell_length_c 21.721067
_cell_angle_alpha 90.000000
_cell_angle_beta 59.189197
_cell_angle_gamma 90.000000
_cell_volume 3285.790515
_symmetry_space_group_name_H-M "C 2/M"
_symmetry_group_IT_number 12
_symmetry_cell_setting 'monoclinic'
loop_
_space_group_symop_operation_xyz
x,y,z
-x,y,-z
-x,-y,-z
x,-y,z
1/2+x,1/2+y,z
1/2-x,1/2+y,-z
1/2-x,1/2-y,-z
1/2+x,1/2-y,z
loop_
_atom_site_type_symbol
_atom_site_label
_atom_site_fract_x
_atom_site_fract_y
_atom_site_fract_z
Si Si1 0.301225 0.681150 0.683053
Si Si2 0.964595 0.816171 0.579203
Si Si3 0.782200 0.316214 0.921617
Si Si4 0.076197 0.178055 0.837101
Si Si5 0.658288 0.821202 0.688428
Si Si6 0.032780 0.678602 0.662404
Si Si7 0.703214 0.816968 0.846227
Si Si8 0.945131 0.183838 0.819075
O O1 0.316423 0.500000 0.688216
O O2 0.382327 0.762597 0.632480
O O3 0.248697 0.706772 0.647617
O O4 0.257976 0.745464 0.764678
O O5 0.000000 0.741204 0.500000
O O6 0.019452 0.785818 0.609733
O O7 0.954827 0.000000 0.573791
O O8 0.797006 0.500000 0.920262
O O9 0.721845 0.281572 0.897695
O O10 0.858952 0.227774 0.868842
O O11 0.750000 0.250000 0.000000
O O12 0.120722 0.195307 0.751461
O O13 0.115637 0.285149 0.870087
O O14 0.990054 0.225697 0.860994
O O15 0.080230 0.000000 0.858434
O O16 0.620908 0.798872 0.639397
O O17 0.641707 0.000000 0.720275
O O18 0.016260 0.500000 0.651982
O O19 0.977995 0.722212 0.745203
O O20 0.713908 0.000000 0.854393
O O21 0.952925 0.000000 0.800845
#
# Coordination Sequence:
#
# PCOD8088294 Si02
#       8
#     8   8   8   8   8   8   8   8
#     4   8  15  30  52  74  97 130 171 211 252 306
#     4  10  20  33  49  70 100 139 179 219 266 321
#     4  12  25  40  57  79 110 145 183 223 264 313
#     4   9  17  30  52  82 111 136 168 216 267 316
#     4   8  15  29  49  72  98 130 169 213 262 315
#     4  10  19  32  53  78 102 132 172 218 266 316
#     4  10  19  34  57  81 107 140 178 221 270 322
#     4  10  20  36  58  83 111 141 175 217 267 321
#
# _framework density 19.477810000000002
#
# number of rings (size 3 to 8) (size 9 to 14) (size 15 to 20)
#    0.000    2.375    0.000    4.125    0.000    3.250 
#    0.000    3.750    0.000    3.750    0.000    0.000 
#    0.000    0.000    0.000    0.000    0.000    0.000 
#
# Total GULP energy -396579.315453 kJ/mol
# GULP energy per Si atom -12393.103608 kJ/mol
# Density = 1.943348 g / cm^3
# Si number density = 19.477810 Si / 1000 Ang^3
#
#
#
# Elastic Constant Matrix: (Units=GPa)
#
#
# Indices 1 2 3 4 5 6 
#
# 1 125.2221 13.8227 37.8180 0.0001 24.6813 0.0014
# 2 13.8227 35.3121 6.0042 0.0000 -1.2508 0.0053
# 3 37.8180 6.0042 69.8345 -0.0001 17.6285 0.0003
# 4 0.0001 0.0000 -0.0001 18.1971 0.0000 5.5428
# 5 24.6813 -1.2508 17.6285 0.0000 11.7749 -0.0002
# 6 0.0014 0.0053 0.0003 5.5428 -0.0002 29.9907
#
#
#
# Elastic Compliance Matrix: (Units=1/GPa)
#
#
# Indices 1 2 3 4 5 6 
#
# 1 0.015242 -0.007355 0.001029 0.000000 -0.034270 0.000000
# 2 -0.007355 0.033178 -0.005869 0.000002 0.027728 -0.000006
# 3 0.001029 -0.005869 0.024063 0.000000 -0.038806 0.000000
# 4 0.000000 0.000002 0.000000 0.058232 0.000000 -0.010762
# 5 -0.034270 0.027728 -0.038806 0.000000 0.217804 -0.000001
# 6 0.000000 -0.000006 0.000000 -0.010762 -0.000001 0.035333
#
#
# Mechanical properties :
#
#
# Convention : Reuss Voigt Hill
#
# Bulk Modulus (GPa) = 20.79310 38.40652 29.59981
# Shear Modulus (GPa) = 11.78491 23.50746 17.64618
#
# Velocity S-wave (km/s) = 2.46243 3.47779 3.01319
# Velocity P-wave (km/s) = 4.33396 5.99063 5.22833
#
# Compressibility (1/GPa) = 0.04809287
#
# Stress axis : x y z
#
# Youngs Moduli (GPa) = 65.61025 30.14036 41.55833
#
# Poissons Ratio (x) = 0.22169 -0.04278
# Poissons Ratio (y) = 0.48257 0.24391
# Poissons Ratio (z) = -0.06754 0.17689
#
# Static dielectric constant tensor:
#      x y z
#    x 4.016170 0.000000 -0.055760 
#    y 0.000000 3.388790 0.000000 
#    z -0.055760 0.000000 3.266050 
# 
# 
# High freq. dielectric constant tensor:
#      x y z
#    x 1.784320 0.000000 0.007560 
#    y 0.000000 1.747030 0.000000 
#    z 0.007560 0.000000 1.709690 
# 
# From -- ./inp_files/319965.got.cif
#   From: 2010.06.25/outbox.cif.g09.slc.cpg/sg12_160_cif.got.tgz:319965.got - 2010.06.28 00:19:55.
