data_PCOD8088801
_publ_section_title
;
Structure prediction by ZEFSAII (Michael W. Deem and Ramdas Pophale) SiO2 
 PCOD8088801
Probable space group: C 2/M
;
_chemical_formula_sum "Si O2"
_cell_formula_units_Z 48
_cell_length_a 18.732272
_cell_length_b 8.797394
_cell_length_c 32.099532
_cell_angle_alpha 90.000000
_cell_angle_beta 151.753363
_cell_angle_gamma 90.000000
_cell_volume 2503.515615
_symmetry_space_group_name_H-M "C 2/M"
_symmetry_group_IT_number 12
_symmetry_cell_setting 'monoclinic'
loop_
_space_group_symop_operation_xyz
x,y,z
-x,y,-z
-x,-y,-z
x,-y,z
1/2+x,1/2+y,z
1/2-x,1/2+y,-z
1/2-x,1/2-y,-z
1/2+x,1/2-y,z
loop_
_atom_site_type_symbol
_atom_site_label
_atom_site_fract_x
_atom_site_fract_y
_atom_site_fract_z
Si Si1 0.137432 0.322020 0.643601
Si Si2 0.181108 0.826422 0.345389
Si Si3 0.090619 0.321119 0.172686
Si Si4 0.597432 0.323110 0.853258
Si Si5 0.315311 0.678136 0.492119
Si Si6 0.931332 0.319942 0.006997
O O1 0.111966 0.500000 0.636598
O O2 0.202795 0.284110 0.631674
O O3 0.253582 0.265054 0.738302
O O4 0.981526 0.236910 0.568363
O O5 0.207132 0.718191 0.397935
O O6 0.010727 0.800768 0.242172
O O7 0.207115 0.000000 0.372846
O O8 0.118898 0.500000 0.190310
O O9 0.960316 0.274707 0.137745
O O10 0.037428 0.270352 0.099599
O O11 0.598997 0.500000 0.867472
O O12 0.761566 0.259071 0.925921
O O13 0.320248 0.500000 0.500878
O O14 0.250000 0.750000 0.500000
O O15 0.923167 0.500000 0.999298
O O16 0.000000 0.249395 0.000000
#
# Coordination Sequence:
#
# PCOD8088801 Si02
#       6
#     8   8   8   8   8   8
#     4  10  21  39  61  83 111 145 182 226 277 331
#     4   9  19  36  58  82 109 145 186 227 274 327
#     4  10  19  32  55  83 108 139 183 231 272 318
#     4   9  18  34  56  79 108 146 182 222 272 325
#     4  12  25  39  57  82 114 148 183 225 273 327
#     4   9  18  32  51  78 110 145 184 223 269 325
#
# _framework density 19.173037999999998
#
# number of rings (size 3 to 8) (size 9 to 14) (size 15 to 20)
#    0.000    2.167    0.000    4.500    0.000    6.667 
#    0.000    4.167    0.000    4.500    0.000    0.000 
#    0.000    0.000    0.000    0.000    0.000    0.000 
#
# Total GULP energy -297668.139805 kJ/mol
# GULP energy per Si atom -12402.839159 kJ/mol
# Density = 1.912940 g / cm^3
# Si number density = 19.173038 Si / 1000 Ang^3
#
#
#
# Elastic Constant Matrix: (Units=GPa)
#
#
# Indices 1 2 3 4 5 6 
#
# 1 76.0508 36.0481 44.0948 0.0000 -27.1963 0.0000
# 2 36.0481 89.3829 37.6369 -0.0001 -13.7256 0.0006
# 3 44.0948 37.6369 88.7107 -0.0001 -26.7274 -0.0005
# 4 0.0000 -0.0001 -0.0001 30.1163 0.0000 -1.6361
# 5 -27.1963 -13.7256 -26.7274 0.0000 22.4430 -0.0002
# 6 0.0000 0.0006 -0.0005 -1.6361 -0.0002 28.7797
#
#
#
# Elastic Compliance Matrix: (Units=1/GPa)
#
#
# Indices 1 2 3 4 5 6 
#
# 1 0.026603 -0.005477 -0.003425 0.000000 0.024809 0.000000
# 2 -0.005477 0.014823 -0.004421 0.000000 -0.002837 0.000000
# 3 -0.003425 -0.004421 0.019940 0.000000 0.016893 0.000001
# 4 0.000000 0.000000 0.000000 0.033307 0.000000 0.001893
# 5 0.024809 -0.002837 0.016893 0.000000 0.093003 0.000001
# 6 0.000000 0.000000 0.000001 0.001893 0.000001 0.034854
#
#
# Mechanical properties :
#
#
# Convention : Reuss Voigt Hill
#
# Bulk Modulus (GPa) = 28.80225 54.41154 41.60690
# Shear Modulus (GPa) = 19.17547 25.35879 22.26713
#
# Velocity S-wave (km/s) = 3.16591 3.64074 3.41160
# Velocity P-wave (km/s) = 5.33093 6.79074 6.10463
#
# Compressibility (1/GPa) = 0.03471951
#
# Stress axis : x y z
#
# Youngs Moduli (GPa) = 37.59001 67.46418 50.14973
#
# Poissons Ratio (x) = 0.36951 0.17176
# Poissons Ratio (y) = 0.20589 0.22171
# Poissons Ratio (z) = 0.12874 0.29826
#
# Static dielectric constant tensor:
#      x y z
#    x 3.541600 0.000000 0.019380 
#    y 0.000000 3.384510 0.000000 
#    z 0.019380 0.000000 3.676560 
# 
# 
# High freq. dielectric constant tensor:
#      x y z
#    x 1.741330 0.000000 0.000120 
#    y 0.000000 1.732780 0.000000 
#    z 0.000120 0.000000 1.761870 
# 
# From -- ./inp_files/274094.got.cif
#   From: 2010.06.25/outbox.cif.g09.slc.cpg/sg12_138_cif.got.tgz:274094.got - 2010.06.28 00:19:55.
