data_PCOD8088045
_publ_section_title
;
Structure prediction by ZEFSAII (Michael W. Deem and Ramdas Pophale) SiO2 
 PCOD8088045
Probable space group: C 2/M
;
_chemical_formula_sum "Si O2"
_cell_formula_units_Z 64
_cell_length_a 31.010084
_cell_length_b 8.667656
_cell_length_c 15.492781
_cell_angle_alpha 90.000000
_cell_angle_beta 123.652444
_cell_angle_gamma 90.000000
_cell_volume 3466.359131
_symmetry_space_group_name_H-M "C 2/M"
_symmetry_group_IT_number 12
_symmetry_cell_setting 'monoclinic'
loop_
_space_group_symop_operation_xyz
x,y,z
-x,y,-z
-x,-y,-z
x,-y,z
1/2+x,1/2+y,z
1/2-x,1/2+y,-z
1/2-x,1/2-y,-z
1/2+x,1/2-y,z
loop_
_atom_site_type_symbol
_atom_site_label
_atom_site_fract_x
_atom_site_fract_y
_atom_site_fract_z
Si Si1 0.380443 0.180710 0.916046
Si Si2 0.216286 0.819264 0.268243
Si Si3 0.973746 0.818553 0.349417
Si Si4 0.677436 0.321091 0.589021
Si Si5 0.543293 0.818828 0.850167
Si Si6 0.572370 0.181192 0.533148
Si Si7 0.937330 0.681060 0.810574
Si Si8 0.842422 0.821592 0.626647
O O1 0.325909 0.269885 0.850114
O O2 0.418908 0.243939 0.883550
O O3 0.370019 0.000000 0.890867
O O4 0.405796 0.214953 0.036646
O O5 0.269490 0.730944 0.306833
O O6 0.196538 0.767716 0.341239
O O7 0.226755 0.000000 0.274312
O O8 0.950623 0.774256 0.231314
O O9 0.939611 0.732200 0.382867
O O10 0.033709 0.766591 0.423597
O O11 0.969616 0.000000 0.359961
O O12 0.666887 0.500000 0.595763
O O13 0.631065 0.222977 0.577101
O O14 0.683223 0.285945 0.493643
O O15 0.493545 0.753603 0.847190
O O16 0.537340 0.000000 0.823480
O O17 0.563659 0.000000 0.513924
O O18 0.942133 0.500000 0.821037
O O19 0.896046 0.728233 0.691821
O O20 0.856353 0.000000 0.653731
#
# Coordination Sequence:
#
# PCOD8088045 Si02
#       8
#     8   8   8   8   8   8   8   8
#     4   9  18  33  51  72 102 140 179 218 258 299
#     4  10  20  34  50  72 103 139 179 218 256 299
#     4  11  22  37  56  80 109 137 167 206 255 308
#     4  11  21  34  53  77 104 136 174 213 258 308
#     4  10  19  32  52  77 104 137 177 216 256 305
#     4  11  22  38  58  80 106 135 168 207 255 308
#     4   9  17  29  48  74 104 138 175 213 253 301
#     4   9  19  32  47  71 105 140 173 211 253 302
#
# _framework density 18.463175
#
# number of rings (size 3 to 8) (size 9 to 14) (size 15 to 20)
#    0.000    2.000    0.000    5.250    0.000    6.000 
#    0.000    0.000    0.000    4.500    0.000    0.000 
#    0.000    0.000    0.000    0.000    0.000    0.000 
#
# Total GULP energy -396889.054182 kJ/mol
# GULP energy per Si atom -12402.782943 kJ/mol
# Density = 1.842115 g / cm^3
# Si number density = 18.463175 Si / 1000 Ang^3
#
#
#
# Elastic Constant Matrix: (Units=GPa)
#
#
# Indices 1 2 3 4 5 6 
#
# 1 79.2602 19.4994 36.7524 0.0000 13.5311 0.0000
# 2 19.4994 52.7127 21.7578 0.0000 1.0377 0.0000
# 3 36.7524 21.7578 101.0155 0.0000 4.6273 0.0000
# 4 0.0000 0.0000 0.0000 28.7733 0.0000 2.7778
# 5 13.5311 1.0377 4.6273 0.0000 21.6139 0.0000
# 6 0.0000 0.0000 0.0000 2.7778 0.0000 27.3689
#
#
#
# Elastic Compliance Matrix: (Units=1/GPa)
#
#
# Indices 1 2 3 4 5 6 
#
# 1 0.017684 -0.004257 -0.005069 0.000000 -0.009781 0.000000
# 2 -0.004257 0.021847 -0.003263 0.000000 0.002315 0.000000
# 3 -0.005069 -0.003263 0.012416 0.000000 0.000672 0.000000
# 4 0.000000 0.000000 0.000000 0.035098 0.000000 -0.003562
# 5 -0.009781 0.002315 0.000672 0.000000 0.052135 0.000000
# 6 0.000000 0.000000 0.000000 -0.003562 0.000000 0.036899
#
#
# Mechanical properties :
#
#
# Convention : Reuss Voigt Hill
#
# Bulk Modulus (GPa) = 37.35646 43.22306 40.28976
# Shear Modulus (GPa) = 23.78914 25.88315 24.83615
#
# Velocity S-wave (km/s) = 3.59341 3.74823 3.67164
# Velocity P-wave (km/s) = 6.12321 6.49566 6.31218
#
# Compressibility (1/GPa) = 0.02676913
#
# Stress axis : x y z
#
# Youngs Moduli (GPa) = 56.54734 45.77366 80.54282
#
# Poissons Ratio (x) = 0.19485 0.40828
# Poissons Ratio (y) = 0.24071 0.26280
# Poissons Ratio (z) = 0.28665 0.14935
#
# Static dielectric constant tensor:
#      x y z
#    x 3.305140 0.000000 0.047290 
#    y 0.000000 3.337130 0.000000 
#    z 0.047290 0.000000 3.324670 
# 
# 
# High freq. dielectric constant tensor:
#      x y z
#    x 1.700700 0.000000 0.009340 
#    y 0.000000 1.716420 0.000000 
#    z 0.009340 0.000000 1.707780 
# 
# From -- ./inp_files/249202.got.cif
#   From: 2010.06.25/outbox.cif.g09.slc.cpg/sg12_125_cif.got.tgz:249202.got - 2010.06.28 00:19:55.
