data_PCOD8088732
_publ_section_title
;
Structure prediction by ZEFSAII (Michael W. Deem and Ramdas Pophale) SiO2 
 PCOD8088732
Probable space group: C 2/M
;
_chemical_formula_sum "Si O2"
_cell_formula_units_Z 48
_cell_length_a 24.533841
_cell_length_b 8.938746
_cell_length_c 19.571053
_cell_angle_alpha 90.000000
_cell_angle_beta 146.853111
_cell_angle_gamma 90.000000
_cell_volume 2346.793013
_symmetry_space_group_name_H-M "C 2/M"
_symmetry_group_IT_number 12
_symmetry_cell_setting 'monoclinic'
loop_
_space_group_symop_operation_xyz
x,y,z
-x,y,-z
-x,-y,-z
x,-y,z
1/2+x,1/2+y,z
1/2-x,1/2+y,-z
1/2-x,1/2-y,-z
1/2+x,1/2-y,z
loop_
_atom_site_type_symbol
_atom_site_label
_atom_site_fract_x
_atom_site_fract_y
_atom_site_fract_z
Si Si1 0.881961 0.172640 0.296752
Si Si2 0.291004 0.673821 0.336780
Si Si3 0.296963 0.827282 0.985033
Si Si4 0.412628 0.676528 0.856846
Si Si5 0.479317 0.822478 0.789931
Si Si6 0.941803 0.174370 0.610384
O O1 0.874193 0.225338 0.367569
O O2 0.771998 0.204918 0.152196
O O3 0.967975 0.247585 0.340324
O O4 0.911324 0.000000 0.326157
O O5 0.262924 0.500000 0.294658
O O6 0.193147 0.773351 0.223675
O O7 0.338826 0.696797 0.461411
O O8 0.303891 0.000000 0.010433
O O9 0.250000 0.750000 0.000000
O O10 0.406898 0.764446 0.085661
O O11 0.415212 0.500000 0.849300
O O12 0.421424 0.755226 0.793050
O O13 0.500000 0.729205 0.000000
O O14 0.430606 0.764031 0.668845
O O15 0.469868 0.000000 0.782789
O O16 0.961212 0.000000 0.647341
#
# Coordination Sequence:
#
# PCOD8088732 Si02
#       6
#     8   8   8   8   8   8
#     4   9  17  33  58  87 119 154 193 238 288 346
#     4  10  21  38  62  89 117 156 202 243 289 347
#     4  10  19  32  54  84 116 149 187 234 288 340
#     4  11  25  44  64  86 114 152 195 244 301 355
#     4  11  23  38  60  90 121 156 198 244 291 345
#     4  10  20  36  60  89 122 159 196 239 292 349
#
# _framework density 20.453444999999999
#
# number of rings (size 3 to 8) (size 9 to 14) (size 15 to 20)
#    0.000    1.833    1.667    2.500    0.000    6.667 
#    0.000    1.667    0.000    2.000    0.000    0.000 
#    0.000    0.000    0.000    0.000    0.000    0.000 
#
# Total GULP energy -297592.636905 kJ/mol
# GULP energy per Si atom -12399.693204 kJ/mol
# Density = 2.040689 g / cm^3
# Si number density = 20.453445 Si / 1000 Ang^3
#
#
#
# Elastic Constant Matrix: (Units=GPa)
#
#
# Indices 1 2 3 4 5 6 
#
# 1 116.8374 31.3590 34.5835 0.0000 -16.8045 0.0000
# 2 31.3590 55.1763 34.2836 0.0000 -6.8894 0.0000
# 3 34.5835 34.2836 76.1722 0.0000 -5.8569 0.0000
# 4 0.0000 0.0000 0.0000 27.2818 0.0000 0.6718
# 5 -16.8045 -6.8894 -5.8569 0.0000 35.6161 0.0000
# 6 0.0000 0.0000 0.0000 0.6718 0.0000 26.7044
#
#
#
# Elastic Compliance Matrix: (Units=1/GPa)
#
#
# Indices 1 2 3 4 5 6 
#
# 1 0.011063 -0.003971 -0.002930 0.000000 0.003970 0.000000
# 2 -0.003971 0.026915 -0.010184 0.000000 0.001658 0.000000
# 3 -0.002930 -0.010184 0.019025 0.000000 -0.000224 0.000000
# 4 0.000000 0.000000 0.000000 0.036677 0.000000 -0.000923
# 5 0.003970 0.001658 -0.000224 0.000000 0.030234 0.000000
# 6 0.000000 0.000000 0.000000 -0.000923 0.000000 0.037470
#
#
# Mechanical properties :
#
#
# Convention : Reuss Voigt Hill
#
# Bulk Modulus (GPa) = 43.79612 49.84866 46.82239
# Shear Modulus (GPa) = 24.61046 27.78444 26.19745
#
# Velocity S-wave (km/s) = 3.47254 3.68968 3.58276
# Velocity P-wave (km/s) = 6.12676 6.52505 6.32904
#
# Compressibility (1/GPa) = 0.02283307
#
# Stress axis : x y z
#
# Youngs Moduli (GPa) = 90.39071 37.15365 52.56325
#
# Poissons Ratio (x) = 0.14755 0.15402
# Poissons Ratio (y) = 0.35896 0.53528
# Poissons Ratio (z) = 0.26486 0.37835
#
# Static dielectric constant tensor:
#      x y z
#    x 6.437840 0.000000 8.658680 
#    y 0.000000 3.436780 0.000000 
#    z 8.658680 0.000000 31.370240 
# 
# 
# High freq. dielectric constant tensor:
#      x y z
#    x 1.809670 0.000000 -0.004570 
#    y 0.000000 1.767780 0.000000 
#    z -0.004570 0.000000 1.808000 
# 
# From -- ./inp_files/327327.got.cif
#   From: 2010.06.25/outbox.cif.g09.slc.cpg/sg12_164_cif.got.tgz:327327.got - 2010.06.28 00:19:55.
