data_PCOD8088887
_publ_section_title
;
Structure prediction by ZEFSAII (Michael W. Deem and Ramdas Pophale) SiO2 
 PCOD8088887
Probable space group: C 2/M
;
_chemical_formula_sum "Si O2"
_cell_formula_units_Z 64
_cell_length_a 18.309608
_cell_length_b 28.418726
_cell_length_c 10.129314
_cell_angle_alpha 90.000000
_cell_angle_beta 39.789735
_cell_angle_gamma 90.000000
_cell_volume 3373.064835
_symmetry_space_group_name_H-M "C 2/M"
_symmetry_group_IT_number 12
_symmetry_cell_setting 'monoclinic'
loop_
_space_group_symop_operation_xyz
x,y,z
-x,y,-z
-x,-y,-z
x,-y,z
1/2+x,1/2+y,z
1/2-x,1/2+y,-z
1/2-x,1/2-y,-z
1/2+x,1/2-y,z
loop_
_atom_site_type_symbol
_atom_site_label
_atom_site_fract_x
_atom_site_fract_y
_atom_site_fract_z
Si Si1 0.415270 0.052387 0.849664
Si Si2 0.275730 0.855998 0.431334
Si Si3 0.084595 0.130345 0.256574
Si Si4 0.519010 0.205005 0.818332
Si Si5 0.313552 0.854561 0.079791
Si Si6 0.714690 0.447203 0.932283
Si Si7 0.179242 0.446135 0.485503
Si Si8 0.540483 0.688610 0.794463
O O1 0.339268 0.056668 0.824661
O O2 0.546983 0.060044 0.628868
O O3 0.399085 0.000000 0.936588
O O4 0.370924 0.093455 0.007879
O O5 0.376127 0.828358 0.367577
O O6 0.271364 0.844192 0.284157
O O7 0.288622 0.911843 0.438519
O O8 0.159934 0.836172 0.648283
O O9 0.205370 0.151569 0.134996
O O10 0.000000 0.123664 0.500000
O O11 0.035081 0.162870 0.210635
O O12 0.114257 0.080851 0.146039
O O13 0.546539 0.257758 0.734150
O O14 0.500000 0.201475 0.000000
O O15 0.405793 0.184378 0.904406
O O16 0.668436 0.500000 0.998946
O O17 0.738132 0.430861 0.749834
O O18 0.203253 0.500000 0.495106
O O19 0.500000 0.687112 0.000000
#
# Coordination Sequence:
#
# PCOD8088887 Si02
#       8
#     8   8   8   8   8   8   8   8
#     4   9  17  31  55  84 117 152 189 237 296 352
#     4  11  20  36  59  84 120 155 193 240 290 352
#     4  11  22  40  62  86 116 160 197 244 293 345
#     4   9  20  37  60  87 113 152 196 242 298 348
#     4  10  20  37  59  86 120 151 193 245 294 350
#     4   9  19  35  56  82 116 156 200 239 284 348
#     4  10  19  32  55  88 121 153 190 241 296 345
#     4  11  23  40  62  85 113 157 201 241 290 349
#
# _framework density 18.973842999999999
#
# number of rings (size 3 to 8) (size 9 to 14) (size 15 to 20)
#    0.000    2.000    2.500    1.500    0.000    2.750 
#    0.000    1.875    5.500    2.250    0.000    0.000 
#    0.000    0.000    0.000    0.000    0.000    0.000 
#
# Total GULP energy -396588.328160 kJ/mol
# GULP energy per Si atom -12393.385255 kJ/mol
# Density = 1.893066 g / cm^3
# Si number density = 18.973843 Si / 1000 Ang^3
#
#
#
# Elastic Constant Matrix: (Units=GPa)
#
#
# Indices 1 2 3 4 5 6 
#
# 1 83.1629 49.5999 45.9032 0.0000 -14.7483 0.0000
# 2 49.5999 122.0793 48.0398 0.0000 -15.1094 0.0000
# 3 45.9032 48.0398 59.0619 0.0000 -9.8168 0.0000
# 4 0.0000 0.0000 0.0000 -11.3181 0.0000 45.6078
# 5 -14.7483 -15.1094 -9.8168 0.0000 27.4581 0.0000
# 6 0.0000 0.0000 0.0000 45.6078 0.0000 -29.2474
#
#
#
# Elastic Compliance Matrix: (Units=1/GPa)
#
#
# Indices 1 2 3 4 5 6 
#
# 1 0.022616 -0.002874 -0.014335 0.000000 0.005441 0.000000
# 2 -0.002874 0.012705 -0.007649 0.000000 0.002713 0.000000
# 3 -0.014335 -0.007649 0.034357 0.000000 0.000374 0.000000
# 4 0.000000 0.000000 0.000000 0.016722 0.000000 0.026076
# 5 0.005441 0.002713 0.000374 0.000000 0.040968 0.000000
# 6 0.000000 0.000000 0.000000 0.026076 0.000000 0.006471
#
#
# Mechanical properties :
#
#
# Convention : Reuss Voigt Hill
#
# Bulk Modulus (GPa) = 50.09890 61.26553 55.68222
# Shear Modulus (GPa) = 26.28668 5.42928 15.85798
#
# Velocity S-wave (km/s) = 3.72616 1.69342 2.89412
# Velocity P-wave (km/s) = 6.70625 6.01524 6.37012
#
# Compressibility (1/GPa) = 0.01996052
#
# Stress axis : x y z
#
# Youngs Moduli (GPa) = 44.21559 78.70921 29.10633
#
# Poissons Ratio (x) = 0.22624 0.41725
# Poissons Ratio (y) = 0.12709 0.22264
# Poissons Ratio (z) = 0.63385 0.60206
#
# Static dielectric constant tensor:
#      x y z
#    x 3.350130 0.000000 -0.152510 
#    y 0.000000 3.679490 0.000000 
#    z -0.152510 0.000000 3.442360 
# 
# 
# High freq. dielectric constant tensor:
#      x y z
#    x 1.726260 0.000000 -0.012250 
#    y 0.000000 1.742440 0.000000 
#    z -0.012250 0.000000 1.733850 
# 
# From -- ./inp_files/80694.got.cif
#   From: 2010.06.25/outbox.cif.g09.slc.cpg/sg12_41_cif.got.tgz:80694.got - 2010.06.28 00:19:55.
