data_PCOD8088058
_publ_section_title
;
Structure prediction by ZEFSAII (Michael W. Deem and Ramdas Pophale) SiO2 
 PCOD8088058
Probable space group: C 2/M
;
_chemical_formula_sum "Si O2"
_cell_formula_units_Z 64
_cell_length_a 15.716060
_cell_length_b 8.984969
_cell_length_c 32.156334
_cell_angle_alpha 90.000000
_cell_angle_beta 135.904617
_cell_angle_gamma 90.000000
_cell_volume 3159.697440
_symmetry_space_group_name_H-M "C 2/M"
_symmetry_group_IT_number 12
_symmetry_cell_setting 'monoclinic'
loop_
_space_group_symop_operation_xyz
x,y,z
-x,y,-z
-x,-y,-z
x,-y,z
1/2+x,1/2+y,z
1/2-x,1/2+y,-z
1/2-x,1/2-y,-z
1/2+x,1/2-y,z
loop_
_atom_site_type_symbol
_atom_site_label
_atom_site_fract_x
_atom_site_fract_y
_atom_site_fract_z
Si Si1 0.371180 0.324458 0.140107
Si Si2 0.903710 0.832506 0.503446
Si Si3 0.274352 0.331729 0.613342
Si Si4 0.215206 0.830126 0.740693
Si Si5 0.603904 0.823402 0.068117
Si Si6 0.916642 0.331989 0.379448
Si Si7 0.435756 0.325138 0.857452
Si Si8 0.485512 0.669410 0.262086
O O1 0.365712 0.500000 0.145688
O O2 0.232745 0.262552 0.094947
O O3 0.431855 0.287687 0.116790
O O4 0.455333 0.255780 0.206794
O O5 0.775891 0.762402 0.443171
O O6 0.000000 0.829291 0.500000
O O7 0.955325 0.737546 0.560199
O O8 0.879551 0.000000 0.510170
O O9 0.296409 0.500000 0.605168
O O10 0.179295 0.329683 0.617248
O O11 0.400395 0.254272 0.673906
O O12 0.133667 0.767682 0.675184
O O13 0.335435 0.731383 0.789346
O O14 0.139087 0.820840 0.756208
O O15 0.252078 0.000000 0.743666
O O16 0.574141 0.756744 0.102450
O O17 0.604486 0.000000 0.073335
O O18 0.500000 0.769200 0.000000
O O19 0.939887 0.500000 0.372081
O O20 0.418442 0.500000 0.858127
O O21 0.528487 0.500000 0.270230
#
# Coordination Sequence:
#
# PCOD8088058 Si02
#       8
#     8   8   8   8   8   8   8   8
#     4   9  18  36  60  86 118 159 198 235 291 354
#     4   9  17  30  48  72 104 138 176 229 289 344
#     4   9  17  31  52  75  98 135 184 229 282 350
#     4  11  21  35  56  80 111 148 189 237 290 347
#     4  10  21  40  65  90 121 161 201 239 284 344
#     4  10  19  32  52  77 105 138 183 234 286 348
#     4  11  22  37  61  89 120 157 197 243 293 346
#     4   9  17  32  55  77 103 143 188 231 283 346
#
# _framework density 20.255105
#
# number of rings (size 3 to 8) (size 9 to 14) (size 15 to 20)
#    0.000    2.250    1.250    2.250    0.000    4.750 
#    0.000    3.125    0.000    0.000    0.000    0.000 
#    0.000    0.000    0.000    0.000    0.000    0.000 
#
# Total GULP energy -396742.591743 kJ/mol
# GULP energy per Si atom -12398.205992 kJ/mol
# Density = 2.020900 g / cm^3
# Si number density = 20.255105 Si / 1000 Ang^3
#
#
#
# Elastic Constant Matrix: (Units=GPa)
#
#
# Indices 1 2 3 4 5 6 
#
# 1 81.6758 20.4158 50.2299 0.0000 10.1678 0.0000
# 2 20.4158 58.3714 28.1280 0.0000 3.1093 0.0000
# 3 50.2299 28.1280 146.2356 0.0000 15.6992 0.0000
# 4 0.0000 0.0000 0.0000 28.8509 0.0000 -5.0585
# 5 10.1678 3.1093 15.6992 0.0000 30.7712 0.0000
# 6 0.0000 0.0000 0.0000 -5.0585 0.0000 18.7714
#
#
#
# Elastic Compliance Matrix: (Units=1/GPa)
#
#
# Indices 1 2 3 4 5 6 
#
# 1 0.016271 -0.003299 -0.004668 0.000000 -0.002661 0.000000
# 2 -0.003299 0.019551 -0.002679 0.000000 0.000481 0.000000
# 3 -0.004668 -0.002679 0.009270 0.000000 -0.002916 0.000000
# 4 0.000000 0.000000 0.000000 0.036380 0.000000 0.009804
# 5 -0.002661 0.000481 -0.002916 0.000000 0.034816 0.000000
# 6 0.000000 0.000000 0.000000 0.009804 0.000000 0.055914
#
#
# Mechanical properties :
#
#
# Convention : Reuss Voigt Hill
#
# Bulk Modulus (GPa) = 42.01997 53.75891 47.88944
# Shear Modulus (GPa) = 24.82268 28.17930 26.50099
#
# Velocity S-wave (km/s) = 3.50452 3.73395 3.62105
# Velocity P-wave (km/s) = 6.09639 6.72223 6.41694
#
# Compressibility (1/GPa) = 0.02379821
#
# Stress axis : x y z
#
# Youngs Moduli (GPa) = 61.46074 51.14840 107.87282
#
# Poissons Ratio (x) = 0.16876 0.50359
# Poissons Ratio (y) = 0.20278 0.28899
# Poissons Ratio (z) = 0.28692 0.13702
#
# Static dielectric constant tensor:
#      x y z
#    x 3.593820 0.000000 0.142950 
#    y 0.000000 3.535750 0.000000 
#    z 0.142950 0.000000 3.881120 
# 
# 
# High freq. dielectric constant tensor:
#      x y z
#    x 1.782130 0.000000 0.004810 
#    y 0.000000 1.764860 0.000000 
#    z 0.004810 0.000000 1.801220 
# 
# From -- ./inp_files/375587.got.cif
#   From: 2010.06.25/outbox.cif.g09.slc.cpg/sg12_188_cif.got.tgz:375587.got - 2010.06.28 00:19:55.
