data_PCOD8088482
_publ_section_title
;
Structure prediction by ZEFSAII (Michael W. Deem and Ramdas Pophale) SiO2 
 PCOD8088482
Probable space group: C 2/M
;
_chemical_formula_sum "Si O2"
_cell_formula_units_Z 56
_cell_length_a 8.941823
_cell_length_b 15.078597
_cell_length_c 28.668109
_cell_angle_alpha 90.000000
_cell_angle_beta 142.519579
_cell_angle_gamma 90.000000
_cell_volume 2352.012918
_symmetry_space_group_name_H-M "C 2/M"
_symmetry_group_IT_number 12
_symmetry_cell_setting 'monoclinic'
loop_
_space_group_symop_operation_xyz
x,y,z
-x,y,-z
-x,-y,-z
x,-y,z
1/2+x,1/2+y,z
1/2-x,1/2+y,-z
1/2-x,1/2-y,-z
1/2+x,1/2-y,z
loop_
_atom_site_type_symbol
_atom_site_label
_atom_site_fract_x
_atom_site_fract_y
_atom_site_fract_z
Si Si1 0.892873 0.105825 0.925554
Si Si2 0.724573 0.394878 0.923260
Si Si3 0.764646 0.905574 0.350730
Si Si4 0.527748 0.393935 0.236746
Si Si5 0.149311 0.394465 0.221883
Si Si6 0.224458 0.630972 0.523626
Si Si7 0.945323 0.683768 0.614170
O O1 0.616253 0.142776 0.857558
O O2 0.046038 0.142947 0.919488
O O3 0.896103 0.000000 0.925441
O O4 0.000000 0.143465 0.000000
O O5 0.737086 0.500000 0.929765
O O6 0.614215 0.367405 0.845833
O O7 0.000000 0.356442 0.000000
O O8 0.696005 0.857038 0.285353
O O9 0.720952 0.838453 0.382237
O O10 0.049577 0.936191 0.419151
O O11 0.618320 0.000000 0.320907
O O12 0.583948 0.500000 0.252116
O O13 0.355977 0.362240 0.236983
O O14 0.772949 0.334375 0.301127
O O15 0.151045 0.500000 0.223558
O O16 0.117204 0.623248 0.445207
O O17 0.361034 0.720032 0.575828
O O18 0.000000 0.601110 0.500000
#
# Coordination Sequence:
#
# PCOD8088482 Si02
#       7
#     8   8   8   8   8   8   8
#     4   9  15  24  40  64 101 148 191 233 287 349
#     4   9  16  26  43  72 111 154 199 248 303 359
#     4  11  23  39  62  90 118 151 196 251 307 363
#     4  10  19  32  53  81 115 155 201 252 302 358
#     4   9  18  31  47  74 110 145 186 239 295 348
#     4  11  24  42  61  83 114 151 192 240 298 366
#     4  11  22  38  59  83 114 152 194 241 296 357
#
# _framework density 23.809394000000001
#
# number of rings (size 3 to 8) (size 9 to 14) (size 15 to 20)
#    0.000    2.000    0.000    5.143    0.000    7.714 
#    0.000    0.000    0.000    0.000    0.000    1.000 
#    0.000    8.000    0.000    0.143    0.000    0.000 
#
# Total GULP energy -346928.351533 kJ/mol
# GULP energy per Si atom -12390.298269 kJ/mol
# Density = 2.375520 g / cm^3
# Si number density = 23.809394 Si / 1000 Ang^3
#
#
#
# Elastic Constant Matrix: (Units=GPa)
#
#
# Indices 1 2 3 4 5 6 
#
# 1 191.2735 19.9583 79.7498 0.0004 -8.1827 -0.0002
# 2 19.9583 34.1127 18.6310 0.0001 -3.6096 0.0000
# 3 79.7498 18.6310 183.2306 0.0013 -8.5658 -0.0004
# 4 0.0004 0.0001 0.0013 18.5692 0.0000 -2.1477
# 5 -8.1827 -3.6096 -8.5658 0.0000 60.1911 -0.0002
# 6 -0.0002 0.0000 -0.0004 -2.1477 -0.0002 12.0115
#
#
#
# Elastic Compliance Matrix: (Units=1/GPa)
#
#
# Indices 1 2 3 4 5 6 
#
# 1 0.006579 -0.002387 -0.002603 0.000000 0.000381 0.000000
# 2 -0.002387 0.032026 -0.002157 0.000000 0.001289 0.000000
# 3 -0.002603 -0.002157 0.006833 0.000000 0.000489 0.000000
# 4 0.000000 0.000000 0.000000 0.054990 0.000000 0.009833
# 5 0.000381 0.001289 0.000489 0.000000 0.016812 0.000000
# 6 0.000000 0.000000 0.000000 0.009833 0.000000 0.085011
#
#
# Mechanical properties :
#
#
# Convention : Reuss Voigt Hill
#
# Bulk Modulus (GPa) = 32.10999 71.69946 51.90472
# Shear Modulus (GPa) = 22.03360 37.50620 29.76990
#
# Velocity S-wave (km/s) = 3.04537 3.97327 3.53985
# Velocity P-wave (km/s) = 5.08736 7.15741 6.20926
#
# Compressibility (1/GPa) = 0.03114296
#
# Stress axis : x y z
#
# Youngs Moduli (GPa) = 152.00547 31.22481 146.35583
#
# Poissons Ratio (x) = 0.07454 0.38094
# Poissons Ratio (y) = 0.36286 0.31571
# Poissons Ratio (z) = 0.39564 0.06736
#
# Static dielectric constant tensor:
#      x y z
#    x 4.432700 0.000000 -0.019750 
#    y 0.000000 3.656100 0.000000 
#    z -0.019750 0.000000 4.571820 
# 
# 
# High freq. dielectric constant tensor:
#      x y z
#    x 1.955110 0.000000 -0.001710 
#    y 0.000000 1.911400 0.000000 
#    z -0.001710 0.000000 1.960180 
# 
# From -- ./inp_files/356744.got.cif
#   From: 2010.06.25/outbox.cif.g09.slc.cpg/sg12_179_cif.got.tgz:356744.got - 2010.06.28 00:19:55.
