data_PCOD8088323
_publ_section_title
;
Structure prediction by ZEFSAII (Michael W. Deem and Ramdas Pophale) SiO2 
 PCOD8088323
Probable space group: C 2/M
;
_chemical_formula_sum "Si O2"
_cell_formula_units_Z 48
_cell_length_a 23.304433
_cell_length_b 9.200563
_cell_length_c 13.457637
_cell_angle_alpha 90.000000
_cell_angle_beta 107.711169
_cell_angle_gamma 90.000000
_cell_volume 2748.737912
_symmetry_space_group_name_H-M "C 2/M"
_symmetry_group_IT_number 12
_symmetry_cell_setting 'monoclinic'
loop_
_space_group_symop_operation_xyz
x,y,z
-x,y,-z
-x,-y,-z
x,-y,z
1/2+x,1/2+y,z
1/2-x,1/2+y,-z
1/2-x,1/2-y,-z
1/2+x,1/2-y,z
loop_
_atom_site_type_symbol
_atom_site_label
_atom_site_fract_x
_atom_site_fract_y
_atom_site_fract_z
Si Si1 0.995457 0.333331 0.610447
Si Si2 0.270889 0.671709 0.109668
Si Si3 0.130025 0.666576 0.725253
Si Si4 0.681508 0.337030 0.578416
Si Si5 0.304474 0.164868 0.738035
Si Si6 0.111447 0.834551 0.345641
O O1 0.973581 0.500000 0.594254
O O2 0.948857 0.242305 0.650181
O O3 0.000000 0.272013 0.500000
O O4 0.058545 0.318870 0.701698
O O5 0.277160 0.500000 0.096003
O O6 0.335788 0.735024 0.175778
O O7 0.221876 0.708836 0.168526
O O8 0.250000 0.750000 0.000000
O O9 0.151066 0.500000 0.748035
O O10 0.144687 0.719335 0.621826
O O11 0.665668 0.500000 0.609397
O O12 0.752702 0.311745 0.628029
O O13 0.663637 0.319605 0.455075
O O14 0.362028 0.263120 0.740770
O O15 0.327398 0.000000 0.751336
O O16 0.095125 0.000000 0.313319
#
# Coordination Sequence:
#
# PCOD8088323 Si02
#       6
#     8   8   8   8   8   8
#     4  10  20  34  50  72 105 147 186 214 250 305
#     4  10  21  38  60  83 105 131 167 216 271 318
#     4  10  19  32  53  78 104 138 179 218 257 305
#     4   9  18  31  46  70 104 140 175 214 258 304
#     4   9  19  34  50  71 103 137 170 210 259 315
#     4  11  21  30  47  74 105 142 179 216 257 301
#
# _framework density 17.46256
#
# number of rings (size 3 to 8) (size 9 to 14) (size 15 to 20)
#    0.000    2.167    1.667    3.000    0.000    5.667 
#    0.000    0.000    0.000    1.000    0.000    7.000 
#    0.000    0.000    0.000    0.000    0.000    0.000 
#
# Total GULP energy -297598.087552 kJ/mol
# GULP energy per Si atom -12399.920315 kJ/mol
# Density = 1.742281 g / cm^3
# Si number density = 17.462560 Si / 1000 Ang^3
#
#
#
# Elastic Constant Matrix: (Units=GPa)
#
#
# Indices 1 2 3 4 5 6 
#
# 1 111.5791 72.0573 39.2794 0.0000 -8.8112 0.0000
# 2 72.0573 118.2958 46.3551 0.0000 -5.1985 0.0000
# 3 39.2794 46.3551 73.1800 0.0000 -2.2354 0.0000
# 4 0.0000 0.0000 0.0000 27.2280 0.0000 -0.5299
# 5 -8.8112 -5.1985 -2.2354 0.0000 13.4846 0.0000
# 6 0.0000 0.0000 0.0000 -0.5299 0.0000 33.5109
#
#
#
# Elastic Compliance Matrix: (Units=1/GPa)
#
#
# Indices 1 2 3 4 5 6 
#
# 1 0.015848 -0.008122 -0.003157 0.000000 0.006701 0.000000
# 2 -0.008122 0.015543 -0.005493 0.000000 -0.000226 0.000000
# 3 -0.003157 -0.005493 0.018807 0.000000 -0.001063 0.000000
# 4 0.000000 0.000000 0.000000 0.036738 0.000000 0.000581
# 5 0.006701 -0.000226 -0.001063 0.000000 0.078274 0.000000
# 6 0.000000 0.000000 0.000000 0.000581 0.000000 0.029850
#
#
# Mechanical properties :
#
#
# Convention : Reuss Voigt Hill
#
# Bulk Modulus (GPa) = 60.04674 68.71540 64.38107
# Shear Modulus (GPa) = 21.35333 24.53556 22.94445
#
# Velocity S-wave (km/s) = 3.50066 3.75245 3.62874
# Velocity P-wave (km/s) = 7.12742 7.62955 7.38276
#
# Compressibility (1/GPa) = 0.01665369
#
# Stress axis : x y z
#
# Youngs Moduli (GPa) = 63.10031 64.33662 53.17281
#
# Poissons Ratio (x) = 0.52253 0.16786
# Poissons Ratio (y) = 0.51249 0.29209
# Poissons Ratio (z) = 0.19920 0.35342
#
# Static dielectric constant tensor:
#      x y z
#    x 3.074820 0.000000 0.050670 
#    y 0.000000 3.373580 0.000000 
#    z 0.050670 0.000000 3.012320 
# 
# 
# High freq. dielectric constant tensor:
#      x y z
#    x 1.666840 0.000000 0.001780 
#    y 0.000000 1.687200 0.000000 
#    z 0.001780 0.000000 1.642810 
# 
# From -- ./inp_files/172441.got.cif
#   From: 2010.06.25/outbox.cif.g09.slc.cpg/sg12_87_cif.got.tgz:172441.got - 2010.06.28 00:19:55.
