data_PCOD8088445
_publ_section_title
;
Structure prediction by ZEFSAII (Michael W. Deem and Ramdas Pophale) SiO2 
 PCOD8088445
Probable space group: C 2/M
;
_chemical_formula_sum "Si O2"
_cell_formula_units_Z 48
_cell_length_a 17.108438
_cell_length_b 16.527865
_cell_length_c 16.164792
_cell_angle_alpha 90.000000
_cell_angle_beta 145.788160
_cell_angle_gamma 90.000000
_cell_volume 2569.981562
_symmetry_space_group_name_H-M "C 2/M"
_symmetry_group_IT_number 12
_symmetry_cell_setting 'monoclinic'
loop_
_space_group_symop_operation_xyz
x,y,z
-x,y,-z
-x,-y,-z
x,-y,z
1/2+x,1/2+y,z
1/2-x,1/2+y,-z
1/2-x,1/2-y,-z
1/2+x,1/2-y,z
loop_
_atom_site_type_symbol
_atom_site_label
_atom_site_fract_x
_atom_site_fract_y
_atom_site_fract_z
Si Si1 0.661363 0.272900 0.621016
Si Si2 0.958067 0.090579 0.052967
Si Si3 0.818778 0.161952 0.646969
Si Si4 0.038029 0.303389 0.819306
Si Si5 0.245156 0.769528 0.117990
Si Si6 0.291079 0.905043 0.620685
O O1 0.500000 0.282679 0.500000
O O2 0.685235 0.195539 0.581254
O O3 0.746995 0.255279 0.779906
O O4 0.718698 0.356733 0.632800
O O5 0.095725 0.093328 0.229939
O O6 0.899297 0.000000 0.000294
O O7 0.834197 0.147564 0.973638
O O8 0.000000 0.121920 0.000000
O O9 0.777351 0.124553 0.524153
O O10 0.916653 0.239066 0.724819
O O11 0.101334 0.284788 0.784285
O O12 0.957792 0.388974 0.759089
O O13 0.160205 0.300423 0.995011
O O14 0.265489 0.000000 0.612404
#
# Coordination Sequence:
#
# PCOD8088445 Si02
#       6
#     8   8   8   8   8   8
#     4  11  21  36  59  82 107 141 188 228 265 319
#     4  10  19  32  53  81 109 136 171 221 276 321
#     4  10  19  36  57  78 107 148 181 220 268 323
#     4   9  20  36  59  80 107 143 185 220 268 320
#     4  10  19  36  58  83 106 142 183 226 262 321
#     4  11  23  37  54  80 115 147 178 223 273 323
#
# _framework density 18.677177
#
# number of rings (size 3 to 8) (size 9 to 14) (size 15 to 20)
#    0.000    1.833    1.667    4.500    0.000    1.000 
#    0.000    1.667    0.000    3.500    0.000    0.000 
#    0.000    0.000    0.000    0.000    0.000    0.000 
#
# Total GULP energy -297508.197989 kJ/mol
# GULP energy per Si atom -12396.174916 kJ/mol
# Density = 1.863467 g / cm^3
# Si number density = 18.677177 Si / 1000 Ang^3
#
#
#
# Elastic Constant Matrix: (Units=GPa)
#
#
# Indices 1 2 3 4 5 6 
#
# 1 108.6836 35.0163 46.0693 0.0000 -1.6904 0.0000
# 2 35.0163 73.6407 32.4902 -0.0002 -7.4947 -0.0002
# 3 46.0693 32.4902 92.4382 0.0000 -2.8216 -0.0001
# 4 0.0000 -0.0002 0.0000 14.1402 -0.0003 -1.0290
# 5 -1.6904 -7.4947 -2.8216 -0.0003 33.2858 -0.0003
# 6 0.0000 -0.0002 -0.0001 -1.0290 -0.0003 16.2426
#
#
#
# Elastic Compliance Matrix: (Units=1/GPa)
#
#
# Indices 1 2 3 4 5 6 
#
# 1 0.012509 -0.003852 -0.004900 0.000000 -0.000647 0.000000
# 2 -0.003852 0.017594 -0.004160 0.000000 0.003413 0.000000
# 3 -0.004900 -0.004160 0.014724 0.000000 0.000063 0.000000
# 4 0.000000 0.000000 0.000000 0.071048 0.000001 0.004501
# 5 -0.000647 0.003413 0.000063 0.000001 0.030784 0.000001
# 6 0.000000 0.000000 0.000000 0.004501 0.000001 0.061852
#
#
# Mechanical properties :
#
#
# Convention : Reuss Voigt Hill
#
# Bulk Modulus (GPa) = 52.62343 55.76825 54.19584
# Shear Modulus (GPa) = 20.77540 23.47949 22.12744
#
# Velocity S-wave (km/s) = 3.33880 3.54944 3.44573
# Velocity P-wave (km/s) = 6.56505 6.83534 6.70156
#
# Compressibility (1/GPa) = 0.01900294
#
# Stress axis : x y z
#
# Youngs Moduli (GPa) = 79.94168 56.83807 67.91542
#
# Poissons Ratio (x) = 0.21894 0.33279
# Poissons Ratio (y) = 0.30794 0.28252
# Poissons Ratio (z) = 0.39172 0.23644
#
# Static dielectric constant tensor:
#      x y z
#    x 3.598620 0.000000 0.001510 
#    y 0.000000 3.355690 0.000000 
#    z 0.001510 0.000000 3.605590 
# 
# 
# High freq. dielectric constant tensor:
#      x y z
#    x 1.733750 0.000000 -0.002740 
#    y 0.000000 1.702250 0.000000 
#    z -0.002740 0.000000 1.734380 
# 
# From -- ./inp_files/216483.got.cif
#   From: 2010.06.25/outbox.cif.g09.slc.cpg/sg12_109_cif.got.tgz:216483.got - 2010.06.28 00:19:55.
