data_PCOD8088381
_publ_section_title
;
Structure prediction by ZEFSAII (Michael W. Deem and Ramdas Pophale) SiO2 
 PCOD8088381
Probable space group: C 2/M
;
_chemical_formula_sum "Si O2"
_cell_formula_units_Z 64
_cell_length_a 27.179243
_cell_length_b 11.201785
_cell_length_c 14.650857
_cell_angle_alpha 90.000000
_cell_angle_beta 136.051913
_cell_angle_gamma 90.000000
_cell_volume 3095.644262
_symmetry_space_group_name_H-M "C 2/M"
_symmetry_group_IT_number 12
_symmetry_cell_setting 'monoclinic'
loop_
_space_group_symop_operation_xyz
x,y,z
-x,y,-z
-x,-y,-z
x,-y,z
1/2+x,1/2+y,z
1/2-x,1/2+y,-z
1/2-x,1/2-y,-z
1/2+x,1/2-y,z
loop_
_atom_site_type_symbol
_atom_site_label
_atom_site_fract_x
_atom_site_fract_y
_atom_site_fract_z
Si Si1 0.022571 0.811159 0.434285
Si Si2 0.226484 0.633179 0.841706
Si Si3 0.600961 0.864885 0.313918
Si Si4 0.005198 0.869687 0.211635
Si Si5 0.829898 0.713594 0.414761
Si Si6 0.869500 0.746278 0.999845
Si Si7 0.593558 0.136219 0.770301
Si Si8 0.693612 0.863536 0.260674
O O1 0.002258 0.886576 0.317501
O O2 0.106355 0.787539 0.546309
O O3 0.000000 0.875123 0.500000
O O4 0.977859 0.688879 0.368018
O O5 0.243257 0.500000 0.898356
O O6 0.203898 0.627025 0.705426
O O7 0.163904 0.693061 0.817940
O O8 0.296246 0.711748 0.946752
O O9 0.548731 0.749734 0.241090
O O10 0.643133 0.864991 0.465022
O O11 0.655718 0.845385 0.306044
O O12 0.565865 0.000000 0.258504
O O13 0.925833 0.854336 0.065697
O O14 0.033826 0.000000 0.212832
O O15 0.770539 0.805110 0.370307
O O16 0.903992 0.652383 0.116986
O O17 0.857460 0.690254 0.884964
O O18 0.591006 0.000000 0.739407
O O19 0.706280 0.000000 0.252687
#
# Coordination Sequence:
#
# PCOD8088381 Si02
#       8
#     8   8   8   8   8   8   8   8
#     4  10  20  36  57  86 120 155 195 237 290 358
#     4  10  19  32  53  79 111 154 200 245 296 352
#     4  10  22  41  65  91 120 156 205 255 305 359
#     4  10  23  41  62  89 125 161 199 249 304 361
#     4  10  20  35  58  87 123 152 192 246 303 359
#     4  10  21  37  56  80 118 155 202 250 297 354
#     4  10  20  33  55  82 113 157 201 248 295 347
#     4  10  22  40  62  89 118 158 204 256 306 356
#
# _framework density 20.674212000000001
#
# number of rings (size 3 to 8) (size 9 to 14) (size 15 to 20)
#    0.000    2.000    1.250    1.875    0.000    8.500 
#    0.000    5.625    0.000    0.000    0.000    0.000 
#    0.000    0.000    0.000    0.000    0.000    0.000 
#
# Total GULP energy -396539.352719 kJ/mol
# GULP energy per Si atom -12391.854772 kJ/mol
# Density = 2.062716 g / cm^3
# Si number density = 20.674212 Si / 1000 Ang^3
#
#
#
# Elastic Constant Matrix: (Units=GPa)
#
#
# Indices 1 2 3 4 5 6 
#
# 1 104.7275 38.8326 24.7438 0.0000 4.6523 0.0000
# 2 38.8326 116.2064 19.1070 0.0000 16.8739 0.0000
# 3 24.7438 19.1070 65.6512 0.0000 14.8000 0.0000
# 4 0.0000 0.0000 0.0000 10.4359 0.0000 5.7666
# 5 4.6523 16.8739 14.8000 0.0000 30.2898 0.0000
# 6 0.0000 0.0000 0.0000 5.7666 0.0000 21.8071
#
#
#
# Elastic Compliance Matrix: (Units=1/GPa)
#
#
# Indices 1 2 3 4 5 6 
#
# 1 0.011688 -0.003576 -0.003831 0.000000 0.002069 0.000000
# 2 -0.003576 0.010637 -0.000602 0.000000 -0.005082 0.000000
# 3 -0.003831 -0.000602 0.018703 0.000000 -0.008215 0.000000
# 4 0.000000 0.000000 0.000000 0.112221 0.000000 -0.029676
# 5 0.002069 -0.005082 -0.008215 0.000000 0.039542 0.000000
# 6 0.000000 0.000000 0.000000 -0.029676 0.000000 0.053704
#
#
# Mechanical properties :
#
#
# Convention : Reuss Voigt Hill
#
# Bulk Modulus (GPa) = 39.98437 50.21688 45.10062
# Shear Modulus (GPa) = 18.46041 26.10001 22.28021
#
# Velocity S-wave (km/s) = 2.99142 3.55694 3.28637
# Velocity P-wave (km/s) = 5.59586 6.41962 6.02184
#
# Compressibility (1/GPa) = 0.02500977
#
# Stress axis : x y z
#
# Youngs Moduli (GPa) = 85.55923 94.00731 53.46759
#
# Poissons Ratio (x) = 0.33619 0.20482
# Poissons Ratio (y) = 0.30598 0.03220
# Poissons Ratio (z) = 0.32775 0.05662
#
# Static dielectric constant tensor:
#      x y z
#    x 3.795070 0.000000 0.006130 
#    y 0.000000 3.566180 0.000000 
#    z 0.006130 0.000000 3.779520 
# 
# 
# High freq. dielectric constant tensor:
#      x y z
#    x 1.811010 0.000000 0.000860 
#    y 0.000000 1.796230 0.000000 
#    z 0.000860 0.000000 1.812450 
# 
# From -- ./inp_files/245983.got.cif
#   From: 2010.06.25/outbox.cif.g09.slc.cpg/sg12_123_cif.got.tgz:245983.got - 2010.06.28 00:19:55.
