data_PCOD8088176
_publ_section_title
;
Structure prediction by ZEFSAII (Michael W. Deem and Ramdas Pophale) SiO2 
 PCOD8088176
Probable space group: C 2/M
;
_chemical_formula_sum "Si O2"
_cell_formula_units_Z 56
_cell_length_a 24.080628
_cell_length_b 14.273845
_cell_length_c 22.951459
_cell_angle_alpha 90.000000
_cell_angle_beta 159.045663
_cell_angle_gamma 90.000000
_cell_volume 2821.275502
_symmetry_space_group_name_H-M "C 2/M"
_symmetry_group_IT_number 12
_symmetry_cell_setting 'monoclinic'
loop_
_space_group_symop_operation_xyz
x,y,z
-x,y,-z
-x,-y,-z
x,-y,z
1/2+x,1/2+y,z
1/2-x,1/2+y,-z
1/2-x,1/2-y,-z
1/2+x,1/2-y,z
loop_
_atom_site_type_symbol
_atom_site_label
_atom_site_fract_x
_atom_site_fract_y
_atom_site_fract_z
Si Si1 0.411934 0.747049 0.855041
Si Si2 0.021223 0.272690 0.693987
Si Si3 0.747992 0.609512 0.383776
Si Si4 0.808395 0.397613 0.052338
Si Si5 0.679240 0.393780 0.678486
Si Si6 0.040972 0.106268 0.292359
Si Si7 0.204155 0.330485 0.086741
O O1 0.339115 0.653330 0.756861
O O2 0.279199 0.824600 0.736076
O O3 0.500000 0.717478 0.000000
O O4 0.534510 0.787884 0.929588
O O5 0.077709 0.321449 0.809002
O O6 0.168842 0.251456 0.797947
O O7 0.914042 0.340798 0.551663
O O8 0.932163 0.177520 0.627079
O O9 0.769758 0.500000 0.392933
O O10 0.658077 0.629746 0.355421
O O11 0.868021 0.500000 0.129996
O O12 0.633143 0.381086 0.903339
O O13 0.805609 0.394530 0.979751
O O14 0.500000 0.361827 0.500000
O O15 0.697370 0.500000 0.672681
O O16 0.742684 0.392344 0.806470
O O17 0.066310 0.000000 0.340208
#
# Coordination Sequence:
#
# PCOD8088176 Si02
#       7
#     8   8   8   8   8   8   8
#     4  10  22  39  59  80 107 143 186 231 275 324
#     4  11  20  34  55  81 114 144 181 225 274 328
#     4  11  22  37  56  79 109 144 184 230 279 328
#     4  10  19  32  52  80 113 149 185 218 262 324
#     4  10  21  38  60  86 115 144 178 225 277 323
#     4   9  19  34  53  78 110 147 183 220 266 325
#     4  10  20  35  57  81 111 148 185 227 272 324
#
# _framework density 19.849177999999998
#
# number of rings (size 3 to 8) (size 9 to 14) (size 15 to 20)
#    0.000    1.857    0.000    5.571    0.000    4.000 
#    0.000    1.429    0.000    9.000    0.000    0.000 
#    0.000    0.000    0.000    0.000    0.000    0.000 
#
# Total GULP energy -347242.245501 kJ/mol
# GULP energy per Si atom -12401.508768 kJ/mol
# Density = 1.980400 g / cm^3
# Si number density = 19.849178 Si / 1000 Ang^3
#
#
#
# Elastic Constant Matrix: (Units=GPa)
#
#
# Indices 1 2 3 4 5 6 
#
# 1 61.4666 40.3821 32.4900 0.0069 23.0964 0.0000
# 2 40.3821 134.1783 60.1930 0.0127 10.5493 0.0036
# 3 32.4900 60.1930 103.2317 0.0189 12.1108 0.0071
# 4 0.0069 0.0127 0.0189 27.6493 0.0046 -5.9087
# 5 23.0964 10.5493 12.1108 0.0046 26.8542 0.0013
# 6 0.0000 0.0036 0.0071 -5.9087 0.0013 24.1917
#
#
#
# Elastic Compliance Matrix: (Units=1/GPa)
#
#
# Indices 1 2 3 4 5 6 
#
# 1 0.030269 -0.005769 -0.003563 0.000002 -0.022161 0.000004
# 2 -0.005769 0.011241 -0.005071 -0.000001 0.002833 -0.000001
# 3 -0.003563 -0.005071 0.013908 -0.000007 -0.001216 -0.000005
# 4 0.000002 -0.000001 -0.000007 0.038159 -0.000005 0.009320
# 5 -0.022161 0.002833 -0.001216 -0.000005 0.055733 -0.000004
# 6 0.000004 -0.000001 -0.000005 0.009320 -0.000004 0.043613
#
#
# Mechanical properties :
#
#
# Convention : Reuss Voigt Hill
#
# Bulk Modulus (GPa) = 37.57720 62.77853 50.17786
# Shear Modulus (GPa) = 21.68246 26.79314 24.23780
#
# Velocity S-wave (km/s) = 3.30867 3.67800 3.49821
# Velocity P-wave (km/s) = 5.79387 7.05219 6.45377
#
# Compressibility (1/GPa) = 0.02661188
#
# Stress axis : x y z
#
# Youngs Moduli (GPa) = 33.03663 88.95737 71.90148
#
# Poissons Ratio (x) = 0.51321 0.25618
# Poissons Ratio (y) = 0.19060 0.36463
# Poissons Ratio (z) = 0.11771 0.45113
#
# Static dielectric constant tensor:
#      x y z
#    x 3.465560 -0.000010 0.171920 
#    y -0.000010 3.632740 -0.000030 
#    z 0.171920 -0.000030 3.653530 
# 
# 
# High freq. dielectric constant tensor:
#      x y z
#    x 1.761720 0.000000 0.009140 
#    y 0.000000 1.778020 0.000000 
#    z 0.009140 0.000000 1.775680 
# 
# From -- ./inp_files/349783.got.cif
#   From: 2010.06.25/outbox.cif.g09.slc.cpg/sg12_175_cif.got.tgz:349783.got - 2010.06.28 00:19:55.
