data_PCOD8088731
_publ_section_title
;
Structure prediction by ZEFSAII (Michael W. Deem and Ramdas Pophale) SiO2 
 PCOD8088731
Probable space group: C 2/M
;
_chemical_formula_sum "Si O2"
_cell_formula_units_Z 56
_cell_length_a 14.352479
_cell_length_b 28.912461
_cell_length_c 9.773208
_cell_angle_alpha 90.000000
_cell_angle_beta 136.161184
_cell_angle_gamma 90.000000
_cell_volume 2808.999514
_symmetry_space_group_name_H-M "C 2/M"
_symmetry_group_IT_number 12
_symmetry_cell_setting 'monoclinic'
loop_
_space_group_symop_operation_xyz
x,y,z
-x,y,-z
-x,-y,-z
x,-y,z
1/2+x,1/2+y,z
1/2-x,1/2+y,-z
1/2-x,1/2-y,-z
1/2+x,1/2-y,z
loop_
_atom_site_type_symbol
_atom_site_label
_atom_site_fract_x
_atom_site_fract_y
_atom_site_fract_z
Si Si1 0.925083 0.272348 0.048537
Si Si2 0.386089 0.291332 0.265117
Si Si3 0.133639 0.053242 0.074003
Si Si4 0.498551 0.127115 0.154354
Si Si5 0.211167 0.113027 0.903906
Si Si6 0.303669 0.052621 0.513016
Si Si7 0.648258 0.448430 0.609900
O O1 0.929357 0.241152 0.186795
O O2 0.022612 0.317444 0.176034
O O3 0.767179 0.282301 0.844315
O O4 0.000000 0.246784 0.000000
O O5 0.500000 0.283748 0.500000
O O6 0.390641 0.344089 0.217256
O O7 0.258190 0.060072 0.309167
O O8 0.112102 0.000000 0.013196
O O9 0.154376 0.078793 0.955155
O O10 0.000000 0.073961 0.000000
O O11 0.596587 0.094217 0.344966
O O12 0.500000 0.108176 0.000000
O O13 0.361795 0.127380 0.098682
O O14 0.239052 0.087457 0.788548
O O15 0.173076 0.056754 0.473927
O O16 0.365153 0.000000 0.594440
O O17 0.500000 0.434667 0.500000
O O18 0.683479 0.500000 0.695991
#
# Coordination Sequence:
#
# PCOD8088731 Si02
#       7
#     8   8   8   8   8   8   8
#     4   9  21  43  64  87 125 160 196 250 315 372
#     4  10  22  41  64  94 121 153 205 258 303 365
#     4  10  22  40  56  81 125 165 198 247 300 352
#     4  10  20  39  60  85 119 156 194 246 303 357
#     4  11  21  36  59  84 116 155 197 250 297 350
#     4  10  21  36  57  88 123 159 206 248 291 362
#     4  10  19  32  54  84 115 155 201 241 290 348
#
# _framework density 19.935925000000001
#
# number of rings (size 3 to 8) (size 9 to 14) (size 15 to 20)
#    0.000    2.000    1.429    1.714    0.000    5.429 
#    7.714    1.429    0.000    0.000    0.000    0.000 
#    0.000    0.000    0.000    0.000    0.000    0.000 
#
# Total GULP energy -346890.088882 kJ/mol
# GULP energy per Si atom -12388.931746 kJ/mol
# Density = 1.989055 g / cm^3
# Si number density = 19.935925 Si / 1000 Ang^3
#
#
#
# Elastic Constant Matrix: (Units=GPa)
#
#
# Indices 1 2 3 4 5 6 
#
# 1 90.4139 36.0140 31.4723 0.0000 -5.1196 0.0000
# 2 36.0140 87.0833 46.2017 0.0000 -0.6990 0.0000
# 3 31.4723 46.2017 90.9248 0.0000 0.9150 0.0000
# 4 0.0000 0.0000 0.0000 73.6420 0.0000 -52.9535
# 5 -5.1196 -0.6990 0.9150 0.0000 24.2520 0.0000
# 6 0.0000 0.0000 0.0000 -52.9535 0.0000 89.3477
#
#
#
# Elastic Compliance Matrix: (Units=1/GPa)
#
#
# Indices 1 2 3 4 5 6 
#
# 1 0.013859 -0.004309 -0.002636 0.000000 0.002901 0.000000
# 2 -0.004309 0.017075 -0.007183 0.000000 -0.000147 0.000000
# 3 -0.002636 -0.007183 0.015574 0.000000 -0.001351 0.000000
# 4 0.000000 0.000000 0.000000 0.023664 0.000000 0.014025
# 5 0.002901 -0.000147 -0.001351 0.000000 0.041893 0.000000
# 6 0.000000 0.000000 0.000000 0.014025 0.000000 0.019504
#
#
# Mechanical properties :
#
#
# Convention : Reuss Voigt Hill
#
# Bulk Modulus (GPa) = 54.79448 55.08867 54.94157
# Shear Modulus (GPa) = 30.13650 47.76393 38.95022
#
# Velocity S-wave (km/s) = 3.89224 4.90008 4.42494
# Velocity P-wave (km/s) = 6.90972 7.72704 7.32978
#
# Compressibility (1/GPa) = 0.01825001
#
# Stress axis : x y z
#
# Youngs Moduli (GPa) = 72.15660 58.56386 64.20787
#
# Poissons Ratio (x) = 0.25237 0.16928
# Poissons Ratio (y) = 0.31095 0.46123
# Poissons Ratio (z) = 0.19024 0.42069
#
# Static dielectric constant tensor:
#      x y z
#    x 3.753280 0.000000 0.059390 
#    y 0.000000 3.669260 0.000000 
#    z 0.059390 0.000000 3.498240 
# 
# 
# High freq. dielectric constant tensor:
#      x y z
#    x 1.785650 0.000000 -0.004770 
#    y 0.000000 1.777110 0.000000 
#    z -0.004770 0.000000 1.759740 
# 
# From -- ./inp_files/68326.got.cif
#   From: 2010.06.25/outbox.cif.g09.slc.cpg/sg12_35_cif.got.tgz:68326.got - 2010.06.28 00:19:55.
