data_PCOD8088559
_publ_section_title
;
Structure prediction by ZEFSAII (Michael W. Deem and Ramdas Pophale) SiO2 
 PCOD8088559
Probable space group: C 2/M
;
_chemical_formula_sum "Si O2"
_cell_formula_units_Z 48
_cell_length_a 19.341564
_cell_length_b 8.777846
_cell_length_c 21.914175
_cell_angle_alpha 90.000000
_cell_angle_beta 135.289422
_cell_angle_gamma 90.000000
_cell_volume 2617.488451
_symmetry_space_group_name_H-M "C 2/M"
_symmetry_group_IT_number 12
_symmetry_cell_setting 'monoclinic'
loop_
_space_group_symop_operation_xyz
x,y,z
-x,y,-z
-x,-y,-z
x,-y,z
1/2+x,1/2+y,z
1/2-x,1/2+y,-z
1/2-x,1/2-y,-z
1/2+x,1/2-y,z
loop_
_atom_site_type_symbol
_atom_site_label
_atom_site_fract_x
_atom_site_fract_y
_atom_site_fract_z
Si Si1 0.841555 0.320786 0.022687
Si Si2 0.975004 0.322507 0.779171
Si Si3 0.072598 0.822096 0.731643
Si Si4 0.782381 0.179992 0.865854
Si Si5 0.207422 0.320080 0.255377
Si Si6 0.426101 0.321494 0.404606
O O1 0.825991 0.500000 0.008135
O O2 0.851411 0.250051 0.961532
O O3 0.750000 0.250000 0.000000
O O4 0.940863 0.278035 0.120203
O O5 0.978366 0.500000 0.765165
O O6 0.987322 0.228203 0.724471
O O7 0.870266 0.275141 0.741569
O O8 0.170747 0.730056 0.809137
O O9 0.037102 0.783559 0.640704
O O10 0.096369 0.000000 0.753179
O O11 0.821974 0.239410 0.826076
O O12 0.788773 0.000000 0.872354
O O13 0.208362 0.500000 0.243123
O O14 0.314798 0.260740 0.344017
O O15 0.500000 0.243464 0.500000
O O16 0.424899 0.500000 0.415745
#
# Coordination Sequence:
#
# PCOD8088559 Si02
#       6
#     8   8   8   8   8   8
#     4  11  21  33  51  75 103 139 182 222 257 300
#     4  10  21  35  52  75 106 140 173 215 262 307
#     4  10  19  32  54  78 103 137 175 214 257 311
#     4  11  21  34  52  75 104 139 178 221 261 303
#     4   9  19  36  55  76 104 139 174 211 261 313
#     4   8  15  31  56  81 101 129 172 214 254 309
#
# _framework density 18.338190000000001
#
# number of rings (size 3 to 8) (size 9 to 14) (size 15 to 20)
#    0.000    2.167    1.667    3.500    0.000    2.000 
#    0.000    4.167    0.000   12.500    0.000    0.000 
#    0.000    0.000    0.000    0.000    0.000    0.000 
#
# Total GULP energy -297616.300493 kJ/mol
# GULP energy per Si atom -12400.679187 kJ/mol
# Density = 1.829645 g / cm^3
# Si number density = 18.338190 Si / 1000 Ang^3
#
#
#
# Elastic Constant Matrix: (Units=GPa)
#
#
# Indices 1 2 3 4 5 6 
#
# 1 136.4337 41.3648 62.2277 0.0000 -5.9704 0.0000
# 2 41.3648 70.6441 38.3347 0.0000 -5.0936 0.0000
# 3 62.2277 38.3347 121.7094 0.0000 -10.3821 0.0000
# 4 0.0000 0.0000 0.0000 14.6800 0.0000 -5.4088
# 5 -5.9704 -5.0936 -10.3821 0.0000 21.5861 0.0000
# 6 0.0000 0.0000 0.0000 -5.4088 0.0000 30.2049
#
#
#
# Elastic Compliance Matrix: (Units=1/GPa)
#
#
# Indices 1 2 3 4 5 6 
#
# 1 0.010359 -0.003850 -0.004085 0.000000 -0.000008 0.000000
# 2 -0.003850 0.018551 -0.003746 0.000000 0.001511 0.000000
# 3 -0.004085 -0.003746 0.011797 0.000000 0.003660 0.000000
# 4 0.000000 0.000000 0.000000 0.072932 0.000000 0.013060
# 5 -0.000008 0.001511 0.003660 0.000000 0.048441 0.000000
# 6 0.000000 0.000000 0.000000 0.013060 0.000000 0.035446
#
#
# Mechanical properties :
#
#
# Convention : Reuss Voigt Hill
#
# Bulk Modulus (GPa) = 57.64756 68.07129 62.85943
# Shear Modulus (GPa) = 22.05856 25.75152 23.90504
#
# Velocity S-wave (km/s) = 3.47201 3.75141 3.61441
# Velocity P-wave (km/s) = 6.89762 7.48095 7.19520
#
# Compressibility (1/GPa) = 0.01734679
#
# Stress axis : x y z
#
# Youngs Moduli (GPa) = 96.52981 53.90448 84.76915
#
# Poissons Ratio (x) = 0.20753 0.34625
# Poissons Ratio (y) = 0.37163 0.31753
# Poissons Ratio (z) = 0.39429 0.20192
#
# Static dielectric constant tensor:
#      x y z
#    x 3.411380 0.000000 -0.050480 
#    y 0.000000 3.226440 0.000000 
#    z -0.050480 0.000000 3.647300 
# 
# 
# High freq. dielectric constant tensor:
#      x y z
#    x 1.709980 0.000000 -0.012300 
#    y 0.000000 1.698500 0.000000 
#    z -0.012300 0.000000 1.701180 
# 
# From -- ./inp_files/230422.got.cif
#   From: 2010.06.25/outbox.cif.g09.slc.cpg/sg12_116_cif.got.tgz:230422.got - 2010.06.28 00:19:55.
