data_PCOD8088502
_publ_section_title
;
Structure prediction by ZEFSAII (Michael W. Deem and Ramdas Pophale) SiO2 
 PCOD8088502
Probable space group: C 2/M
;
_chemical_formula_sum "Si O2"
_cell_formula_units_Z 64
_cell_length_a 17.220509
_cell_length_b 14.265632
_cell_length_c 14.513379
_cell_angle_alpha 90.000000
_cell_angle_beta 54.811876
_cell_angle_gamma 90.000000
_cell_volume 2913.856083
_symmetry_space_group_name_H-M "C 2/M"
_symmetry_group_IT_number 12
_symmetry_cell_setting 'monoclinic'
loop_
_space_group_symop_operation_xyz
x,y,z
-x,y,-z
-x,-y,-z
x,-y,z
1/2+x,1/2+y,z
1/2-x,1/2+y,-z
1/2-x,1/2-y,-z
1/2+x,1/2-y,z
loop_
_atom_site_type_symbol
_atom_site_label
_atom_site_fract_x
_atom_site_fract_y
_atom_site_fract_z
Si Si1 0.795973 0.789170 0.109442
Si Si2 0.301449 0.103291 0.570322
Si Si3 0.700354 0.607181 0.223416
Si Si4 0.895779 0.163410 0.223987
Si Si5 0.399733 0.602924 0.523298
Si Si6 0.900207 0.897508 0.888970
Si Si7 0.421334 0.774407 0.375352
Si Si8 0.609540 0.888848 0.298284
O O1 0.780817 0.677445 0.130160
O O2 0.872126 0.816071 0.134856
O O3 0.697969 0.847047 0.181323
O O4 0.843645 0.814528 0.979318
O O5 0.191639 0.108800 0.670969
O O6 0.327081 0.168374 0.466747
O O7 0.370112 0.130572 0.608353
O O8 0.326092 0.000000 0.520956
O O9 0.738532 0.500000 0.198025
O O10 0.670101 0.639607 0.346856
O O11 0.611410 0.616816 0.213341
O O12 0.917881 0.257796 0.267904
O O13 0.989027 0.100053 0.162627
O O14 0.500000 0.587371 0.500000
O O15 0.364585 0.500000 0.511343
O O16 0.409840 0.674375 0.433022
O O17 0.859343 0.000000 0.945956
O O18 0.515145 0.832312 0.336976
O O19 0.598574 0.000000 0.285192
#
# Coordination Sequence:
#
# PCOD8088502 Si02
#       8
#     8   8   8   8   8   8   8   8
#     4  11  22  41  63  86 120 157 194 243 301 353
#     4  10  21  37  58  85 120 160 199 242 293 346
#     4  10  22  40  63  90 116 148 197 250 295 348
#     4  11  24  38  57  87 124 160 198 241 288 347
#     4  10  19  32  53  82 116 153 191 234 285 339
#     4  11  23  40  65  91 114 147 195 251 306 352
#     4  12  22  37  58  87 123 162 200 236 286 350
#     4  10  21  37  60  89 120 156 200 248 294 344
#
# _framework density 21.964020999999999
#
# number of rings (size 3 to 8) (size 9 to 14) (size 15 to 20)
#    0.000    1.375    0.000    7.125    0.000    5.000 
#    0.000    2.500    0.000    2.250    0.000    0.000 
#    0.000    0.000    0.000    0.000    0.000    0.000 
#
# Total GULP energy -396717.885284 kJ/mol
# GULP energy per Si atom -12397.433915 kJ/mol
# Density = 2.191403 g / cm^3
# Si number density = 21.964021 Si / 1000 Ang^3
#
#
#
# Elastic Constant Matrix: (Units=GPa)
#
#
# Indices 1 2 3 4 5 6 
#
# 1 51.1775 10.2322 9.6956 0.0000 -5.2200 0.0000
# 2 10.2322 106.9967 31.7396 0.0000 -5.4252 0.0000
# 3 9.6956 31.7396 77.4699 0.0000 -3.8669 0.0000
# 4 0.0000 0.0000 0.0000 36.5330 0.0000 -3.2324
# 5 -5.2200 -5.4252 -3.8669 0.0000 23.8186 0.0000
# 6 0.0000 0.0000 0.0000 -3.2324 0.0000 19.0904
#
#
#
# Elastic Compliance Matrix: (Units=1/GPa)
#
#
# Indices 1 2 3 4 5 6 
#
# 1 0.020537 -0.001208 -0.001880 0.000000 0.003921 0.000000
# 2 -0.001208 0.010781 -0.004191 0.000000 0.001511 0.000000
# 3 -0.001880 -0.004191 0.014913 0.000000 0.001055 0.000000
# 4 0.000000 0.000000 0.000000 0.027789 0.000000 0.004705
# 5 0.003921 0.001511 0.001055 0.000000 0.043358 0.000000
# 6 0.000000 0.000000 0.000000 0.004705 0.000000 0.053179
#
#
# Mechanical properties :
#
#
# Convention : Reuss Voigt Hill
#
# Bulk Modulus (GPa) = 31.57007 37.66433 34.61720
# Shear Modulus (GPa) = 25.55290 28.15351 26.85320
#
# Velocity S-wave (km/s) = 3.41456 3.58411 3.50036
# Velocity P-wave (km/s) = 5.47269 5.85775 5.66849
#
# Compressibility (1/GPa) = 0.03167558
#
# Stress axis : x y z
#
# Youngs Moduli (GPa) = 48.69189 92.75359 67.05546
#
# Poissons Ratio (x) = 0.11201 0.12606
# Poissons Ratio (y) = 0.05880 0.28100
# Poissons Ratio (z) = 0.09153 0.38869
#
# Static dielectric constant tensor:
#      x y z
#    x 3.972490 0.000000 0.097430 
#    y 0.000000 4.093920 0.000000 
#    z 0.097430 0.000000 3.871740 
# 
# 
# High freq. dielectric constant tensor:
#      x y z
#    x 1.858250 0.000000 0.001730 
#    y 0.000000 1.872540 0.000000 
#    z 0.001730 0.000000 1.852660 
# 
# From -- ./inp_files/225659.got.cif
#   From: 2010.06.25/outbox.cif.g09.slc.cpg/sg12_113_cif.got.tgz:225659.got - 2010.06.28 00:19:55.
