data_PCOD8088549
_publ_section_title
;
Structure prediction by ZEFSAII (Michael W. Deem and Ramdas Pophale) SiO2 
 PCOD8088549
Probable space group: C 2/M
;
_chemical_formula_sum "Si O2"
_cell_formula_units_Z 40
_cell_length_a 24.514707
_cell_length_b 10.832051
_cell_length_c 9.014024
_cell_angle_alpha 90.000000
_cell_angle_beta 121.317441
_cell_angle_gamma 90.000000
_cell_volume 2044.875392
_symmetry_space_group_name_H-M "C 2/M"
_symmetry_group_IT_number 12
_symmetry_cell_setting 'monoclinic'
loop_
_space_group_symop_operation_xyz
x,y,z
-x,y,-z
-x,-y,-z
x,-y,z
1/2+x,1/2+y,z
1/2-x,1/2+y,-z
1/2-x,1/2-y,-z
1/2+x,1/2-y,z
loop_
_atom_site_type_symbol
_atom_site_label
_atom_site_fract_x
_atom_site_fract_y
_atom_site_fract_z
Si Si1 0.072185 0.638113 0.551269
Si Si2 0.733434 0.634773 0.791180
Si Si3 0.432309 0.358304 0.953275
Si Si4 0.351341 0.743417 0.094924
Si Si5 0.624721 0.642894 0.434240
O O1 0.084438 0.500000 0.500464
O O2 0.120289 0.649237 0.760009
O O3 0.081961 0.750860 0.450449
O O4 0.000000 0.649325 0.500000
O O5 0.763437 0.500000 0.830905
O O6 0.677652 0.639355 0.837623
O O7 0.698621 0.665144 0.585478
O O8 0.792707 0.722355 0.904858
O O9 0.444326 0.500000 0.006924
O O10 0.380618 0.339154 0.749811
O O11 0.500000 0.297961 0.000000
O O12 0.408763 0.300220 0.072869
O O13 0.604050 0.500000 0.447151
#
# Coordination Sequence:
#
# PCOD8088549 Si02
#       5
#     8   8   8   8   8
#     4  10  20  34  52  76 107 141 178 220 264 313
#     4   9  18  33  52  75 102 134 177 223 261 306
#     4  10  20  34  53  79 109 139 176 222 267 314
#     4  10  19  32  54  77 103 139 177 215 265 316
#     4   9  19  35  54  77 105 138 177 219 264 315
#
# _framework density 19.561093
#
# number of rings (size 3 to 8) (size 9 to 14) (size 15 to 20)
#    0.000    2.400    0.000    2.400    0.000    2.000 
#    0.000    3.000    0.000    5.400    0.000    0.000 
#    0.000    0.000    0.000    0.000    0.000    0.000 
#
# Total GULP energy -247765.226832 kJ/mol
# GULP energy per Si atom -12388.261342 kJ/mol
# Density = 1.951657 g / cm^3
# Si number density = 19.561093 Si / 1000 Ang^3
#
#
#
# Elastic Constant Matrix: (Units=GPa)
#
#
# Indices 1 2 3 4 5 6 
#
# 1 67.6601 6.1840 5.2708 0.0000 -0.6491 0.0000
# 2 6.1840 82.9454 6.5954 0.0000 -4.4628 0.0000
# 3 5.2708 6.5954 79.3810 0.0000 9.4118 0.0000
# 4 0.0000 0.0000 0.0000 22.9565 0.0000 2.2704
# 5 -0.6491 -4.4628 9.4118 0.0000 27.6562 0.0000
# 6 0.0000 0.0000 0.0000 2.2704 0.0000 11.2244
#
#
#
# Elastic Compliance Matrix: (Units=1/GPa)
#
#
# Indices 1 2 3 4 5 6 
#
# 1 0.014953 -0.001010 -0.000970 0.000000 0.000518 0.000000
# 2 -0.001010 0.012359 -0.001244 0.000000 0.002394 0.000000
# 3 -0.000970 -0.001244 0.013330 0.000000 -0.004760 0.000000
# 4 0.000000 0.000000 0.000000 0.044450 0.000000 -0.008991
# 5 0.000518 0.002394 -0.004760 0.000000 0.038176 0.000000
# 6 0.000000 0.000000 0.000000 -0.008991 0.000000 0.090911
#
#
# Mechanical properties :
#
#
# Convention : Reuss Voigt Hill
#
# Bulk Modulus (GPa) = 29.24514 29.56521 29.40517
# Shear Modulus (GPa) = 21.54953 26.49649 24.02301
#
# Velocity S-wave (km/s) = 3.32272 3.68441 3.50823
# Velocity P-wave (km/s) = 5.45011 5.76602 5.61029
#
# Compressibility (1/GPa) = 0.03419372
#
# Stress axis : x y z
#
# Youngs Moduli (GPa) = 66.87792 80.91206 75.02120
#
# Poissons Ratio (x) = 0.08170 0.07280
# Poissons Ratio (y) = 0.06753 0.09330
# Poissons Ratio (z) = 0.06490 0.10063
#
# Static dielectric constant tensor:
#      x y z
#    x 3.304840 0.000000 0.152750 
#    y 0.000000 3.521140 0.000000 
#    z 0.152750 0.000000 3.735940 
# 
# 
# High freq. dielectric constant tensor:
#      x y z
#    x 1.735830 0.000000 0.017860 
#    y 0.000000 1.750270 0.000000 
#    z 0.017860 0.000000 1.778860 
# 
# From -- ./inp_files/71241.got.cif
#   From: 2010.06.25/outbox.cif.g09.slc.cpg/sg12_36_cif.got.tgz:71241.got - 2010.06.28 00:19:55.
