data_PCOD8088790
_publ_section_title
;
Structure prediction by ZEFSAII (Michael W. Deem and Ramdas Pophale) SiO2 
 PCOD8088790
Probable space group: C 2/M
;
_chemical_formula_sum "Si O2"
_cell_formula_units_Z 64
_cell_length_a 29.673828
_cell_length_b 9.270607
_cell_length_c 23.185533
_cell_angle_alpha 90.000000
_cell_angle_beta 148.871691
_cell_angle_gamma 90.000000
_cell_volume 3297.256184
_symmetry_space_group_name_H-M "C 2/M"
_symmetry_group_IT_number 12
_symmetry_cell_setting 'monoclinic'
loop_
_space_group_symop_operation_xyz
x,y,z
-x,y,-z
-x,-y,-z
x,-y,z
1/2+x,1/2+y,z
1/2-x,1/2+y,-z
1/2-x,1/2-y,-z
1/2+x,1/2-y,z
loop_
_atom_site_type_symbol
_atom_site_label
_atom_site_fract_x
_atom_site_fract_y
_atom_site_fract_z
Si Si1 0.832638 0.333181 0.741584
Si Si2 0.836218 0.332964 0.878224
Si Si3 0.669074 0.838366 0.887120
Si Si4 0.803359 0.343299 0.215213
Si Si5 0.008025 0.833622 0.322862
Si Si6 0.456801 0.344825 0.391887
Si Si7 0.001068 0.838680 0.069806
Si Si8 0.799723 0.169452 0.502842
O O1 0.859261 0.500000 0.764956
O O2 0.813545 0.293586 0.787216
O O3 0.914325 0.237472 0.810461
O O4 0.749539 0.295345 0.611309
O O5 0.856105 0.500000 0.906877
O O6 0.756194 0.285852 0.828862
O O7 0.916546 0.249771 0.995343
O O8 0.698354 0.855523 0.854255
O O9 0.575455 0.757527 0.791572
O O10 0.661011 0.000000 0.905749
O O11 0.750000 0.750000 0.000000
O O12 0.780631 0.500000 0.218109
O O13 0.899022 0.295380 0.338038
O O14 0.099234 0.779720 0.393633
O O15 0.019223 0.816636 0.404696
O O16 0.992160 0.000000 0.288283
O O17 0.500000 0.366226 0.500000
O O18 0.408653 0.500000 0.326121
O O19 0.996386 0.000000 0.089983
O O20 0.000000 0.839109 0.000000
O O21 0.750000 0.250000 0.500000
O O22 0.795739 0.000000 0.511626
#
# Coordination Sequence:
#
# PCOD8088790 Si02
#       8
#     8   8   8   8   8   8   8   8
#     4   9  19  35  56  79 107 145 190 235 282 333
#     4  10  19  32  55  82 111 145 186 229 276 335
#     4  10  21  39  62  85 113 148 188 232 281 339
#     4  10  21  35  51  80 118 146 177 224 277 332
#     4   9  19  37  60  85 115 150 188 235 286 332
#     4   9  18  32  56  84 112 147 187 223 268 333
#     4   9  17  31  51  76 109 143 179 223 276 332
#     4  10  22  40  60  83 114 150 193 243 287 335
#
# _framework density 19.410077999999999
#
# number of rings (size 3 to 8) (size 9 to 14) (size 15 to 20)
#    0.000    2.500    0.000    1.500    1.750    4.750 
#    2.250    0.000    0.000    0.000    0.000    0.000 
#    0.000    0.000    0.000    0.000    0.000    0.000 
#
# Total GULP energy -396436.573292 kJ/mol
# GULP energy per Si atom -12388.642915 kJ/mol
# Density = 1.936590 g / cm^3
# Si number density = 19.410078 Si / 1000 Ang^3
#
#
#
# Elastic Constant Matrix: (Units=GPa)
#
#
# Indices 1 2 3 4 5 6 
#
# 1 53.7674 43.4522 48.0707 0.0000 53.1973 0.0000
# 2 43.4522 107.4136 65.4890 0.0000 10.3249 0.0000
# 3 48.0707 65.4890 123.5289 0.0000 16.6402 0.0000
# 4 0.0000 0.0000 0.0000 33.8481 0.0000 6.5616
# 5 53.1973 10.3249 16.6402 0.0000 -6.5200 0.0000
# 6 0.0000 0.0000 0.0000 6.5616 0.0000 30.5962
#
#
#
# Elastic Compliance Matrix: (Units=1/GPa)
#
#
# Indices 1 2 3 4 5 6 
#
# 1 0.003637 -0.001295 -0.003311 0.000000 0.019172 0.000000
# 2 -0.001295 0.014169 -0.006405 0.000000 -0.004477 0.000000
# 3 -0.003311 -0.006405 0.013235 0.000000 -0.003381 0.000000
# 4 0.000000 0.000000 0.000000 0.030825 0.000000 -0.006611
# 5 0.019172 -0.004477 -0.003381 0.000000 -0.012666 0.000000
# 6 0.000000 0.000000 0.000000 -0.006611 0.000000 0.034102
#
#
# Mechanical properties :
#
#
# Convention : Reuss Voigt Hill
#
# Bulk Modulus (GPa) = 110.88486 66.52599 88.70543
# Shear Modulus (GPa) = 46.15521 20.09805 33.12663
#
# Velocity S-wave (km/s) = 4.88166 3.22132 4.13567
# Velocity P-wave (km/s) = 9.43534 6.94149 8.28281
#
# Compressibility (1/GPa) = 0.00901836
#
# Stress axis : x y z
#
# Youngs Moduli (GPa) = 274.95509 70.57693 75.55910
#
# Poissons Ratio (x) = 0.09142 0.25019
# Poissons Ratio (y) = 0.35616 0.48392
# Poissons Ratio (z) = 0.91043 0.45201
#
# Static dielectric constant tensor:
#      x y z
#    x 3.398870 0.000000 0.121120 
#    y 0.000000 3.995960 0.000000 
#    z 0.121120 0.000000 3.508850 
# 
# 
# High freq. dielectric constant tensor:
#      x y z
#    x 1.740380 0.000000 0.007870 
#    y 0.000000 1.765170 0.000000 
#    z 0.007870 0.000000 1.747760 
# 
# From -- ./inp_files/353574.got.cif
#   From: 2010.06.25/outbox.cif.g09.slc.cpg/sg12_177_cif.got.tgz:353574.got - 2010.06.28 00:19:55.
