data_PCOD8088465
_publ_section_title
;
Structure prediction by ZEFSAII (Michael W. Deem and Ramdas Pophale) SiO2 
 PCOD8088465
Probable space group: C 2/M
;
_chemical_formula_sum "Si O2"
_cell_formula_units_Z 64
_cell_length_a 29.697923
_cell_length_b 8.740627
_cell_length_c 12.616987
_cell_angle_alpha 90.000000
_cell_angle_beta 78.270731
_cell_angle_gamma 90.000000
_cell_volume 3206.711125
_symmetry_space_group_name_H-M "C 2/M"
_symmetry_group_IT_number 12
_symmetry_cell_setting 'monoclinic'
loop_
_space_group_symop_operation_xyz
x,y,z
-x,y,-z
-x,-y,-z
x,-y,z
1/2+x,1/2+y,z
1/2-x,1/2+y,-z
1/2-x,1/2-y,-z
1/2+x,1/2-y,z
loop_
_atom_site_type_symbol
_atom_site_label
_atom_site_fract_x
_atom_site_fract_y
_atom_site_fract_z
Si Si1 0.146431 0.321138 0.892713
Si Si2 0.399388 0.179666 0.869598
Si Si3 0.627907 0.820315 0.497218
Si Si4 0.541360 0.834902 0.406935
Si Si5 0.989898 0.176741 0.776356
Si Si6 0.248628 0.322282 0.886495
Si Si7 0.337467 0.318333 0.719935
Si Si8 0.594619 0.320136 0.725371
O O1 0.135047 0.500000 0.880569
O O2 0.200378 0.286515 0.852227
O O3 0.119216 0.219126 0.822666
O O4 0.131388 0.264987 0.016989
O O5 0.452348 0.232895 0.865953
O O6 0.380236 0.249286 0.767603
O O7 0.396565 0.000000 0.862997
O O8 0.580851 0.773920 0.463651
O O9 0.665081 0.742077 0.400692
O O10 0.624999 0.754362 0.617100
O O11 0.637646 0.000000 0.500588
O O12 0.500000 0.876352 0.500000
O O13 0.527614 0.700452 0.334431
O O14 0.554709 0.000000 0.344184
O O15 0.041974 0.242570 0.759722
O O16 0.988718 0.000000 0.809327
O O17 0.254939 0.500000 0.901825
O O18 0.289993 0.259207 0.794531
O O19 0.250000 0.250000 0.000000
O O20 0.341933 0.500000 0.718319
O O21 0.593378 0.500000 0.706062
#
# Coordination Sequence:
#
# PCOD8088465 Si02
#       8
#     8   8   8   8   8   8   8   8
#     4  10  23  43  64  87 118 158 204 248 295 359
#     4  11  22  37  60  89 122 157 199 249 298 357
#     4  11  22  37  60  88 122 161 202 249 297 355
#     4  10  19  32  53  81 112 150 198 245 289 345
#     4  11  23  36  55  85 122 159 198 248 301 354
#     4  10  21  39  65  95 124 154 194 246 303 361
#     4  11  22  36  60  95 128 155 190 247 309 358
#     4  11  25  42  60  85 120 164 208 249 297 356
#
# _framework density 19.958143
#
# number of rings (size 3 to 8) (size 9 to 14) (size 15 to 20)
#    0.000    1.375    3.750    1.875    0.000    4.750 
#    0.000    3.125    0.000    0.000    0.000    0.000 
#    0.000    0.000    0.000    0.000    0.000    0.000 
#
# Total GULP energy -396662.256693 kJ/mol
# GULP energy per Si atom -12395.695522 kJ/mol
# Density = 1.991272 g / cm^3
# Si number density = 19.958143 Si / 1000 Ang^3
#
#
#
# Elastic Constant Matrix: (Units=GPa)
#
#
# Indices 1 2 3 4 5 6 
#
# 1 91.3584 29.3239 34.8621 0.0000 -20.0673 0.0000
# 2 29.3239 69.3174 29.7685 0.0000 -4.8675 0.0000
# 3 34.8621 29.7685 97.3487 0.0000 -16.8518 0.0000
# 4 0.0000 0.0000 0.0000 34.8209 0.0000 -0.1060
# 5 -20.0673 -4.8675 -16.8518 0.0000 34.3728 0.0000
# 6 0.0000 0.0000 0.0000 -0.1060 0.0000 26.4613
#
#
#
# Elastic Compliance Matrix: (Units=1/GPa)
#
#
# Indices 1 2 3 4 5 6 
#
# 1 0.014981 -0.004675 -0.002771 0.000000 0.006726 0.000000
# 2 -0.004675 0.018067 -0.004240 0.000000 -0.002250 0.000000
# 3 -0.002771 -0.004240 0.013307 0.000000 0.004306 0.000000
# 4 0.000000 0.000000 0.000000 0.028719 0.000000 0.000115
# 5 0.006726 -0.002250 0.004306 0.000000 0.034812 0.000000
# 6 0.000000 0.000000 0.000000 0.000115 0.000000 0.037792
#
#
# Mechanical properties :
#
#
# Convention : Reuss Voigt Hill
#
# Bulk Modulus (GPa) = 43.51179 49.54818 46.52998
# Shear Modulus (GPa) = 27.97822 30.06899 29.02361
#
# Velocity S-wave (km/s) = 3.74818 3.88571 3.81757
# Velocity P-wave (km/s) = 6.37030 6.70907 6.54188
#
# Compressibility (1/GPa) = 0.02298228
#
# Stress axis : x y z
#
# Youngs Moduli (GPa) = 66.74964 55.34920 75.15082
#
# Poissons Ratio (x) = 0.25878 0.20825
# Poissons Ratio (y) = 0.31208 0.31863
# Poissons Ratio (z) = 0.18497 0.23468
#
# Static dielectric constant tensor:
#      x y z
#    x 3.827250 0.000000 -0.386180 
#    y 0.000000 3.538010 0.000000 
#    z -0.386180 0.000000 3.677800 
# 
# 
# High freq. dielectric constant tensor:
#      x y z
#    x 1.776180 0.000000 -0.024030 
#    y 0.000000 1.777910 0.000000 
#    z -0.024030 0.000000 1.776150 
# 
# From -- ./inp_files/187522.got.cif
#   From: 2010.06.25/outbox.cif.g09.slc.cpg/sg12_94_cif.got.tgz:187522.got - 2010.06.28 00:19:55.
