data_PCOD8088598
_publ_section_title
;
Structure prediction by ZEFSAII (Michael W. Deem and Ramdas Pophale) SiO2 
 PCOD8088598
Probable space group: C 2/M
;
_chemical_formula_sum "Si O2"
_cell_formula_units_Z 64
_cell_length_a 22.360225
_cell_length_b 9.311181
_cell_length_c 21.074066
_cell_angle_alpha 90.000000
_cell_angle_beta 128.299923
_cell_angle_gamma 90.000000
_cell_volume 3443.306268
_symmetry_space_group_name_H-M "C 2/M"
_symmetry_group_IT_number 12
_symmetry_cell_setting 'monoclinic'
loop_
_space_group_symop_operation_xyz
x,y,z
-x,y,-z
-x,-y,-z
x,-y,z
1/2+x,1/2+y,z
1/2-x,1/2+y,-z
1/2-x,1/2-y,-z
1/2+x,1/2-y,z
loop_
_atom_site_type_symbol
_atom_site_label
_atom_site_fract_x
_atom_site_fract_y
_atom_site_fract_z
Si Si1 0.341049 0.334306 0.254853
Si Si2 0.164852 0.340015 0.876772
Si Si3 0.362431 0.832066 0.538208
Si Si4 0.000862 0.166085 0.573280
Si Si5 0.657197 0.659706 0.987102
Si Si6 0.188868 0.332730 0.227283
Si Si7 0.275614 0.834318 0.607305
Si Si8 0.086784 0.831759 0.068840
O O1 0.333294 0.500000 0.229274
O O2 0.349684 0.240316 0.198062
O O3 0.414171 0.308432 0.346331
O O4 0.267903 0.283344 0.246827
O O5 0.130102 0.500000 0.848707
O O6 0.252526 0.348288 0.952851
O O7 0.124352 0.255229 0.907821
O O8 0.443391 0.759177 0.577892
O O9 0.340161 0.804149 0.596971
O O10 0.298260 0.763469 0.451275
O O11 0.368032 0.000000 0.526498
O O12 0.000000 0.218109 0.500000
O O13 0.976244 0.000000 0.562301
O O14 0.622218 0.500000 0.956070
O O15 0.631525 0.727110 0.036882
O O16 0.175320 0.500000 0.207226
O O17 0.189486 0.294193 0.301880
O O18 0.117905 0.248381 0.151073
O O19 0.248722 0.000000 0.587633
O O20 0.100130 0.000000 0.087983
O O21 0.000000 0.791883 0.000000
#
# Coordination Sequence:
#
# PCOD8088598 Si02
#       8
#     8   8   8   8   8   8   8   8
#     4  10  20  34  55  81 107 142 184 226 273 327
#     4  10  19  32  54  80 104 137 176 223 271 316
#     4  10  20  35  57  85 116 147 185 230 272 320
#     4  10  21  38  58  80 112 151 187 224 274 333
#     4   9  18  34  54  76 106 139 174 216 267 326
#     4  10  20  36  59  82 106 140 186 230 268 322
#     4   9  19  37  59  82 112 150 186 224 272 325
#     4  10  21  38  57  79 110 143 176 223 278 328
#
# _framework density 18.586786
#
# number of rings (size 3 to 8) (size 9 to 14) (size 15 to 20)
#    0.000    2.250    1.250    1.500    0.000    5.000 
#    2.250    1.250    0.000    0.000    0.000    0.000 
#    0.000    0.000    0.000    0.000    0.000    0.000 
#
# Total GULP energy -396859.096885 kJ/mol
# GULP energy per Si atom -12401.846778 kJ/mol
# Density = 1.854448 g / cm^3
# Si number density = 18.586786 Si / 1000 Ang^3
#
#
#
# Elastic Constant Matrix: (Units=GPa)
#
#
# Indices 1 2 3 4 5 6 
#
# 1 69.3104 36.7788 49.8389 0.0000 -5.1323 0.0000
# 2 36.7788 81.8302 63.4623 0.0000 -7.2031 0.0000
# 3 49.8389 63.4623 132.5030 0.0000 -18.5119 0.0000
# 4 0.0000 0.0000 0.0000 -8.1205 0.0000 -29.0938
# 5 -5.1323 -7.2031 -18.5119 0.0000 31.6041 0.0000
# 6 0.0000 0.0000 0.0000 -29.0938 0.0000 6.4495
#
#
#
# Elastic Compliance Matrix: (Units=1/GPa)
#
#
# Indices 1 2 3 4 5 6 
#
# 1 0.021161 -0.005277 -0.005576 0.000000 -0.001033 0.000000
# 2 -0.005277 0.020794 -0.008094 0.000000 -0.000859 0.000000
# 3 -0.005576 -0.008094 0.014308 0.000000 0.005630 0.000000
# 4 0.000000 0.000000 0.000000 -0.007176 0.000000 -0.032369
# 5 -0.001033 -0.000859 0.005630 0.000000 0.034576 0.000000
# 6 0.000000 0.000000 0.000000 -0.032369 0.000000 0.009035
#
#
# Mechanical properties :
#
#
# Convention : Reuss Voigt Hill
#
# Bulk Modulus (GPa) = 54.44389 64.86707 59.65548
# Shear Modulus (GPa) = 36.57191 14.89087 25.73139
#
# Velocity S-wave (km/s) = 4.44061 2.83354 3.72478
# Velocity P-wave (km/s) = 7.45971 6.75874 7.11786
#
# Compressibility (1/GPa) = 0.01836753
#
# Stress axis : x y z
#
# Youngs Moduli (GPa) = 47.25571 48.09023 69.89207
#
# Poissons Ratio (x) = 0.25379 0.38973
# Poissons Ratio (y) = 0.24939 0.56573
# Poissons Ratio (z) = 0.26351 0.38926
#
# Static dielectric constant tensor:
#      x y z
#    x 3.426640 0.000000 -0.181050 
#    y 0.000000 3.516230 0.000000 
#    z -0.181050 0.000000 3.330260 
# 
# 
# High freq. dielectric constant tensor:
#      x y z
#    x 1.717570 0.000000 -0.014710 
#    y 0.000000 1.720180 0.000000 
#    z -0.014710 0.000000 1.718190 
# 
# From -- ./inp_files/324307.got.cif
#   From: 2010.06.25/outbox.cif.g09.slc.cpg/sg12_163_cif.got.tgz:324307.got - 2010.06.28 00:19:55.
