data_PCOD8088328
_publ_section_title
;
Structure prediction by ZEFSAII (Michael W. Deem and Ramdas Pophale) SiO2 
 PCOD8088328
Probable space group: C 2/M
;
_chemical_formula_sum "Si O2"
_cell_formula_units_Z 56
_cell_length_a 14.518904
_cell_length_b 8.698379
_cell_length_c 26.278227
_cell_angle_alpha 90.000000
_cell_angle_beta 65.856113
_cell_angle_gamma 90.000000
_cell_volume 3028.385473
_symmetry_space_group_name_H-M "C 2/M"
_symmetry_group_IT_number 12
_symmetry_cell_setting 'monoclinic'
loop_
_space_group_symop_operation_xyz
x,y,z
-x,y,-z
-x,-y,-z
x,-y,z
1/2+x,1/2+y,z
1/2-x,1/2+y,-z
1/2-x,1/2-y,-z
1/2+x,1/2-y,z
loop_
_atom_site_type_symbol
_atom_site_label
_atom_site_fract_x
_atom_site_fract_y
_atom_site_fract_z
Si Si1 0.042754 0.181863 0.436419
Si Si2 0.668806 0.317195 0.267404
Si Si3 0.266104 0.182135 0.142092
Si Si4 0.976959 0.323132 0.059811
Si Si5 0.033514 0.682689 0.647948
Si Si6 0.258476 0.818906 0.352242
Si Si7 0.687483 0.823023 0.059834
O O1 0.976261 0.261216 0.407801
O O2 0.000000 0.237341 0.500000
O O3 0.160040 0.233608 0.406682
O O4 0.032683 0.000000 0.431115
O O5 0.656175 0.500000 0.269842
O O6 0.718992 0.251233 0.204626
O O7 0.557936 0.245240 0.297228
O O8 0.740886 0.265295 0.297853
O O9 0.378872 0.250708 0.108781
O O10 0.200773 0.233308 0.108978
O O11 0.266571 0.000000 0.145856
O O12 0.950451 0.500000 0.054408
O O13 0.069524 0.304423 0.076455
O O14 0.000000 0.242808 0.000000
O O15 0.032202 0.500000 0.649579
O O16 0.138504 0.750531 0.647522
O O17 0.268560 0.000000 0.352028
O O18 0.719707 0.000000 0.057828
O O19 0.750000 0.750000 0.000000
#
# Coordination Sequence:
#
# PCOD8088328 Si02
#       7
#     8   8   8   8   8   8   8
#     4   9  18  34  54  76 106 143 179 210 248 306
#     4   9  19  36  55  73  99 136 175 212 254 310
#     4  10  20  36  56  76 100 133 172 212 254 304
#     4   9  17  32  53  74  98 131 167 197 241 313
#     4  10  19  32  53  78 106 136 171 219 261 296
#     4   8  16  32  52  74 101 137 175 209 253 305
#     4  11  21  34  54  77 102 131 164 204 250 304
#
# _framework density 18.491702
#
# number of rings (size 3 to 8) (size 9 to 14) (size 15 to 20)
#    0.000    2.571    1.429    1.714    0.000    2.571 
#    0.000   10.714    0.000    0.000    0.000    0.000 
#    0.000    0.000    0.000    0.000    0.000    0.000 
#
# Total GULP energy -347107.542764 kJ/mol
# GULP energy per Si atom -12396.697956 kJ/mol
# Density = 1.844961 g / cm^3
# Si number density = 18.491702 Si / 1000 Ang^3
#
#
#
# Elastic Constant Matrix: (Units=GPa)
#
#
# Indices 1 2 3 4 5 6 
#
# 1 149.3689 17.5521 84.2461 0.0000 -5.1595 0.0000
# 2 17.5521 21.9806 22.2575 0.0000 -1.7091 0.0000
# 3 84.2461 22.2575 194.3309 0.0000 0.9374 0.0000
# 4 0.0000 0.0000 0.0000 22.4001 0.0000 3.6338
# 5 -5.1595 -1.7091 0.9374 0.0000 20.9204 0.0000
# 6 0.0000 0.0000 0.0000 3.6338 0.0000 26.6153
#
#
#
# Elastic Compliance Matrix: (Units=1/GPa)
#
#
# Indices 1 2 3 4 5 6 
#
# 1 0.009216 -0.003548 -0.003599 0.000000 0.002144 0.000000
# 2 -0.003548 0.053250 -0.004579 0.000000 0.003680 0.000000
# 3 -0.003599 -0.004579 0.007238 0.000000 -0.001586 0.000000
# 4 0.000000 0.000000 0.000000 0.045654 0.000000 -0.006233
# 5 0.002144 0.003680 -0.001586 0.000000 0.048701 0.000000
# 6 0.000000 0.000000 0.000000 -0.006233 0.000000 0.038423
#
#
# Mechanical properties :
#
#
# Convention : Reuss Voigt Hill
#
# Bulk Modulus (GPa) = 21.62025 68.19910 44.90967
# Shear Modulus (GPa) = 20.71669 30.09548 25.40608
#
# Velocity S-wave (km/s) = 3.35075 4.03862 3.71066
# Velocity P-wave (km/s) = 5.16598 7.66213 6.53435
#
# Compressibility (1/GPa) = 0.04625294
#
# Stress axis : x y z
#
# Youngs Moduli (GPa) = 108.50916 18.77925 138.15476
#
# Poissons Ratio (x) = 0.06662 0.49725
# Poissons Ratio (y) = 0.38497 0.63257
# Poissons Ratio (z) = 0.39055 0.08598
#
# Static dielectric constant tensor:
#      x y z
#    x 3.616980 0.000000 -0.089640 
#    y 0.000000 3.115280 0.000000 
#    z -0.089640 0.000000 3.640520 
# 
# 
# High freq. dielectric constant tensor:
#      x y z
#    x 1.725290 0.000000 -0.002500 
#    y 0.000000 1.686390 0.000000 
#    z -0.002500 0.000000 1.723270 
# 
# From -- ./inp_files/359644.got.cif
#   From: 2010.06.25/outbox.cif.g09.slc.cpg/sg12_180_cif.got.tgz:359644.got - 2010.06.28 00:19:55.
