data_PCOD8088901
_publ_section_title
;
Structure prediction by ZEFSAII (Michael W. Deem and Ramdas Pophale) SiO2 
 PCOD8088901
Probable space group: C 2/M
;
_chemical_formula_sum "Si O2"
_cell_formula_units_Z 56
_cell_length_a 19.840849
_cell_length_b 18.421503
_cell_length_c 15.011251
_cell_angle_alpha 90.000000
_cell_angle_beta 146.277704
_cell_angle_gamma 90.000000
_cell_volume 3045.977757
_symmetry_space_group_name_H-M "C 2/M"
_symmetry_group_IT_number 12
_symmetry_cell_setting 'monoclinic'
loop_
_space_group_symop_operation_xyz
x,y,z
-x,y,-z
-x,-y,-z
x,-y,z
1/2+x,1/2+y,z
1/2-x,1/2+y,-z
1/2-x,1/2-y,-z
1/2+x,1/2-y,z
loop_
_atom_site_type_symbol
_atom_site_label
_atom_site_fract_x
_atom_site_fract_y
_atom_site_fract_z
Si Si1 0.857977 0.080434 0.325721
Si Si2 0.000628 0.418350 0.634321
Si Si3 0.392354 0.679164 0.208526
Si Si4 0.824880 0.826769 0.454672
Si Si5 0.712997 0.166734 0.650373
Si Si6 0.276707 0.825388 0.139377
Si Si7 0.782396 0.581943 0.507372
O O1 0.833614 0.114585 0.202002
O O2 0.796635 0.129089 0.333903
O O3 0.000000 0.077830 0.500000
O O4 0.800968 0.000000 0.265021
O O5 0.000599 0.500000 0.595408
O O6 0.138803 0.392546 0.797030
O O7 0.924816 0.364227 0.485244
O O8 0.928738 0.417271 0.650850
O O9 0.536204 0.670621 0.361421
O O10 0.358086 0.753649 0.219554
O O11 0.341189 0.676201 0.052456
O O12 0.784365 0.744831 0.393752
O O13 0.744081 0.863931 0.441483
O O14 0.773442 0.168037 0.814522
O O15 0.779734 0.112142 0.653425
O O16 0.734999 0.500000 0.474965
#
# Coordination Sequence:
#
# PCOD8088901 Si02
#       7
#     8   8   8   8   8   8   8
#     4   9  18  31  50  76 104 137 177 215 256 310
#     4   9  20  34  54  79 106 137 176 217 260 311
#     4  10  21  33  52  80 112 139 172 217 269 318
#     4  11  18  33  57  78 104 141 178 221 266 309
#     4  10  19  32  56  81 102 138 180 217 265 313
#     4  11  20  34  53  80 113 139 170 219 267 316
#     4   9  20  34  52  79 106 133 181 227 255 306
#
# _framework density 18.384899999999998
#
# number of rings (size 3 to 8) (size 9 to 14) (size 15 to 20)
#    0.857    1.286    2.857    1.286    0.000    2.857 
#    0.000    0.714    0.000    1.714    0.000    3.000 
#    0.000    0.000    0.000    0.000    0.000    0.000 
#
# Total GULP energy -346950.595998 kJ/mol
# GULP energy per Si atom -12391.092714 kJ/mol
# Density = 1.834306 g / cm^3
# Si number density = 18.384900 Si / 1000 Ang^3
#
#
#
# Elastic Constant Matrix: (Units=GPa)
#
#
# Indices 1 2 3 4 5 6 
#
# 1 64.1109 31.0515 27.0154 0.0000 -21.9019 0.0000
# 2 31.0515 139.2291 30.5899 0.0000 -15.7338 0.0000
# 3 27.0154 30.5899 61.6319 0.0000 -19.0452 0.0000
# 4 0.0000 0.0000 0.0000 11.5693 0.0000 -0.9823
# 5 -21.9019 -15.7338 -19.0452 0.0000 23.7901 0.0000
# 6 0.0000 0.0000 0.0000 -0.9823 0.0000 22.2529
#
#
#
# Elastic Compliance Matrix: (Units=1/GPa)
#
#
# Indices 1 2 3 4 5 6 
#
# 1 0.024603 -0.002602 -0.004020 0.000000 0.017711 0.000000
# 2 -0.002602 0.008483 -0.002759 0.000000 0.001006 0.000000
# 3 -0.004020 -0.002759 0.023450 0.000000 0.013248 0.000000
# 4 0.000000 0.000000 0.000000 0.086761 0.000000 0.003830
# 5 0.017711 0.001006 0.013248 0.000000 0.069611 0.000000
# 6 0.000000 0.000000 0.000000 0.003830 0.000000 0.045107
#
#
# Mechanical properties :
#
#
# Convention : Reuss Voigt Hill
#
# Bulk Modulus (GPa) = 26.47295 49.14283 37.80789
# Shear Modulus (GPa) = 17.27907 23.27678 20.27792
#
# Velocity S-wave (km/s) = 3.06902 3.56206 3.32470
# Velocity P-wave (km/s) = 5.19510 6.61103 5.94537
#
# Compressibility (1/GPa) = 0.03777440
#
# Stress axis : x y z
#
# Youngs Moduli (GPa) = 40.64580 117.88887 42.64322
#
# Poissons Ratio (x) = 0.30680 0.17141
# Poissons Ratio (y) = 0.10578 0.11764
# Poissons Ratio (z) = 0.16338 0.32522
#
# Static dielectric constant tensor:
#      x y z
#    x 3.147650 0.000000 -0.229530 
#    y 0.000000 3.623480 0.000000 
#    z -0.229530 0.000000 3.006000 
# 
# 
# High freq. dielectric constant tensor:
#      x y z
#    x 1.695620 0.000000 -0.030300 
#    y 0.000000 1.732940 0.000000 
#    z -0.030300 0.000000 1.673550 
# 
# From -- ./inp_files/169495.got.cif
#   From: 2010.06.25/outbox.cif.g09.slc.cpg/sg12_85_cif.got.tgz:169495.got - 2010.06.28 00:19:55.
