data_PCOD8088046
_publ_section_title
;
Structure prediction by ZEFSAII (Michael W. Deem and Ramdas Pophale) SiO2 
 PCOD8088046
Probable space group: C 2/M
;
_chemical_formula_sum "Si O2"
_cell_formula_units_Z 64
_cell_length_a 17.866584
_cell_length_b 14.166582
_cell_length_c 15.747970
_cell_angle_alpha 90.000000
_cell_angle_beta 127.409498
_cell_angle_gamma 90.000000
_cell_volume 3166.090756
_symmetry_space_group_name_H-M "C 2/M"
_symmetry_group_IT_number 12
_symmetry_cell_setting 'monoclinic'
loop_
_space_group_symop_operation_xyz
x,y,z
-x,y,-z
-x,-y,-z
x,-y,z
1/2+x,1/2+y,z
1/2-x,1/2+y,-z
1/2-x,1/2-y,-z
1/2+x,1/2-y,z
loop_
_atom_site_type_symbol
_atom_site_label
_atom_site_fract_x
_atom_site_fract_y
_atom_site_fract_z
Si Si1 0.731016 0.106624 0.135282
Si Si2 0.245803 0.607370 0.442254
Si Si3 0.963098 0.391172 0.063231
Si Si4 0.970855 0.608965 0.712422
Si Si5 0.942333 0.107454 0.277427
Si Si6 0.439884 0.216036 0.378088
Si Si7 0.258923 0.754296 0.709059
Si Si8 0.373779 0.391821 0.693233
O O1 0.835656 0.124450 0.168771
O O2 0.703539 0.176195 0.192641
O O3 0.725209 0.000000 0.167654
O O4 0.650806 0.121137 0.008392
O O5 0.261144 0.500000 0.420866
O O6 0.278084 0.681173 0.393832
O O7 0.306776 0.627802 0.567096
O O8 0.136652 0.626088 0.388368
O O9 0.993894 0.500000 0.082987
O O10 0.010057 0.346360 0.180417
O O11 0.000000 0.344678 0.000000
O O12 0.999079 0.500000 0.731890
O O13 0.036560 0.658127 0.689447
O O14 0.957373 0.172979 0.370294
O O15 0.018004 0.131994 0.256364
O O16 0.958163 0.000000 0.318728
O O17 0.500000 0.182819 0.500000
O O18 0.330925 0.194652 0.322168
O O19 0.341532 0.680042 0.744169
O O20 0.364324 0.500000 0.718094
#
# Coordination Sequence:
#
# PCOD8088046 Si02
#       8
#     8   8   8   8   8   8   8   8
#     4   9  18  33  54  80 104 127 164 219 278 324
#     4  10  19  32  52  77 104 137 179 225 270 313
#     4   9  17  32  56  84 109 134 170 221 278 323
#     4  10  21  36  55  80 111 144 175 213 265 325
#     4   9  19  35  52  73 103 140 183 227 268 307
#     4  11  22  34  51  78 112 148 180 213 258 317
#     4  11  20  31  50  75 105 141 177 217 263 315
#     4  10  20  33  50  73 105 146 185 219 256 307
#
# _framework density 20.214202
#
# number of rings (size 3 to 8) (size 9 to 14) (size 15 to 20)
#    0.000    2.125    0.000    3.750    0.000    3.500 
#    0.000    2.500    0.000    1.500    0.000    0.875 
#    0.000    9.000    0.000    0.000    0.000    0.000 
#
# Total GULP energy -396724.258923 kJ/mol
# GULP energy per Si atom -12397.633091 kJ/mol
# Density = 2.016819 g / cm^3
# Si number density = 20.214202 Si / 1000 Ang^3
#
#
#
# Elastic Constant Matrix: (Units=GPa)
#
#
# Indices 1 2 3 4 5 6 
#
# 1 141.6688 52.2752 42.2797 0.0000 1.3549 0.0000
# 2 52.2752 64.7303 24.8309 0.0000 -3.5254 0.0000
# 3 42.2797 24.8309 64.3465 0.0000 3.4504 0.0000
# 4 0.0000 0.0000 0.0000 16.4611 0.0000 -7.1563
# 5 1.3549 -3.5254 3.4504 0.0000 28.7389 0.0000
# 6 0.0000 0.0000 0.0000 -7.1563 0.0000 30.6972
#
#
#
# Elastic Compliance Matrix: (Units=1/GPa)
#
#
# Indices 1 2 3 4 5 6 
#
# 1 0.011079 -0.007302 -0.004414 0.000000 -0.000888 0.000000
# 2 -0.007302 0.023222 -0.004362 0.000000 0.003717 0.000000
# 3 -0.004414 -0.004362 0.020273 0.000000 -0.002761 0.000000
# 4 0.000000 0.000000 0.000000 0.067600 0.000000 0.015759
# 5 -0.000888 0.003717 -0.002761 0.000000 0.035625 0.000000
# 6 0.000000 0.000000 0.000000 0.015759 0.000000 0.036250
#
#
# Mechanical properties :
#
#
# Convention : Reuss Voigt Hill
#
# Bulk Modulus (GPa) = 44.61105 56.61302 50.61204
# Shear Modulus (GPa) = 21.39687 25.27010 23.33348
#
# Velocity S-wave (km/s) = 3.25700 3.53953 3.40120
# Velocity P-wave (km/s) = 6.02172 6.69117 6.36525
#
# Compressibility (1/GPa) = 0.02241597
#
# Stress axis : x y z
#
# Youngs Moduli (GPa) = 90.25983 43.06288 49.32756
#
# Poissons Ratio (x) = 0.31446 0.21774
# Poissons Ratio (y) = 0.65912 0.21518
# Poissons Ratio (z) = 0.39842 0.18785
#
# Static dielectric constant tensor:
#      x y z
#    x 3.810540 0.000000 0.165390 
#    y 0.000000 3.672910 0.000000 
#    z 0.165390 0.000000 3.464040 
# 
# 
# High freq. dielectric constant tensor:
#      x y z
#    x 1.797170 0.000000 0.018720 
#    y 0.000000 1.779940 0.000000 
#    z 0.018720 0.000000 1.761230 
# 
# From -- ./inp_files/225322.got.cif
#   From: 2010.06.25/outbox.cif.g09.slc.cpg/sg12_113_cif.got.tgz:225322.got - 2010.06.28 00:19:55.
