data_PCOD8088524
_publ_section_title
;
Structure prediction by ZEFSAII (Michael W. Deem and Ramdas Pophale) SiO2 
 PCOD8088524
Probable space group: C 2/M
;
_chemical_formula_sum "Si O2"
_cell_formula_units_Z 64
_cell_length_a 28.890710
_cell_length_b 13.704084
_cell_length_c 9.593325
_cell_angle_alpha 90.000000
_cell_angle_beta 61.959969
_cell_angle_gamma 90.000000
_cell_volume 3352.361458
_symmetry_space_group_name_H-M "C 2/M"
_symmetry_group_IT_number 12
_symmetry_cell_setting 'monoclinic'
loop_
_space_group_symop_operation_xyz
x,y,z
-x,y,-z
-x,-y,-z
x,-y,z
1/2+x,1/2+y,z
1/2-x,1/2+y,-z
1/2-x,1/2-y,-z
1/2+x,1/2-y,z
loop_
_atom_site_type_symbol
_atom_site_label
_atom_site_fract_x
_atom_site_fract_y
_atom_site_fract_z
Si Si1 0.779687 0.603642 0.215509
Si Si2 0.350673 0.240316 0.688129
Si Si3 0.144125 0.886985 0.079998
Si Si4 0.261502 0.107014 0.930554
Si Si5 0.798093 0.188296 0.490208
Si Si6 0.050399 0.386948 0.515700
Si Si7 0.552298 0.889297 0.837104
Si Si8 0.365308 0.737950 0.157132
O O1 0.809784 0.500000 0.183793
O O2 0.731972 0.598465 0.395420
O O3 0.820291 0.689797 0.170034
O O4 0.750393 0.614546 0.110480
O O5 0.365640 0.336950 0.755723
O O6 0.301959 0.189088 0.831713
O O7 0.333190 0.257033 0.555204
O O8 0.400732 0.171198 0.614914
O O9 0.125555 0.000000 0.115029
O O10 0.204492 0.879031 0.942757
O O11 0.112989 0.827450 0.002152
O O12 0.283983 0.000000 0.857950
O O13 0.750000 0.250000 0.500000
O O14 0.839447 0.164583 0.308626
O O15 0.062140 0.500000 0.471529
O O16 0.040182 0.366064 0.693046
O O17 0.000000 0.352168 0.500000
O O18 0.590141 0.805685 0.841032
O O19 0.575757 0.000000 0.817486
O O20 0.500000 0.882158 0.000000
#
# Coordination Sequence:
#
# PCOD8088524 Si02
#       8
#     8   8   8   8   8   8   8   8
#     4  10  19  32  53  84 119 155 197 239 287 354
#     4  12  20  38  60  84 120 162 201 242 299 355
#     4  11  24  38  57  84 119 160 209 254 286 342
#     4  10  19  32  53  85 118 155 198 241 291 348
#     4  10  21  33  53  81 116 157 197 237 288 344
#     4  10  23  41  62  95 126 151 191 242 298 365
#     4  10  22  40  63  93 124 151 186 237 302 369
#     4  11  21  39  56  84 118 160 197 240 301 358
#
# _framework density 19.091021000000001
#
# number of rings (size 3 to 8) (size 9 to 14) (size 15 to 20)
#    0.000    1.500    3.750    2.625    1.750    0.500 
#    0.000    1.875    0.000    0.750    0.000    0.000 
#    0.000    0.000    0.000    0.000    0.000    0.000 
#
# Total GULP energy -396521.169122 kJ/mol
# GULP energy per Si atom -12391.286535 kJ/mol
# Density = 1.904757 g / cm^3
# Si number density = 19.091021 Si / 1000 Ang^3
#
#
#
# Elastic Constant Matrix: (Units=GPa)
#
#
# Indices 1 2 3 4 5 6 
#
# 1 85.8823 29.8376 24.1423 0.0000 18.5326 0.0000
# 2 29.8376 87.6200 26.8622 0.0000 13.7413 0.0000
# 3 24.1423 26.8622 81.3777 0.0000 15.7374 0.0000
# 4 0.0000 0.0000 0.0000 24.5323 0.0000 2.1430
# 5 18.5326 13.7413 15.7374 0.0000 29.1811 0.0000
# 6 0.0000 0.0000 0.0000 2.1430 0.0000 22.7726
#
#
#
# Elastic Compliance Matrix: (Units=1/GPa)
#
#
# Indices 1 2 3 4 5 6 
#
# 1 0.014835 -0.003386 -0.001976 0.000000 -0.006761 0.000000
# 2 -0.003386 0.013938 -0.003062 0.000000 -0.002762 0.000000
# 3 -0.001976 -0.003062 0.014920 0.000000 -0.005350 0.000000
# 4 0.000000 0.000000 0.000000 0.041100 0.000000 -0.003868
# 5 -0.006761 -0.002762 -0.005350 0.000000 0.042748 0.000000
# 6 0.000000 0.000000 0.000000 -0.003868 0.000000 0.044276
#
#
# Mechanical properties :
#
#
# Convention : Reuss Voigt Hill
#
# Bulk Modulus (GPa) = 37.25108 46.28490 41.76799
# Shear Modulus (GPa) = 25.30200 26.89975 26.10087
#
# Velocity S-wave (km/s) = 3.64446 3.75777 3.70155
# Velocity P-wave (km/s) = 6.10444 6.56694 6.33991
#
# Compressibility (1/GPa) = 0.02684486
#
# Stress axis : x y z
#
# Youngs Moduli (GPa) = 67.41023 71.74765 67.02455
#
# Poissons Ratio (x) = 0.24290 0.13243
# Poissons Ratio (y) = 0.22822 0.20525
# Poissons Ratio (z) = 0.13319 0.21971
#
# Static dielectric constant tensor:
#      x y z
#    x 3.518300 0.000000 0.416520 
#    y 0.000000 3.587580 0.000000 
#    z 0.416520 0.000000 4.026250 
# 
# 
# High freq. dielectric constant tensor:
#      x y z
#    x 1.723960 0.000000 0.021770 
#    y 0.000000 1.735670 0.000000 
#    z 0.021770 0.000000 1.747250 
# 
# From -- ./inp_files/104525.got.cif
#   From: 2010.06.25/outbox.cif.g09.slc.cpg/sg12_53_cif.got.tgz:104525.got - 2010.06.28 00:19:55.
