data_PCOD8088196
_publ_section_title
;
Structure prediction by ZEFSAII (Michael W. Deem and Ramdas Pophale) SiO2 
 PCOD8088196
Probable space group: C 2/M
;
_chemical_formula_sum "Si O2"
_cell_formula_units_Z 56
_cell_length_a 13.959834
_cell_length_b 23.939353
_cell_length_c 9.044225
_cell_angle_alpha 90.000000
_cell_angle_beta 67.874938
_cell_angle_gamma 90.000000
_cell_volume 2799.920363
_symmetry_space_group_name_H-M "C 2/M"
_symmetry_group_IT_number 12
_symmetry_cell_setting 'monoclinic'
loop_
_space_group_symop_operation_xyz
x,y,z
-x,y,-z
-x,-y,-z
x,-y,z
1/2+x,1/2+y,z
1/2-x,1/2+y,-z
1/2-x,1/2-y,-z
1/2+x,1/2-y,z
loop_
_atom_site_type_symbol
_atom_site_label
_atom_site_fract_x
_atom_site_fract_y
_atom_site_fract_z
Si Si1 0.206619 0.562016 0.653810
Si Si2 0.080196 0.936325 0.320827
Si Si3 0.956186 0.866202 0.177728
Si Si4 0.926199 0.663804 0.314694
Si Si5 0.687837 0.267217 0.681045
Si Si6 0.733358 0.438030 0.720389
Si Si7 0.358212 0.164677 0.694210
O O1 0.165442 0.500000 0.716814
O O2 0.303307 0.578801 0.699521
O O3 0.111365 0.604836 0.731081
O O4 0.248788 0.563317 0.464149
O O5 0.000000 0.929923 0.500000
O O6 0.051546 0.889801 0.216767
O O7 0.075324 0.000000 0.262688
O O8 0.891435 0.818583 0.303411
O O9 0.883440 0.918879 0.181945
O O10 0.000000 0.840329 0.000000
O O11 0.877725 0.712242 0.238736
O O12 0.893702 0.667936 0.503973
O O13 0.050242 0.672220 0.240530
O O14 0.750000 0.250000 0.500000
O O15 0.768939 0.287349 0.761576
O O16 0.749873 0.500000 0.776046
O O17 0.812706 0.396566 0.755433
#
# Coordination Sequence:
#
# PCOD8088196 Si02
#       7
#     8   8   8   8   8   8   8
#     4   9  17  29  49  79 110 137 184 234 271 327
#     4  10  19  32  52  81 114 150 189 228 276 340
#     4  11  22  35  53  83 115 145 188 237 285 336
#     4   9  16  29  48  72 103 140 179 231 282 325
#     4   9  19  34  51  76 104 145 188 234 279 341
#     4   9  16  29  48  73 108 147 177 220 278 331
#     4   8  16  28  44  74 105 131 183 234 269 325
#
# _framework density 20.00057
#
# number of rings (size 3 to 8) (size 9 to 14) (size 15 to 20)
#    0.000    2.714    1.429    1.286    0.000    2.857 
#    2.571    2.857    0.000    7.714    0.000    0.000 
#    0.000   10.857    0.000    0.000    0.000    0.000 
#
# Total GULP energy -346955.844561 kJ/mol
# GULP energy per Si atom -12391.280163 kJ/mol
# Density = 1.995505 g / cm^3
# Si number density = 20.000570 Si / 1000 Ang^3
#
#
#
# Elastic Constant Matrix: (Units=GPa)
#
#
# Indices 1 2 3 4 5 6 
#
# 1 173.8771 98.5690 13.1043 0.0000 4.4827 0.0000
# 2 98.5690 158.4081 20.3633 0.0000 1.6210 0.0000
# 3 13.1043 20.3633 28.4938 0.0000 3.8791 0.0000
# 4 0.0000 0.0000 0.0000 9.5304 0.0000 -1.7849
# 5 4.4827 1.6210 3.8791 0.0000 8.0677 0.0000
# 6 0.0000 0.0000 0.0000 -1.7849 0.0000 35.2647
#
#
#
# Elastic Compliance Matrix: (Units=1/GPa)
#
#
# Indices 1 2 3 4 5 6 
#
# 1 0.009010 -0.005620 0.000428 0.000000 -0.004083 0.000000
# 2 -0.005620 0.010465 -0.005386 0.000000 0.003609 0.000000
# 3 0.000428 -0.005386 0.041338 0.000000 -0.019032 0.000000
# 4 0.000000 0.000000 0.000000 0.105932 0.000000 0.005362
# 5 -0.004083 0.003609 -0.019032 0.000000 0.134645 0.000000
# 6 0.000000 0.000000 0.000000 0.005362 0.000000 0.028628
#
#
# Mechanical properties :
#
#
# Convention : Reuss Voigt Hill
#
# Bulk Modulus (GPa) = 25.21496 69.42804 47.32150
# Shear Modulus (GPa) = 13.72145 25.82205 19.77175
#
# Velocity S-wave (km/s) = 2.62210 3.59704 3.14755
# Velocity P-wave (km/s) = 4.66923 7.21387 6.07625
#
# Compressibility (1/GPa) = 0.03965899
#
# Stress axis : x y z
#
# Youngs Moduli (GPa) = 110.98908 95.55631 24.19063
#
# Poissons Ratio (x) = 0.53699 -0.01036
# Poissons Ratio (y) = 0.62372 0.13029
# Poissons Ratio (z) = -0.04754 0.51465
#
# Static dielectric constant tensor:
#      x y z
#    x 4.210620 0.000000 -0.139890 
#    y 0.000000 3.998390 0.000000 
#    z -0.139890 0.000000 2.969270 
# 
# 
# High freq. dielectric constant tensor:
#      x y z
#    x 1.785820 0.000000 -0.010520 
#    y 0.000000 1.787750 0.000000 
#    z -0.010520 0.000000 1.710330 
# 
# From -- ./inp_files/65287.got.cif
#   From: 2010.06.25/outbox.cif.g09.slc.cpg/sg12_33_cif.got.tgz:65287.got - 2010.06.28 00:19:55.
