data_PCOD8088015
_publ_section_title
;
Structure prediction by ZEFSAII (Michael W. Deem and Ramdas Pophale) SiO2 
 PCOD8088015
Probable space group: C 2/M
;
_chemical_formula_sum "Si O2"
_cell_formula_units_Z 40
_cell_length_a 19.909202
_cell_length_b 9.582509
_cell_length_c 15.210418
_cell_angle_alpha 90.000000
_cell_angle_beta 48.841262
_cell_angle_gamma 90.000000
_cell_volume 2184.767530
_symmetry_space_group_name_H-M "C 2/M"
_symmetry_group_IT_number 12
_symmetry_cell_setting 'monoclinic'
loop_
_space_group_symop_operation_xyz
x,y,z
-x,y,-z
-x,-y,-z
x,-y,z
1/2+x,1/2+y,z
1/2-x,1/2+y,-z
1/2-x,1/2-y,-z
1/2+x,1/2-y,z
loop_
_atom_site_type_symbol
_atom_site_label
_atom_site_fract_x
_atom_site_fract_y
_atom_site_fract_z
Si Si1 0.048124 0.664425 0.867930
Si Si2 0.505767 0.342162 0.248653
Si Si3 0.254117 0.834371 0.263099
Si Si4 0.789536 0.157484 0.890301
Si Si5 0.425354 0.333780 0.497241
O O1 0.039531 0.500000 0.858923
O O2 0.999982 0.742832 0.830226
O O3 0.151026 0.714478 0.780334
O O4 0.000000 0.706635 0.000000
O O5 0.479478 0.500000 0.243790
O O6 0.604449 0.338990 0.202290
O O7 0.443291 0.285636 0.381571
O O8 0.244943 0.778544 0.171747
O O9 0.172627 0.775671 0.392203
O O10 0.248293 0.000000 0.265162
O O11 0.754254 0.000000 0.933762
O O12 0.750000 0.250000 0.000000
O O13 0.500000 0.273143 0.500000
O O14 0.428700 0.500000 0.499155
#
# Coordination Sequence:
#
# PCOD8088015 Si02
#       5
#     8   8   8   8   8
#     4  10  21  36  52  73 106 145 175 203 249 311
#     4  10  20  33  54  81 104 130 169 219 264 297
#     4   9  17  31  52  74  99 136 177 209 246 304
#     4  10  19  32  52  77 101 130 172 216 255 299
#     4   9  15  29  53  79 103 128 168 219 259 298
#
# _framework density 18.308584
#
# number of rings (size 3 to 8) (size 9 to 14) (size 15 to 20)
#    0.000    2.400    2.000    1.200    0.000    3.600 
#    0.000    1.000    0.000    1.800    0.000    0.000 
#    0.000    0.000    0.000    0.000    0.000    0.000 
#
# Total GULP energy -247975.879358 kJ/mol
# GULP energy per Si atom -12398.793968 kJ/mol
# Density = 1.826691 g / cm^3
# Si number density = 18.308584 Si / 1000 Ang^3
#
#
#
# Elastic Constant Matrix: (Units=GPa)
#
#
# Indices 1 2 3 4 5 6 
#
# 1 60.1043 16.7492 7.5084 0.0000 6.4104 0.0001
# 2 16.7492 34.8910 27.5989 0.0000 9.8592 0.0001
# 3 7.5084 27.5989 107.6988 0.0000 3.9146 0.0000
# 4 0.0000 0.0000 0.0000 17.4608 0.0000 2.9045
# 5 6.4104 9.8592 3.9146 0.0000 37.1676 0.0000
# 6 0.0001 0.0001 0.0000 2.9045 0.0000 21.6025
#
#
#
# Elastic Compliance Matrix: (Units=1/GPa)
#
#
# Indices 1 2 3 4 5 6 
#
# 1 0.019372 -0.010068 0.001259 0.000000 -0.000803 0.000000
# 2 -0.010068 0.044143 -0.010287 0.000000 -0.008890 0.000000
# 3 0.001259 -0.010287 0.011787 0.000000 0.001270 0.000000
# 4 0.000000 0.000000 0.000000 0.058581 0.000000 -0.007876
# 5 -0.000803 -0.008890 0.001270 0.000000 0.029268 0.000000
# 6 0.000000 0.000000 0.000000 -0.007876 0.000000 0.047350
#
#
# Mechanical properties :
#
#
# Convention : Reuss Voigt Hill
#
# Bulk Modulus (GPa) = 26.94749 34.04526 30.49637
# Shear Modulus (GPa) = 19.15240 25.30200 22.22720
#
# Velocity S-wave (km/s) = 3.23784 3.72153 3.48808
# Velocity P-wave (km/s) = 5.35990 6.09114 5.73718
#
# Compressibility (1/GPa) = 0.03710921
#
# Stress axis : x y z
#
# Youngs Moduli (GPa) = 51.62144 22.65373 84.83642
#
# Poissons Ratio (x) = 0.22808 -0.10678
# Poissons Ratio (y) = 0.51973 0.87271
# Poissons Ratio (z) = -0.06498 0.23304
#
# Static dielectric constant tensor:
#      x y z
#    x 3.448030 0.000000 -0.165510 
#    y 0.000000 2.960800 0.000000 
#    z -0.165510 0.000000 3.660650 
# 
# 
# High freq. dielectric constant tensor:
#      x y z
#    x 1.713920 0.000000 -0.003620 
#    y 0.000000 1.656290 0.000000 
#    z -0.003620 0.000000 1.727660 
# 
# From -- ./inp_files/153282.got.cif
#   From: 2010.06.25/outbox.cif.g09.slc.cpg/sg12_77_cif.got.tgz:153282.got - 2010.06.28 00:19:55.
