data_PCOD8088873
_publ_section_title
;
Structure prediction by ZEFSAII (Michael W. Deem and Ramdas Pophale) SiO2 
 PCOD8088873
Probable space group: C 2/M
;
_chemical_formula_sum "Si O2"
_cell_formula_units_Z 60
_cell_length_a 19.325357
_cell_length_b 14.497450
_cell_length_c 19.165926
_cell_angle_alpha 90.000000
_cell_angle_beta 146.283925
_cell_angle_gamma 90.000000
_cell_volume 2980.594022
_symmetry_space_group_name_H-M "C 2/M"
_symmetry_group_IT_number 12
_symmetry_cell_setting 'monoclinic'
loop_
_space_group_symop_operation_xyz
x,y,z
-x,y,-z
-x,-y,-z
x,-y,z
1/2+x,1/2+y,z
1/2-x,1/2+y,-z
1/2-x,1/2-y,-z
1/2+x,1/2-y,z
loop_
_atom_site_type_symbol
_atom_site_label
_atom_site_fract_x
_atom_site_fract_y
_atom_site_fract_z
Si Si1 0.627160 0.243056 0.352124
Si Si2 0.011225 0.315158 0.386565
Si Si3 0.249381 0.605735 0.800568
Si Si4 0.500000 0.325278 0.500000
Si Si5 0.889151 0.271064 0.961411
Si Si6 0.545672 0.896849 0.179873
Si Si7 0.232269 0.892997 0.347397
Si Si8 0.743472 0.598551 0.755045
O O1 0.750000 0.250000 0.500000
O O2 0.513910 0.234993 0.312690
O O3 0.625879 0.146316 0.309696
O O4 0.626503 0.329751 0.297225
O O5 0.005749 0.233272 0.435802
O O6 0.133274 0.376831 0.504647
O O7 0.892512 0.381524 0.293695
O O8 0.287827 0.500000 0.842759
O O9 0.343161 0.664913 0.928879
O O10 0.263407 0.635804 0.730806
O O11 0.376111 0.386446 0.393912
O O12 0.763597 0.322330 0.829102
O O13 0.933181 0.323580 0.068858
O O14 0.000000 0.275409 0.000000
O O15 0.632816 0.906435 0.186795
O O16 0.495494 0.000000 0.157565
O O17 0.195324 0.000000 0.324952
O O18 0.728376 0.500000 0.780792
#
# Coordination Sequence:
#
# PCOD8088873 Si02
#       8
#     8   8   8   4   8   8   8   8
#     4  10  22  37  58  88 119 157 195 251 304 354
#     4  11  20  35  57  85 122 156 201 249 311 362
#     4  11  21  35  60  90 120 157 202 255 305 359
#     4  12  19  34  57  82 126 154 187 256 311 368
#     4  10  19  36  58  84 120 156 203 255 295 354
#     4  10  21  38  61  84 114 156 205 247 288 359
#     4  10  19  35  58  88 123 163 204 245 300 366
#     4  10  19  32  55  87 115 153 198 242 299 354
#
# _framework density 20.130216000000001
#
# number of rings (size 3 to 8) (size 9 to 14) (size 15 to 20)
#    0.000    1.600    2.667    4.200    0.000    5.600 
#    0.000    2.667    0.000    0.000    0.000    0.000 
#    0.000    0.000    0.000    0.000    0.000    0.000 
#
# Total GULP energy -371754.387384 kJ/mol
# GULP energy per Si atom -12391.812913 kJ/mol
# Density = 2.008440 g / cm^3
# Si number density = 20.130216 Si / 1000 Ang^3
#
#
#
# Elastic Constant Matrix: (Units=GPa)
#
#
# Indices 1 2 3 4 5 6 
#
# 1 79.0153 47.4918 6.0366 0.0002 -5.5252 0.0001
# 2 47.4918 153.0510 54.5011 0.0003 -5.6026 0.0002
# 3 6.0366 54.5011 92.9178 0.0006 -1.2863 0.0005
# 4 0.0002 0.0003 0.0006 12.7627 0.0003 9.8086
# 5 -5.5252 -5.6026 -1.2863 0.0003 15.7502 0.0002
# 6 0.0001 0.0002 0.0005 9.8086 0.0002 45.5214
#
#
#
# Elastic Compliance Matrix: (Units=1/GPa)
#
#
# Indices 1 2 3 4 5 6 
#
# 1 0.016182 -0.005720 0.002357 0.000000 0.003834 0.000000
# 2 -0.005720 0.010384 -0.005702 0.000000 0.001221 0.000000
# 3 0.002357 -0.005702 0.013953 -0.000001 -0.000062 0.000000
# 4 0.000000 0.000000 -0.000001 0.093904 -0.000002 -0.020234
# 5 0.003834 0.001221 -0.000062 -0.000002 0.065266 0.000000
# 6 0.000000 0.000000 0.000000 -0.020234 0.000000 0.026327
#
#
# Mechanical properties :
#
#
# Convention : Reuss Voigt Hill
#
# Bulk Modulus (GPa) = 44.66693 60.11588 52.39141
# Shear Modulus (GPa) = 19.87207 29.27051 24.57129
#
# Velocity S-wave (km/s) = 3.14534 3.81735 3.49752
# Velocity P-wave (km/s) = 5.95215 7.02552 6.51099
#
# Compressibility (1/GPa) = 0.02238793
#
# Stress axis : x y z
#
# Youngs Moduli (GPa) = 61.79725 96.30175 71.66980
#
# Poissons Ratio (x) = 0.55087 -0.16893
# Poissons Ratio (y) = 0.35349 0.40868
# Poissons Ratio (z) = -0.14566 0.54914
#
# Static dielectric constant tensor:
#      x y z
#    x 3.863560 0.000000 0.008160 
#    y 0.000000 3.917740 0.000000 
#    z 0.008160 0.000000 3.845410 
# 
# 
# High freq. dielectric constant tensor:
#      x y z
#    x 1.752430 0.000000 -0.000950 
#    y 0.000000 1.796900 0.000000 
#    z -0.000950 0.000000 1.776970 
# 
# From -- ./inp_files/322141.got.cif
#   From: 2010.06.25/outbox.cif.g09.slc.cpg/sg12_162_cif.got.tgz:322141.got - 2010.06.28 00:19:55.
