data_PCOD8088894
_publ_section_title
;
Structure prediction by ZEFSAII (Michael W. Deem and Ramdas Pophale) SiO2 
 PCOD8088894
Probable space group: C 2/M
;
_chemical_formula_sum "Si O2"
_cell_formula_units_Z 48
_cell_length_a 24.340705
_cell_length_b 18.993880
_cell_length_c 9.645804
_cell_angle_alpha 90.000000
_cell_angle_beta 146.892586
_cell_angle_gamma 90.000000
_cell_volume 2435.820077
_symmetry_space_group_name_H-M "C 2/M"
_symmetry_group_IT_number 12
_symmetry_cell_setting 'monoclinic'
loop_
_space_group_symop_operation_xyz
x,y,z
-x,y,-z
-x,-y,-z
x,-y,z
1/2+x,1/2+y,z
1/2-x,1/2+y,-z
1/2-x,1/2-y,-z
1/2+x,1/2-y,z
loop_
_atom_site_type_symbol
_atom_site_label
_atom_site_fract_x
_atom_site_fract_y
_atom_site_fract_z
Si Si1 0.619641 0.077450 0.750270
Si Si2 0.861314 0.273161 0.116987
Si Si3 0.782938 0.719696 0.424292
Si Si4 0.257445 0.922329 0.266413
Si Si5 0.568440 0.279568 0.455416
Si Si6 0.527288 0.423442 0.716192
O O1 0.500000 0.083288 0.500000
O O2 0.665104 0.143307 0.931411
O O3 0.661159 0.084601 0.682925
O O4 0.652420 0.000000 0.879426
O O5 0.852233 0.232107 0.247647
O O6 0.974352 0.267111 0.299963
O O7 0.792278 0.237505 0.858166
O O8 0.750000 0.750000 0.500000
O O9 0.786831 0.634864 0.445482
O O10 0.889778 0.751212 0.602606
O O11 0.263181 0.000000 0.345879
O O12 0.145170 0.906505 0.974944
O O13 0.539640 0.360703 0.362116
O O14 0.500000 0.427181 0.500000
O O15 0.502409 0.500000 0.733183
#
# Coordination Sequence:
#
# PCOD8088894 Si02
#       6
#     8   8   8   8   8   8
#     4  10  19  32  56  90 116 144 187 244 301 341
#     4  11  20  36  59  86 113 146 195 245 288 335
#     4  12  25  38  57  86 119 160 198 233 288 351
#     4  10  20  37  59  84 118 153 191 238 292 349
#     4  11  20  37  61  85 114 149 192 248 294 331
#     4  10  19  32  55  90 118 144 184 240 302 345
#
# _framework density 19.70589
#
# number of rings (size 3 to 8) (size 9 to 14) (size 15 to 20)
#    0.000    1.333    6.667    0.500    2.333    0.667 
#    0.000    1.667    0.000    2.000    0.000    5.833 
#    0.000    0.000    0.000    0.000    0.000    0.000 
#
# Total GULP energy -297385.347773 kJ/mol
# GULP energy per Si atom -12391.056157 kJ/mol
# Density = 1.966104 g / cm^3
# Si number density = 19.705890 Si / 1000 Ang^3
#
#
#
# Elastic Constant Matrix: (Units=GPa)
#
#
# Indices 1 2 3 4 5 6 
#
# 1 115.6758 59.9510 20.5088 0.0000 -4.5619 0.0000
# 2 59.9510 205.8474 25.7091 0.0000 1.8806 0.0000
# 3 20.5088 25.7091 29.0159 0.0000 2.9582 0.0000
# 4 0.0000 0.0000 0.0000 74.2676 0.0000 -9.9646
# 5 -4.5619 1.8806 2.9582 0.0000 8.9589 0.0000
# 6 0.0000 0.0000 0.0000 -9.9646 0.0000 29.5547
#
#
#
# Elastic Compliance Matrix: (Units=1/GPa)
#
#
# Indices 1 2 3 4 5 6 
#
# 1 0.011522 -0.002595 -0.006725 0.000000 0.008633 0.000000
# 2 -0.002595 0.006049 -0.003375 0.000000 -0.001477 0.000000
# 3 -0.006725 -0.003375 0.043965 0.000000 -0.017233 0.000000
# 4 0.000000 0.000000 0.000000 0.014103 0.000000 0.004755
# 5 0.008633 -0.001477 -0.017233 0.000000 0.122018 0.000000
# 6 0.000000 0.000000 0.000000 0.004755 0.000000 0.035439
#
#
# Mechanical properties :
#
#
# Convention : Reuss Voigt Hill
#
# Bulk Modulus (GPa) = 27.66561 62.54189 45.10375
# Shear Modulus (GPa) = 18.48203 38.84759 28.66481
#
# Velocity S-wave (km/s) = 3.06583 4.44483 3.81810
# Velocity P-wave (km/s) = 5.15773 7.62552 6.50963
#
# Compressibility (1/GPa) = 0.03614596
#
# Stress axis : x y z
#
# Youngs Moduli (GPa) = 86.78740 165.32674 22.74562
#
# Poissons Ratio (x) = 0.42897 0.15297
# Poissons Ratio (y) = 0.22519 0.07676
# Poissons Ratio (z) = 0.58367 0.55794
#
# Static dielectric constant tensor:
#      x y z
#    x 4.265670 0.000000 0.818600 
#    y 0.000000 4.601830 0.000000 
#    z 0.818600 0.000000 3.618750 
# 
# 
# High freq. dielectric constant tensor:
#      x y z
#    x 1.743910 0.000000 0.043200 
#    y 0.000000 1.800100 0.000000 
#    z 0.043200 0.000000 1.734560 
# 
# From -- ./inp_files/89731.got.cif
#   From: 2010.06.25/outbox.cif.g09.slc.cpg/sg12_45_cif.got.tgz:89731.got - 2010.06.28 00:19:55.
