data_PCOD8088556
_publ_section_title
;
Structure prediction by ZEFSAII (Michael W. Deem and Ramdas Pophale) SiO2 
 PCOD8088556
Probable space group: C 2/M
;
_chemical_formula_sum "Si O2"
_cell_formula_units_Z 64
_cell_length_a 20.351954
_cell_length_b 9.133754
_cell_length_c 19.015598
_cell_angle_alpha 90.000000
_cell_angle_beta 89.859402
_cell_angle_gamma 90.000000
_cell_volume 3534.793949
_symmetry_space_group_name_H-M "C 2/M"
_symmetry_group_IT_number 12
_symmetry_cell_setting 'monoclinic'
loop_
_space_group_symop_operation_xyz
x,y,z
-x,y,-z
-x,-y,-z
x,-y,z
1/2+x,1/2+y,z
1/2-x,1/2+y,-z
1/2-x,1/2-y,-z
1/2+x,1/2-y,z
loop_
_atom_site_type_symbol
_atom_site_label
_atom_site_fract_x
_atom_site_fract_y
_atom_site_fract_z
Si Si1 0.797763 0.828271 0.945649
Si Si2 0.616261 0.672417 0.582240
Si Si3 0.863171 0.173380 0.574191
Si Si4 0.749181 0.328978 0.654794
Si Si5 0.489207 0.326616 0.662409
Si Si6 0.548127 0.831398 0.201867
Si Si7 0.799622 0.332456 0.804103
Si Si8 0.051469 0.829944 0.060267
O O1 0.779463 0.772292 0.867960
O O2 0.873920 0.790285 0.963308
O O3 0.784521 0.000000 0.949264
O O4 0.750000 0.750000 0.000000
O O5 0.609079 0.500000 0.574730
O O6 0.625984 0.737559 0.504175
O O7 0.676114 0.715589 0.632686
O O8 0.550073 0.734738 0.617014
O O9 0.797396 0.240795 0.604829
O O10 0.923923 0.221990 0.621982
O O11 0.855031 0.000000 0.573015
O O12 0.763766 0.500000 0.643827
O O13 0.757011 0.286305 0.736572
O O14 0.492857 0.500000 0.673378
O O15 0.492505 0.251588 0.738280
O O16 0.624906 0.809750 0.217183
O O17 0.529309 0.763436 0.127091
O O18 0.527392 0.000000 0.201582
O O19 0.786145 0.500000 0.826760
O O20 0.047497 0.000000 0.080649
O O21 0.000000 0.788823 0.000000
#
# Coordination Sequence:
#
# PCOD8088556 Si02
#       8
#     8   8   8   8   8   8   8   8
#     4  10  20  35  57  82 108 137 171 212 256 304
#     4   9  19  34  51  75 104 137 175 217 264 310
#     4  10  19  32  54  78 101 133 176 221 262 310
#     4  10  19  34  54  75 103 137 175 216 261 312
#     4  10  19  33  53  75 103 138 177 217 258 309
#     4  10  19  33  54  79 107 137 173 215 258 307
#     4   9  18  33  53  75 102 138 176 212 251 304
#     4   9  19  37  59  82 106 136 176 214 250 303
#
# _framework density 18.105723999999999
#
# number of rings (size 3 to 8) (size 9 to 14) (size 15 to 20)
#    0.000    2.375    1.250    1.500    0.000    3.250 
#    2.250    1.250    0.000    1.500    0.000    0.000 
#    0.000    0.000    0.000    0.000    0.000    0.000 
#
# Total GULP energy -396862.537469 kJ/mol
# GULP energy per Si atom -12401.954296 kJ/mol
# Density = 1.806451 g / cm^3
# Si number density = 18.105724 Si / 1000 Ang^3
#
#
#
# Elastic Constant Matrix: (Units=GPa)
#
#
# Indices 1 2 3 4 5 6 
#
# 1 57.7969 26.5522 46.5854 0.0000 -4.8992 0.0000
# 2 26.5522 51.5006 49.9434 0.0000 -3.5159 0.0000
# 3 46.5854 49.9434 135.1771 0.0000 -2.6670 0.0000
# 4 0.0000 0.0000 0.0000 28.6340 0.0000 -5.0927
# 5 -4.8992 -3.5159 -2.6670 0.0000 32.6329 0.0000
# 6 0.0000 0.0000 0.0000 -5.0927 0.0000 23.9537
#
#
#
# Elastic Compliance Matrix: (Units=1/GPa)
#
#
# Indices 1 2 3 4 5 6 
#
# 1 0.025791 -0.007090 -0.006217 0.000000 0.002600 0.000000
# 2 -0.007090 0.032389 -0.009491 0.000000 0.001649 0.000000
# 3 -0.006217 -0.009491 0.013029 0.000000 -0.000891 0.000000
# 4 0.000000 0.000000 0.000000 0.036296 0.000000 0.007717
# 5 0.002600 0.001649 -0.000891 0.000000 0.031139 0.000000
# 6 0.000000 0.000000 0.000000 0.007717 0.000000 0.043388
#
#
# Mechanical properties :
#
#
# Convention : Reuss Voigt Hill
#
# Bulk Modulus (GPa) = 39.04290 54.51515 46.77903
# Shear Modulus (GPa) = 21.17155 25.13703 23.15429
#
# Velocity S-wave (km/s) = 3.42326 3.73010 3.57996
# Velocity P-wave (km/s) = 6.10209 6.98042 6.55598
#
# Compressibility (1/GPa) = 0.02561285
#
# Stress axis : x y z
#
# Youngs Moduli (GPa) = 38.77335 30.87467 76.75051
#
# Poissons Ratio (x) = 0.21891 0.47718
# Poissons Ratio (y) = 0.27491 0.72841
# Poissons Ratio (z) = 0.24107 0.29302
#
# Static dielectric constant tensor:
#      x y z
#    x 3.337830 0.000000 0.037630 
#    y 0.000000 3.192160 0.000000 
#    z 0.037630 0.000000 3.443500 
# 
# 
# High freq. dielectric constant tensor:
#      x y z
#    x 1.694480 0.000000 0.001150 
#    y 0.000000 1.686420 0.000000 
#    z 0.001150 0.000000 1.712310 
# 
# From -- ./inp_files/281320.got.cif
#   From: 2010.06.25/outbox.cif.g09.slc.cpg/sg12_141_cif.got.tgz:281320.got - 2010.06.28 00:19:55.
