data_PCOD8088194
_publ_section_title
;
Structure prediction by ZEFSAII (Michael W. Deem and Ramdas Pophale) SiO2 
 PCOD8088194
Probable space group: C 2/M
;
_chemical_formula_sum "Si O2"
_cell_formula_units_Z 56
_cell_length_a 29.385378
_cell_length_b 9.015388
_cell_length_c 21.672084
_cell_angle_alpha 90.000000
_cell_angle_beta 149.151798
_cell_angle_gamma 90.000000
_cell_volume 2943.981101
_symmetry_space_group_name_H-M "C 2/M"
_symmetry_group_IT_number 12
_symmetry_cell_setting 'monoclinic'
loop_
_space_group_symop_operation_xyz
x,y,z
-x,y,-z
-x,-y,-z
x,-y,z
1/2+x,1/2+y,z
1/2-x,1/2+y,-z
1/2-x,1/2-y,-z
1/2+x,1/2-y,z
loop_
_atom_site_type_symbol
_atom_site_label
_atom_site_fract_x
_atom_site_fract_y
_atom_site_fract_z
Si Si1 0.922922 0.173849 0.147772
Si Si2 0.465541 0.329168 0.528184
Si Si3 0.235829 0.171381 0.710163
Si Si4 0.889504 0.672460 0.645207
Si Si5 0.778126 0.827460 0.880828
Si Si6 0.241260 0.329683 0.399723
Si Si7 0.884382 0.675884 0.225515
O O1 0.870577 0.252065 0.142551
O O2 0.020859 0.236045 0.253298
O O3 0.927540 0.000000 0.166986
O O4 0.868142 0.208231 0.022070
O O5 0.500000 0.305067 0.500000
O O6 0.474282 0.500000 0.559619
O O7 0.364983 0.272556 0.413722
O O8 0.520367 0.226835 0.638430
O O9 0.286888 0.255128 0.823854
O O10 0.284202 0.202170 0.701139
O O11 0.236433 0.000000 0.729038
O O12 0.910489 0.500000 0.659265
O O13 0.845505 0.703545 0.660637
O O14 0.822826 0.725991 0.514349
O O15 0.693252 0.765010 0.819740
O O16 0.764351 0.000000 0.854602
O O17 0.272276 0.500000 0.444264
O O18 0.881620 0.500000 0.215370
#
# Coordination Sequence:
#
# PCOD8088194 Si02
#       7
#     8   8   8   8   8   8   8
#     4  11  23  39  57  77 107 147 187 228 278 330
#     4  10  19  32  52  81 113 145 178 214 265 329
#     4  10  20  35  56  80 110 148 183 217 266 327
#     4  10  20  36  59  87 113 140 182 230 274 321
#     4  10  23  39  54  77 110 146 185 229 273 325
#     4   9  19  36  59  87 116 145 177 220 276 333
#     4  11  22  36  56  82 109 142 185 233 279 321
#
# _framework density 19.021861000000001
#
# number of rings (size 3 to 8) (size 9 to 14) (size 15 to 20)
#    0.000    1.857    1.429    2.571    0.000    4.857 
#    0.000    0.714    0.000    4.286    0.000    0.000 
#    0.000    0.000    0.000    0.000    0.000    0.000 
#
# Total GULP energy -347304.276603 kJ/mol
# GULP energy per Si atom -12403.724164 kJ/mol
# Density = 1.897857 g / cm^3
# Si number density = 19.021861 Si / 1000 Ang^3
#
#
#
# Elastic Constant Matrix: (Units=GPa)
#
#
# Indices 1 2 3 4 5 6 
#
# 1 100.3140 32.7108 39.7771 0.0000 -20.7696 0.0000
# 2 32.7108 70.9894 40.9632 0.0000 -12.9871 0.0000
# 3 39.7771 40.9632 79.5962 0.0000 -17.7213 0.0000
# 4 0.0000 0.0000 0.0000 28.1944 0.0000 -9.3988
# 5 -20.7696 -12.9871 -17.7213 0.0000 25.9644 0.0000
# 6 0.0000 0.0000 0.0000 -9.3988 0.0000 24.7623
#
#
#
# Elastic Compliance Matrix: (Units=1/GPa)
#
#
# Indices 1 2 3 4 5 6 
#
# 1 0.013909 -0.002867 -0.003912 0.000000 0.007022 0.000000
# 2 -0.002867 0.020904 -0.008853 0.000000 0.002120 0.000000
# 3 -0.003912 -0.008853 0.020508 0.000000 0.006440 0.000000
# 4 0.000000 0.000000 0.000000 0.040606 0.000000 0.015412
# 5 0.007022 0.002120 0.006440 0.000000 0.049587 0.000000
# 6 0.000000 0.000000 0.000000 0.015412 0.000000 0.046234
#
#
# Mechanical properties :
#
#
# Convention : Reuss Voigt Hill
#
# Bulk Modulus (GPa) = 41.56820 53.08908 47.32864
# Shear Modulus (GPa) = 21.64213 24.94747 23.29480
#
# Velocity S-wave (km/s) = 3.37671 3.62541 3.50327
# Velocity P-wave (km/s) = 6.09124 6.74499 6.42644
#
# Compressibility (1/GPa) = 0.02405685
#
# Stress axis : x y z
#
# Youngs Moduli (GPa) = 71.89820 47.83738 48.76073
#
# Poissons Ratio (x) = 0.13715 0.19074
# Poissons Ratio (y) = 0.20613 0.43169
# Poissons Ratio (z) = 0.28125 0.42352
#
# Static dielectric constant tensor:
#      x y z
#    x 3.647540 0.000000 -0.082050 
#    y 0.000000 3.449710 0.000000 
#    z -0.082050 0.000000 3.370460 
# 
# 
# High freq. dielectric constant tensor:
#      x y z
#    x 1.746610 0.000000 -0.008300 
#    y 0.000000 1.738830 0.000000 
#    z -0.008300 0.000000 1.729360 
# 
# From -- ./inp_files/329636.got.cif
#   From: 2010.06.25/outbox.cif.g09.slc.cpg/sg12_165_cif.got.tgz:329636.got - 2010.06.28 00:19:55.
