data_PCOD8088606
_publ_section_title
;
Structure prediction by ZEFSAII (Michael W. Deem and Ramdas Pophale) SiO2 
 PCOD8088606
Probable space group: C 2/M
;
_chemical_formula_sum "Si O2"
_cell_formula_units_Z 48
_cell_length_a 30.828340
_cell_length_b 8.888783
_cell_length_c 17.719179
_cell_angle_alpha 90.000000
_cell_angle_beta 149.841852
_cell_angle_gamma 90.000000
_cell_volume 2439.359043
_symmetry_space_group_name_H-M "C 2/M"
_symmetry_group_IT_number 12
_symmetry_cell_setting 'monoclinic'
loop_
_space_group_symop_operation_xyz
x,y,z
-x,y,-z
-x,-y,-z
x,-y,z
1/2+x,1/2+y,z
1/2-x,1/2+y,-z
1/2-x,1/2-y,-z
1/2+x,1/2-y,z
loop_
_atom_site_type_symbol
_atom_site_label
_atom_site_fract_x
_atom_site_fract_y
_atom_site_fract_z
Si Si1 0.505852 0.322220 0.660440
Si Si2 0.671138 0.172700 0.840052
Si Si3 0.335277 0.321450 0.661440
Si Si4 0.163518 0.673022 0.652809
Si Si5 0.163239 0.178456 0.165163
Si Si6 0.995711 0.179021 0.170488
O O1 0.516795 0.500000 0.674067
O O2 0.581706 0.249521 0.726666
O O3 0.416316 0.277469 0.487772
O O4 0.509094 0.262103 0.751127
O O5 0.686960 0.189397 0.775305
O O6 0.667329 0.000000 0.859164
O O7 0.750000 0.250000 0.000000
O O8 0.326763 0.500000 0.644970
O O9 0.250000 0.250000 0.500000
O O10 0.348253 0.265706 0.766640
O O11 0.416271 0.261863 0.735028
O O12 0.141632 0.500000 0.599643
O O13 0.245163 0.734760 0.728747
O O14 0.159497 0.000000 0.154543
O O15 0.085525 0.245879 0.997874
O O16 0.994356 0.000000 0.166094
#
# Coordination Sequence:
#
# PCOD8088606 Si02
#       6
#     8   8   8   8   8   8
#     4  11  22  36  56  81 111 145 181 223 268 318
#     4  11  23  39  59  82 110 143 180 224 272 321
#     4  10  19  32  54  80 106 138 176 219 266 319
#     4  10  21  37  56  79 109 143 179 223 273 323
#     4   9  17  32  55  79 103 137 181 222 264 319
#     4   9  18  33  53  79 108 139 179 224 266 312
#
# _framework density 19.677299999999999
#
# number of rings (size 3 to 8) (size 9 to 14) (size 15 to 20)
#    0.000    2.000    0.000    4.000    0.000    8.000 
#    0.000    0.833    0.000    5.000    0.000    0.000 
#    0.000    0.000    0.000    0.000    0.000    0.000 
#
# Total GULP energy -297682.421151 kJ/mol
# GULP energy per Si atom -12403.434215 kJ/mol
# Density = 1.963251 g / cm^3
# Si number density = 19.677300 Si / 1000 Ang^3
#
#
#
# Elastic Constant Matrix: (Units=GPa)
#
#
# Indices 1 2 3 4 5 6 
#
# 1 86.5673 23.6438 6.7157 0.0000 9.8622 0.0000
# 2 23.6438 52.0792 26.3259 0.0000 -1.7985 0.0000
# 3 6.7157 26.3259 107.9752 0.0000 5.1796 0.0000
# 4 0.0000 0.0000 0.0000 33.3596 0.0000 0.2800
# 5 9.8622 -1.7985 5.1796 0.0000 41.6171 0.0000
# 6 0.0000 0.0000 0.0000 0.2800 0.0000 20.5851
#
#
#
# Elastic Compliance Matrix: (Units=1/GPa)
#
#
# Indices 1 2 3 4 5 6 
#
# 1 0.013775 -0.006886 0.000999 0.000000 -0.003686 0.000000
# 2 -0.006886 0.025452 -0.005944 0.000000 0.003471 0.000000
# 3 0.000999 -0.005944 0.010736 0.000000 -0.001830 0.000000
# 4 0.000000 0.000000 0.000000 0.029980 0.000000 -0.000408
# 5 -0.003686 0.003471 -0.001830 0.000000 0.025280 0.000000
# 6 0.000000 0.000000 0.000000 -0.000408 0.000000 0.048584
#
#
# Mechanical properties :
#
#
# Convention : Reuss Voigt Hill
#
# Bulk Modulus (GPa) = 38.02058 39.99917 39.00988
# Shear Modulus (GPa) = 26.84759 31.77477 29.31118
#
# Velocity S-wave (km/s) = 3.69778 4.02281 3.86371
# Velocity P-wave (km/s) = 6.13151 6.47681 6.30652
#
# Compressibility (1/GPa) = 0.02630155
#
# Stress axis : x y z
#
# Youngs Moduli (GPa) = 72.59569 39.28927 93.14260
#
# Poissons Ratio (x) = 0.27055 -0.09305
# Poissons Ratio (y) = 0.49990 0.55363
# Poissons Ratio (z) = -0.07252 0.23353
#
# Static dielectric constant tensor:
#      x y z
#    x 3.947520 0.000000 -0.060230 
#    y 0.000000 3.262450 0.000000 
#    z -0.060230 0.000000 3.613130 
# 
# 
# High freq. dielectric constant tensor:
#      x y z
#    x 1.787550 0.000000 0.001410 
#    y 0.000000 1.730130 0.000000 
#    z 0.001410 0.000000 1.784030 
# 
# From -- ./inp_files/274111.got.cif
#   From: 2010.06.25/outbox.cif.g09.slc.cpg/sg12_138_cif.got.tgz:274111.got - 2010.06.28 00:19:55.
