data_PCOD8088141
_publ_section_title
;
Structure prediction by ZEFSAII (Michael W. Deem and Ramdas Pophale) SiO2 
 PCOD8088141
Probable space group: C 2/M
;
_chemical_formula_sum "Si O2"
_cell_formula_units_Z 64
_cell_length_a 18.704338
_cell_length_b 8.797523
_cell_length_c 21.010844
_cell_angle_alpha 90.000000
_cell_angle_beta 92.329519
_cell_angle_gamma 90.000000
_cell_volume 3454.515899
_symmetry_space_group_name_H-M "C 2/M"
_symmetry_group_IT_number 12
_symmetry_cell_setting 'monoclinic'
loop_
_space_group_symop_operation_xyz
x,y,z
-x,y,-z
-x,-y,-z
x,-y,z
1/2+x,1/2+y,z
1/2-x,1/2+y,-z
1/2-x,1/2-y,-z
1/2+x,1/2-y,z
loop_
_atom_site_type_symbol
_atom_site_label
_atom_site_fract_x
_atom_site_fract_y
_atom_site_fract_z
Si Si1 0.455178 0.671823 0.062566
Si Si2 0.131504 0.824843 0.459995
Si Si3 0.992039 0.825997 0.642822
Si Si4 0.610581 0.824805 0.267563
Si Si5 0.766777 0.676256 0.632408
Si Si6 0.625710 0.823152 0.595380
Si Si7 0.083846 0.676508 0.124016
Si Si8 0.827809 0.679523 0.994432
O O1 0.435813 0.500000 0.080472
O O2 0.506364 0.742315 0.118496
O O3 0.500000 0.682440 0.000000
O O4 0.380794 0.763152 0.052373
O O5 0.192646 0.721344 0.430951
O O6 0.119618 0.775497 0.531520
O O7 0.057577 0.800838 0.420361
O O8 0.156114 0.000000 0.458298
O O9 0.059836 0.716986 0.638529
O O10 0.951082 0.780155 0.705553
O O11 0.016939 0.000000 0.649449
O O12 0.685663 0.786973 0.304009
O O13 0.619139 0.788032 0.193423
O O14 0.589720 0.000000 0.278761
O O15 0.745892 0.500000 0.627371
O O16 0.696502 0.778264 0.636746
O O17 0.625535 0.000000 0.578342
O O18 0.068543 0.500000 0.112932
O O19 0.139641 0.733592 0.072334
O O20 0.820853 0.500000 0.998609
O O21 0.750000 0.750000 0.000000
#
# Coordination Sequence:
#
# PCOD8088141 Si02
#       8
#     8   8   8   8   8   8   8   8
#     4   9  17  30  50  77 106 136 172 210 248 295
#     4  10  20  35  54  76 102 131 167 211 261 318
#     4  10  21  36  54  76 102 132 167 211 260 309
#     4   9  19  37  58  77  99 132 173 213 254 306
#     4  10  20  35  54  75 102 135 171 212 259 312
#     4  12  23  34  51  75 103 134 170 214 263 311
#     4   9  18  34  56  79 103 135 174 212 254 304
#     4  10  19  32  52  79 112 144 172 211 260 305
#
# _framework density 18.526474
#
# number of rings (size 3 to 8) (size 9 to 14) (size 15 to 20)
#    0.000    2.125    0.000    3.750    0.000    6.000 
#    0.000    1.250    0.000    4.500    0.000    0.000 
#    0.000    0.000    0.000    0.000    0.000    0.000 
#
# Total GULP energy -396894.487029 kJ/mol
# GULP energy per Si atom -12402.952720 kJ/mol
# Density = 1.848431 g / cm^3
# Si number density = 18.526474 Si / 1000 Ang^3
#
#
#
# Elastic Constant Matrix: (Units=GPa)
#
#
# Indices 1 2 3 4 5 6 
#
# 1 124.0152 48.2329 41.1941 0.0000 3.6628 0.0000
# 2 48.2329 81.4805 27.8347 0.0000 4.7774 0.0000
# 3 41.1941 27.8347 86.0040 0.0000 7.3446 0.0000
# 4 0.0000 0.0000 0.0000 22.7840 0.0000 1.3705
# 5 3.6628 4.7774 7.3446 0.0000 13.0127 0.0000
# 6 0.0000 0.0000 0.0000 1.3705 0.0000 35.4396
#
#
#
# Elastic Compliance Matrix: (Units=1/GPa)
#
#
# Indices 1 2 3 4 5 6 
#
# 1 0.011442 -0.005542 -0.003767 0.000000 0.000940 0.000000
# 2 -0.005542 0.016571 -0.002440 0.000000 -0.003147 0.000000
# 3 -0.003767 -0.002440 0.014766 0.000000 -0.006378 0.000000
# 4 0.000000 0.000000 0.000000 0.043993 0.000000 -0.001701
# 5 0.000940 -0.003147 -0.006378 0.000000 0.081338 0.000000
# 6 0.000000 0.000000 0.000000 -0.001701 0.000000 0.028283
#
#
# Mechanical properties :
#
#
# Convention : Reuss Voigt Hill
#
# Bulk Modulus (GPa) = 51.86279 58.44703 55.15491
# Shear Modulus (GPa) = 22.09262 25.86313 23.97787
#
# Velocity S-wave (km/s) = 3.45699 3.74037 3.60147
# Velocity P-wave (km/s) = 6.63242 7.09015 6.86510
#
# Compressibility (1/GPa) = 0.01928165
#
# Stress axis : x y z
#
# Youngs Moduli (GPa) = 87.39375 60.34521 67.72164
#
# Poissons Ratio (x) = 0.33441 0.25514
# Poissons Ratio (y) = 0.48430 0.16525
# Poissons Ratio (z) = 0.32926 0.14725
#
# Static dielectric constant tensor:
#      x y z
#    x 3.467810 0.000000 0.148590 
#    y 0.000000 3.494680 0.000000 
#    z 0.148590 0.000000 3.240930 
# 
# 
# High freq. dielectric constant tensor:
#      x y z
#    x 1.719140 0.000000 0.012150 
#    y 0.000000 1.728820 0.000000 
#    z 0.012150 0.000000 1.695440 
# 
# From -- ./inp_files/314093.got.cif
#   From: 2010.06.25/outbox.cif.g09.slc.cpg/sg12_158_cif.got.tgz:314093.got - 2010.06.28 00:19:55.
