data_PCOD8088068
_publ_section_title
;
Structure prediction by ZEFSAII (Michael W. Deem and Ramdas Pophale) SiO2 
 PCOD8088068
Probable space group: C 2/M
;
_chemical_formula_sum "Si O2"
_cell_formula_units_Z 40
_cell_length_a 13.174490
_cell_length_b 11.508430
_cell_length_c 13.632135
_cell_angle_alpha 90.000000
_cell_angle_beta 108.195137
_cell_angle_gamma 90.000000
_cell_volume 1963.526273
_symmetry_space_group_name_H-M "C 2/M"
_symmetry_group_IT_number 12
_symmetry_cell_setting 'monoclinic'
loop_
_space_group_symop_operation_xyz
x,y,z
-x,y,-z
-x,-y,-z
x,-y,z
1/2+x,1/2+y,z
1/2-x,1/2+y,-z
1/2-x,1/2-y,-z
1/2+x,1/2-y,z
loop_
_atom_site_type_symbol
_atom_site_label
_atom_site_fract_x
_atom_site_fract_y
_atom_site_fract_z
Si Si1 0.294347 0.265431 0.369705
Si Si2 0.116164 0.869386 0.210558
Si Si3 0.121270 0.626191 0.431603
Si Si4 0.560764 0.778663 0.753744
Si Si5 0.254439 0.867163 0.067808
O O1 0.207963 0.167365 0.314301
O O2 0.225421 0.371770 0.391559
O O3 0.371514 0.218803 0.478871
O O4 0.365048 0.300747 0.296368
O O5 0.153943 0.854267 0.110078
O O6 0.006398 0.799546 0.191807
O O7 0.086830 0.000000 0.226791
O O8 0.114944 0.500000 0.478205
O O9 0.015150 0.644164 0.336547
O O10 0.634823 0.864498 0.839044
O O11 0.249463 0.000000 0.017604
O O12 0.250000 0.750000 0.000000
#
# Coordination Sequence:
#
# PCOD8088068 Si02
#       5
#     8   8   8   8   8
#     4   9  19  33  50  78 112 142 178 220 263 316
#     4   9  19  36  57  81 111 145 180 220 271 332
#     4  10  19  32  52  77 107 144 181 217 262 319
#     4  10  20  35  55  81 108 139 181 227 271 319
#     4  10  22  41  61  82 110 144 183 230 283 335
#
# _framework density 20.371513
#
# number of rings (size 3 to 8) (size 9 to 14) (size 15 to 20)
#    0.000    2.400    0.000    1.800    0.000    5.600 
#    0.000   12.000    0.000    7.200    0.000    0.000 
#    0.000    0.000    0.000    0.000    0.000    0.000 
#
# Total GULP energy -247786.254478 kJ/mol
# GULP energy per Si atom -12389.312724 kJ/mol
# Density = 2.032515 g / cm^3
# Si number density = 20.371513 Si / 1000 Ang^3
#
#
#
# Elastic Constant Matrix: (Units=GPa)
#
#
# Indices 1 2 3 4 5 6 
#
# 1 120.8772 37.7896 23.5672 0.0000 -9.7010 0.0000
# 2 37.7896 99.6257 28.3286 0.0000 -8.9521 0.0000
# 3 23.5672 28.3286 65.7316 0.0000 -0.2761 0.0000
# 4 0.0000 0.0000 0.0000 20.4813 0.0000 -4.9757
# 5 -9.7010 -8.9521 -0.2761 0.0000 26.6974 0.0000
# 6 0.0000 0.0000 0.0000 -4.9757 0.0000 15.5220
#
#
#
# Elastic Compliance Matrix: (Units=1/GPa)
#
#
# Indices 1 2 3 4 5 6 
#
# 1 0.009814 -0.002841 -0.002284 0.000000 0.002590 0.000000
# 2 -0.002841 0.012657 -0.004423 0.000000 0.003166 0.000000
# 3 -0.002284 -0.004423 0.017929 0.000000 -0.002128 0.000000
# 4 0.000000 0.000000 0.000000 0.052948 0.000000 0.016973
# 5 0.002590 0.003166 -0.002128 0.000000 0.039438 0.000000
# 6 0.000000 0.000000 0.000000 0.016973 0.000000 0.069865
#
#
# Mechanical properties :
#
#
# Convention : Reuss Voigt Hill
#
# Bulk Modulus (GPa) = 46.93503 51.73394 49.33448
# Shear Modulus (GPa) = 21.84850 25.64343 23.74596
#
# Velocity S-wave (km/s) = 3.27846 3.55179 3.41786
# Velocity P-wave (km/s) = 6.11724 6.50159 6.31234
#
# Compressibility (1/GPa) = 0.02130605
#
# Stress axis : x y z
#
# Youngs Moduli (GPa) = 101.89552 79.00583 55.77404
#
# Poissons Ratio (x) = 0.22442 0.12737
# Poissons Ratio (y) = 0.28944 0.24670
# Poissons Ratio (z) = 0.23269 0.34946
#
# Static dielectric constant tensor:
#      x y z
#    x 4.003640 0.000000 -0.093780 
#    y 0.000000 3.507610 0.000000 
#    z -0.093780 0.000000 3.588370 
# 
# 
# High freq. dielectric constant tensor:
#      x y z
#    x 1.811700 0.000000 0.002950 
#    y 0.000000 1.773350 0.000000 
#    z 0.002950 0.000000 1.786180 
# 
# From -- ./inp_files/141111.got.cif
#   From: 2010.06.25/outbox.cif.g09.slc.cpg/sg12_71_cif.got.tgz:141111.got - 2010.06.28 00:19:55.
