data_PCOD8088792
_publ_section_title
;
Structure prediction by ZEFSAII (Michael W. Deem and Ramdas Pophale) SiO2 
 PCOD8088792
Probable space group: C 2/M
;
_chemical_formula_sum "Si O2"
_cell_formula_units_Z 48
_cell_length_a 10.285898
_cell_length_b 26.663267
_cell_length_c 10.072916
_cell_angle_alpha 90.000000
_cell_angle_beta 57.028854
_cell_angle_gamma 90.000000
_cell_volume 2317.630208
_symmetry_space_group_name_H-M "C 2/M"
_symmetry_group_IT_number 12
_symmetry_cell_setting 'monoclinic'
loop_
_space_group_symop_operation_xyz
x,y,z
-x,y,-z
-x,-y,-z
x,-y,z
1/2+x,1/2+y,z
1/2-x,1/2+y,-z
1/2-x,1/2-y,-z
1/2+x,1/2-y,z
loop_
_atom_site_type_symbol
_atom_site_label
_atom_site_fract_x
_atom_site_fract_y
_atom_site_fract_z
Si Si1 0.095199 0.589791 0.565220
Si Si2 0.327618 0.555387 0.640450
Si Si3 0.283897 0.218545 0.302740
Si Si4 0.686908 0.675380 0.627081
Si Si5 0.652964 0.646477 0.178108
Si Si6 0.948848 0.644981 0.880283
O O1 0.228368 0.556738 0.559247
O O2 0.169691 0.637357 0.446446
O O3 0.000000 0.561364 0.500000
O O4 0.983822 0.603971 0.749188
O O5 0.500000 0.565543 0.500000
O O6 0.307369 0.500000 0.716540
O O7 0.286316 0.599254 0.766706
O O8 0.289888 0.278693 0.283790
O O9 0.181900 0.200370 0.484524
O O10 0.188515 0.198600 0.231272
O O11 0.459472 0.196317 0.207315
O O12 0.529613 0.644864 0.750359
O O13 0.760302 0.648859 0.986188
O O14 0.000000 0.627606 0.000000
#
# Coordination Sequence:
#
# PCOD8088792 Si02
#       6
#     8   8   8   8   8   8
#     4  11  22  39  59  89 126 157 197 257 310 358
#     4  11  21  38  68  95 114 157 214 254 300 364
#     4   9  18  30  51  82 112 157 195 246 289 350
#     4  10  19  32  55  82 115 161 200 237 297 360
#     4  11  18  37  60  83 123 151 206 263 292 342
#     4   9  18  35  59  83 123 158 201 250 297 352
#
# _framework density 20.710809999999999
#
# number of rings (size 3 to 8) (size 9 to 14) (size 15 to 20)
#    0.000    1.833    6.667    0.500    0.000    5.000 
#    0.000    5.833    0.000    0.000    0.000    2.333 
#    0.000    0.000    0.000    0.000    0.000    0.000 
#
# Total GULP energy -297362.276127 kJ/mol
# GULP energy per Si atom -12390.094839 kJ/mol
# Density = 2.066367 g / cm^3
# Si number density = 20.710810 Si / 1000 Ang^3
#
#
#
# Elastic Constant Matrix: (Units=GPa)
#
#
# Indices 1 2 3 4 5 6 
#
# 1 66.2191 8.5338 35.3518 0.0000 -15.7614 0.0000
# 2 8.5338 72.8350 25.5186 0.0000 -3.0557 0.0000
# 3 35.3518 25.5186 116.0206 0.0000 -25.9633 0.0000
# 4 0.0000 0.0000 0.0000 -27.5466 0.0000 31.2592
# 5 -15.7614 -3.0557 -25.9633 0.0000 29.8548 0.0000
# 6 0.0000 0.0000 0.0000 31.2592 0.0000 -10.5663
#
#
#
# Elastic Compliance Matrix: (Units=1/GPa)
#
#
# Indices 1 2 3 4 5 6 
#
# 1 0.018923 -0.000459 -0.004271 0.000000 0.006229 0.000000
# 2 -0.000459 0.014952 -0.003552 0.000000 -0.001801 0.000000
# 3 -0.004271 -0.003552 0.012560 0.000000 0.008305 0.000000
# 4 0.000000 0.000000 0.000000 0.015401 0.000000 0.045563
# 5 0.006229 -0.001801 0.008305 0.000000 0.043822 0.000000
# 6 0.000000 0.000000 0.000000 0.045563 0.000000 0.040151
#
#
# Mechanical properties :
#
#
# Convention : Reuss Voigt Hill
#
# Bulk Modulus (GPa) = 33.47686 43.76479 38.62083
# Shear Modulus (GPa) = 29.01385 10.72642 19.87014
#
# Velocity S-wave (km/s) = 3.74693 2.27824 3.10079
# Velocity P-wave (km/s) = 5.90917 5.30073 5.61320
#
# Compressibility (1/GPa) = 0.02987138
#
# Stress axis : x y z
#
# Youngs Moduli (GPa) = 52.84488 66.87916 79.61669
#
# Poissons Ratio (x) = 0.03073 0.34004
# Poissons Ratio (y) = 0.02428 0.28278
# Poissons Ratio (z) = 0.22570 0.23754
#
# Static dielectric constant tensor:
#      x y z
#    x 3.513800 0.000000 -0.243660 
#    y 0.000000 3.585770 0.000000 
#    z -0.243660 0.000000 3.980490 
# 
# 
# High freq. dielectric constant tensor:
#      x y z
#    x 1.790800 0.000000 -0.024930 
#    y 0.000000 1.780010 0.000000 
#    z -0.024930 0.000000 1.811420 
# 
# From -- ./inp_files/136490.got.cif
#   From: 2010.06.25/outbox.cif.g09.slc.cpg/sg12_69_cif.got.tgz:136490.got - 2010.06.28 00:19:55.
