data_PCOD8088826
_publ_section_title
;
Structure prediction by ZEFSAII (Michael W. Deem and Ramdas Pophale) SiO2 
 PCOD8088826
Probable space group: C 2/M
;
_chemical_formula_sum "Si O2"
_cell_formula_units_Z 64
_cell_length_a 29.923944
_cell_length_b 8.945782
_cell_length_c 14.980637
_cell_angle_alpha 90.000000
_cell_angle_beta 120.656418
_cell_angle_gamma 90.000000
_cell_volume 3449.746976
_symmetry_space_group_name_H-M "C 2/M"
_symmetry_group_IT_number 12
_symmetry_cell_setting 'monoclinic'
loop_
_space_group_symop_operation_xyz
x,y,z
-x,y,-z
-x,-y,-z
x,-y,z
1/2+x,1/2+y,z
1/2-x,1/2+y,-z
1/2-x,1/2-y,-z
1/2+x,1/2-y,z
loop_
_atom_site_type_symbol
_atom_site_label
_atom_site_fract_x
_atom_site_fract_y
_atom_site_fract_z
Si Si1 0.219430 0.669595 0.045402
Si Si2 0.469715 0.677085 0.220614
Si Si3 0.551055 0.322440 0.601389
Si Si4 0.891425 0.321949 0.008190
Si Si5 0.139678 0.178243 0.561738
Si Si6 0.358630 0.677452 0.797224
Si Si7 0.088179 0.176915 0.329900
Si Si8 0.247370 0.327284 0.272281
O O1 0.216016 0.500000 0.012115
O O2 0.250321 0.689638 0.168852
O O3 0.250000 0.750000 0.000000
O O4 0.161134 0.733399 0.996321
O O5 0.463879 0.500000 0.200811
O O6 0.447541 0.728830 0.294082
O O7 0.440024 0.762449 0.112313
O O8 0.528945 0.731091 0.273425
O O9 0.500000 0.257192 0.500000
O O10 0.548373 0.500000 0.594215
O O11 0.602458 0.262189 0.603488
O O12 0.892858 0.500000 0.000361
O O13 0.891831 0.252599 0.909807
O O14 0.118889 0.242126 0.446579
O O15 0.198373 0.236108 0.634661
O O16 0.139316 0.000000 0.563049
O O17 0.361038 0.500000 0.810386
O O18 0.384682 0.733927 0.732311
O O19 0.298931 0.729427 0.734355
O O20 0.089776 0.000000 0.336836
O O21 0.237775 0.500000 0.288846
#
# Coordination Sequence:
#
# PCOD8088826 Si02
#       8
#     8   8   8   8   8   8   8   8
#     4   9  19  33  49  72 101 133 170 213 256 305
#     4  10  19  32  55  84 109 136 176 220 260 308
#     4   9  15  26  49  81 111 137 170 213 257 308
#     4  10  22  39  54  74 106 140 175 216 267 319
#     4   9  16  29  50  79 112 141 169 210 262 312
#     4  10  20  36  56  76 103 138 179 225 266 306
#     4   9  18  32  52  81 110 136 173 223 267 301
#     4   9  19  34  52  76 108 140 173 213 261 313
#
# _framework density 18.552085000000002
#
# number of rings (size 3 to 8) (size 9 to 14) (size 15 to 20)
#    0.000    2.625    1.250    1.500    1.750    3.500 
#    0.000    3.750    0.000    1.875    0.000    0.000 
#    0.000    0.000    0.000    0.000    0.000    0.000 
#
# Total GULP energy -396760.749438 kJ/mol
# GULP energy per Si atom -12398.773420 kJ/mol
# Density = 1.850986 g / cm^3
# Si number density = 18.552085 Si / 1000 Ang^3
#
#
#
# Elastic Constant Matrix: (Units=GPa)
#
#
# Indices 1 2 3 4 5 6 
#
# 1 123.7665 28.8917 87.9284 0.0000 -14.3347 0.0000
# 2 28.8917 38.5444 30.9330 0.0000 -3.2744 0.0000
# 3 87.9284 30.9330 146.8453 0.0000 10.2203 0.0000
# 4 0.0000 0.0000 0.0000 17.7646 0.0000 5.0468
# 5 -14.3347 -3.2744 10.2203 0.0000 36.6877 0.0000
# 6 0.0000 0.0000 0.0000 5.0468 0.0000 22.6826
#
#
#
# Elastic Compliance Matrix: (Units=1/GPa)
#
#
# Indices 1 2 3 4 5 6 
#
# 1 0.017305 -0.004039 -0.010153 0.000000 0.009229 0.000000
# 2 -0.004039 0.032984 -0.004716 0.000000 0.002680 0.000000
# 3 -0.010153 -0.004716 0.014469 0.000000 -0.008419 0.000000
# 4 0.000000 0.000000 0.000000 0.060090 0.000000 -0.013370
# 5 0.009229 0.002680 -0.008419 0.000000 0.033448 0.000000
# 6 0.000000 0.000000 0.000000 -0.013370 0.000000 0.047061
#
#
# Mechanical properties :
#
#
# Convention : Reuss Voigt Hill
#
# Bulk Modulus (GPa) = 37.11817 67.18473 52.15145
# Shear Modulus (GPa) = 19.82913 26.18717 23.00815
#
# Velocity S-wave (km/s) = 3.27285 3.76113 3.52546
# Velocity P-wave (km/s) = 5.85944 7.42659 6.68907
#
# Compressibility (1/GPa) = 0.02694098
#
# Stress axis : x y z
#
# Youngs Moduli (GPa) = 57.78719 30.31775 69.11312
#
# Poissons Ratio (x) = 0.12244 0.70174
# Poissons Ratio (y) = 0.23339 0.32596
# Poissons Ratio (z) = 0.58674 0.14299
#
# Static dielectric constant tensor:
#      x y z
#    x 3.721670 0.000000 0.108640 
#    y 0.000000 2.993550 0.000000 
#    z 0.108640 0.000000 3.635440 
# 
# 
# High freq. dielectric constant tensor:
#      x y z
#    x 1.727700 0.000000 0.000940 
#    y 0.000000 1.676910 0.000000 
#    z 0.000940 0.000000 1.729060 
# 
# From -- ./inp_files/249255.got.cif
#   From: 2010.06.25/outbox.cif.g09.slc.cpg/sg12_125_cif.got.tgz:249255.got - 2010.06.28 00:19:55.
