data_PCOD8088843
_publ_section_title
;
Structure prediction by ZEFSAII (Michael W. Deem and Ramdas Pophale) SiO2 
 PCOD8088843
Probable space group: C 2/M
;
_chemical_formula_sum "Si O2"
_cell_formula_units_Z 52
_cell_length_a 13.067953
_cell_length_b 15.907885
_cell_length_c 12.409451
_cell_angle_alpha 90.000000
_cell_angle_beta 85.023585
_cell_angle_gamma 90.000000
_cell_volume 2569.995746
_symmetry_space_group_name_H-M "C 2/M"
_symmetry_group_IT_number 12
_symmetry_cell_setting 'monoclinic'
loop_
_space_group_symop_operation_xyz
x,y,z
-x,y,-z
-x,-y,-z
x,-y,z
1/2+x,1/2+y,z
1/2-x,1/2+y,-z
1/2-x,1/2-y,-z
1/2+x,1/2-y,z
loop_
_atom_site_type_symbol
_atom_site_label
_atom_site_fract_x
_atom_site_fract_y
_atom_site_fract_z
Si Si1 0.509620 0.229380 0.718005
Si Si2 0.313559 0.901327 0.319562
Si Si3 0.325784 0.653054 0.226653
Si Si4 0.300627 0.597056 0.457560
Si Si5 0.000000 0.201762 0.500000
Si Si6 0.811074 0.203429 0.825751
Si Si7 0.383612 0.406977 0.005957
O O1 0.582109 0.147158 0.726601
O O2 0.564276 0.317853 0.739517
O O3 0.473234 0.234807 0.598546
O O4 0.407744 0.233521 0.799715
O O5 0.291513 0.884968 0.448973
O O6 0.213384 0.866662 0.264154
O O7 0.328661 0.000000 0.293505
O O8 0.263328 0.621737 0.338773
O O9 0.283397 0.733652 0.167228
O O10 0.338684 0.584270 0.131703
O O11 0.330773 0.500000 0.455574
O O12 0.400805 0.646256 0.484841
O O13 0.817708 0.156343 0.939144
O O14 0.380075 0.500000 0.954688
O O15 0.500000 0.373219 0.000000
#
# Coordination Sequence:
#
# PCOD8088843 Si02
#       7
#     8   8   8   8   4   8   8
#     4  10  21  35  58  86 117 153 199 238 283 348
#     4  10  22  39  58  87 122 157 197 240 289 347
#     4  10  22  37  58  84 116 152 196 242 288 350
#     4  10  20  35  56  86 122 153 191 243 294 342
#     4  10  19  32  55  84 114 156 194 232 289 342
#     4  11  21  39  62  84 112 160 198 236 290 355
#     4  11  22  38  59  86 116 144 188 248 302 343
#
# _framework density 20.233495999999999
#
# number of rings (size 3 to 8) (size 9 to 14) (size 15 to 20)
#    0.000    1.692    3.077    1.615    2.154    1.846 
#    0.000    1.923    0.000    0.000    0.000    5.385 
#    0.000    0.000    0.000    0.000    0.000    0.000 
#
# Total GULP energy -322126.236084 kJ/mol
# GULP energy per Si atom -12389.470619 kJ/mol
# Density = 2.018744 g / cm^3
# Si number density = 20.233496 Si / 1000 Ang^3
#
#
#
# Elastic Constant Matrix: (Units=GPa)
#
#
# Indices 1 2 3 4 5 6 
#
# 1 55.8017 30.3570 33.6963 0.0000 5.6525 0.0000
# 2 30.3570 84.3115 27.8345 0.0000 3.6494 0.0000
# 3 33.6963 27.8345 116.4379 0.0000 1.1731 0.0000
# 4 0.0000 0.0000 0.0000 31.2775 0.0000 3.6940
# 5 5.6525 3.6494 1.1731 0.0000 22.5262 0.0000
# 6 0.0000 0.0000 0.0000 3.6940 0.0000 25.4309
#
#
#
# Elastic Compliance Matrix: (Units=1/GPa)
#
#
# Indices 1 2 3 4 5 6 
#
# 1 0.025772 -0.007184 -0.005691 0.000000 -0.005007 0.000000
# 2 -0.007184 0.014964 -0.001493 0.000000 -0.000544 0.000000
# 3 -0.005691 -0.001493 0.010581 0.000000 0.001119 0.000000
# 4 0.000000 0.000000 0.000000 0.032530 0.000000 -0.004725
# 5 -0.005007 -0.000544 0.001119 0.000000 0.045679 0.000000
# 6 0.000000 0.000000 0.000000 -0.004725 0.000000 0.040009
#
#
# Mechanical properties :
#
#
# Convention : Reuss Voigt Hill
#
# Bulk Modulus (GPa) = 44.28260 48.92517 46.60389
# Shear Modulus (GPa) = 24.29588 26.82445 25.56016
#
# Velocity S-wave (km/s) = 3.46898 3.64503 3.55809
# Velocity P-wave (km/s) = 6.16266 6.47671 6.32163
#
# Compressibility (1/GPa) = 0.02258223
#
# Stress axis : x y z
#
# Youngs Moduli (GPa) = 38.80132 66.82800 94.51267
#
# Poissons Ratio (x) = 0.48010 0.53783
# Poissons Ratio (y) = 0.27875 0.14107
# Poissons Ratio (z) = 0.22080 0.09975
#
# Static dielectric constant tensor:
#      x y z
#    x 3.404830 0.000000 0.125340 
#    y 0.000000 3.544330 0.000000 
#    z 0.125340 0.000000 3.854400 
# 
# 
# High freq. dielectric constant tensor:
#      x y z
#    x 1.769220 0.000000 0.008250 
#    y 0.000000 1.782520 0.000000 
#    z 0.008250 0.000000 1.797170 
# 
# From -- ./inp_files/144899.got.cif
#   From: 2010.06.25/outbox.cif.g09.slc.cpg/sg12_73_cif.got.tgz:144899.got - 2010.06.28 00:19:55.
