data_PCOD8088599
_publ_section_title
;
Structure prediction by ZEFSAII (Michael W. Deem and Ramdas Pophale) SiO2 
 PCOD8088599
Probable space group: C 2/M
;
_chemical_formula_sum "Si O2"
_cell_formula_units_Z 64
_cell_length_a 15.369463
_cell_length_b 9.349412
_cell_length_c 24.831290
_cell_angle_alpha 90.000000
_cell_angle_beta 72.646845
_cell_angle_gamma 90.000000
_cell_volume 3405.737384
_symmetry_space_group_name_H-M "C 2/M"
_symmetry_group_IT_number 12
_symmetry_cell_setting 'monoclinic'
loop_
_space_group_symop_operation_xyz
x,y,z
-x,y,-z
-x,-y,-z
x,-y,z
1/2+x,1/2+y,z
1/2-x,1/2+y,-z
1/2-x,1/2-y,-z
1/2+x,1/2-y,z
loop_
_atom_site_type_symbol
_atom_site_label
_atom_site_fract_x
_atom_site_fract_y
_atom_site_fract_z
Si Si1 0.366082 0.333349 0.434146
Si Si2 0.479138 0.334945 0.839041
Si Si3 0.642905 0.330714 0.238665
Si Si4 0.063814 0.830187 0.366145
Si Si5 0.805486 0.833434 0.564478
Si Si6 0.678348 0.336260 0.945783
Si Si7 0.680335 0.663559 0.822807
Si Si8 0.381838 0.834405 0.946247
O O1 0.355122 0.500000 0.422969
O O2 0.462764 0.271635 0.396509
O O3 0.289302 0.250098 0.415326
O O4 0.358164 0.303807 0.499169
O O5 0.456273 0.500000 0.856307
O O6 0.421644 0.280794 0.798379
O O7 0.586750 0.316645 0.806530
O O8 0.456088 0.240980 0.895198
O O9 0.655153 0.500000 0.236838
O O10 0.596363 0.275546 0.301994
O O11 0.742625 0.262842 0.216596
O O12 0.132247 0.772130 0.399061
O O13 0.061466 0.000000 0.369680
O O14 0.783898 0.000000 0.575862
O O15 0.651672 0.500000 0.962549
O O16 0.659078 0.292328 0.888129
O O17 0.784414 0.308857 0.936995
O O18 0.616358 0.236298 0.994955
O O19 0.714913 0.500000 0.814402
O O20 0.406751 0.000000 0.947551
#
# Coordination Sequence:
#
# PCOD8088599 Si02
#       8
#     8   8   8   8   8   8   8   8
#     4   9  17  31  53  79 107 139 174 213 257 308
#     4  10  21  36  55  76 102 136 172 211 261 312
#     4  10  21  37  55  76 102 135 177 223 258 296
#     4   9  18  33  53  75 103 140 179 212 254 312
#     4   9  17  31  52  78 108 140 173 212 258 307
#     4   9  18  33  53  76 104 136 167 204 257 315
#     4  10  21  38  57  77 103 138 174 211 260 316
#     4  10  19  32  54  80 105 133 168 210 256 308
#
# _framework density 18.791820000000001
#
# number of rings (size 3 to 8) (size 9 to 14) (size 15 to 20)
#    0.000    2.500    1.250    0.750    0.000    4.500 
#    0.000    5.625    0.000    3.000    0.000    0.000 
#    0.000    0.000    0.000    0.000    0.000    0.000 
#
# Total GULP energy -396878.204196 kJ/mol
# GULP energy per Si atom -12402.443881 kJ/mol
# Density = 1.874905 g / cm^3
# Si number density = 18.791820 Si / 1000 Ang^3
#
#
#
# Elastic Constant Matrix: (Units=GPa)
#
#
# Indices 1 2 3 4 5 6 
#
# 1 115.4532 40.1946 67.8594 0.0000 -16.2901 0.0000
# 2 40.1946 54.5252 43.2222 0.0000 -10.0052 0.0000
# 3 67.8594 43.2222 114.6843 0.0000 -13.3443 0.0000
# 4 0.0000 0.0000 0.0000 21.8373 0.0000 -5.0762
# 5 -16.2901 -10.0052 -13.3443 0.0000 16.8459 0.0000
# 6 0.0000 0.0000 0.0000 -5.0762 0.0000 28.6130
#
#
#
# Elastic Compliance Matrix: (Units=1/GPa)
#
#
# Indices 1 2 3 4 5 6 
#
# 1 0.014963 -0.004858 -0.006251 0.000000 0.006632 0.000000
# 2 -0.004858 0.028887 -0.007229 0.000000 0.006733 0.000000
# 3 -0.006251 -0.007229 0.015355 0.000000 0.001825 0.000000
# 4 0.000000 0.000000 0.000000 0.047763 0.000000 0.008474
# 5 0.006632 0.006733 0.001825 0.000000 0.071220 0.000000
# 6 0.000000 0.000000 0.000000 0.008474 0.000000 0.036452
#
#
# Mechanical properties :
#
#
# Convention : Reuss Voigt Hill
#
# Bulk Modulus (GPa) = 44.38717 65.24614 54.81666
# Shear Modulus (GPa) = 19.31800 22.35168 20.83484
#
# Velocity S-wave (km/s) = 3.20972 3.45256 3.33336
# Velocity P-wave (km/s) = 6.11622 7.11965 6.63693
#
# Compressibility (1/GPa) = 0.02252903
#
# Stress axis : x y z
#
# Youngs Moduli (GPa) = 66.83299 34.61718 65.12456
#
# Poissons Ratio (x) = 0.16817 0.40709
# Poissons Ratio (y) = 0.32468 0.47080
# Poissons Ratio (z) = 0.41777 0.25025
#
# Static dielectric constant tensor:
#      x y z
#    x 3.508090 0.000000 0.049390 
#    y 0.000000 3.244400 0.000000 
#    z 0.049390 0.000000 3.443550 
# 
# 
# High freq. dielectric constant tensor:
#      x y z
#    x 1.735680 0.000000 0.001070 
#    y 0.000000 1.708990 0.000000 
#    z 0.001070 0.000000 1.725150 
# 
# From -- ./inp_files/359726.got.cif
#   From: 2010.06.25/outbox.cif.g09.slc.cpg/sg12_180_cif.got.tgz:359726.got - 2010.06.28 00:19:55.
