data_PCOD8088647
_publ_section_title
;
Structure prediction by ZEFSAII (Michael W. Deem and Ramdas Pophale) SiO2 
 PCOD8088647
Probable space group: C 2/M
;
_chemical_formula_sum "Si O2"
_cell_formula_units_Z 56
_cell_length_a 18.234257
_cell_length_b 8.646169
_cell_length_c 25.624232
_cell_angle_alpha 90.000000
_cell_angle_beta 135.445868
_cell_angle_gamma 90.000000
_cell_volume 2834.272438
_symmetry_space_group_name_H-M "C 2/M"
_symmetry_group_IT_number 12
_symmetry_cell_setting 'monoclinic'
loop_
_space_group_symop_operation_xyz
x,y,z
-x,y,-z
-x,-y,-z
x,-y,z
1/2+x,1/2+y,z
1/2-x,1/2+y,-z
1/2-x,1/2-y,-z
1/2+x,1/2-y,z
loop_
_atom_site_type_symbol
_atom_site_label
_atom_site_fract_x
_atom_site_fract_y
_atom_site_fract_z
Si Si1 0.393512 0.818707 0.718229
Si Si2 0.828660 0.316117 0.997876
Si Si3 0.040984 0.181461 0.708805
Si Si4 0.440741 0.183386 0.859012
Si Si5 0.498199 0.817971 0.578120
Si Si6 0.771511 0.316018 0.854266
Si Si7 0.344907 0.681303 0.420467
O O1 0.472038 0.718008 0.724090
O O2 0.407979 0.763098 0.784856
O O3 0.276804 0.778887 0.641027
O O4 0.418614 0.000000 0.724507
O O5 0.825271 0.500000 0.998460
O O6 0.795844 0.253246 0.924419
O O7 0.750000 0.250000 0.000000
O O8 0.944473 0.252990 0.069107
O O9 0.993073 0.271889 0.635711
O O10 0.157948 0.242316 0.778738
O O11 0.039607 0.000000 0.696236
O O12 0.357520 0.252210 0.858019
O O13 0.439379 0.000000 0.862413
O O14 0.394993 0.752468 0.497810
O O15 0.602716 0.750784 0.604869
O O16 0.498199 0.000000 0.571785
O O17 0.775029 0.500000 0.856266
O O18 0.365706 0.500000 0.430107
#
# Coordination Sequence:
#
# PCOD8088647 Si02
#       7
#     8   8   8   8   8   8   8
#     4  10  21  36  55  80 110 143 180 224 272 325
#     4  10  19  32  54  81 110 142 176 219 268 319
#     4  11  22  36  55  78 109 146 183 226 274 324
#     4   9  17  32  55  80 106 139 181 224 266 316
#     4  11  22  37  58  83 111 141 180 227 272 324
#     4   9  18  33  54  80 106 139 185 227 264 316
#     4  10  20  37  60  83 110 144 181 221 270 326
#
# _framework density 19.758157000000001
#
# number of rings (size 3 to 8) (size 9 to 14) (size 15 to 20)
#    0.000    2.000    0.000    5.143    0.000    5.714 
#    0.000    0.714    0.000    4.286    0.000    0.000 
#    0.000    0.000    0.000    0.000    0.000    0.000 
#
# Total GULP energy -347301.821284 kJ/mol
# GULP energy per Si atom -12403.636474 kJ/mol
# Density = 1.971319 g / cm^3
# Si number density = 19.758157 Si / 1000 Ang^3
#
#
#
# Elastic Constant Matrix: (Units=GPa)
#
#
# Indices 1 2 3 4 5 6 
#
# 1 162.7234 32.2637 86.1860 0.0000 -2.8908 0.0000
# 2 32.2637 63.2354 37.6954 0.0000 3.8263 0.0000
# 3 86.1860 37.6954 152.5443 0.0000 -4.1620 0.0000
# 4 0.0000 0.0000 0.0000 12.2122 0.0000 -5.8857
# 5 -2.8908 3.8263 -4.1620 0.0000 38.0009 0.0000
# 6 0.0000 0.0000 0.0000 -5.8857 0.0000 32.6611
#
#
#
# Elastic Compliance Matrix: (Units=1/GPa)
#
#
# Indices 1 2 3 4 5 6 
#
# 1 0.008950 -0.001853 -0.004589 0.000000 0.000365 0.000000
# 2 -0.001853 0.019146 -0.003752 0.000000 -0.002480 0.000000
# 3 -0.004589 -0.003752 0.010106 0.000000 0.001136 0.000000
# 4 0.000000 0.000000 0.000000 0.089674 0.000000 0.016160
# 5 0.000365 -0.002480 0.001136 0.000000 0.026717 0.000000
# 6 0.000000 0.000000 0.000000 0.016160 0.000000 0.033530
#
#
# Mechanical properties :
#
#
# Convention : Reuss Voigt Hill
#
# Bulk Modulus (GPa) = 56.13350 76.75480 66.44415
# Shear Modulus (GPa) = 23.31580 31.39872 27.35726
#
# Velocity S-wave (km/s) = 3.43893 3.99074 3.72507
# Velocity P-wave (km/s) = 6.65133 7.75669 7.22518
#
# Compressibility (1/GPa) = 0.01781467
#
# Stress axis : x y z
#
# Youngs Moduli (GPa) = 111.73676 52.23041 98.95013
#
# Poissons Ratio (x) = 0.09678 0.45404
# Poissons Ratio (y) = 0.20705 0.37125
# Poissons Ratio (z) = 0.51271 0.19596
#
# Static dielectric constant tensor:
#      x y z
#    x 3.660100 0.000000 0.053180 
#    y 0.000000 3.285190 0.000000 
#    z 0.053180 0.000000 3.887360 
# 
# 
# High freq. dielectric constant tensor:
#      x y z
#    x 1.779190 0.000000 -0.000080 
#    y 0.000000 1.741410 0.000000 
#    z -0.000080 0.000000 1.788220 
# 
# From -- ./inp_files/342558.got.cif
#   From: 2010.06.25/outbox.cif.g09.slc.cpg/sg12_172_cif.got.tgz:342558.got - 2010.06.28 00:19:55.
