data_PCOD8088844
_publ_section_title
;
Structure prediction by ZEFSAII (Michael W. Deem and Ramdas Pophale) SiO2 
 PCOD8088844
Probable space group: C 2/M
;
_chemical_formula_sum "Si O2"
_cell_formula_units_Z 44
_cell_length_a 11.962822
_cell_length_b 25.870295
_cell_length_c 15.425003
_cell_angle_alpha 90.000000
_cell_angle_beta 153.816089
_cell_angle_gamma 90.000000
_cell_volume 2106.438656
_symmetry_space_group_name_H-M "C 2/M"
_symmetry_group_IT_number 12
_symmetry_cell_setting 'monoclinic'
loop_
_space_group_symop_operation_xyz
x,y,z
-x,y,-z
-x,-y,-z
x,-y,z
1/2+x,1/2+y,z
1/2-x,1/2+y,-z
1/2-x,1/2-y,-z
1/2+x,1/2-y,z
loop_
_atom_site_type_symbol
_atom_site_label
_atom_site_fract_x
_atom_site_fract_y
_atom_site_fract_z
Si Si1 0.270999 0.316940 0.230433
Si Si2 0.579953 0.358294 0.286517
Si Si3 0.765423 0.867681 0.898258
Si Si4 0.500000 0.397764 0.500000
Si Si5 0.043332 0.718842 0.409428
Si Si6 0.196081 0.440191 0.444805
O O1 0.469722 0.335086 0.297560
O O2 0.274711 0.359621 0.309373
O O3 0.357092 0.260403 0.326509
O O4 0.000000 0.312081 0.000000
O O5 0.813203 0.319646 0.422497
O O6 0.689373 0.414697 0.387849
O O7 0.369066 0.360834 0.067122
O O8 0.624264 0.815258 0.773401
O O9 0.575932 0.915919 0.766050
O O10 0.000000 0.880884 0.000000
O O11 0.385653 0.433606 0.495249
O O12 0.250000 0.750000 0.500000
O O13 0.158980 0.500000 0.438866
#
# Coordination Sequence:
#
# PCOD8088844 Si02
#       6
#     8   8   8   4   8   8
#     4  10  19  32  55  84 115 152 189 230 284 346
#     4   9  21  39  54  79 117 151 192 242 287 340
#     4  11  23  39  58  84 118 154 197 246 290 341
#     4  10  21  38  60  90 122 148 187 240 294 356
#     4   9  20  35  54  82 116 158 198 233 280 341
#     4  10  22  41  64  87 113 150 195 246 302 352
#
# _framework density 20.888337
#
# number of rings (size 3 to 8) (size 9 to 14) (size 15 to 20)
#    0.000    2.182    0.000    3.000    0.000    9.818 
#    0.000    0.909    0.000    6.000    0.000    0.000 
#    0.000    0.000    0.000    0.000    0.000    0.000 
#
# Total GULP energy -272730.513108 kJ/mol
# GULP energy per Si atom -12396.841505 kJ/mol
# Density = 2.084079 g / cm^3
# Si number density = 20.888337 Si / 1000 Ang^3
#
#
#
# Elastic Constant Matrix: (Units=GPa)
#
#
# Indices 1 2 3 4 5 6 
#
# 1 26.6072 12.5486 3.9588 0.0081 3.9473 0.0023
# 2 12.5486 147.3546 55.0545 -0.0004 3.1776 0.0004
# 3 3.9588 55.0545 140.4081 0.0059 -4.5279 0.0059
# 4 0.0081 -0.0004 0.0059 41.4899 0.0122 4.4126
# 5 3.9473 3.1776 -4.5279 0.0122 33.8872 0.0044
# 6 0.0023 0.0004 0.0059 4.4126 0.0044 17.0240
#
#
#
# Elastic Compliance Matrix: (Units=1/GPa)
#
#
# Indices 1 2 3 4 5 6 
#
# 1 0.039779 -0.003308 0.000036 -0.000006 -0.004319 -0.000003
# 2 -0.003308 0.008272 -0.003177 0.000001 -0.000815 0.000001
# 3 0.000036 -0.003177 0.008412 -0.000001 0.001418 -0.000003
# 4 -0.000006 0.000001 -0.000001 0.024786 -0.000008 -0.006424
# 5 -0.004319 -0.000815 0.001418 -0.000008 0.030279 -0.000006
# 6 -0.000003 0.000001 -0.000003 -0.006424 -0.000006 0.060406
#
#
# Mechanical properties :
#
#
# Convention : Reuss Voigt Hill
#
# Bulk Modulus (GPa) = 22.95304 50.83265 36.89285
# Shear Modulus (GPa) = 25.08111 34.66742 29.87427
#
# Velocity S-wave (km/s) = 3.46890 4.07831 3.78589
# Velocity P-wave (km/s) = 5.20161 6.82386 6.06720
#
# Compressibility (1/GPa) = 0.04356721
#
# Stress axis : x y z
#
# Youngs Moduli (GPa) = 25.13876 120.88256 118.87241
#
# Poissons Ratio (x) = 0.39988 -0.00430
# Poissons Ratio (y) = 0.08316 0.37762
# Poissons Ratio (z) = -0.00091 0.38401
#
# Static dielectric constant tensor:
#      x y z
#    x 3.496240 0.000000 -0.167160 
#    y 0.000000 3.840420 0.000000 
#    z -0.167160 0.000000 3.596730 
# 
# 
# High freq. dielectric constant tensor:
#      x y z
#    x 1.809760 0.000000 0.005840 
#    y 0.000000 1.812840 0.000000 
#    z 0.005840 0.000000 1.830860 
# 
# From -- ./inp_files/11593.got.cif
#   From: 2010.06.25/outbox.cif.g09.slc.cpg/sg12_6_cif.got.tgz:11593.got - 2010.06.28 00:19:55.
