data_PCOD8088509
_publ_section_title
;
Structure prediction by ZEFSAII (Michael W. Deem and Ramdas Pophale) SiO2 
 PCOD8088509
Probable space group: C 2/M
;
_chemical_formula_sum "Si O2"
_cell_formula_units_Z 64
_cell_length_a 29.415450
_cell_length_b 15.106241
_cell_length_c 8.984258
_cell_angle_alpha 90.000000
_cell_angle_beta 52.604296
_cell_angle_gamma 90.000000
_cell_volume 3171.657214
_symmetry_space_group_name_H-M "C 2/M"
_symmetry_group_IT_number 12
_symmetry_cell_setting 'monoclinic'
loop_
_space_group_symop_operation_xyz
x,y,z
-x,y,-z
-x,-y,-z
x,-y,z
1/2+x,1/2+y,z
1/2-x,1/2+y,-z
1/2-x,1/2-y,-z
1/2+x,1/2-y,z
loop_
_atom_site_type_symbol
_atom_site_label
_atom_site_fract_x
_atom_site_fract_y
_atom_site_fract_z
Si Si1 0.231165 0.401810 0.474237
Si Si2 0.843297 0.898018 0.398073
Si Si3 0.177063 0.166790 0.243570
Si Si4 0.056894 0.239759 0.810561
Si Si5 0.883276 0.604837 0.154773
Si Si6 0.277470 0.859196 0.840655
Si Si7 0.611776 0.098642 0.200009
Si Si8 0.442973 0.257348 0.539173
O O1 0.234386 0.500000 0.535382
O O2 0.290864 0.357411 0.404961
O O3 0.176282 0.357568 0.660214
O O4 0.223052 0.408737 0.314184
O O5 0.825956 0.894826 0.606125
O O6 0.895757 0.834708 0.253757
O O7 0.858606 0.000000 0.327246
O O8 0.209067 0.257446 0.223877
O O9 0.112490 0.182813 0.311882
O O10 0.215339 0.123139 0.038235
O O11 0.069248 0.335934 0.857742
O O12 0.047938 0.253117 0.653652
O O13 0.000000 0.202060 0.000000
O O14 0.893468 0.500000 0.167740
O O15 0.883543 0.627053 0.980494
O O16 0.325299 0.898159 0.854002
O O17 0.566720 0.160323 0.373444
O O18 0.587306 0.000000 0.262383
O O19 0.500000 0.299476 0.500000
#
# Coordination Sequence:
#
# PCOD8088509 Si02
#       8
#     8   8   8   8   8   8   8   8
#     4  10  20  33  53  83 116 147 181 226 277 331
#     4  10  22  39  58  82 112 150 196 239 284 337
#     4   9  20  35  54  79 107 145 186 229 283 335
#     4  11  24  40  61  83 108 150 192 238 291 333
#     4  10  21  37  58  87 120 152 186 225 277 344
#     4  10  19  32  53  83 115 148 184 224 279 338
#     4  10  20  34  55  83 116 151 181 217 269 332
#     4  10  21  38  57  78 106 141 185 230 276 330
#
# _framework density 20.178726000000001
#
# number of rings (size 3 to 8) (size 9 to 14) (size 15 to 20)
#    0.000    2.000    0.000    4.125    0.000   10.250 
#    0.000    0.000    0.000    6.000    0.000    0.000 
#    0.000    0.000    0.000    0.000    0.000    0.000 
#
# Total GULP energy -396772.982356 kJ/mol
# GULP energy per Si atom -12399.155699 kJ/mol
# Density = 2.013280 g / cm^3
# Si number density = 20.178726 Si / 1000 Ang^3
#
#
#
# Elastic Constant Matrix: (Units=GPa)
#
#
# Indices 1 2 3 4 5 6 
#
# 1 123.2692 14.0647 36.5151 0.0000 -2.8065 0.0000
# 2 14.0647 52.4819 11.7055 0.0000 -0.4219 0.0000
# 3 36.5151 11.7055 109.6967 0.0000 -9.1797 0.0000
# 4 0.0000 0.0000 0.0000 24.3983 0.0000 4.6917
# 5 -2.8065 -0.4219 -9.1797 0.0000 35.6240 0.0000
# 6 0.0000 0.0000 0.0000 4.6917 0.0000 21.3406
#
#
#
# Elastic Compliance Matrix: (Units=1/GPa)
#
#
# Indices 1 2 3 4 5 6 
#
# 1 0.009166 -0.001819 -0.002860 0.000000 -0.000036 0.000000
# 2 -0.001819 0.019883 -0.001542 0.000000 -0.000305 0.000000
# 3 -0.002860 -0.001542 0.010437 0.000000 0.002446 0.000000
# 4 0.000000 0.000000 0.000000 0.042796 0.000000 -0.009409
# 5 -0.000036 -0.000305 0.002446 0.000000 0.028695 0.000000
# 6 0.000000 0.000000 0.000000 -0.009409 0.000000 0.048927
#
#
# Mechanical properties :
#
#
# Convention : Reuss Voigt Hill
#
# Bulk Modulus (GPa) = 36.97531 45.55759 41.26645
# Shear Modulus (GPa) = 27.56932 31.15009 29.35971
#
# Velocity S-wave (km/s) = 3.70030 3.93327 3.81856
# Velocity P-wave (km/s) = 6.05145 6.57674 6.31955
#
# Compressibility (1/GPa) = 0.02704508
#
# Stress axis : x y z
#
# Youngs Moduli (GPa) = 109.09566 50.29413 95.81005
#
# Poissons Ratio (x) = 0.09148 0.27403
# Poissons Ratio (y) = 0.19843 0.14772
# Poissons Ratio (z) = 0.31203 0.07754
#
# Static dielectric constant tensor:
#      x y z
#    x 3.699290 0.000000 -0.073140 
#    y 0.000000 3.472460 0.000000 
#    z -0.073140 0.000000 3.710570 
# 
# 
# High freq. dielectric constant tensor:
#      x y z
#    x 1.788720 0.000000 0.001180 
#    y 0.000000 1.772090 0.000000 
#    z 0.001180 0.000000 1.794850 
# 
# From -- ./inp_files/111994.got.cif
#   From: 2010.06.25/outbox.cif.g09.slc.cpg/sg12_56_cif.got.tgz:111994.got - 2010.06.28 00:19:55.
