data_PCOD8088263
_publ_section_title
;
Structure prediction by ZEFSAII (Michael W. Deem and Ramdas Pophale) SiO2 
 PCOD8088263
Probable space group: C 2/M
;
_chemical_formula_sum "Si O2"
_cell_formula_units_Z 48
_cell_length_a 12.930903
_cell_length_b 21.926565
_cell_length_c 17.081888
_cell_angle_alpha 90.000000
_cell_angle_beta 145.452272
_cell_angle_gamma 90.000000
_cell_volume 2746.561093
_symmetry_space_group_name_H-M "C 2/M"
_symmetry_group_IT_number 12
_symmetry_cell_setting 'monoclinic'
loop_
_space_group_symop_operation_xyz
x,y,z
-x,y,-z
-x,-y,-z
x,-y,z
1/2+x,1/2+y,z
1/2-x,1/2+y,-z
1/2-x,1/2-y,-z
1/2+x,1/2-y,z
loop_
_atom_site_type_symbol
_atom_site_label
_atom_site_fract_x
_atom_site_fract_y
_atom_site_fract_z
Si Si1 0.129548 0.819429 0.006424
Si Si2 0.963547 0.850914 0.351476
Si Si3 0.536362 0.265205 0.790155
Si Si4 0.135124 0.430904 0.885584
Si Si5 0.709399 0.849940 0.336327
Si Si6 0.808410 0.432604 0.901569
O O1 0.260692 0.761078 0.091218
O O2 0.237778 0.883685 0.082754
O O3 0.023853 0.811565 0.857096
O O4 0.000000 0.815434 0.000000
O O5 0.008937 0.797681 0.319329
O O6 0.817286 0.831709 0.325486
O O7 0.874322 0.905756 0.248264
O O8 0.152820 0.870872 0.509384
O O9 0.392834 0.211399 0.705855
O O10 0.138017 0.500000 0.851454
O O11 0.927585 0.406627 0.760502
O O12 0.220629 0.432639 0.024460
O O13 0.824361 0.500000 0.875516
O O14 0.000000 0.397783 0.000000
#
# Coordination Sequence:
#
# PCOD8088263 Si02
#       6
#     8   8   8   8   8   8
#     4  10  20  33  55  82 101 133 177 214 258 305
#     4  11  20  34  53  77 107 139 174 208 252 315
#     4  10  20  35  51  75 110 139 165 215 260 304
#     4  10  20  36  53  75 106 136 171 217 262 300
#     4  10  22  33  51  79 106 140 173 208 256 305
#     4  10  19  32  53  77 103 136 171 213 262 305
#
# _framework density 17.476400000000002
#
# number of rings (size 3 to 8) (size 9 to 14) (size 15 to 20)
#    0.000    1.833    3.333    1.500    0.000    1.667 
#    0.000    1.667    0.000    0.000    0.000    1.167 
#    0.000    0.000    0.000    0.000    0.000    0.000 
#
# Total GULP energy -297468.945673 kJ/mol
# GULP energy per Si atom -12394.539403 kJ/mol
# Density = 1.743662 g / cm^3
# Si number density = 17.476400 Si / 1000 Ang^3
#
#
#
# Elastic Constant Matrix: (Units=GPa)
#
#
# Indices 1 2 3 4 5 6 
#
# 1 102.0437 37.6336 39.0457 -0.0016 -2.6287 0.0000
# 2 37.6336 90.9037 43.4493 0.0001 -0.9083 0.0001
# 3 39.0457 43.4493 120.3227 -0.0041 -1.7003 -0.0005
# 4 -0.0016 0.0001 -0.0041 11.1280 -0.0028 0.1485
# 5 -2.6287 -0.9083 -1.7003 -0.0028 24.4259 -0.0002
# 6 0.0000 0.0001 -0.0005 0.1485 -0.0002 18.2018
#
#
#
# Elastic Compliance Matrix: (Units=1/GPa)
#
#
# Indices 1 2 3 4 5 6 
#
# 1 0.012218 -0.003819 -0.002572 0.000001 0.000994 0.000000
# 2 -0.003819 0.014490 -0.003995 -0.000002 -0.000150 0.000000
# 3 -0.002572 -0.003995 0.010593 0.000004 0.000312 0.000000
# 4 0.000001 -0.000002 0.000004 0.089873 0.000010 -0.000733
# 5 0.000994 -0.000150 0.000312 0.000010 0.041063 0.000000
# 6 0.000000 0.000000 0.000000 -0.000733 0.000000 0.054946
#
#
# Mechanical properties :
#
#
# Convention : Reuss Voigt Hill
#
# Bulk Modulus (GPa) = 60.50157 61.50304 61.00231
# Shear Modulus (GPa) = 20.04299 23.62722 21.83511
#
# Velocity S-wave (km/s) = 3.39021 3.68088 3.53853
# Velocity P-wave (km/s) = 7.07240 7.30298 7.18862
#
# Compressibility (1/GPa) = 0.01652850
#
# Stress axis : x y z
#
# Youngs Moduli (GPa) = 81.84802 69.01421 94.40544
#
# Poissons Ratio (x) = 0.26356 0.24278
# Poissons Ratio (y) = 0.31257 0.37717
# Poissons Ratio (z) = 0.21049 0.27572
#
# Static dielectric constant tensor:
#      x y z
#    x 3.200660 0.000000 -0.052310 
#    y 0.000000 3.306190 0.000000 
#    z -0.052310 0.000000 3.352010 
# 
# 
# High freq. dielectric constant tensor:
#      x y z
#    x 1.666960 0.000000 -0.002930 
#    y 0.000000 1.669130 0.000000 
#    z -0.002930 0.000000 1.677220 
# 
# From -- ./inp_files/50587.got.cif
#   From: 2010.06.25/outbox.cif.g09.slc.cpg/sg12_26_cif.got.tgz:50587.got - 2010.06.28 00:19:55.
