data_PCOD8088609
_publ_section_title
;
Structure prediction by ZEFSAII (Michael W. Deem and Ramdas Pophale) SiO2 
 PCOD8088609
Probable space group: C 2/M
;
_chemical_formula_sum "Si O2"
_cell_formula_units_Z 56
_cell_length_a 17.922690
_cell_length_b 8.709803
_cell_length_c 18.682119
_cell_angle_alpha 90.000000
_cell_angle_beta 76.190378
_cell_angle_gamma 90.000000
_cell_volume 2832.037653
_symmetry_space_group_name_H-M "C 2/M"
_symmetry_group_IT_number 12
_symmetry_cell_setting 'monoclinic'
loop_
_space_group_symop_operation_xyz
x,y,z
-x,y,-z
-x,-y,-z
x,-y,z
1/2+x,1/2+y,z
1/2-x,1/2+y,-z
1/2-x,1/2-y,-z
1/2+x,1/2-y,z
loop_
_atom_site_type_symbol
_atom_site_label
_atom_site_fract_x
_atom_site_fract_y
_atom_site_fract_z
Si Si1 0.880565 0.682137 0.643890
Si Si2 0.310049 0.179279 0.931957
Si Si3 0.245467 0.680439 0.213267
Si Si4 0.952427 0.682304 0.355181
Si Si5 0.668108 0.817413 0.500615
Si Si6 0.026569 0.819500 0.071900
Si Si7 0.592522 0.819359 0.792427
O O1 0.885544 0.500000 0.642110
O O2 0.817607 0.736648 0.715375
O O3 0.857895 0.744216 0.570948
O O4 0.963344 0.750599 0.647089
O O5 0.286232 0.221749 0.857261
O O6 0.394564 0.239664 0.926349
O O7 0.310147 0.000000 0.944609
O O8 0.250000 0.250000 0.000000
O O9 0.264317 0.500000 0.216619
O O10 0.320280 0.780779 0.209610
O O11 0.954682 0.500000 0.358169
O O12 0.892673 0.745387 0.427504
O O13 0.925770 0.737820 0.283397
O O14 0.750000 0.750000 0.500000
O O15 0.672843 0.000000 0.500647
O O16 0.961603 0.773839 0.142491
O O17 0.039811 0.000000 0.070237
O O18 0.000000 0.763382 0.000000
O O19 0.577452 0.000000 0.804966
#
# Coordination Sequence:
#
# PCOD8088609 Si02
#       7
#     8   8   8   8   8   8   8
#     4   9  17  32  55  79 104 141 186 225 267 322
#     4  11  23  39  60  85 114 148 185 228 276 326
#     4  10  21  37  56  80 112 146 182 227 275 325
#     4   9  18  33  53  80 110 140 181 229 271 318
#     4  10  19  32  54  80 107 141 180 223 270 323
#     4  11  24  41  60  83 112 145 183 229 278 327
#     4  11  22  36  57  83 112 146 183 226 275 328
#
# _framework density 19.773748999999999
#
# number of rings (size 3 to 8) (size 9 to 14) (size 15 to 20)
#    0.000    1.857    0.000    4.286    0.000    9.714 
#    0.000    0.714    0.000    4.286    0.000    0.000 
#    0.000    0.000    0.000    0.000    0.000    0.000 
#
# Total GULP energy -347305.121378 kJ/mol
# GULP energy per Si atom -12403.754335 kJ/mol
# Density = 1.972874 g / cm^3
# Si number density = 19.773749 Si / 1000 Ang^3
#
#
#
# Elastic Constant Matrix: (Units=GPa)
#
#
# Indices 1 2 3 4 5 6 
#
# 1 181.7975 30.6643 88.0168 0.0000 3.9812 0.0000
# 2 30.6643 23.9519 32.9502 0.0000 13.9196 0.0000
# 3 88.0168 32.9502 190.7486 0.0000 0.9549 0.0000
# 4 0.0000 0.0000 0.0000 13.6260 0.0000 -3.7463
# 5 3.9812 13.9196 0.9549 0.0000 42.5688 0.0000
# 6 0.0000 0.0000 0.0000 -3.7463 0.0000 35.3372
#
#
#
# Elastic Compliance Matrix: (Units=1/GPa)
#
#
# Indices 1 2 3 4 5 6 
#
# 1 0.007933 -0.008221 -0.002250 0.000000 0.001997 0.000000
# 2 -0.008221 0.080903 -0.010055 0.000000 -0.025460 0.000000
# 3 -0.002250 -0.010055 0.008001 0.000000 0.003319 0.000000
# 4 0.000000 0.000000 0.000000 0.075592 0.000000 0.008014
# 5 0.001997 -0.025460 0.003319 0.000000 0.031555 0.000000
# 6 0.000000 0.000000 0.000000 0.008014 0.000000 0.029148
#
#
# Mechanical properties :
#
#
# Convention : Reuss Voigt Hill
#
# Bulk Modulus (GPa) = 17.92579 77.75117 47.83848
# Shear Modulus (GPa) = 17.07769 34.63087 25.85428
#
# Velocity S-wave (km/s) = 2.94199 4.18946 3.61987
# Velocity P-wave (km/s) = 4.54153 7.92514 6.45885
#
# Compressibility (1/GPa) = 0.05578555
#
# Stress axis : x y z
#
# Youngs Moduli (GPa) = 126.05470 12.36053 124.98178
#
# Poissons Ratio (x) = 0.10161 0.28127
# Poissons Ratio (y) = 1.03625 1.25664
# Poissons Ratio (z) = 0.28368 0.12428
#
# Static dielectric constant tensor:
#      x y z
#    x 3.741600 0.000000 0.117410 
#    y 0.000000 3.301140 0.000000 
#    z 0.117410 0.000000 3.872980 
# 
# 
# High freq. dielectric constant tensor:
#      x y z
#    x 1.791560 0.000000 -0.000020 
#    y 0.000000 1.741420 0.000000 
#    z -0.000020 0.000000 1.793710 
# 
# From -- ./inp_files/275239.got.cif
#   From: 2010.06.25/outbox.cif.g09.slc.cpg/sg12_138_cif.got.tgz:275239.got - 2010.06.28 00:19:55.
