data_PCOD8088477
_publ_section_title
;
Structure prediction by ZEFSAII (Michael W. Deem and Ramdas Pophale) SiO2 
 PCOD8088477
Probable space group: C 2/M
;
_chemical_formula_sum "Si O2"
_cell_formula_units_Z 56
_cell_length_a 16.025370
_cell_length_b 14.469158
_cell_length_c 16.036241
_cell_angle_alpha 90.000000
_cell_angle_beta 139.186486
_cell_angle_gamma 90.000000
_cell_volume 2430.330665
_symmetry_space_group_name_H-M "C 2/M"
_symmetry_group_IT_number 12
_symmetry_cell_setting 'monoclinic'
loop_
_space_group_symop_operation_xyz
x,y,z
-x,y,-z
-x,-y,-z
x,-y,z
1/2+x,1/2+y,z
1/2-x,1/2+y,-z
1/2-x,1/2-y,-z
1/2+x,1/2-y,z
loop_
_atom_site_type_symbol
_atom_site_label
_atom_site_fract_x
_atom_site_fract_y
_atom_site_fract_z
Si Si1 0.236800 0.106454 0.831741
Si Si2 0.848290 0.207390 0.393134
Si Si3 0.986882 0.896280 0.204410
Si Si4 0.382529 0.772811 0.058874
Si Si5 0.133699 0.600258 0.645285
Si Si6 0.494012 0.103921 0.282372
Si Si7 0.218716 0.895238 0.493091
O O1 0.207767 0.135341 0.715476
O O2 0.111212 0.120246 0.793243
O O3 0.280880 0.000000 0.865846
O O4 0.355148 0.170092 0.953734
O O5 0.790977 0.311170 0.334315
O O6 0.810071 0.176495 0.455795
O O7 0.000000 0.211783 0.500000
O O8 0.956045 0.825756 0.104612
O O9 0.128185 0.875947 0.345865
O O10 0.973880 0.000000 0.159289
O O11 0.472103 0.831767 0.187176
O O12 0.250000 0.750000 0.000000
O O13 0.207122 0.500000 0.691918
O O14 0.000000 0.586305 0.500000
O O15 0.109013 0.624193 0.723872
O O16 0.636024 0.119521 0.427356
O O17 0.478799 0.000000 0.237943
O O18 0.195458 0.000000 0.507953
#
# Coordination Sequence:
#
# PCOD8088477 Si02
#       7
#     8   8   8   8   8   8   8
#     4  10  19  32  53  81 114 149 195 247 292 351
#     4  11  20  34  58  86 117 158 199 245 301 362
#     4   9  18  33  52  81 115 148 193 247 299 349
#     4  10  20  34  54  79 114 155 203 244 287 353
#     4   9  19  35  54  79 115 154 198 245 285 341
#     4  10  21  38  59  86 120 157 198 249 308 358
#     4  10  21  36  58  91 124 154 193 249 312 363
#
# _framework density 23.042133
#
# number of rings (size 3 to 8) (size 9 to 14) (size 15 to 20)
#    0.000    2.143    1.429    2.571    2.000    1.714 
#    0.000    1.429    0.000    2.571    0.000    0.000 
#    0.000    4.571    0.000    0.000    0.000    0.000 
#
# Total GULP energy -347064.246667 kJ/mol
# GULP energy per Si atom -12395.151667 kJ/mol
# Density = 2.298969 g / cm^3
# Si number density = 23.042133 Si / 1000 Ang^3
#
#
#
# Elastic Constant Matrix: (Units=GPa)
#
#
# Indices 1 2 3 4 5 6 
#
# 1 24.6308 26.7896 -1.1261 0.0000 3.4192 0.0001
# 2 26.7896 180.3961 60.0773 0.0000 -1.5329 0.0000
# 3 -1.1261 60.0773 108.6925 0.0001 3.5084 0.0002
# 4 0.0000 0.0000 0.0001 51.7815 0.0000 20.5411
# 5 3.4192 -1.5329 3.5084 0.0000 21.8062 0.0001
# 6 0.0001 0.0000 0.0002 20.5411 0.0001 91.9812
#
#
#
# Elastic Compliance Matrix: (Units=1/GPa)
#
#
# Indices 1 2 3 4 5 6 
#
# 1 0.053375 -0.010179 0.006506 0.000000 -0.010132 0.000000
# 2 -0.010179 0.008761 -0.005046 0.000000 0.003024 0.000000
# 3 0.006506 -0.005046 0.012164 0.000000 -0.003332 0.000000
# 4 0.000000 0.000000 0.000000 0.021189 0.000000 -0.004732
# 5 -0.010132 0.003024 -0.003332 0.000000 0.048196 0.000000
# 6 0.000000 0.000000 0.000000 -0.004732 0.000000 0.011929
#
#
# Mechanical properties :
#
#
# Convention : Reuss Voigt Hill
#
# Bulk Modulus (GPa) = 17.58602 53.91120 35.74861
# Shear Modulus (GPa) = 26.04100 48.31235 37.17668
#
# Velocity S-wave (km/s) = 3.36541 4.58394 4.02110
# Velocity P-wave (km/s) = 4.76970 7.17386 6.09156
#
# Compressibility (1/GPa) = 0.05686334
#
# Stress axis : x y z
#
# Youngs Moduli (GPa) = 18.73530 114.14162 82.20954
#
# Poissons Ratio (x) = 1.16189 -0.53489
# Poissons Ratio (y) = 0.19071 0.41479
# Poissons Ratio (z) = -0.12190 0.57591
#
# Static dielectric constant tensor:
#      x y z
#    x 3.756010 0.000000 -0.049600 
#    y 0.000000 4.927170 0.000000 
#    z -0.049600 0.000000 4.307940 
# 
# 
# High freq. dielectric constant tensor:
#      x y z
#    x 1.861520 0.000000 -0.001480 
#    y 0.000000 1.940830 0.000000 
#    z -0.001480 0.000000 1.896930 
# 
# From -- ./inp_files/284572.got.cif
#   From: 2010.06.25/outbox.cif.g09.slc.cpg/sg12_143_cif.got.tgz:284572.got - 2010.06.28 00:19:55.
