data_PCOD8088223
_publ_section_title
;
Structure prediction by ZEFSAII (Michael W. Deem and Ramdas Pophale) SiO2 
 PCOD8088223
Probable space group: C 2/M
;
_chemical_formula_sum "Si O2"
_cell_formula_units_Z 56
_cell_length_a 10.929268
_cell_length_b 22.486645
_cell_length_c 21.126077
_cell_angle_alpha 90.000000
_cell_angle_beta 146.360482
_cell_angle_gamma 90.000000
_cell_volume 2876.190379
_symmetry_space_group_name_H-M "C 2/M"
_symmetry_group_IT_number 12
_symmetry_cell_setting 'monoclinic'
loop_
_space_group_symop_operation_xyz
x,y,z
-x,y,-z
-x,-y,-z
x,-y,z
1/2+x,1/2+y,z
1/2-x,1/2+y,-z
1/2-x,1/2-y,-z
1/2+x,1/2-y,z
loop_
_atom_site_type_symbol
_atom_site_label
_atom_site_fract_x
_atom_site_fract_y
_atom_site_fract_z
Si Si1 0.322700 0.814308 0.736471
Si Si2 0.328454 0.311527 0.673083
Si Si3 0.406302 0.122783 0.323650
Si Si4 0.694090 0.197353 0.122507
Si Si5 0.178018 0.000000 0.401772
Si Si6 0.768961 0.831611 0.877401
Si Si7 0.333048 0.000000 0.335660
Si Si8 0.122294 0.126457 0.432422
O O1 0.303950 0.757880 0.680918
O O2 0.346394 0.796655 0.820090
O O3 0.543674 0.853265 0.815695
O O4 0.102155 0.853066 0.629708
O O5 0.147268 0.350203 0.630799
O O6 0.576518 0.335324 0.795034
O O7 0.301287 0.324077 0.586561
O O8 0.269971 0.159254 0.213614
O O9 0.673026 0.124127 0.429562
O O10 0.311189 0.056266 0.280350
O O11 0.711419 0.262356 0.099250
O O12 0.500000 0.163562 0.000000
O O13 0.069656 0.060822 0.381529
O O14 0.152533 0.000000 0.314377
O O15 0.431421 0.000000 0.529569
O O16 0.000000 0.862756 0.000000
#
# Coordination Sequence:
#
# PCOD8088223 Si02
#       8
#     8   8   8   8   4   8   4   8
#     4  10  21  37  50  83 120 148 177 223 283 337
#     4  10  19  32  52  84 115 141 176 219 287 328
#     4  11  20  36  55  83 106 147 182 227 276 329
#     4   9  19  33  53  77 107 148 188 228 262 320
#     4   9  16  34  59  84 103 146 189 237 269 298
#     4  10  22  36  55  77 108 149 188 223 269 332
#     4   9  18  32  58  80 108 132 193 236 265 320
#     4  10  21  36  56  84 116 144 185 231 277 330
#
# _framework density 19.470199999999998
#
# number of rings (size 3 to 8) (size 9 to 14) (size 15 to 20)
#    0.000    2.143    2.857    0.429    2.000    2.857 
#    5.143    1.071    0.000    2.571    0.000    3.500 
#    0.000    0.000    0.000    0.000    0.000    0.000 
#
# Total GULP energy -346914.332242 kJ/mol
# GULP energy per Si atom -12389.797580 kJ/mol
# Density = 1.942589 g / cm^3
# Si number density = 19.470200 Si / 1000 Ang^3
#
#
#
# Elastic Constant Matrix: (Units=GPa)
#
#
# Indices 1 2 3 4 5 6 
#
# 1 71.7994 20.0224 28.5991 -0.0007 23.5751 -0.0009
# 2 20.0224 70.4528 23.2310 -0.0003 12.2538 0.0002
# 3 28.5991 23.2310 111.9622 0.0063 17.1719 0.0020
# 4 -0.0007 -0.0003 0.0063 9.0513 0.0013 -3.4330
# 5 23.5751 12.2538 17.1719 0.0013 31.4969 -0.0002
# 6 -0.0009 0.0002 0.0020 -3.4330 -0.0002 1.9457
#
#
#
# Elastic Compliance Matrix: (Units=1/GPa)
#
#
# Indices 1 2 3 4 5 6 
#
# 1 0.019747 -0.002604 -0.002610 0.000028 -0.012344 0.000059
# 2 -0.002604 0.016212 -0.002216 0.000006 -0.003150 0.000009
# 3 -0.002610 -0.002216 0.010505 -0.000036 -0.002911 -0.000075
# 4 0.000028 0.000006 -0.000036 0.333982 -0.000013 0.589279
# 5 -0.012344 -0.003150 -0.002911 -0.000013 0.043801 -0.000022
# 6 0.000059 0.000009 -0.000075 0.589279 -0.000022 1.553688
#
#
# Mechanical properties :
#
#
# Convention : Reuss Voigt Hill
#
# Bulk Modulus (GPa) = 31.64215 44.21326 37.92770
# Shear Modulus (GPa) = 2.49584 20.65624 11.57604
#
# Velocity S-wave (km/s) = 1.13343 3.26070 2.44099
# Velocity P-wave (km/s) = 4.24261 6.07731 5.24087
#
# Compressibility (1/GPa) = 0.03160342
#
# Stress axis : x y z
#
# Youngs Moduli (GPa) = 50.64120 61.68080 95.19650
#
# Poissons Ratio (x) = 0.16063 0.24851
# Poissons Ratio (y) = 0.13188 0.21091
# Poissons Ratio (z) = 0.13220 0.13666
#
# Static dielectric constant tensor:
#      x y z
#    x 3.517810 0.000000 0.303710 
#    y 0.000000 3.500330 -0.000010 
#    z 0.303710 -0.000010 3.787300 
# 
# 
# High freq. dielectric constant tensor:
#      x y z
#    x 1.755180 0.000000 0.013410 
#    y 0.000000 1.719530 0.000000 
#    z 0.013410 0.000000 1.755890 
# 
# From -- ./inp_files/337065.got.cif
#   From: 2010.06.25/outbox.cif.g09.slc.cpg/sg12_169_cif.got.tgz:337065.got - 2010.06.28 00:19:55.
