data_PCOD8088973
_publ_section_title
;
Structure prediction by ZEFSAII (Michael W. Deem and Ramdas Pophale) SiO2 
 PCOD8088973
Probable space group: C 2/M
;
_chemical_formula_sum "Si O2"
_cell_formula_units_Z 40
_cell_length_a 15.538474
_cell_length_b 9.176816
_cell_length_c 14.228712
_cell_angle_alpha 90.000000
_cell_angle_beta 91.203101
_cell_angle_gamma 90.000000
_cell_volume 2028.477650
_symmetry_space_group_name_H-M "C 2/M"
_symmetry_group_IT_number 12
_symmetry_cell_setting 'monoclinic'
loop_
_space_group_symop_operation_xyz
x,y,z
-x,y,-z
-x,-y,-z
x,-y,z
1/2+x,1/2+y,z
1/2-x,1/2+y,-z
1/2-x,1/2-y,-z
1/2+x,1/2-y,z
loop_
_atom_site_type_symbol
_atom_site_label
_atom_site_fract_x
_atom_site_fract_y
_atom_site_fract_z
Si Si1 0.831615 0.834887 0.603118
Si Si2 0.341761 0.332182 0.392582
Si Si3 0.253700 0.671222 0.901635
Si Si4 0.577402 0.332633 0.206909
Si Si5 0.589208 0.828264 0.776141
O O1 0.755804 0.721781 0.620341
O O2 0.872636 0.811108 0.501043
O O3 0.905373 0.810269 0.681736
O O4 0.794158 0.000000 0.611594
O O5 0.346085 0.500000 0.361723
O O6 0.404270 0.240034 0.327534
O O7 0.252420 0.500000 0.919047
O O8 0.339784 0.720116 0.849625
O O9 0.171931 0.719353 0.838144
O O10 0.250000 0.750000 0.000000
O O11 0.555931 0.500000 0.183475
O O12 0.495984 0.234891 0.175444
O O13 0.580792 0.000000 0.767056
#
# Coordination Sequence:
#
# PCOD8088973 Si02
#       5
#     8   8   8   8   8
#     4   9  18  35  57  83 121 159 196 240 287 338
#     4  10  19  32  57  88 117 158 201 238 283 342
#     4  10  23  43  65  85 115 152 190 242 301 351
#     4  10  21  40  62  86 118 157 196 237 289 350
#     4  11  23  40  60  87 122 156 192 242 294 345
#
# _framework density 19.71922
#
# number of rings (size 3 to 8) (size 9 to 14) (size 15 to 20)
#    0.000    2.000    2.000    1.200    0.000    5.600 
#    0.000    8.000    0.000    0.000    0.000    0.000 
#    0.000    0.000    0.000    0.000    0.000    0.000 
#
# Total GULP energy -248052.006040 kJ/mol
# GULP energy per Si atom -12402.600302 kJ/mol
# Density = 1.967434 g / cm^3
# Si number density = 19.719220 Si / 1000 Ang^3
#
#
#
# Elastic Constant Matrix: (Units=GPa)
#
#
# Indices 1 2 3 4 5 6 
#
# 1 145.1233 62.2808 62.6433 0.0000 -13.9314 0.0000
# 2 62.2808 83.4033 53.4455 0.0000 -5.1862 0.0000
# 3 62.6433 53.4455 118.2505 0.0000 -11.4426 0.0000
# 4 0.0000 0.0000 0.0000 34.8140 0.0000 -4.3446
# 5 -13.9314 -5.1862 -11.4426 0.0000 12.6221 0.0000
# 6 0.0000 0.0000 0.0000 -4.3446 0.0000 37.2014
#
#
#
# Elastic Compliance Matrix: (Units=1/GPa)
#
#
# Indices 1 2 3 4 5 6 
#
# 1 0.011482 -0.006581 -0.002350 0.000000 0.007839 0.000000
# 2 -0.006581 0.020650 -0.006280 0.000000 -0.004471 0.000000
# 3 -0.002350 -0.006280 0.013197 0.000000 0.006790 0.000000
# 4 0.000000 0.000000 0.000000 0.029149 0.000000 0.003404
# 5 0.007839 -0.004471 0.006790 0.000000 0.092196 0.000000
# 6 0.000000 0.000000 0.000000 0.003404 0.000000 0.027278
#
#
# Mechanical properties :
#
#
# Convention : Reuss Voigt Hill
#
# Bulk Modulus (GPa) = 67.07729 78.16849 72.62289
# Shear Modulus (GPa) = 21.80159 28.15466 24.97813
#
# Velocity S-wave (km/s) = 3.32867 3.78269 3.56292
# Velocity P-wave (km/s) = 6.99024 7.66845 7.33719
#
# Compressibility (1/GPa) = 0.01490817
#
# Stress axis : x y z
#
# Youngs Moduli (GPa) = 87.09632 48.42592 75.77720
#
# Poissons Ratio (x) = 0.31868 0.17804
# Poissons Ratio (y) = 0.57316 0.47586
# Poissons Ratio (z) = 0.20464 0.30410
#
# Static dielectric constant tensor:
#      x y z
#    x 3.501060 0.000000 -0.035200 
#    y 0.000000 3.558490 0.000000 
#    z -0.035200 0.000000 3.633110 
# 
# 
# High freq. dielectric constant tensor:
#      x y z
#    x 1.762500 0.000000 -0.004870 
#    y 0.000000 1.766970 0.000000 
#    z -0.004870 0.000000 1.768410 
# 
# From -- ./inp_files/211334.got.cif
#   From: 2010.06.25/outbox.cif.g09.slc.cpg/sg12_106_cif.got.tgz:211334.got - 2010.06.28 00:19:55.
