data_PCOD8088126
_publ_section_title
;
Structure prediction by ZEFSAII (Michael W. Deem and Ramdas Pophale) SiO2 
 PCOD8088126
Probable space group: C 2/M
;
_chemical_formula_sum "Si O2"
_cell_formula_units_Z 56
_cell_length_a 24.814742
_cell_length_b 8.923899
_cell_length_c 16.579188
_cell_angle_alpha 90.000000
_cell_angle_beta 119.929367
_cell_angle_gamma 90.000000
_cell_volume 3181.756687
_symmetry_space_group_name_H-M "C 2/M"
_symmetry_group_IT_number 12
_symmetry_cell_setting 'monoclinic'
loop_
_space_group_symop_operation_xyz
x,y,z
-x,y,-z
-x,-y,-z
x,-y,z
1/2+x,1/2+y,z
1/2-x,1/2+y,-z
1/2-x,1/2-y,-z
1/2+x,1/2-y,z
loop_
_atom_site_type_symbol
_atom_site_label
_atom_site_fract_x
_atom_site_fract_y
_atom_site_fract_z
Si Si1 0.130500 0.828112 0.117511
Si Si2 0.559015 0.676416 0.222739
Si Si3 0.418729 0.671759 0.093215
Si Si4 0.220358 0.174375 0.591049
Si Si5 0.654565 0.824292 0.403557
Si Si6 0.760883 0.175440 0.212410
Si Si7 0.805474 0.323121 0.091492
O O1 0.091402 0.769175 0.164406
O O2 0.189767 0.723647 0.149883
O O3 0.152357 0.000000 0.145542
O O4 0.086892 0.812545 0.007113
O O5 0.565397 0.500000 0.236056
O O6 0.487344 0.725423 0.168915
O O7 0.591363 0.752654 0.323467
O O8 0.406221 0.500000 0.110055
O O9 0.371245 0.779782 0.103048
O O10 0.288864 0.224399 0.612785
O O11 0.167717 0.264771 0.503455
O O12 0.213586 0.213770 0.679786
O O13 0.210496 0.000000 0.566154
O O14 0.645546 0.000000 0.400247
O O15 0.803689 0.265132 0.181889
O O16 0.765031 0.000000 0.196880
O O17 0.796425 0.500000 0.082899
O O18 0.750000 0.250000 0.000000
#
# Coordination Sequence:
#
# PCOD8088126 Si02
#       7
#     8   8   8   8   8   8   8
#     4  10  19  32  53  80 111 146 181 219 264 319
#     4  10  20  34  54  80 113 149 182 218 268 326
#     4  10  21  37  55  78 109 148 188 223 265 320
#     4   9  19  34  52  78 109 141 177 220 271 325
#     4  10  19  32  52  79 110 142 179 221 268 322
#     4  11  21  35  56  81 111 142 178 224 273 320
#     4  12  24  38  56  79 107 143 185 228 271 314
#
# _framework density 17.600339999999999
#
# number of rings (size 3 to 8) (size 9 to 14) (size 15 to 20)
#    0.000    1.714    2.857    2.571    0.000    4.000 
#    0.000    0.000    0.000    3.429    0.000    6.000 
#    0.000    0.000    0.000    0.000    0.000    0.000 
#
# Total GULP energy -347323.739819 kJ/mol
# GULP energy per Si atom -12404.419279 kJ/mol
# Density = 1.756028 g / cm^3
# Si number density = 17.600340 Si / 1000 Ang^3
#
#
#
# Elastic Constant Matrix: (Units=GPa)
#
#
# Indices 1 2 3 4 5 6 
#
# 1 81.8205 35.3364 52.1713 0.0000 4.1929 0.0000
# 2 35.3364 68.5493 44.7910 0.0000 1.5595 0.0000
# 3 52.1713 44.7910 121.8058 0.0000 8.6726 0.0000
# 4 0.0000 0.0000 0.0000 27.4916 0.0000 -0.0397
# 5 4.1929 1.5595 8.6726 0.0000 27.9946 0.0000
# 6 0.0000 0.0000 0.0000 -0.0397 0.0000 27.5679
#
#
#
# Elastic Compliance Matrix: (Units=1/GPa)
#
#
# Indices 1 2 3 4 5 6 
#
# 1 0.018372 -0.005719 -0.005719 0.000000 -0.000661 0.000000
# 2 -0.005719 0.021018 -0.005375 0.000000 0.001351 0.000000
# 3 -0.005719 -0.005375 0.012837 0.000000 -0.002821 0.000000
# 4 0.000000 0.000000 0.000000 0.036375 0.000000 0.000052
# 5 -0.000661 0.001351 -0.002821 0.000000 0.036619 0.000000
# 6 0.000000 0.000000 0.000000 0.000052 0.000000 0.036274
#
#
# Mechanical properties :
#
#
# Convention : Reuss Voigt Hill
#
# Bulk Modulus (GPa) = 53.76288 59.64142 56.70215
# Shear Modulus (GPa) = 24.83592 25.93594 25.38593
#
# Velocity S-wave (km/s) = 3.76054 3.84292 3.80195
# Velocity P-wave (km/s) = 7.03338 7.32467 7.18050
#
# Compressibility (1/GPa) = 0.01860019
#
# Stress axis : x y z
#
# Youngs Moduli (GPa) = 54.42997 47.57903 77.90035
#
# Poissons Ratio (x) = 0.27209 0.44552
# Poissons Ratio (y) = 0.31127 0.41875
# Poissons Ratio (z) = 0.31129 0.25576
#
# Static dielectric constant tensor:
#      x y z
#    x 3.194410 0.000000 -0.111960 
#    y 0.000000 3.248570 0.000000 
#    z -0.111960 0.000000 3.381960 
# 
# 
# High freq. dielectric constant tensor:
#      x y z
#    x 1.658590 0.000000 -0.004200 
#    y 0.000000 1.682870 0.000000 
#    z -0.004200 0.000000 1.684790 
# 
# From -- ./inp_files/238972.got.cif
#   From: 2010.06.25/outbox.cif.g09.slc.cpg/sg12_120_cif.got.tgz:238972.got - 2010.06.28 00:19:55.
