data_PCOD8088244
_publ_section_title
;
Structure prediction by ZEFSAII (Michael W. Deem and Ramdas Pophale) SiO2 
 PCOD8088244
Probable space group: C 2/M
;
_chemical_formula_sum "Si O2"
_cell_formula_units_Z 48
_cell_length_a 15.801585
_cell_length_b 15.061464
_cell_length_c 11.102121
_cell_angle_alpha 90.000000
_cell_angle_beta 89.806417
_cell_angle_gamma 90.000000
_cell_volume 2642.234247
_symmetry_space_group_name_H-M "C 2/M"
_symmetry_group_IT_number 12
_symmetry_cell_setting 'monoclinic'
loop_
_space_group_symop_operation_xyz
x,y,z
-x,y,-z
-x,-y,-z
x,-y,z
1/2+x,1/2+y,z
1/2-x,1/2+y,-z
1/2-x,1/2-y,-z
1/2+x,1/2-y,z
loop_
_atom_site_type_symbol
_atom_site_label
_atom_site_fract_x
_atom_site_fract_y
_atom_site_fract_z
Si Si1 0.175432 0.500000 0.146363
Si Si2 0.832676 0.000000 0.994175
Si Si3 0.559605 0.644991 0.114322
Si Si4 0.297388 0.837819 0.530245
Si Si5 0.944768 0.598595 0.380822
Si Si6 0.705337 0.500000 0.623237
Si Si7 0.951272 0.000000 0.223698
Si Si8 0.588950 0.170064 0.234801
O O1 0.236595 0.500000 0.259892
O O2 0.117395 0.588300 0.149136
O O3 0.232761 0.500000 0.025249
O O4 0.856776 0.088733 0.920499
O O5 0.888810 0.000000 0.112388
O O6 0.508547 0.589017 0.216379
O O7 0.592951 0.738320 0.163073
O O8 0.500000 0.661852 0.000000
O O9 0.250000 0.750000 0.500000
O O10 0.355471 0.858133 0.414268
O O11 0.227132 0.914079 0.544276
O O12 0.350380 0.825355 0.650992
O O13 0.930175 0.500000 0.329353
O O14 0.000000 0.592296 0.500000
O O15 0.992364 0.655493 0.278557
O O16 0.605124 0.500000 0.654731
#
# Coordination Sequence:
#
# PCOD8088244 Si02
#       8
#     4   4   8   8   8   4   4   8
#     4   9  17  31  52  72  95 129 167 202 234 290
#     4   8  16  33  52  70  95 127 166 202 239 290
#     4   9  18  33  53  74  97 126 161 204 248 292
#     4  10  20  32  50  75 102 130 163 203 241 283
#     4   9  16  31  52  71  95 131 170 200 231 284
#     4   9  17  31  49  72  98 130 169 198 232 289
#     4   8  16  31  52  72  93 130 169 197 234 293
#     4  10  19  32  53  76  98 128 165 201 242 292
#
# _framework density 18.166443999999998
#
# number of rings (size 3 to 8) (size 9 to 14) (size 15 to 20)
#    0.000    2.833    1.667    1.000    2.333    0.667 
#    0.000    2.083    0.000    1.000    0.000    0.000 
#    0.000    0.000    0.000    0.000    0.000    0.000 
#
# Total GULP energy -297499.663467 kJ/mol
# GULP energy per Si atom -12395.819311 kJ/mol
# Density = 1.812510 g / cm^3
# Si number density = 18.166444 Si / 1000 Ang^3
#
#
#
# Elastic Constant Matrix: (Units=GPa)
#
#
# Indices 1 2 3 4 5 6 
#
# 1 99.2400 66.2145 44.6704 0.0000 -49.1465 0.0000
# 2 66.2145 180.2007 51.7603 0.0000 -30.3151 0.0000
# 3 44.6704 51.7603 49.6674 0.0000 -31.5143 0.0000
# 4 0.0000 0.0000 0.0000 24.1687 0.0000 2.4204
# 5 -49.1465 -30.3151 -31.5143 0.0000 36.6836 0.0000
# 6 0.0000 0.0000 0.0000 2.4204 0.0000 30.3014
#
#
#
# Elastic Compliance Matrix: (Units=1/GPa)
#
#
# Indices 1 2 3 4 5 6 
#
# 1 0.034487 -0.006250 0.003375 0.000000 0.043938 0.000000
# 2 -0.006250 0.009077 -0.009654 0.000000 -0.009166 0.000000
# 3 0.003375 -0.009654 0.054882 0.000000 0.043692 0.000000
# 4 0.000000 0.000000 0.000000 0.041709 0.000000 -0.003332
# 5 0.043938 -0.009166 0.043692 0.000000 0.116085 0.000000
# 6 0.000000 0.000000 0.000000 -0.003332 0.000000 0.033268
#
#
# Mechanical properties :
#
#
# Convention : Reuss Voigt Hill
#
# Bulk Modulus (GPa) = 13.62627 72.71096 43.16861
# Shear Modulus (GPa) = 14.74802 29.32828 22.03815
#
# Velocity S-wave (km/s) = 2.85235 4.02234 3.48677
# Velocity P-wave (km/s) = 4.28543 7.85392 6.32649
#
# Compressibility (1/GPa) = 0.07338764
#
# Stress axis : x y z
#
# Youngs Moduli (GPa) = 28.99678 110.16949 18.22093
#
# Poissons Ratio (x) = 0.68854 -0.06149
# Poissons Ratio (y) = 0.18123 0.17591
# Poissons Ratio (z) = -0.09786 1.06358
#
# Static dielectric constant tensor:
#      x y z
#    x 3.567940 0.000000 -0.577400 
#    y 0.000000 3.369820 0.000000 
#    z -0.577400 0.000000 3.174130 
# 
# 
# High freq. dielectric constant tensor:
#      x y z
#    x 1.695420 0.000000 -0.036870 
#    y 0.000000 1.713560 0.000000 
#    z -0.036870 0.000000 1.667450 
# 
# From -- ./inp_files/143059.got.cif
#   From: 2010.06.25/outbox.cif.g09.slc.cpg/sg12_72_cif.got.tgz:143059.got - 2010.06.28 00:19:55.
