data_PCOD8088713
_publ_section_title
;
Structure prediction by ZEFSAII (Michael W. Deem and Ramdas Pophale) SiO2 
 PCOD8088713
Probable space group: C 2/M
;
_chemical_formula_sum "Si O2"
_cell_formula_units_Z 64
_cell_length_a 28.141137
_cell_length_b 8.853024
_cell_length_c 14.281306
_cell_angle_alpha 90.000000
_cell_angle_beta 93.472807
_cell_angle_gamma 90.000000
_cell_volume 3551.427566
_symmetry_space_group_name_H-M "C 2/M"
_symmetry_group_IT_number 12
_symmetry_cell_setting 'monoclinic'
loop_
_space_group_symop_operation_xyz
x,y,z
-x,y,-z
-x,-y,-z
x,-y,z
1/2+x,1/2+y,z
1/2-x,1/2+y,-z
1/2-x,1/2-y,-z
1/2+x,1/2-y,z
loop_
_atom_site_type_symbol
_atom_site_label
_atom_site_fract_x
_atom_site_fract_y
_atom_site_fract_z
Si Si1 0.300256 0.678407 0.978310
Si Si2 0.649608 0.323810 0.550687
Si Si3 0.583121 0.827029 0.686866
Si Si4 0.483140 0.826079 0.601745
Si Si5 0.887075 0.177785 0.646910
Si Si6 0.777890 0.173867 0.290560
Si Si7 0.655890 0.823477 0.846872
Si Si8 0.675725 0.825437 0.213352
O O1 0.294518 0.500000 0.979371
O O2 0.317512 0.731023 0.879520
O O3 0.250000 0.750000 0.000000
O O4 0.340602 0.730053 0.056837
O O5 0.641942 0.500000 0.546658
O O6 0.605419 0.262688 0.603912
O O7 0.646041 0.264727 0.443703
O O8 0.699925 0.280238 0.605566
O O9 0.526505 0.801519 0.680197
O O10 0.606402 0.778380 0.789082
O O11 0.596307 0.000000 0.669285
O O12 0.500000 0.779360 0.500000
O O13 0.441514 0.718190 0.632005
O O14 0.465863 0.000000 0.599685
O O15 0.870176 0.264545 0.737549
O O16 0.882605 0.000000 0.664034
O O17 0.799722 0.280761 0.213824
O O18 0.721443 0.198010 0.286179
O O19 0.790869 0.000000 0.267729
O O20 0.658692 0.000000 0.870764
O O21 0.668329 0.000000 0.186172
#
# Coordination Sequence:
#
# PCOD8088713 Si02
#       8
#     8   8   8   8   8   8   8   8
#     4  12  23  37  58  83 111 143 182 225 272 322
#     4   9  18  32  50  75 109 146 183 223 266 318
#     4   9  18  32  53  82 110 140 180 226 271 320
#     4  10  19  34  57  81 109 144 186 229 272 322
#     4  11  23  36  52  78 113 149 187 228 276 327
#     4   9  18  33  52  75 106 145 186 223 264 319
#     4  10  19  32  54  83 112 140 177 224 274 322
#     4  11  23  38  56  78 108 146 188 229 275 325
#
# _framework density 18.020923
#
# number of rings (size 3 to 8) (size 9 to 14) (size 15 to 20)
#    0.000    1.875    2.500    2.250    0.000    2.750 
#    0.000    0.000    0.000    0.750    0.000    5.250 
#    0.000    0.000    0.000    0.000    0.000    0.000 
#
# Total GULP energy -396777.042312 kJ/mol
# GULP energy per Si atom -12399.282572 kJ/mol
# Density = 1.797991 g / cm^3
# Si number density = 18.020923 Si / 1000 Ang^3
#
#
#
# Elastic Constant Matrix: (Units=GPa)
#
#
# Indices 1 2 3 4 5 6 
#
# 1 79.6730 28.9676 48.2646 0.0000 3.5051 0.0000
# 2 28.9676 67.7939 44.6861 0.0000 2.3529 0.0000
# 3 48.2646 44.6861 111.5419 0.0000 2.0540 0.0000
# 4 0.0000 0.0000 0.0000 27.2152 0.0000 0.3002
# 5 3.5051 2.3529 2.0540 0.0000 24.4461 0.0000
# 6 0.0000 0.0000 0.0000 0.3002 0.0000 25.2457
#
#
#
# Elastic Compliance Matrix: (Units=1/GPa)
#
#
# Indices 1 2 3 4 5 6 
#
# 1 0.017634 -0.003353 -0.006256 0.000000 -0.001680 0.000000
# 2 -0.003353 0.020719 -0.006833 0.000000 -0.000939 0.000000
# 3 -0.006256 -0.006833 0.014403 0.000000 0.000344 0.000000
# 4 0.000000 0.000000 0.000000 0.036749 0.000000 -0.000437
# 5 -0.001680 -0.000939 0.000344 0.000000 0.041209 0.000000
# 6 0.000000 0.000000 0.000000 -0.000437 0.000000 0.039616
#
#
# Mechanical properties :
#
#
# Convention : Reuss Voigt Hill
#
# Bulk Modulus (GPa) = 50.31788 55.87172 53.09480
# Shear Modulus (GPa) = 23.82788 24.52078 24.17433
#
# Velocity S-wave (km/s) = 3.64020 3.69275 3.66657
# Velocity P-wave (km/s) = 6.75652 7.01804 6.88852
#
# Compressibility (1/GPa) = 0.01987365
#
# Stress axis : x y z
#
# Youngs Moduli (GPa) = 56.70818 48.26372 69.42863
#
# Poissons Ratio (x) = 0.16182 0.43436
# Poissons Ratio (y) = 0.19013 0.47438
# Poissons Ratio (z) = 0.35478 0.32977
#
# Static dielectric constant tensor:
#      x y z
#    x 3.282680 0.000000 0.400350 
#    y 0.000000 3.363390 0.000000 
#    z 0.400350 0.000000 3.512370 
# 
# 
# High freq. dielectric constant tensor:
#      x y z
#    x 1.680600 0.000000 0.022540 
#    y 0.000000 1.703780 0.000000 
#    z 0.022540 0.000000 1.690260 
# 
# From -- ./inp_files/187504.got.cif
#   From: 2010.06.25/outbox.cif.g09.slc.cpg/sg12_94_cif.got.tgz:187504.got - 2010.06.28 00:19:55.
