data_PCOD8088656
_publ_section_title
;
Structure prediction by ZEFSAII (Michael W. Deem and Ramdas Pophale) SiO2 
 PCOD8088656
Probable space group: C 2/M
;
_chemical_formula_sum "Si O2"
_cell_formula_units_Z 56
_cell_length_a 14.629234
_cell_length_b 13.728259
_cell_length_c 26.485316
_cell_angle_alpha 90.000000
_cell_angle_beta 148.342511
_cell_angle_gamma 90.000000
_cell_volume 2791.703790
_symmetry_space_group_name_H-M "C 2/M"
_symmetry_group_IT_number 12
_symmetry_cell_setting 'monoclinic'
loop_
_space_group_symop_operation_xyz
x,y,z
-x,y,-z
-x,-y,-z
x,-y,z
1/2+x,1/2+y,z
1/2-x,1/2+y,-z
1/2-x,1/2-y,-z
1/2+x,1/2-y,z
loop_
_atom_site_type_symbol
_atom_site_label
_atom_site_fract_x
_atom_site_fract_y
_atom_site_fract_z
Si Si1 0.415155 0.114185 0.578247
Si Si2 0.279089 0.888908 0.005939
Si Si3 0.760537 0.110866 0.684042
Si Si4 0.934694 0.751077 0.151899
Si Si5 0.099960 0.714666 0.750944
Si Si6 0.610670 0.610098 0.366314
Si Si7 0.444422 0.389645 0.919081
O O1 0.568882 0.142262 0.611550
O O2 0.449256 0.157437 0.649746
O O3 0.231276 0.150768 0.468588
O O4 0.403209 0.000000 0.578581
O O5 0.433618 0.834723 0.109157
O O6 0.332012 0.000000 0.017201
O O7 0.231168 0.825232 0.933695
O O8 0.107896 0.884399 0.959751
O O9 0.773517 0.118396 0.629851
O O10 0.892343 0.184916 0.772888
O O11 0.804879 0.000000 0.722686
O O12 0.924009 0.697827 0.200714
O O13 0.290312 0.677629 0.824052
O O14 0.067961 0.828387 0.722560
O O15 0.550467 0.500000 0.347678
O O16 0.372599 0.500000 0.889844
O O17 0.500000 0.350146 0.000000
#
# Coordination Sequence:
#
# PCOD8088656 Si02
#       7
#     8   8   8   8   8   8   8
#     4  10  19  32  54  82 105 131 169 215 264 303
#     4  10  20  35  53  72 101 134 172 214 256 301
#     4   9  17  32  54  78 104 132 167 209 254 303
#     4  10  20  31  48  76 103 135 168 208 258 307
#     4  11  20  31  50  78 109 135 169 210 260 307
#     4   9  19  34  52  76 108 141 171 205 249 306
#     4  10  19  33  54  80 105 129 163 215 267 301
#
# _framework density 20.059435000000001
#
# number of rings (size 3 to 8) (size 9 to 14) (size 15 to 20)
#    0.000    2.143    1.429    2.571    0.000    5.143 
#    0.000    0.000    0.000    9.000    0.000    0.000 
#    0.000   24.000    0.000    0.000    0.000    0.000 
#
# Total GULP energy -347091.705216 kJ/mol
# GULP energy per Si atom -12396.132329 kJ/mol
# Density = 2.001378 g / cm^3
# Si number density = 20.059435 Si / 1000 Ang^3
#
#
#
# Elastic Constant Matrix: (Units=GPa)
#
#
# Indices 1 2 3 4 5 6 
#
# 1 41.1031 12.0935 18.5565 0.0000 -10.8033 0.0001
# 2 12.0935 81.1763 50.1997 0.0001 -0.0017 0.0000
# 3 18.5565 50.1997 111.5039 0.0008 -17.4976 -0.0005
# 4 0.0000 0.0001 0.0008 39.8764 -0.0001 -4.1867
# 5 -10.8033 -0.0017 -17.4976 -0.0001 30.3283 0.0001
# 6 0.0001 0.0000 -0.0005 -4.1867 0.0001 17.3632
#
#
#
# Elastic Compliance Matrix: (Units=1/GPa)
#
#
# Indices 1 2 3 4 5 6 
#
# 1 0.028474 -0.003029 -0.001961 0.000000 0.009011 0.000000
# 2 -0.003029 0.018076 -0.008580 0.000000 -0.006028 0.000000
# 3 -0.001961 -0.008580 0.014346 0.000000 0.007578 0.000000
# 4 0.000000 0.000000 0.000000 0.025729 0.000000 0.006204
# 5 0.009011 -0.006028 0.007578 0.000000 0.040554 0.000000
# 6 0.000000 0.000000 0.000000 0.006204 0.000000 0.059089
#
#
# Mechanical properties :
#
#
# Convention : Reuss Voigt Hill
#
# Bulk Modulus (GPa) = 29.62359 43.94251 36.78305
# Shear Modulus (GPa) = 22.25589 27.70915 24.98252
#
# Velocity S-wave (km/s) = 3.33453 3.72069 3.53289
# Velocity P-wave (km/s) = 5.44292 6.35702 5.91765
#
# Compressibility (1/GPa) = 0.03375688
#
# Stress axis : x y z
#
# Youngs Moduli (GPa) = 35.11966 55.32297 69.70420
#
# Poissons Ratio (x) = 0.16759 0.13667
# Poissons Ratio (y) = 0.10639 0.59803
# Poissons Ratio (z) = 0.06886 0.47465
#
# Static dielectric constant tensor:
#      x y z
#    x 3.339390 0.000000 -0.304090 
#    y 0.000000 3.861760 0.000000 
#    z -0.304090 0.000000 3.874130 
# 
# 
# High freq. dielectric constant tensor:
#      x y z
#    x 1.747760 0.000000 -0.029610 
#    y 0.000000 1.782220 0.000000 
#    z -0.029610 0.000000 1.792000 
# 
# From -- ./inp_files/246578.got.cif
#   From: 2010.06.25/outbox.cif.g09.slc.cpg/sg12_124_cif.got.tgz:246578.got - 2010.06.28 00:19:55.
