data_PCOD8088881
_publ_section_title
;
Structure prediction by ZEFSAII (Michael W. Deem and Ramdas Pophale) SiO2 
 PCOD8088881
Probable space group: C 2/M
;
_chemical_formula_sum "Si O2"
_cell_formula_units_Z 48
_cell_length_a 22.328987
_cell_length_b 8.894128
_cell_length_c 12.215558
_cell_angle_alpha 90.000000
_cell_angle_beta 109.770464
_cell_angle_gamma 90.000000
_cell_volume 2282.973311
_symmetry_space_group_name_H-M "C 2/M"
_symmetry_group_IT_number 12
_symmetry_cell_setting 'monoclinic'
loop_
_space_group_symop_operation_xyz
x,y,z
-x,y,-z
-x,-y,-z
x,-y,z
1/2+x,1/2+y,z
1/2-x,1/2+y,-z
1/2-x,1/2-y,-z
1/2+x,1/2-y,z
loop_
_atom_site_type_symbol
_atom_site_label
_atom_site_fract_x
_atom_site_fract_y
_atom_site_fract_z
Si Si1 0.572954 0.663909 0.075624
Si Si2 0.962821 0.327804 0.742147
Si Si3 0.094856 0.822810 0.849425
Si Si4 0.779484 0.322169 0.125680
Si Si5 0.341648 0.827844 0.540273
Si Si6 0.754116 0.825216 0.328238
O O1 0.599360 0.500000 0.129384
O O2 0.579030 0.784052 0.176553
O O3 0.500000 0.644258 0.000000
O O4 0.607608 0.717519 0.985535
O O5 0.983980 0.500000 0.768118
O O6 0.916789 0.304568 0.609285
O O7 0.025054 0.226529 0.765582
O O8 0.147681 0.732923 0.813963
O O9 0.101566 0.000000 0.833192
O O10 0.775624 0.500000 0.113943
O O11 0.741156 0.267043 0.208985
O O12 0.750000 0.250000 0.000000
O O13 0.303098 0.783796 0.625828
O O14 0.320663 0.724216 0.426118
O O15 0.326808 0.000000 0.499862
O O16 0.757625 0.000000 0.301350
#
# Coordination Sequence:
#
# PCOD8088881 Si02
#       6
#     8   8   8   8   8   8
#     4   8  16  30  48  74 111 150 189 236 285 337
#     4  10  19  32  55  87 119 154 195 243 297 352
#     4  10  21  38  56  82 118 156 198 245 294 352
#     4  12  26  43  63  87 119 159 199 243 296 357
#     4   9  20  38  61  90 122 156 197 246 298 350
#     4  10  21  40  63  89 120 157 201 247 294 350
#
# _framework density 21.025213000000001
#
# number of rings (size 3 to 8) (size 9 to 14) (size 15 to 20)
#    0.000    2.167    0.000    4.000    2.333    5.667 
#    0.000    0.833    0.000    5.000    0.000    0.000 
#    0.000    0.000    0.000    0.000    0.000    0.000 
#
# Total GULP energy -297589.552135 kJ/mol
# GULP energy per Si atom -12399.564672 kJ/mol
# Density = 2.097736 g / cm^3
# Si number density = 21.025213 Si / 1000 Ang^3
#
#
#
# Elastic Constant Matrix: (Units=GPa)
#
#
# Indices 1 2 3 4 5 6 
#
# 1 47.8474 28.5455 19.1349 0.0000 1.5887 0.0000
# 2 28.5455 124.9314 49.1932 0.0000 1.4770 0.0000
# 3 19.1349 49.1932 95.0215 0.0000 5.6579 0.0000
# 4 0.0000 0.0000 0.0000 37.5740 0.0000 0.9002
# 5 1.5887 1.4770 5.6579 0.0000 27.7876 0.0000
# 6 0.0000 0.0000 0.0000 0.9002 0.0000 29.3063
#
#
#
# Elastic Compliance Matrix: (Units=1/GPa)
#
#
# Indices 1 2 3 4 5 6 
#
# 1 0.024702 -0.004639 -0.002534 0.000000 -0.000650 0.000000
# 2 -0.004639 0.010933 -0.004765 0.000000 0.000654 0.000000
# 3 -0.002534 -0.004765 0.013643 0.000000 -0.002380 0.000000
# 4 0.000000 0.000000 0.000000 0.026634 0.000000 -0.000818
# 5 -0.000650 0.000654 -0.002380 0.000000 0.036474 0.000000
# 6 0.000000 0.000000 0.000000 -0.000818 0.000000 0.034147
#
#
# Mechanical properties :
#
#
# Convention : Reuss Voigt Hill
#
# Bulk Modulus (GPa) = 39.36649 51.28304 45.32477
# Shear Modulus (GPa) = 27.95233 30.32869 29.14051
#
# Velocity S-wave (km/s) = 3.65014 3.80213 3.72691
# Velocity P-wave (km/s) = 6.04391 6.61204 6.33435
#
# Compressibility (1/GPa) = 0.02540231
#
# Stress axis : x y z
#
# Youngs Moduli (GPa) = 40.48216 91.46852 73.29908
#
# Poissons Ratio (x) = 0.42429 0.18576
# Poissons Ratio (y) = 0.18778 0.34926
# Poissons Ratio (z) = 0.10259 0.43583
#
# Static dielectric constant tensor:
#      x y z
#    x 3.857900 0.000000 -0.122000 
#    y 0.000000 3.781350 0.000000 
#    z -0.122000 0.000000 3.814710 
# 
# 
# High freq. dielectric constant tensor:
#      x y z
#    x 1.815650 0.000000 0.008910 
#    y 0.000000 1.826900 0.000000 
#    z 0.008910 0.000000 1.810670 
# 
# From -- ./inp_files/173069.got.cif
#   From: 2010.06.25/outbox.cif.g09.slc.cpg/sg12_87_cif.got.tgz:173069.got - 2010.06.28 00:19:55.
