data_PCOD8088807
_publ_section_title
;
Structure prediction by ZEFSAII (Michael W. Deem and Ramdas Pophale) SiO2 
 PCOD8088807
Probable space group: C 2/M
;
_chemical_formula_sum "Si O2"
_cell_formula_units_Z 56
_cell_length_a 30.131657
_cell_length_b 8.612482
_cell_length_c 16.805931
_cell_angle_alpha 90.000000
_cell_angle_beta 45.432650
_cell_angle_gamma 90.000000
_cell_volume 3107.089125
_symmetry_space_group_name_H-M "C 2/M"
_symmetry_group_IT_number 12
_symmetry_cell_setting 'monoclinic'
loop_
_space_group_symop_operation_xyz
x,y,z
-x,y,-z
-x,-y,-z
x,-y,z
1/2+x,1/2+y,z
1/2-x,1/2+y,-z
1/2-x,1/2-y,-z
1/2+x,1/2-y,z
loop_
_atom_site_type_symbol
_atom_site_label
_atom_site_fract_x
_atom_site_fract_y
_atom_site_fract_z
Si Si1 0.525735 0.316559 0.348728
Si Si2 0.902353 0.816234 0.591576
Si Si3 0.486495 0.317465 0.811113
Si Si4 0.694958 0.180946 0.394767
Si Si5 0.941572 0.683217 0.024544
Si Si6 0.129592 0.181745 0.627906
Si Si7 0.676116 0.817525 0.727719
O O1 0.519468 0.500000 0.353772
O O2 0.460131 0.255832 0.465641
O O3 0.582870 0.270612 0.335015
O O4 0.536007 0.252185 0.246601
O O5 0.840886 0.725786 0.641228
O O6 0.892020 0.000000 0.594971
O O7 0.477296 0.500000 0.827828
O O8 0.443200 0.240445 0.931906
O O9 0.558379 0.271532 0.735093
O O10 0.652386 0.224226 0.523124
O O11 0.758474 0.277955 0.314718
O O12 0.710706 0.000000 0.375883
O O13 0.945129 0.500000 0.020083
O O14 0.878033 0.741362 0.145058
O O15 0.000000 0.753610 0.000000
O O16 0.171524 0.227083 0.650300
O O17 0.136613 0.000000 0.600425
O O18 0.670675 0.000000 0.717700
#
# Coordination Sequence:
#
# PCOD8088807 Si02
#       7
#     8   8   8   8   8   8   8
#     4   8  15  30  54  82 107 138 175 215 261 318
#     4   9  16  32  56  78 107 141 177 214 260 320
#     4  10  19  32  55  83 110 139 175 216 261 313
#     4  12  24  36  52  78 112 144 179 220 266 315
#     4  10  21  37  55  77 105 139 178 222 268 311
#     4  11  21  35  55  80 110 143 179 214 261 318
#     4  11  23  39  56  74 105 145 184 220 264 318
#
# _framework density 18.023301
#
# number of rings (size 3 to 8) (size 9 to 14) (size 15 to 20)
#    0.000    1.857    2.857    3.429    0.000    2.000 
#    0.000    2.143    0.000    0.857    0.000    0.000 
#    0.000    0.000    0.000    0.000    0.000    0.000 
#
# Total GULP energy -347224.670633 kJ/mol
# GULP energy per Si atom -12400.881094 kJ/mol
# Density = 1.798228 g / cm^3
# Si number density = 18.023301 Si / 1000 Ang^3
#
#
#
# Elastic Constant Matrix: (Units=GPa)
#
#
# Indices 1 2 3 4 5 6 
#
# 1 130.5871 13.7232 36.9181 -0.0001 8.7512 0.0002
# 2 13.7232 34.2535 15.6764 0.0049 0.5032 -0.0014
# 3 36.9181 15.6764 66.2522 0.0005 5.1946 -0.0002
# 4 -0.0001 0.0049 0.0005 24.3915 -0.0005 3.1626
# 5 8.7512 0.5032 5.1946 -0.0005 28.6055 0.0000
# 6 0.0002 -0.0014 -0.0002 3.1626 0.0000 25.1752
#
#
#
# Elastic Compliance Matrix: (Units=1/GPa)
#
#
# Indices 1 2 3 4 5 6 
#
# 1 0.009265 -0.001560 -0.004640 0.000000 -0.001964 0.000000
# 2 -0.001560 0.033022 -0.007037 -0.000007 0.001174 0.000003
# 3 -0.004640 -0.007037 0.019501 0.000001 -0.001998 0.000000
# 4 0.000000 -0.000007 0.000001 0.041677 0.000001 -0.005236
# 5 -0.001964 0.001174 -0.001998 0.000001 0.035901 0.000000
# 6 0.000000 0.000003 0.000000 -0.005236 0.000000 0.040379
#
#
# Mechanical properties :
#
#
# Convention : Reuss Voigt Hill
#
# Bulk Modulus (GPa) = 28.31569 40.41426 34.36497
# Shear Modulus (GPa) = 22.93691 26.61945 24.77818
#
# Velocity S-wave (km/s) = 3.57126 3.84728 3.71183
# Velocity P-wave (km/s) = 5.72275 6.49672 6.12198
#
# Compressibility (1/GPa) = 0.03531611
#
# Stress axis : x y z
#
# Youngs Moduli (GPa) = 107.93364 30.28278 51.27970
#
# Poissons Ratio (x) = 0.04723 0.23792
# Poissons Ratio (y) = 0.16834 0.36083
# Poissons Ratio (z) = 0.50078 0.21309
#
# Static dielectric constant tensor:
#      x y z
#    x 3.600070 0.000000 0.146050 
#    y 0.000000 3.110180 0.000000 
#    z 0.146050 0.000000 3.290830 
# 
# 
# High freq. dielectric constant tensor:
#      x y z
#    x 1.704600 0.000000 0.007130 
#    y 0.000000 1.683040 0.000000 
#    z 0.007130 0.000000 1.676780 
# 
# From -- ./inp_files/287339.got.cif
#   From: 2010.06.25/outbox.cif.g09.slc.cpg/sg12_144_cif.got.tgz:287339.got - 2010.06.28 00:19:55.
