data_PCOD8088768
_publ_section_title
;
Structure prediction by ZEFSAII (Michael W. Deem and Ramdas Pophale) SiO2 
 PCOD8088768
Probable space group: C 2/M
;
_chemical_formula_sum "Si O2"
_cell_formula_units_Z 64
_cell_length_a 30.343704
_cell_length_b 9.213284
_cell_length_c 19.626558
_cell_angle_alpha 90.000000
_cell_angle_beta 37.726789
_cell_angle_gamma 90.000000
_cell_volume 3357.418331
_symmetry_space_group_name_H-M "C 2/M"
_symmetry_group_IT_number 12
_symmetry_cell_setting 'monoclinic'
loop_
_space_group_symop_operation_xyz
x,y,z
-x,y,-z
-x,-y,-z
x,-y,z
1/2+x,1/2+y,z
1/2-x,1/2+y,-z
1/2-x,1/2-y,-z
1/2+x,1/2-y,z
loop_
_atom_site_type_symbol
_atom_site_label
_atom_site_fract_x
_atom_site_fract_y
_atom_site_fract_z
Si Si1 0.080504 0.172231 0.918232
Si Si2 0.549992 0.664285 0.609593
Si Si3 0.816173 0.830103 0.329967
Si Si4 0.575052 0.335330 0.426834
Si Si5 0.890527 0.170417 0.829660
Si Si6 0.701889 0.326922 0.180783
Si Si7 0.151073 0.827317 0.972414
Si Si8 0.841133 0.668850 0.436899
O O1 0.139791 0.226384 0.790189
O O2 0.105178 0.226835 0.963057
O O3 0.077890 0.000000 0.920618
O O4 0.000000 0.233248 0.000000
O O5 0.554674 0.500000 0.633695
O O6 0.589418 0.671144 0.489252
O O7 0.467138 0.714825 0.703845
O O8 0.589024 0.778471 0.609316
O O9 0.845053 0.749115 0.360487
O O10 0.730482 0.796125 0.430589
O O11 0.830161 0.000000 0.323159
O O12 0.500000 0.254810 0.500000
O O13 0.569031 0.500000 0.406480
O O14 0.642175 0.266221 0.306192
O O15 0.825000 0.225956 0.861561
O O16 0.883298 0.000000 0.840008
O O17 0.886859 0.228421 0.911650
O O18 0.714303 0.500000 0.169027
O O19 0.771600 0.245446 0.121566
O O20 0.160125 0.000000 0.959029
O O21 0.846882 0.500000 0.414747
#
# Coordination Sequence:
#
# PCOD8088768 Si02
#       8
#     8   8   8   8   8   8   8   8
#     4   9  19  35  57  81 103 134 180 227 261 305
#     4  10  19  32  55  81 104 138 181 220 259 309
#     4   9  19  37  58  77 102 138 177 216 263 317
#     4   9  16  30  52  78 105 137 180 220 252 297
#     4   9  18  33  55  80 105 140 188 227 252 300
#     4  10  19  34  55  79 109 143 179 221 266 311
#     4  10  21  35  54  81 107 137 179 223 267 313
#     4  10  21  35  53  81 111 136 167 216 271 322
#
# _framework density 19.062265
#
# number of rings (size 3 to 8) (size 9 to 14) (size 15 to 20)
#    0.000    2.500    1.250    0.750    3.500    0.500 
#    0.000    1.875    0.000    1.500    0.000    0.000 
#    0.000    0.000    0.000    0.000    0.000    0.000 
#
# Total GULP energy -396588.395253 kJ/mol
# GULP energy per Si atom -12393.387352 kJ/mol
# Density = 1.901888 g / cm^3
# Si number density = 19.062265 Si / 1000 Ang^3
#
#
#
# Elastic Constant Matrix: (Units=GPa)
#
#
# Indices 1 2 3 4 5 6 
#
# 1 141.5059 22.3040 59.5241 -0.0010 -0.4926 -0.0040
# 2 22.3040 18.5983 18.0443 0.0010 2.6619 0.0031
# 3 59.5241 18.0443 126.6901 -0.0029 10.5425 -0.0020
# 4 -0.0010 0.0010 -0.0029 19.3121 -0.0018 -7.1416
# 5 -0.4926 2.6619 10.5425 -0.0018 27.2334 0.0054
# 6 -0.0040 0.0031 -0.0020 -7.1416 0.0054 22.3920
#
#
#
# Elastic Compliance Matrix: (Units=1/GPa)
#
#
# Indices 1 2 3 4 5 6 
#
# 1 0.009997 -0.008801 -0.003648 0.000002 0.002453 0.000003
# 2 -0.008801 0.070338 -0.005474 -0.000010 -0.004915 -0.000014
# 3 -0.003648 -0.005474 0.010692 0.000002 -0.003670 0.000003
# 4 0.000002 -0.000010 0.000002 0.058705 0.000000 0.018723
# 5 0.002453 -0.004915 -0.003670 0.000000 0.038665 -0.000008
# 6 0.000003 -0.000014 0.000003 0.018723 -0.000008 0.050630
#
#
# Mechanical properties :
#
#
# Convention : Reuss Voigt Hill
#
# Bulk Modulus (GPa) = 18.12206 54.05989 36.09097
# Shear Modulus (GPa) = 17.04938 26.24896 21.64917
#
# Velocity S-wave (km/s) = 2.99390 3.71484 3.37368
# Velocity P-wave (km/s) = 4.63451 6.84260 5.84380
#
# Compressibility (1/GPa) = 0.05518136
#
# Stress axis : x y z
#
# Youngs Moduli (GPa) = 100.03065 14.21717 93.52696
#
# Poissons Ratio (x) = 0.12513 0.34115
# Poissons Ratio (y) = 0.88037 0.51197
# Poissons Ratio (z) = 0.36487 0.07782
#
# Static dielectric constant tensor:
#      x y z
#    x 3.601870 -0.000020 0.082530 
#    y -0.000020 3.047690 0.000040 
#    z 0.082530 0.000040 3.857290 
# 
# 
# High freq. dielectric constant tensor:
#      x y z
#    x 1.747580 0.000000 0.001790 
#    y 0.000000 1.689290 0.000000 
#    z 0.001790 0.000000 1.754610 
# 
# From -- ./inp_files/295480.got.cif
#   From: 2010.06.25/outbox.cif.g09.slc.cpg/sg12_148_cif.got.tgz:295480.got - 2010.06.28 00:19:55.
