data_PCOD8088409
_publ_section_title
;
Structure prediction by ZEFSAII (Michael W. Deem and Ramdas Pophale) SiO2 
 PCOD8088409
Probable space group: C 2/M
;
_chemical_formula_sum "Si O2"
_cell_formula_units_Z 48
_cell_length_a 5.150665
_cell_length_b 24.304415
_cell_length_c 21.463017
_cell_angle_alpha 90.000000
_cell_angle_beta 96.099374
_cell_angle_gamma 90.000000
_cell_volume 2671.614338
_symmetry_space_group_name_H-M "C 2/M"
_symmetry_group_IT_number 12
_symmetry_cell_setting 'monoclinic'
loop_
_space_group_symop_operation_xyz
x,y,z
-x,y,-z
-x,-y,-z
x,-y,z
1/2+x,1/2+y,z
1/2-x,1/2+y,-z
1/2-x,1/2-y,-z
1/2+x,1/2-y,z
loop_
_atom_site_type_symbol
_atom_site_label
_atom_site_fract_x
_atom_site_fract_y
_atom_site_fract_z
Si Si1 0.231347 0.000000 0.458060
Si Si2 0.500000 0.287692 0.000000
Si Si3 0.101191 0.785329 0.215575
Si Si4 0.450132 0.628002 0.887642
Si Si5 0.148808 0.784280 0.361172
Si Si6 0.730761 0.381045 0.456604
Si Si7 0.467597 0.065041 0.927101
O O1 0.500000 0.000000 0.500000
O O2 0.214541 0.941432 0.421742
O O3 0.000000 0.000000 0.500000
O O4 0.527161 0.324496 0.061269
O O5 0.750000 0.250000 0.000000
O O6 0.347622 0.751595 0.196214
O O7 0.078847 0.843397 0.180050
O O8 0.133250 0.800360 0.288574
O O9 0.701471 0.589313 0.893673
O O10 0.203355 0.589507 0.893556
O O11 0.376920 0.740166 0.378637
O O12 0.212078 0.838823 0.400210
O O13 0.500000 0.372260 0.500000
O O14 0.000000 0.372811 0.500000
O O15 0.464404 0.000000 0.918691
O O16 0.500000 0.081894 0.000000
#
# Coordination Sequence:
#
# PCOD8088409 Si02
#       7
#     4   4   8   8   8   8   8
#     4   8  16  30  48  72 102 136 174 207 258 313
#     4  12  22  32  49  80 111 128 168 224 266 312
#     4  10  21  38  56  78 107 148 183 211 263 332
#     4  12  21  37  57  80 106 145 175 220 274 312
#     4  10  21  35  53  79 110 145 179 215 264 326
#     4  10  19  32  53  80 108 141 176 223 267 310
#     4  11  22  38  57  80 107 139 178 219 272 329
#
# _framework density 17.966666
#
# number of rings (size 3 to 8) (size 9 to 14) (size 15 to 20)
#    0.000    1.500    1.667    4.500    0.000    3.333 
#    0.000    0.000    3.667    0.000    4.333    0.000 
#    0.000    0.000    0.000    0.000    0.000    0.000 
#
# Total GULP energy -297589.813882 kJ/mol
# GULP energy per Si atom -12399.575578 kJ/mol
# Density = 1.792577 g / cm^3
# Si number density = 17.966666 Si / 1000 Ang^3
#
#
#
# Elastic Constant Matrix: (Units=GPa)
#
#
# Indices 1 2 3 4 5 6 
#
# 1 157.7350 51.0233 35.6144 0.0000 4.6785 0.0000
# 2 51.0233 129.6190 65.6607 0.0000 9.2311 0.0000
# 3 35.6144 65.6607 70.4415 0.0000 3.8563 0.0000
# 4 0.0000 0.0000 0.0000 18.1656 0.0000 1.3457
# 5 4.6785 9.2311 3.8563 0.0000 15.3792 0.0000
# 6 0.0000 0.0000 0.0000 1.3457 0.0000 38.3651
#
#
#
# Elastic Compliance Matrix: (Units=1/GPa)
#
#
# Indices 1 2 3 4 5 6 
#
# 1 0.007409 -0.001878 -0.001960 0.000000 -0.000635 0.000000
# 2 -0.001878 0.015555 -0.013251 0.000000 -0.005442 0.000000
# 3 -0.001960 -0.013251 0.027448 0.000000 0.001668 0.000000
# 4 0.000000 0.000000 0.000000 0.055193 0.000000 -0.001936
# 5 -0.000635 -0.005442 0.001668 0.000000 0.068065 0.000000
# 6 0.000000 0.000000 0.000000 -0.001936 0.000000 0.026133
#
#
# Mechanical properties :
#
#
# Convention : Reuss Voigt Hill
#
# Bulk Modulus (GPa) = 61.60822 73.59913 67.60368
# Shear Modulus (GPa) = 20.88625 28.08177 24.48401
#
# Velocity S-wave (km/s) = 3.41324 3.95776 3.69554
# Velocity P-wave (km/s) = 7.06388 7.87009 7.47786
#
# Compressibility (1/GPa) = 0.01623160
#
# Stress axis : x y z
#
# Youngs Moduli (GPa) = 134.97606 64.29004 36.43246
#
# Poissons Ratio (x) = 0.12074 0.07142
# Poissons Ratio (y) = 0.25350 0.48278
# Poissons Ratio (z) = 0.26460 0.85193
#
# Static dielectric constant tensor:
#      x y z
#    x 3.673400 0.000000 -0.002790 
#    y 0.000000 3.593400 0.000000 
#    z -0.002790 0.000000 3.124860 
# 
# 
# High freq. dielectric constant tensor:
#      x y z
#    x 1.725080 0.000000 -0.001450 
#    y 0.000000 1.707950 0.000000 
#    z -0.001450 0.000000 1.667350 
# 
# From -- ./inp_files/297768.got.cif
#   From: 2010.06.25/outbox.cif.g09.slc.cpg/sg12_149_cif.got.tgz:297768.got - 2010.06.28 00:19:55.
