data_PCOD8088179
_publ_section_title
;
Structure prediction by ZEFSAII (Michael W. Deem and Ramdas Pophale) SiO2 
 PCOD8088179
Probable space group: C 2/M
;
_chemical_formula_sum "Si O2"
_cell_formula_units_Z 48
_cell_length_a 19.361331
_cell_length_b 22.510801
_cell_length_c 5.159344
_cell_angle_alpha 90.000000
_cell_angle_beta 97.626522
_cell_angle_gamma 90.000000
_cell_volume 2228.752664
_symmetry_space_group_name_H-M "C 2/M"
_symmetry_group_IT_number 12
_symmetry_cell_setting 'monoclinic'
loop_
_space_group_symop_operation_xyz
x,y,z
-x,y,-z
-x,-y,-z
x,-y,z
1/2+x,1/2+y,z
1/2-x,1/2+y,-z
1/2-x,1/2-y,-z
1/2+x,1/2-y,z
loop_
_atom_site_type_symbol
_atom_site_label
_atom_site_fract_x
_atom_site_fract_y
_atom_site_fract_z
Si Si1 0.544901 0.810837 0.783635
Si Si2 0.198759 0.622773 0.445306
Si Si3 0.078765 0.071041 0.037384
Si Si4 0.344046 0.569590 0.424807
Si Si5 0.193910 0.300947 0.936676
Si Si6 0.424724 0.935552 0.345838
O O1 0.500000 0.804175 0.500000
O O2 0.617957 0.774612 0.808423
O O3 0.569813 0.879715 0.847940
O O4 0.500000 0.787323 0.000000
O O5 0.262440 0.582410 0.384461
O O6 0.220471 0.655120 0.724087
O O7 0.131529 0.581158 0.459839
O O8 0.182025 0.668594 0.208844
O O9 0.117594 0.097264 0.307337
O O10 0.079963 0.000000 0.036080
O O11 0.119483 0.097370 0.810270
O O12 0.000000 0.095005 0.000000
O O13 0.355990 0.500000 0.429163
O O14 0.250000 0.250000 0.000000
O O15 0.500000 0.944569 0.500000
O O16 0.403392 0.000000 0.208008
#
# Coordination Sequence:
#
# PCOD8088179 Si02
#       6
#     8   8   8   8   8   8
#     4  10  20  37  60  87 116 151 195 237 284 346
#     4  11  22  37  57  84 115 149 190 233 280 339
#     4   9  17  30  50  75 103 143 189 223 261 320
#     4  10  19  32  52  80 114 147 179 224 280 339
#     4  11  23  40  62  83 108 146 193 243 289 334
#     4   9  18  33  54  84 122 157 187 223 272 335
#
# _framework density 21.536712000000001
#
# number of rings (size 3 to 8) (size 9 to 14) (size 15 to 20)
#    0.000    2.000    0.000    5.500    0.000    2.333 
#    0.000   12.500    0.000   10.000    0.000    0.000 
#    0.000    0.000    0.000    0.000    0.000    0.000 
#
# Total GULP energy -297417.127623 kJ/mol
# GULP energy per Si atom -12392.380318 kJ/mol
# Density = 2.148769 g / cm^3
# Si number density = 21.536712 Si / 1000 Ang^3
#
#
#
# Elastic Constant Matrix: (Units=GPa)
#
#
# Indices 1 2 3 4 5 6 
#
# 1 185.9856 32.8114 62.9671 0.0000 -2.0699 0.0000
# 2 32.8114 43.3636 22.0787 0.0000 9.1582 0.0000
# 3 62.9671 22.0787 137.3581 0.0000 -8.1563 0.0000
# 4 0.0000 0.0000 0.0000 17.1942 0.0000 1.7233
# 5 -2.0699 9.1582 -8.1563 0.0000 40.5712 0.0000
# 6 0.0000 0.0000 0.0000 1.7233 0.0000 29.5705
#
#
#
# Elastic Compliance Matrix: (Units=1/GPa)
#
#
# Indices 1 2 3 4 5 6 
#
# 1 0.006959 -0.004177 -0.002471 0.000000 0.000801 0.000000
# 2 -0.004177 0.029475 -0.003270 0.000000 -0.007524 0.000000
# 3 -0.002471 -0.003270 0.009083 0.000000 0.002438 0.000000
# 4 0.000000 0.000000 0.000000 0.058501 0.000000 -0.003409
# 5 0.000801 -0.007524 0.002438 0.000000 0.026877 0.000000
# 6 0.000000 0.000000 0.000000 -0.003409 0.000000 0.034016
#
#
# Mechanical properties :
#
#
# Convention : Reuss Voigt Hill
#
# Bulk Modulus (GPa) = 38.93774 66.93576 52.93675
# Shear Modulus (GPa) = 25.86540 34.05718 29.96129
#
# Velocity S-wave (km/s) = 3.46929 3.98094 3.73389
# Velocity P-wave (km/s) = 5.84525 7.23034 6.57437
#
# Compressibility (1/GPa) = 0.02568202
#
# Stress axis : x y z
#
# Youngs Moduli (GPa) = 143.69480 33.92707 110.08976
#
# Poissons Ratio (x) = 0.14170 0.27206
# Poissons Ratio (y) = 0.60016 0.35998
# Poissons Ratio (z) = 0.35511 0.11094
#
# Static dielectric constant tensor:
#      x y z
#    x 4.209180 0.000000 0.041850 
#    y 0.000000 3.666770 0.000000 
#    z 0.041850 0.000000 4.048330 
# 
# 
# High freq. dielectric constant tensor:
#      x y z
#    x 1.872090 0.000000 -0.002540 
#    y 0.000000 1.793190 0.000000 
#    z -0.002540 0.000000 1.846430 
# 
# From -- ./inp_files/16685.got.cif
#   From: 2010.06.25/outbox.cif.g09.slc.cpg/sg12_9_cif.got.tgz:16685.got - 2010.06.28 00:19:55.
