data_PCOD8088858
_publ_section_title
;
Structure prediction by ZEFSAII (Michael W. Deem and Ramdas Pophale) SiO2 
 PCOD8088858
Probable space group: C 2/M
;
_chemical_formula_sum "Si O2"
_cell_formula_units_Z 52
_cell_length_a 9.685170
_cell_length_b 20.293953
_cell_length_c 13.960841
_cell_angle_alpha 90.000000
_cell_angle_beta 103.868252
_cell_angle_gamma 90.000000
_cell_volume 2664.019294
_symmetry_space_group_name_H-M "C 2/M"
_symmetry_group_IT_number 12
_symmetry_cell_setting 'monoclinic'
loop_
_space_group_symop_operation_xyz
x,y,z
-x,y,-z
-x,-y,-z
x,-y,z
1/2+x,1/2+y,z
1/2-x,1/2+y,-z
1/2-x,1/2-y,-z
1/2+x,1/2-y,z
loop_
_atom_site_type_symbol
_atom_site_label
_atom_site_fract_x
_atom_site_fract_y
_atom_site_fract_z
Si Si1 0.724323 0.332350 0.424793
Si Si2 0.000000 0.247955 0.500000
Si Si3 0.965657 0.578540 0.787217
Si Si4 0.103884 0.076442 0.245008
Si Si5 0.249978 0.576707 0.924054
Si Si6 0.611489 0.925982 0.432867
Si Si7 0.200193 0.077945 0.858818
O O1 0.869534 0.289939 0.431465
O O2 0.580303 0.292968 0.429140
O O3 0.697292 0.375412 0.325496
O O4 0.753137 0.381117 0.519104
O O5 0.970925 0.500000 0.791567
O O6 0.960802 0.601501 0.675837
O O7 0.830773 0.607485 0.820915
O O8 0.103553 0.609027 0.861577
O O9 0.132501 0.088159 0.137352
O O10 0.938772 0.095378 0.226452
O O11 0.137424 0.000000 0.278688
O O12 0.223279 0.500000 0.936869
O O13 0.298037 0.608678 0.033237
O O14 0.500000 0.921858 0.500000
O O15 0.667520 0.000000 0.426463
O O16 0.211382 0.000000 0.869814
#
# Coordination Sequence:
#
# PCOD8088858 Si02
#       7
#     8   4   8   8   8   8   8
#     4  11  22  42  58  80 108 141 189 236 272 338
#     4  10  26  42  60  74 106 146 198 232 278 312
#     4   9  17  27  44  73 109 150 185 208 257 323
#     4  10  20  33  55  86 116 146 174 216 284 339
#     4   9  16  28  47  75 114 152 180 209 259 335
#     4  10  19  32  55  85 117 147 175 224 284 338
#     4   9  17  29  45  75 117 149 178 215 263 330
#
# _framework density 19.519376999999999
#
# number of rings (size 3 to 8) (size 9 to 14) (size 15 to 20)
#    0.000    2.308    0.769    2.308    2.154    6.154 
#    0.000    0.769    0.000    0.000    0.000    4.308 
#    0.000    0.000    0.000    0.000    0.000    0.000 
#
# Total GULP energy -322167.302558 kJ/mol
# GULP energy per Si atom -12391.050098 kJ/mol
# Density = 1.947495 g / cm^3
# Si number density = 19.519377 Si / 1000 Ang^3
#
#
#
# Elastic Constant Matrix: (Units=GPa)
#
#
# Indices 1 2 3 4 5 6 
#
# 1 110.9639 26.3304 31.1261 0.0000 6.3139 0.0000
# 2 26.3304 52.5762 33.5754 0.0000 4.3323 0.0000
# 3 31.1261 33.5754 121.6935 0.0000 5.2117 0.0000
# 4 0.0000 0.0000 0.0000 9.1612 0.0000 5.6615
# 5 6.3139 4.3323 5.2117 0.0000 22.8564 0.0000
# 6 0.0000 0.0000 0.0000 5.6615 0.0000 15.2956
#
#
#
# Elastic Compliance Matrix: (Units=1/GPa)
#
#
# Indices 1 2 3 4 5 6 
#
# 1 0.010516 -0.004189 -0.001458 0.000000 -0.001779 0.000000
# 2 -0.004189 0.024956 -0.005717 0.000000 -0.002270 0.000000
# 3 -0.001458 -0.005717 0.010203 0.000000 -0.000840 0.000000
# 4 0.000000 0.000000 0.000000 0.141529 0.000000 -0.052386
# 5 -0.001779 -0.002270 -0.000840 0.000000 0.044865 0.000000
# 6 0.000000 0.000000 0.000000 -0.052386 0.000000 0.084769
#
#
# Mechanical properties :
#
#
# Convention : Reuss Voigt Hill
#
# Bulk Modulus (GPa) = 43.57642 51.92194 47.74918
# Shear Modulus (GPa) = 14.40034 22.40941 18.40488
#
# Velocity S-wave (km/s) = 2.71909 3.39198 3.07400
# Velocity P-wave (km/s) = 5.67725 6.48064 6.09220
#
# Compressibility (1/GPa) = 0.02294819
#
# Stress axis : x y z
#
# Youngs Moduli (GPa) = 95.09267 40.07123 98.00591
#
# Poissons Ratio (x) = 0.16786 0.14288
# Poissons Ratio (y) = 0.39834 0.56027
# Poissons Ratio (z) = 0.13863 0.22907
#
# Static dielectric constant tensor:
#      x y z
#    x 3.752200 0.000000 0.096180 
#    y 0.000000 3.234960 0.000000 
#    z 0.096180 0.000000 3.656120 
# 
# 
# High freq. dielectric constant tensor:
#      x y z
#    x 1.771450 0.000000 0.005320 
#    y 0.000000 1.693220 0.000000 
#    z 0.005320 0.000000 1.767370 
# 
# From -- ./inp_files/198016.got.cif
#   From: 2010.06.25/outbox.cif.g09.slc.cpg/sg12_100_cif.got.tgz:198016.got - 2010.06.28 00:19:55.
