data_PCOD8088795
_publ_section_title
;
Structure prediction by ZEFSAII (Michael W. Deem and Ramdas Pophale) SiO2 
 PCOD8088795
Probable space group: C 2/M
;
_chemical_formula_sum "Si O2"
_cell_formula_units_Z 56
_cell_length_a 33.328032
_cell_length_b 8.944197
_cell_length_c 24.382073
_cell_angle_alpha 90.000000
_cell_angle_beta 23.580069
_cell_angle_gamma 90.000000
_cell_volume 2907.464875
_symmetry_space_group_name_H-M "C 2/M"
_symmetry_group_IT_number 12
_symmetry_cell_setting 'monoclinic'
loop_
_space_group_symop_operation_xyz
x,y,z
-x,y,-z
-x,-y,-z
x,-y,z
1/2+x,1/2+y,z
1/2-x,1/2+y,-z
1/2-x,1/2-y,-z
1/2+x,1/2-y,z
loop_
_atom_site_type_symbol
_atom_site_label
_atom_site_fract_x
_atom_site_fract_y
_atom_site_fract_z
Si Si1 0.775453 0.176365 0.113260
Si Si2 0.044786 0.323549 0.169830
Si Si3 0.638097 0.172667 0.891177
Si Si4 0.571662 0.170328 0.790798
Si Si5 0.548184 0.176963 0.384053
Si Si6 0.213834 0.176420 0.689167
Si Si7 0.058441 0.322285 0.590670
O O1 0.792365 0.243897 0.152097
O O2 0.664218 0.221545 0.233726
O O3 0.789628 0.000000 0.099609
O O4 0.851201 0.241426 0.973334
O O5 0.066185 0.500000 0.141586
O O6 0.960752 0.282770 0.229864
O O7 0.005733 0.264755 0.277136
O O8 0.653166 0.244085 0.813262
O O9 0.669534 0.000000 0.851024
O O10 0.522115 0.192069 0.051339
O O11 0.662203 0.276910 0.696526
O O12 0.609751 0.000000 0.744406
O O13 0.500000 0.244620 0.500000
O O14 0.489952 0.243608 0.404312
O O15 0.534749 0.000000 0.401550
O O16 0.327896 0.234740 0.546470
O O17 0.208072 0.000000 0.704221
O O18 0.056360 0.500000 0.593190
#
# Coordination Sequence:
#
# PCOD8088795 Si02
#       7
#     8   8   8   8   8   8   8
#     4  10  19  32  55  83 106 132 173 223 262 298
#     4   9  19  37  56  73 102 144 180 210 256 318
#     4  10  20  35  54  76 107 144 174 206 260 325
#     4   9  19  34  51  72 101 139 177 212 261 321
#     4   9  17  31  53  80 108 137 169 210 262 314
#     4  11  21  32  52  80 105 134 177 225 262 298
#     4   9  19  35  53  75 105 142 180 213 255 316
#
# _framework density 19.260766
#
# number of rings (size 3 to 8) (size 9 to 14) (size 15 to 20)
#    0.000    2.429    0.000    3.429    0.000    8.000 
#    0.000    1.429    0.000   10.286    0.000    0.000 
#    0.000    0.000    0.000    0.000    0.000    0.000 
#
# Total GULP energy -347244.493306 kJ/mol
# GULP energy per Si atom -12401.589047 kJ/mol
# Density = 1.921693 g / cm^3
# Si number density = 19.260766 Si / 1000 Ang^3
#
#
#
# Elastic Constant Matrix: (Units=GPa)
#
#
# Indices 1 2 3 4 5 6 
#
# 1 154.0497 38.9290 89.7450 0.0027 -4.2731 0.0002
# 2 38.9290 57.1296 37.5239 0.0267 -8.0393 -0.0015
# 3 89.7450 37.5239 98.1286 0.0055 1.8076 0.0016
# 4 0.0027 0.0267 0.0055 15.9872 0.0013 -0.9775
# 5 -4.2731 -8.0393 1.8076 0.0013 38.4686 -0.0013
# 6 0.0002 -0.0015 0.0016 -0.9775 -0.0013 22.2822
#
#
#
# Elastic Compliance Matrix: (Units=1/GPa)
#
#
# Indices 1 2 3 4 5 6 
#
# 1 0.014125 -0.001130 -0.012521 0.000004 0.001921 0.000001
# 2 -0.001130 0.024602 -0.008474 -0.000038 0.005414 0.000001
# 3 -0.012521 -0.008474 0.024962 0.000008 -0.004335 -0.000002
# 4 0.000004 -0.000038 0.000008 0.062718 -0.000010 0.002751
# 5 0.001921 0.005414 -0.004335 -0.000010 0.027544 0.000002
# 6 0.000001 0.000001 -0.000002 0.002751 0.000002 0.044999
#
#
# Mechanical properties :
#
#
# Convention : Reuss Voigt Hill
#
# Bulk Modulus (GPa) = 51.44396 71.30041 61.37219
# Shear Modulus (GPa) = 20.02558 24.88828 22.45693
#
# Velocity S-wave (km/s) = 3.22795 3.59858 3.41829
# Velocity P-wave (km/s) = 6.37652 7.37328 6.89294
#
# Compressibility (1/GPa) = 0.01943863
#
# Stress axis : x y z
#
# Youngs Moduli (GPa) = 70.79696 40.64747 40.06029
#
# Poissons Ratio (x) = 0.04594 0.50161
# Poissons Ratio (y) = 0.08002 0.33945
# Poissons Ratio (z) = 0.88647 0.34443
#
# Static dielectric constant tensor:
#      x y z
#    x 3.722220 0.000000 0.022560 
#    y 0.000000 3.249200 0.000010 
#    z 0.022560 0.000010 3.524300 
# 
# 
# High freq. dielectric constant tensor:
#      x y z
#    x 1.759060 0.000000 -0.000980 
#    y 0.000000 1.721600 0.000000 
#    z -0.000980 0.000000 1.749620 
# 
# From -- ./inp_files/329547.got.cif
#   From: 2010.06.25/outbox.cif.g09.slc.cpg/sg12_165_cif.got.tgz:329547.got - 2010.06.28 00:19:55.
