data_PCOD8088501
_publ_section_title
;
Structure prediction by ZEFSAII (Michael W. Deem and Ramdas Pophale) SiO2 
 PCOD8088501
Probable space group: C 2/M
;
_chemical_formula_sum "Si O2"
_cell_formula_units_Z 48
_cell_length_a 28.178190
_cell_length_b 9.305152
_cell_length_c 19.551166
_cell_angle_alpha 90.000000
_cell_angle_beta 153.668634
_cell_angle_gamma 90.000000
_cell_volume 2273.858629
_symmetry_space_group_name_H-M "C 2/M"
_symmetry_group_IT_number 12
_symmetry_cell_setting 'monoclinic'
loop_
_space_group_symop_operation_xyz
x,y,z
-x,y,-z
-x,-y,-z
x,-y,z
1/2+x,1/2+y,z
1/2-x,1/2+y,-z
1/2-x,1/2-y,-z
1/2+x,1/2-y,z
loop_
_atom_site_type_symbol
_atom_site_label
_atom_site_fract_x
_atom_site_fract_y
_atom_site_fract_z
Si Si1 0.378659 0.662871 0.850177
Si Si2 0.304830 0.330843 0.134174
Si Si3 0.284653 0.167765 0.246027
Si Si4 0.106483 0.844822 0.362902
Si Si5 0.154014 0.654067 0.313094
Si Si6 0.942906 0.166930 0.549366
O O1 0.369540 0.500000 0.812872
O O2 0.327619 0.682120 0.858774
O O3 0.315220 0.761603 0.715785
O O4 0.500000 0.716756 0.000000
O O5 0.274186 0.500000 0.093504
O O6 0.263343 0.254612 0.149228
O O7 0.431642 0.310195 0.297655
O O8 0.250000 0.250000 0.000000
O O9 0.381686 0.236271 0.414885
O O10 0.311666 0.000000 0.266699
O O11 0.070313 0.735363 0.256210
O O12 0.230367 0.871303 0.504351
O O13 0.086024 0.780108 0.411592
O O14 0.046310 0.000000 0.278976
O O15 0.100657 0.500000 0.227686
O O16 0.910001 0.000000 0.496357
#
# Coordination Sequence:
#
# PCOD8088501 Si02
#       6
#     8   8   8   8   8   8
#     4  10  22  39  58  82 117 161 201 238 291 358
#     4  11  25  44  66  90 123 161 201 250 307 369
#     4  11  23  40  65  93 122 158 204 256 305 359
#     4   9  18  33  55  81 114 150 188 235 287 346
#     4  10  19  32  53  82 115 150 192 240 287 338
#     4  10  21  40  65  92 121 162 206 248 303 363
#
# _framework density 21.109491999999999
#
# number of rings (size 3 to 8) (size 9 to 14) (size 15 to 20)
#    0.000    1.833    1.667    2.000    0.000    7.000 
#    0.000    6.667    0.000    0.000    0.000    0.000 
#    0.000    0.000    0.000    0.000    0.000    0.000 
#
# Total GULP energy -297444.787707 kJ/mol
# GULP energy per Si atom -12393.532821 kJ/mol
# Density = 2.106145 g / cm^3
# Si number density = 21.109492 Si / 1000 Ang^3
#
#
#
# Elastic Constant Matrix: (Units=GPa)
#
#
# Indices 1 2 3 4 5 6 
#
# 1 126.3100 71.3543 45.6499 0.0000 -25.3835 0.0000
# 2 71.3543 140.2158 45.9118 0.0000 -18.0526 0.0000
# 3 45.6499 45.9118 56.7483 0.0000 -3.5768 0.0000
# 4 0.0000 0.0000 0.0000 26.7467 0.0000 -5.8174
# 5 -25.3835 -18.0526 -3.5768 0.0000 38.0916 0.0000
# 6 0.0000 0.0000 0.0000 -5.8174 0.0000 29.1061
#
#
#
# Elastic Compliance Matrix: (Units=1/GPa)
#
#
# Indices 1 2 3 4 5 6 
#
# 1 0.014377 -0.003766 -0.008075 0.000000 0.007038 0.000000
# 2 -0.003766 0.011296 -0.005965 0.000000 0.002283 0.000000
# 3 -0.008075 -0.005965 0.028595 0.000000 -0.005523 0.000000
# 4 0.000000 0.000000 0.000000 0.039087 0.000000 0.007812
# 5 0.007038 0.002283 -0.005523 0.000000 0.031506 0.000000
# 6 0.000000 0.000000 0.000000 0.007812 0.000000 0.035918
#
#
# Mechanical properties :
#
#
# Convention : Reuss Voigt Hill
#
# Bulk Modulus (GPa) = 53.60270 72.12291 62.86280
# Shear Modulus (GPa) = 24.67795 29.47942 27.07869
#
# Velocity S-wave (km/s) = 3.42284 3.74103 3.58547
# Velocity P-wave (km/s) = 6.40850 7.27329 6.85455
#
# Compressibility (1/GPa) = 0.01865578
#
# Stress axis : x y z
#
# Youngs Moduli (GPa) = 69.55396 88.52949 34.97111
#
# Poissons Ratio (x) = 0.33344 0.28238
# Poissons Ratio (y) = 0.26197 0.20860
# Poissons Ratio (z) = 0.56163 0.52807
#
# Static dielectric constant tensor:
#      x y z
#    x 3.858160 0.000000 -0.077480 
#    y 0.000000 4.336900 0.000000 
#    z -0.077480 0.000000 3.546040 
# 
# 
# High freq. dielectric constant tensor:
#      x y z
#    x 1.835240 0.000000 -0.010710 
#    y 0.000000 1.838570 0.000000 
#    z -0.010710 0.000000 1.801080 
# 
# From -- ./inp_files/295888.got.cif
#   From: 2010.06.25/outbox.cif.g09.slc.cpg/sg12_148_cif.got.tgz:295888.got - 2010.06.28 00:19:55.
