data_PCOD8088513
_publ_section_title
;
Structure prediction by ZEFSAII (Michael W. Deem and Ramdas Pophale) SiO2 
 PCOD8088513
Probable space group: C 2/M
;
_chemical_formula_sum "Si O2"
_cell_formula_units_Z 56
_cell_length_a 17.148949
_cell_length_b 22.424489
_cell_length_c 14.498455
_cell_angle_alpha 90.000000
_cell_angle_beta 31.218482
_cell_angle_gamma 90.000000
_cell_volume 2889.784297
_symmetry_space_group_name_H-M "C 2/M"
_symmetry_group_IT_number 12
_symmetry_cell_setting 'monoclinic'
loop_
_space_group_symop_operation_xyz
x,y,z
-x,y,-z
-x,-y,-z
x,-y,z
1/2+x,1/2+y,z
1/2-x,1/2+y,-z
1/2-x,1/2-y,-z
1/2+x,1/2-y,z
loop_
_atom_site_type_symbol
_atom_site_label
_atom_site_fract_x
_atom_site_fract_y
_atom_site_fract_z
Si Si1 0.887079 0.892388 0.341855
Si Si2 0.588378 0.500000 0.812785
Si Si3 0.559219 0.712819 0.847541
Si Si4 0.108965 0.730366 0.475726
Si Si5 0.964697 0.844671 0.642388
Si Si6 0.943303 0.500000 0.455076
Si Si7 0.668224 0.201853 0.016141
Si Si8 0.551525 0.118387 0.651285
O O1 0.951686 0.942632 0.208165
O O2 0.925793 0.830474 0.253434
O O3 0.708172 0.896866 0.545608
O O4 0.976740 0.896885 0.348377
O O5 0.765538 0.500000 0.649032
O O6 0.500000 0.500000 0.000000
O O7 0.716678 0.742073 0.719625
O O8 0.448005 0.765934 0.933161
O O9 0.500000 0.679680 0.000000
O O10 0.092581 0.664648 0.530394
O O11 0.000000 0.736803 0.500000
O O12 0.052757 0.785927 0.594115
O O13 0.000000 0.860945 0.500000
O O14 0.787759 0.832974 0.832135
O O15 0.006707 0.557569 0.336482
O O16 0.000000 0.500000 0.500000
O O17 0.579864 0.148502 0.156946
O O18 0.750000 0.250000 0.000000
#
# Coordination Sequence:
#
# PCOD8088513 Si02
#       8
#     8   4   8   8   8   4   8   8
#     4  10  21  39  57  84 121 160 201 249 305 359
#     4  10  22  40  63  90 120 161 203 255 304 363
#     4  11  21  33  56  88 120 156 196 243 308 369
#     4  10  19  32  53  83 118 154 194 244 301 362
#     4  11  22  37  58  84 118 156 199 248 305 364
#     4  10  22  40  58  90 121 159 208 245 301 365
#     4  12  22  37  57  86 121 156 203 248 306 365
#     4  10  21  36  58  80 117 161 198 247 305 358
#
# _framework density 19.378606999999999
#
# number of rings (size 3 to 8) (size 9 to 14) (size 15 to 20)
#    0.000    1.429    2.857    3.429    0.000    3.429 
#    0.000    0.357    0.000    0.000    0.000    3.500 
#    0.000    0.000    0.000    0.000    0.000    0.000 
#
# Total GULP energy -346958.288004 kJ/mol
# GULP energy per Si atom -12391.367429 kJ/mol
# Density = 1.933450 g / cm^3
# Si number density = 19.378607 Si / 1000 Ang^3
#
#
#
# Elastic Constant Matrix: (Units=GPa)
#
#
# Indices 1 2 3 4 5 6 
#
# 1 131.3097 45.4500 58.7964 0.0296 1.1287 -0.0197
# 2 45.4500 87.5522 40.9725 0.0288 7.8445 -0.0230
# 3 58.7964 40.9725 143.6727 0.0418 2.7753 -0.0315
# 4 0.0296 0.0288 0.0418 25.0799 -0.0238 1.6053
# 5 1.1287 7.8445 2.7753 -0.0238 31.1145 0.0132
# 6 -0.0197 -0.0230 -0.0315 1.6053 0.0132 26.9550
#
#
#
# Elastic Compliance Matrix: (Units=1/GPa)
#
#
# Indices 1 2 3 4 5 6 
#
# 1 0.010398 -0.004016 -0.003128 -0.000002 0.000914 0.000000
# 2 -0.004016 0.015016 -0.002573 -0.000012 -0.003411 0.000009
# 3 -0.003128 -0.002573 0.008975 -0.000009 -0.000038 0.000007
# 4 -0.000002 -0.000012 -0.000009 0.040025 0.000035 -0.002384
# 5 0.000914 -0.003411 -0.000038 0.000035 0.032970 -0.000021
# 6 0.000000 0.000009 0.000007 -0.002384 -0.000021 0.037241
#
#
# Mechanical properties :
#
#
# Convention : Reuss Voigt Hill
#
# Bulk Modulus (GPa) = 66.86378 72.55249 69.70814
# Shear Modulus (GPa) = 29.57812 31.11758 30.34785
#
# Velocity S-wave (km/s) = 3.91106 4.01155 3.96163
# Velocity P-wave (km/s) = 7.41445 7.67968 7.54823
#
# Compressibility (1/GPa) = 0.01495578
#
# Stress axis : x y z
#
# Youngs Moduli (GPa) = 96.16924 66.59441 111.42401
#
# Poissons Ratio (x) = 0.26746 0.34850
# Poissons Ratio (y) = 0.38623 0.28668
# Poissons Ratio (z) = 0.30079 0.17134
#
# Static dielectric constant tensor:
#      x y z
#    x 3.563900 0.000050 -0.154080 
#    y 0.000050 3.687120 0.000090 
#    z -0.154080 0.000090 3.737990 
# 
# 
# High freq. dielectric constant tensor:
#      x y z
#    x 1.756770 -0.000010 -0.008540 
#    y -0.000010 1.731730 0.000010 
#    z -0.008540 0.000010 1.761600 
# 
# From -- ./inp_files/227609.got.cif
#   From: 2010.06.25/outbox.cif.g09.slc.cpg/sg12_114_cif.got.tgz:227609.got - 2010.06.28 00:19:55.
