data_PCOD8088429
_publ_section_title
;
Structure prediction by ZEFSAII (Michael W. Deem and Ramdas Pophale) SiO2 
 PCOD8088429
Probable space group: C 2/M
;
_chemical_formula_sum "Si O2"
_cell_formula_units_Z 48
_cell_length_a 32.192425
_cell_length_b 19.169669
_cell_length_c 8.589700
_cell_angle_alpha 90.000000
_cell_angle_beta 26.510296
_cell_angle_gamma 90.000000
_cell_volume 2366.084408
_symmetry_space_group_name_H-M "C 2/M"
_symmetry_group_IT_number 12
_symmetry_cell_setting 'monoclinic'
loop_
_space_group_symop_operation_xyz
x,y,z
-x,y,-z
-x,-y,-z
x,-y,z
1/2+x,1/2+y,z
1/2-x,1/2+y,-z
1/2-x,1/2-y,-z
1/2+x,1/2-y,z
loop_
_atom_site_type_symbol
_atom_site_label
_atom_site_fract_x
_atom_site_fract_y
_atom_site_fract_z
Si Si1 0.378679 0.207745 0.606914
Si Si2 0.239272 0.283829 0.279982
Si Si3 0.419143 0.580122 0.392773
Si Si4 0.004358 0.187470 0.305204
Si Si5 0.212797 0.153230 0.580772
Si Si6 0.781609 0.420879 0.077409
O O1 0.356324 0.204886 0.496482
O O2 0.483128 0.238427 0.285446
O O3 0.319284 0.270641 0.884771
O O4 0.360104 0.131821 0.746453
O O5 0.247711 0.219407 0.367658
O O6 0.256704 0.348904 0.339070
O O7 0.429385 0.500000 0.406348
O O8 0.430954 0.627140 0.506276
O O9 0.316411 0.596731 0.674830
O O10 0.500000 0.601649 0.000000
O O11 0.000000 0.205917 0.500000
O O12 0.102488 0.154140 0.931967
O O13 0.261968 0.087923 0.328654
O O14 0.814921 0.500000 0.933945
#
# Coordination Sequence:
#
# PCOD8088429 Si02
#       6
#     8   8   8   8   8   8
#     4  10  20  34  55  80 111 143 188 230 280 325
#     4   9  18  33  52  78 106 143 180 235 272 325
#     4  10  20  34  51  76 112 150 182 217 272 337
#     4  12  22  32  52  86 117 146 181 230 282 324
#     4  10  19  32  53  80 112 139 186 225 277 328
#     4  10  21  38  58  77 109 155 193 223 270 336
#
# _framework density 20.286681000000002
#
# number of rings (size 3 to 8) (size 9 to 14) (size 15 to 20)
#    0.000    1.833    3.333    3.000    0.000    0.333 
#    0.000    0.833    0.000    0.500    0.000    1.167 
#    0.000    0.000    0.000    0.000    0.000    0.000 
#
# Total GULP energy -297316.497273 kJ/mol
# GULP energy per Si atom -12388.187386 kJ/mol
# Density = 2.024051 g / cm^3
# Si number density = 20.286681 Si / 1000 Ang^3
#
#
#
# Elastic Constant Matrix: (Units=GPa)
#
#
# Indices 1 2 3 4 5 6 
#
# 1 146.6678 44.2698 7.3372 0.0000 0.7142 0.0000
# 2 44.2698 90.7064 11.6773 0.0000 -1.6793 0.0000
# 3 7.3372 11.6773 13.8559 0.0000 9.2533 0.0000
# 4 0.0000 0.0000 0.0000 6.2036 0.0000 8.9611
# 5 0.7142 -1.6793 9.2533 0.0000 9.8748 0.0000
# 6 0.0000 0.0000 0.0000 8.9611 0.0000 22.8125
#
#
#
# Elastic Compliance Matrix: (Units=1/GPa)
#
#
# Indices 1 2 3 4 5 6 
#
# 1 0.008012 -0.003875 -0.000402 0.000000 -0.000862 0.000000
# 2 -0.003875 0.019555 -0.044993 0.000000 0.045768 0.000000
# 3 -0.000402 -0.044993 0.308369 0.000000 -0.296585 0.000000
# 4 0.000000 0.000000 0.000000 0.372632 0.000000 -0.146375
# 5 -0.000862 0.045768 -0.296585 0.000000 0.387034 0.000000
# 6 0.000000 0.000000 0.000000 -0.146375 0.000000 0.101333
#
#
# Mechanical properties :
#
#
# Convention : Reuss Voigt Hill
#
# Bulk Modulus (GPa) = 4.21235 41.97765 23.09500
# Shear Modulus (GPa) = 3.63740 20.30791 11.97266
#
# Velocity S-wave (km/s) = 1.34048 3.16736 2.43198
# Velocity P-wave (km/s) = 2.11584 5.84067 4.39262
#
# Compressibility (1/GPa) = 0.23739734
#
# Stress axis : x y z
#
# Youngs Moduli (GPa) = 124.81454 51.13728 3.24287
#
# Poissons Ratio (x) = 0.19813 0.00130
# Poissons Ratio (y) = 0.48360 0.14591
# Poissons Ratio (z) = 0.05012 2.30084
#
# Static dielectric constant tensor:
#      x y z
#    x 4.226620 0.000000 0.084330 
#    y 0.000000 3.558730 0.000000 
#    z 0.084330 0.000000 3.574900 
# 
# 
# High freq. dielectric constant tensor:
#      x y z
#    x 1.802020 0.000000 0.005480 
#    y 0.000000 1.765280 0.000000 
#    z 0.005480 0.000000 1.765280 
# 
# From -- ./inp_files/113167.got.cif
#   From: 2010.06.25/outbox.cif.g09.slc.cpg/sg12_57_cif.got.tgz:113167.got - 2010.06.28 00:19:55.
