data_PCOD8088143
_publ_section_title
;
Structure prediction by ZEFSAII (Michael W. Deem and Ramdas Pophale) SiO2 
 PCOD8088143
Probable space group: C 2/M
;
_chemical_formula_sum "Si O2"
_cell_formula_units_Z 56
_cell_length_a 23.692520
_cell_length_b 9.243264
_cell_length_c 15.713939
_cell_angle_alpha 90.000000
_cell_angle_beta 56.702206
_cell_angle_gamma 90.000000
_cell_volume 2876.330929
_symmetry_space_group_name_H-M "C 2/M"
_symmetry_group_IT_number 12
_symmetry_cell_setting 'monoclinic'
loop_
_space_group_symop_operation_xyz
x,y,z
-x,y,-z
-x,-y,-z
x,-y,z
1/2+x,1/2+y,z
1/2-x,1/2+y,-z
1/2-x,1/2-y,-z
1/2+x,1/2-y,z
loop_
_atom_site_type_symbol
_atom_site_label
_atom_site_fract_x
_atom_site_fract_y
_atom_site_fract_z
Si Si1 0.575020 0.165405 0.450887
Si Si2 0.066968 0.328733 0.996064
Si Si3 0.791740 0.332559 0.394093
Si Si4 0.341763 0.331945 0.753947
Si Si5 0.202868 0.669717 0.798657
Si Si6 0.066024 0.663157 0.650594
Si Si7 0.559884 0.329124 0.180261
O O1 0.500000 0.227540 0.500000
O O2 0.626430 0.254173 0.352613
O O3 0.595719 0.183798 0.531652
O O4 0.577983 0.000000 0.417574
O O5 0.070734 0.500000 0.008130
O O6 0.066561 0.251923 0.086553
O O7 0.132016 0.267392 0.891498
O O8 0.000000 0.285587 0.000000
O O9 0.771496 0.500000 0.419369
O O10 0.750000 0.250000 0.500000
O O11 0.777075 0.269261 0.311532
O O12 0.871966 0.310098 0.337813
O O13 0.354038 0.500000 0.728366
O O14 0.261824 0.293994 0.818294
O O15 0.375422 0.285225 0.815281
O O16 0.192726 0.500000 0.795446
O O17 0.036901 0.500000 0.685982
O O18 0.007522 0.778077 0.716208
O O19 0.556025 0.500000 0.168250
#
# Coordination Sequence:
#
# PCOD8088143 Si02
#       7
#     8   8   8   8   8   8   8
#     4  10  19  32  52  79 112 148 186 229 273 318
#     4  10  21  40  65  85 104 140 187 229 275 332
#     4  10  20  35  57  83 111 143 182 226 272 325
#     4  10  21  36  54  79 114 150 184 222 274 338
#     4   9  19  37  58  80 109 146 184 224 271 328
#     4  10  20  35  55  80 111 148 190 232 274 328
#     4  11  23  36  54  83 113 142 181 230 279 326
#
# _framework density 19.469248
#
# number of rings (size 3 to 8) (size 9 to 14) (size 15 to 20)
#    0.000    2.000    1.429    2.143    0.000    5.143 
#    0.000    1.429    0.000    0.000    0.000    0.000 
#    0.000    0.000    0.000    0.000    0.000    0.000 
#
# Total GULP energy -347192.320686 kJ/mol
# GULP energy per Si atom -12399.725739 kJ/mol
# Density = 1.942494 g / cm^3
# Si number density = 19.469248 Si / 1000 Ang^3
#
#
#
# Elastic Constant Matrix: (Units=GPa)
#
#
# Indices 1 2 3 4 5 6 
#
# 1 138.5864 45.0229 72.5362 0.0000 7.9512 0.0000
# 2 45.0229 45.0707 43.2612 0.0000 2.4120 0.0000
# 3 72.5362 43.2612 125.6557 0.0000 1.0527 0.0000
# 4 0.0000 0.0000 0.0000 34.2656 0.0000 1.0158
# 5 7.9512 2.4120 1.0527 0.0000 34.4257 0.0000
# 6 0.0000 0.0000 0.0000 1.0158 0.0000 17.8075
#
#
#
# Elastic Compliance Matrix: (Units=1/GPa)
#
#
# Indices 1 2 3 4 5 6 
#
# 1 0.012143 -0.007924 -0.004264 0.000000 -0.002119 0.000000
# 2 -0.007924 0.038444 -0.008656 0.000000 -0.000599 0.000000
# 3 -0.004264 -0.008656 0.013390 0.000000 0.001182 0.000000
# 4 0.000000 0.000000 0.000000 0.029233 0.000000 -0.001668
# 5 -0.002119 -0.000599 0.001182 0.000000 0.029543 0.000000
# 6 0.000000 0.000000 0.000000 -0.001668 0.000000 0.056251
#
#
# Mechanical properties :
#
#
# Convention : Reuss Voigt Hill
#
# Bulk Modulus (GPa) = 44.86643 70.10593 57.48618
# Shear Modulus (GPa) = 21.91793 27.19927 24.55860
#
# Velocity S-wave (km/s) = 3.35889 3.74175 3.55548
# Velocity P-wave (km/s) = 6.17557 7.39962 6.81513
#
# Compressibility (1/GPa) = 0.02228838
#
# Stress axis : x y z
#
# Youngs Moduli (GPa) = 82.34870 26.01180 74.68283
#
# Poissons Ratio (x) = 0.20613 0.31844
# Poissons Ratio (y) = 0.65257 0.64647
# Poissons Ratio (z) = 0.35113 0.22516
#
# Static dielectric constant tensor:
#      x y z
#    x 3.867400 0.000000 0.048520 
#    y 0.000000 3.351430 0.000000 
#    z 0.048520 0.000000 3.528920 
# 
# 
# High freq. dielectric constant tensor:
#      x y z
#    x 1.777000 0.000000 0.006700 
#    y 0.000000 1.733050 0.000000 
#    z 0.006700 0.000000 1.755970 
# 
# From -- ./inp_files/238262.got.cif
#   From: 2010.06.25/outbox.cif.g09.slc.cpg/sg12_120_cif.got.tgz:238262.got - 2010.06.28 00:19:55.
