data_PCOD8088475
_publ_section_title
;
Structure prediction by ZEFSAII (Michael W. Deem and Ramdas Pophale) SiO2 
 PCOD8088475
Probable space group: C 2/M
;
_chemical_formula_sum "Si O2"
_cell_formula_units_Z 64
_cell_length_a 19.856440
_cell_length_b 15.471036
_cell_length_c 18.304037
_cell_angle_alpha 90.000000
_cell_angle_beta 34.186047
_cell_angle_gamma 90.000000
_cell_volume 3159.459169
_symmetry_space_group_name_H-M "C 2/M"
_symmetry_group_IT_number 12
_symmetry_cell_setting 'monoclinic'
loop_
_space_group_symop_operation_xyz
x,y,z
-x,y,-z
-x,-y,-z
x,-y,z
1/2+x,1/2+y,z
1/2-x,1/2+y,-z
1/2-x,1/2-y,-z
1/2+x,1/2-y,z
loop_
_atom_site_type_symbol
_atom_site_label
_atom_site_fract_x
_atom_site_fract_y
_atom_site_fract_z
Si Si1 0.315012 0.694250 0.683260
Si Si2 0.030476 0.095881 0.868066
Si Si3 0.621664 0.099855 0.923190
Si Si4 0.090597 0.401312 0.254895
Si Si5 0.288199 0.897902 0.003334
Si Si6 0.811363 0.855596 0.148978
Si Si7 0.035894 0.230418 0.582287
Si Si8 0.012997 0.100907 0.252821
O O1 0.234234 0.607949 0.764805
O O2 0.224327 0.758958 0.803118
O O3 0.433591 0.687300 0.624855
O O4 0.343302 0.724510 0.575107
O O5 0.151166 0.100310 0.807827
O O6 0.057377 0.116784 0.759791
O O7 0.975565 0.000000 0.922801
O O8 0.924381 0.155171 0.994000
O O9 0.596786 0.000000 0.958355
O O10 0.500000 0.142869 0.000000
O O11 0.653655 0.139955 0.974595
O O12 0.036815 0.500000 0.299046
O O13 0.137120 0.366618 0.134639
O O14 0.200933 0.406999 0.212403
O O15 0.992357 0.330535 0.370729
O O16 0.288354 0.000000 0.002652
O O17 0.150283 0.867231 0.121872
O O18 0.055821 0.165627 0.631389
O O19 0.004218 0.000000 0.285855
#
# Coordination Sequence:
#
# PCOD8088475 Si02
#       8
#     8   8   8   8   8   8   8   8
#     4  10  22  38  54  81 116 146 195 240 270 343
#     4  10  19  32  54  86 113 141 184 227 286 350
#     4  10  21  37  59  84 113 150 189 238 295 342
#     4  10  19  35  58  83 116 150 187 241 289 334
#     4   9  17  32  55  85 112 140 185 237 289 340
#     4  10  19  32  53  81 114 148 181 232 289 332
#     4  10  22  38  56  84 114 152 201 232 276 344
#     4  10  19  34  57  85 115 146 185 239 289 336
#
# _framework density 20.256632
#
# number of rings (size 3 to 8) (size 9 to 14) (size 15 to 20)
#    0.000    2.125    2.500    1.500    1.750    2.000 
#    0.000    8.125    0.000    0.000    0.000    0.000 
#    0.000    0.000    0.000    0.000    0.000    0.000 
#
# Total GULP energy -396544.227445 kJ/mol
# GULP energy per Si atom -12392.007108 kJ/mol
# Density = 2.021053 g / cm^3
# Si number density = 20.256632 Si / 1000 Ang^3
#
#
#
# Elastic Constant Matrix: (Units=GPa)
#
#
# Indices 1 2 3 4 5 6 
#
# 1 110.2639 32.0451 48.2537 0.0000 25.0782 0.0000
# 2 32.0451 55.2271 27.3871 0.0000 12.6301 0.0000
# 3 48.2537 27.3871 96.8373 0.0001 21.3482 -0.0001
# 4 0.0000 0.0000 0.0001 18.6445 0.0000 7.5513
# 5 25.0782 12.6301 21.3482 0.0000 27.0003 0.0000
# 6 0.0000 0.0000 -0.0001 7.5513 0.0000 21.3229
#
#
#
# Elastic Compliance Matrix: (Units=1/GPa)
#
#
# Indices 1 2 3 4 5 6 
#
# 1 0.013797 -0.004281 -0.003973 0.000000 -0.007671 0.000000
# 2 -0.004281 0.023291 -0.003547 0.000000 -0.004114 0.000000
# 3 -0.003973 -0.003547 0.014691 0.000000 -0.006266 0.000000
# 4 0.000000 0.000000 0.000000 0.062616 0.000000 -0.022175
# 5 -0.007671 -0.004114 -0.006266 0.000000 0.051040 0.000000
# 6 0.000000 0.000000 0.000000 -0.022175 0.000000 0.054751
#
#
# Mechanical properties :
#
#
# Convention : Reuss Voigt Hill
#
# Bulk Modulus (GPa) = 35.49034 53.07779 44.28407
# Shear Modulus (GPa) = 19.74884 23.70305 21.72594
#
# Velocity S-wave (km/s) = 3.12578 3.42444 3.27851
# Velocity P-wave (km/s) = 5.53043 6.47266 6.02001
#
# Compressibility (1/GPa) = 0.02817668
#
# Stress axis : x y z
#
# Youngs Moduli (GPa) = 72.48193 42.93534 68.06953
#
# Poissons Ratio (x) = 0.18380 0.27044
# Poissons Ratio (y) = 0.31029 0.24143
# Poissons Ratio (z) = 0.28797 0.15228
#
# Static dielectric constant tensor:
#      x y z
#    x 3.957610 0.000000 0.270010 
#    y 0.000000 3.552490 0.000000 
#    z 0.270010 0.000000 3.649930 
# 
# 
# High freq. dielectric constant tensor:
#      x y z
#    x 1.785930 0.000000 0.020050 
#    y 0.000000 1.783870 0.000000 
#    z 0.020050 0.000000 1.767630 
# 
# From -- ./inp_files/226831.got.cif
#   From: 2010.06.25/outbox.cif.g09.slc.cpg/sg12_114_cif.got.tgz:226831.got - 2010.06.28 00:19:55.
