data_PCOD8088707
_publ_section_title
;
Structure prediction by ZEFSAII (Michael W. Deem and Ramdas Pophale) SiO2 
 PCOD8088707
Probable space group: C 2/M
;
_chemical_formula_sum "Si O2"
_cell_formula_units_Z 48
_cell_length_a 25.214933
_cell_length_b 8.677251
_cell_length_c 24.207988
_cell_angle_alpha 90.000000
_cell_angle_beta 29.443382
_cell_angle_gamma 90.000000
_cell_volume 2603.622942
_symmetry_space_group_name_H-M "C 2/M"
_symmetry_group_IT_number 12
_symmetry_cell_setting 'monoclinic'
loop_
_space_group_symop_operation_xyz
x,y,z
-x,y,-z
-x,-y,-z
x,-y,z
1/2+x,1/2+y,z
1/2-x,1/2+y,-z
1/2-x,1/2-y,-z
1/2+x,1/2-y,z
loop_
_atom_site_type_symbol
_atom_site_label
_atom_site_fract_x
_atom_site_fract_y
_atom_site_fract_z
Si Si1 0.653852 0.682782 0.231160
Si Si2 0.545262 0.682193 0.765871
Si Si3 0.935215 0.817045 0.376168
Si Si4 0.246332 0.816863 0.375747
Si Si5 0.814653 0.317609 0.992542
Si Si6 0.120697 0.816771 0.382643
O O1 0.644272 0.500000 0.239909
O O2 0.543810 0.751408 0.304969
O O3 0.667649 0.742859 0.281450
O O4 0.755420 0.736110 0.102558
O O5 0.533087 0.500000 0.777841
O O6 0.572737 0.742948 0.679375
O O7 0.638529 0.736462 0.722409
O O8 0.434815 0.754983 0.887096
O O9 0.831848 0.758765 0.504133
O O10 0.939835 0.000000 0.373725
O O11 0.197516 0.757994 0.362019
O O12 0.260619 0.000000 0.363938
O O13 0.815337 0.500000 0.986002
O O14 0.750000 0.250000 0.000000
O O15 0.000000 0.750729 0.500000
O O16 0.115664 0.000000 0.389078
#
# Coordination Sequence:
#
# PCOD8088707 Si02
#       6
#     8   8   8   8   8   8
#     4   9  16  29  51  81 108 131 166 217 266 307
#     4  11  22  36  52  74 110 149 179 212 261 312
#     4   9  16  29  51  79 109 135 166 215 267 313
#     4  10  19  32  54  83 109 135 174 218 265 318
#     4  11  21  35  56  79 107 139 177 219 260 310
#     4   9  15  27  52  82 107 132 167 215 266 313
#
# _framework density 18.435849000000001
#
# number of rings (size 3 to 8) (size 9 to 14) (size 15 to 20)
#    0.000    2.167    3.333    1.500    0.000    0.000 
#    0.000    1.667    0.000    7.500    0.000    0.000 
#    0.000    0.000    0.000    0.000    0.000    0.000 
#
# Total GULP energy -297579.606690 kJ/mol
# GULP energy per Si atom -12399.150279 kJ/mol
# Density = 1.839389 g / cm^3
# Si number density = 18.435849 Si / 1000 Ang^3
#
#
#
# Elastic Constant Matrix: (Units=GPa)
#
#
# Indices 1 2 3 4 5 6 
#
# 1 154.3649 22.1889 92.2943 -0.0090 0.4792 0.0050
# 2 22.1889 34.2974 32.2112 -0.0075 -0.0107 0.0020
# 3 92.2943 32.2112 167.6162 -0.0061 -2.2553 0.0036
# 4 -0.0090 -0.0075 -0.0061 21.9669 0.0056 -3.7961
# 5 0.4792 -0.0107 -2.2553 0.0056 38.2211 -0.0009
# 6 0.0050 0.0020 0.0036 -3.7961 -0.0009 21.4638
#
#
#
# Elastic Compliance Matrix: (Units=1/GPa)
#
#
# Indices 1 2 3 4 5 6 
#
# 1 0.009731 -0.001535 -0.005069 0.000002 -0.000422 -0.000001
# 2 -0.001535 0.035826 -0.006044 0.000010 -0.000327 0.000000
# 3 -0.005069 -0.006044 0.009927 -0.000002 0.000648 0.000000
# 4 0.000002 0.000010 -0.000002 0.046958 -0.000007 0.008305
# 5 -0.000422 -0.000327 0.000648 -0.000007 0.026207 0.000000
# 6 -0.000001 0.000000 0.000000 0.008305 0.000000 0.048059
#
#
# Mechanical properties :
#
#
# Convention : Reuss Voigt Hill
#
# Bulk Modulus (GPa) = 33.12516 72.18525 52.65521
# Shear Modulus (GPa) = 23.57754 30.30263 26.94008
#
# Velocity S-wave (km/s) = 3.58005 4.05863 3.82683
# Velocity P-wave (km/s) = 5.92417 7.82324 6.93898
#
# Compressibility (1/GPa) = 0.03018853
#
# Stress axis : x y z
#
# Youngs Moduli (GPa) = 102.76797 27.91266 100.73399
#
# Poissons Ratio (x) = 0.04285 0.51059
# Poissons Ratio (y) = 0.15776 0.60883
# Poissons Ratio (z) = 0.52089 0.16870
#
# Static dielectric constant tensor:
#      x y z
#    x 3.590100 -0.000010 0.166820 
#    y -0.000010 2.940810 0.000010 
#    z 0.166820 0.000010 3.595250 
# 
# 
# High freq. dielectric constant tensor:
#      x y z
#    x 1.719540 0.000000 0.002450 
#    y 0.000000 1.669130 0.000000 
#    z 0.002450 0.000000 1.720930 
# 
# From -- ./inp_files/172056.got.cif
#   From: 2010.06.25/outbox.cif.g09.slc.cpg/sg12_87_cif.got.tgz:172056.got - 2010.06.28 00:19:55.
