data_PCOD8088154
_publ_section_title
;
Structure prediction by ZEFSAII (Michael W. Deem and Ramdas Pophale) SiO2 
 PCOD8088154
Probable space group: C 2/M
;
_chemical_formula_sum "Si O2"
_cell_formula_units_Z 64
_cell_length_a 22.386992
_cell_length_b 15.433997
_cell_length_c 12.120626
_cell_angle_alpha 90.000000
_cell_angle_beta 49.155213
_cell_angle_gamma 90.000000
_cell_volume 3168.100766
_symmetry_space_group_name_H-M "C 2/M"
_symmetry_group_IT_number 12
_symmetry_cell_setting 'monoclinic'
loop_
_space_group_symop_operation_xyz
x,y,z
-x,y,-z
-x,-y,-z
x,-y,z
1/2+x,1/2+y,z
1/2-x,1/2+y,-z
1/2-x,1/2-y,-z
1/2+x,1/2-y,z
loop_
_atom_site_type_symbol
_atom_site_label
_atom_site_fract_x
_atom_site_fract_y
_atom_site_fract_z
Si Si1 0.530821 0.091789 0.184839
Si Si2 0.284417 0.402523 0.914579
Si Si3 0.672377 0.096980 0.859603
Si Si4 0.750956 0.399237 0.802115
Si Si5 0.869300 0.224753 0.154469
Si Si6 0.449793 0.339727 0.661836
Si Si7 0.582120 0.854831 0.348018
Si Si8 0.491566 0.725935 0.187323
O O1 0.588897 0.102029 0.219693
O O2 0.473186 0.174227 0.245196
O O3 0.483340 0.000000 0.250735
O O4 0.585413 0.085588 0.012406
O O5 0.254554 0.500000 0.962154
O O6 0.233600 0.363549 0.875630
O O7 0.376940 0.401750 0.775084
O O8 0.267422 0.358773 0.053880
O O9 0.664990 0.177351 0.782319
O O10 0.697970 0.000000 0.782011
O O11 0.726401 0.500000 0.820719
O O12 0.701074 0.344139 0.774145
O O13 0.844460 0.386947 0.666415
O O14 0.918731 0.193738 0.201561
O O15 0.925706 0.222147 0.978525
O O16 0.500000 0.379999 0.500000
O O17 0.414488 0.248337 0.665933
O O18 0.503089 0.331385 0.708213
O O19 0.500000 0.886425 0.500000
#
# Coordination Sequence:
#
# PCOD8088154 Si02
#       8
#     8   8   8   8   8   8   8   8
#     4   9  16  28  47  73 105 137 170 219 274 321
#     4  10  19  32  52  80 108 136 182 234 276 322
#     4   9  17  29  50  79 106 135 175 223 278 329
#     4  11  21  33  53  81 111 146 184 225 274 324
#     4  10  19  33  53  76 112 148 176 225 270 318
#     4  10  20  35  55  78 106 143 184 227 277 325
#     4  10  20  32  52  81 110 140 176 221 277 338
#     4   9  19  33  50  77 107 142 186 220 263 323
#
# _framework density 20.201376
#
# number of rings (size 3 to 8) (size 9 to 14) (size 15 to 20)
#    0.000    2.250    2.500    1.125    0.000    2.750 
#    0.000    4.375    0.000   12.000    0.000    5.250 
#    0.000    0.000    0.000    0.000    0.000    0.000 
#
# Total GULP energy -396552.529187 kJ/mol
# GULP energy per Si atom -12392.266537 kJ/mol
# Density = 2.015540 g / cm^3
# Si number density = 20.201376 Si / 1000 Ang^3
#
#
#
# Elastic Constant Matrix: (Units=GPa)
#
#
# Indices 1 2 3 4 5 6 
#
# 1 125.7194 31.9583 31.9699 0.0000 -5.8857 0.0000
# 2 31.9583 58.5291 10.3357 0.0000 -6.7411 0.0000
# 3 31.9699 10.3357 54.6235 0.0000 -9.2087 0.0000
# 4 0.0000 0.0000 0.0000 10.5180 0.0000 -9.2365
# 5 -5.8857 -6.7411 -9.2087 0.0000 24.0547 0.0000
# 6 0.0000 0.0000 0.0000 -9.2365 0.0000 14.0051
#
#
#
# Elastic Compliance Matrix: (Units=1/GPa)
#
#
# Indices 1 2 3 4 5 6 
#
# 1 0.010527 -0.004897 -0.005379 0.000000 -0.000856 0.000000
# 2 -0.004897 0.020308 -0.000234 0.000000 0.004403 0.000000
# 3 -0.005379 -0.000234 0.022734 0.000000 0.007321 0.000000
# 4 0.000000 0.000000 0.000000 0.225917 0.000000 0.148994
# 5 -0.000856 0.004403 0.007321 0.000000 0.045399 0.000000
# 6 0.000000 0.000000 0.000000 0.148994 0.000000 0.169665
#
#
# Mechanical properties :
#
#
# Convention : Reuss Voigt Hill
#
# Bulk Modulus (GPa) = 30.72316 43.04444 36.88380
# Shear Modulus (GPa) = 9.49815 20.68943 15.09379
#
# Velocity S-wave (km/s) = 2.17070 3.20372 2.73640
# Velocity P-wave (km/s) = 4.63940 5.91938 5.31804
#
# Compressibility (1/GPa) = 0.03254874
#
# Stress axis : x y z
#
# Youngs Moduli (GPa) = 94.99673 49.24245 43.98736
#
# Poissons Ratio (x) = 0.24112 0.23660
# Poissons Ratio (y) = 0.46515 0.01031
# Poissons Ratio (z) = 0.51097 0.01154
#
# Static dielectric constant tensor:
#      x y z
#    x 3.554910 0.000000 0.056040 
#    y 0.000000 3.675120 0.000000 
#    z 0.056040 0.000000 3.316150 
# 
# 
# High freq. dielectric constant tensor:
#      x y z
#    x 1.779570 0.000000 -0.003830 
#    y 0.000000 1.783930 0.000000 
#    z -0.003830 0.000000 1.740170 
# 
# From -- ./inp_files/168775.got.cif
#   From: 2010.06.25/outbox.cif.g09.slc.cpg/sg12_85_cif.got.tgz:168775.got - 2010.06.28 00:19:55.
